data_PCOD9448842
_publ_section_title
;
Structure prediction by ZEFSAII (Michael W. Deem and Ramdas Pophale) SiO2 
 PCOD9448842
Probable space group: P M M N
;
_chemical_formula_sum "Si O2"
_cell_formula_units_Z 56
_cell_length_a 23.261031
_cell_length_b 9.147691
_cell_length_c 14.773146
_cell_angle_alpha 90.000000
_cell_angle_beta 90.000000
_cell_angle_gamma 90.000000
_cell_volume 3143.499793
_symmetry_space_group_name_H-M "P M M N"
_symmetry_group_IT_number 59
_space_group.IT_coordinate_system_code '2'
_symmetry_cell_setting 'orthorhombic'
loop_
_space_group_symop_operation_xyz
x,y,z
1/2-x,1/2-y,z
1/2+x,-y,-z
-x,1/2+y,-z
-x,-y,-z
1/2+x,1/2+y,-z
1/2-x,y,z
x,1/2-y,z
loop_
_atom_site_type_symbol
_atom_site_label
_atom_site_fract_x
_atom_site_fract_y
_atom_site_fract_z
Si Si1 0.075467 0.077218 0.587722
Si Si2 0.401692 0.579632 0.216663
Si Si3 0.514985 0.919402 0.093439
Si Si4 0.630048 0.424992 0.129431
Si Si5 0.184251 0.925521 0.679054
Si Si6 0.815665 0.428232 0.937623
Si Si7 0.957063 0.578142 0.621913
O O1 0.075546 0.250000 0.607972
O O2 0.066940 0.057599 0.479729
O O3 0.134036 0.004278 0.622906
O O4 0.018433 0.003310 0.629717
O O5 0.390804 0.750000 0.239715
O O6 0.459840 0.573843 0.157700
O O7 0.352111 0.524905 0.149265
O O8 0.413042 0.487380 0.305897
O O9 0.527801 0.750000 0.074786
O O10 0.569348 0.995820 0.139340
O O11 0.500000 0.000000 0.000000
O O12 0.620911 0.250000 0.125526
O O13 0.670758 0.454398 0.214884
O O14 0.656557 0.472196 0.033224
O O15 0.250000 0.969130 0.657518
O O16 0.179725 0.750000 0.665876
O O17 0.750000 0.475585 0.932898
O O18 0.817011 0.250000 0.937426
O O19 0.966084 0.750000 0.636857
#
# Coordination Sequence:
#
# PCOD9448842 Si02
#       7
#     8   8   8   8   8   8   8
#     4  10  21  38  59  83 111 143 179 224 279 335
#     4  10  20  34  53  80 109 139 179 223 269 322
#     4  11  21  33  50  77 109 142 178 222 272 321
#     4  10  19  34  54  79 109 143 182 223 268 320
#     4  10  21  36  57  86 116 148 187 229 273 325
#     4   9  17  32  53  74 101 140 182 219 257 308
#     4  10  21  37  59  84 108 140 179 225 282 334
#
# _framework density 17.814539
#
# number of rings (size 3 to 8) (size 9 to 14) (size 15 to 20)
#    0.000    2.000    1.429    2.571    0.000    7.714 
#    0.000    0.714    0.000    5.143    0.000    0.000 
#    0.000    0.000    0.000    0.000    0.000    0.000 
#
# Total GULP energy -312636.832951 kJ/mol
# GULP energy per Si atom -5582.800588 kJ/mol
# Density = 1.777399 g / cm^3
# Si number density = 17.814539 Si / 1000 Ang^3
#
#
#
# Elastic Constant Matrix: (Units=GPa)
#
#
# Indices 1 2 3 4 5 6 
#
# 1 104.5915 37.9967 25.2224 0.0000 0.0000 0.0000
# 2 37.9967 51.5653 43.1051 0.0000 0.0000 0.0000
# 3 25.2224 43.1051 62.5280 0.0000 0.0000 0.0000
# 4 0.0000 0.0000 0.0000 25.5266 0.0000 0.0000
# 5 0.0000 0.0000 0.0000 0.0000 25.6989 0.0000
# 6 0.0000 0.0000 0.0000 0.0000 0.0000 23.5102
#
#
#
# Elastic Compliance Matrix: (Units=1/GPa)
#
#
# Indices 1 2 3 4 5 6 
#
# 1 0.013337 -0.012580 0.003292 0.000000 0.000000 0.000000
# 2 -0.012580 0.057633 -0.034656 0.000000 0.000000 0.000000
# 3 0.003292 -0.034656 0.038556 0.000000 0.000000 0.000000
# 4 0.000000 0.000000 0.000000 0.039175 0.000000 0.000000
# 5 0.000000 0.000000 0.000000 0.000000 0.038912 0.000000
# 6 0.000000 0.000000 0.000000 0.000000 0.000000 0.042535
#
#
# Mechanical properties :
#
#
# Convention : Reuss Voigt Hill
#
# Bulk Modulus (GPa) = 46.21400 47.92590 47.06995
# Shear Modulus (GPa) = 15.37292 22.43783 18.90538
#
# Velocity S-wave (km/s) = 2.94078 3.55283 3.26119
# Velocity P-wave (km/s) = 6.12609 6.61749 6.37652
#
# Compressibility (1/GPa) = 0.02163846
#
# Stress axis : x y z
#
# Youngs Moduli (GPa) = 74.97854 17.35128 25.93651
#
# Poissons Ratio (x) = 0.21828 -0.08539
# Poissons Ratio (y) = 0.94322 0.89886
# Poissons Ratio (z) = -0.24685 0.60133
#
# Static dielectric constant tensor:
#      x y z
#    x 1.590470 0.000000 0.000000 
#    y 0.000000 1.601720 0.000000 
#    z 0.000000 0.000000 1.613470 
# 
# From -- ./inp_files/24224.got.cif
#   From: 2010.05.17/outbox.cif.g08.bks.cpg/sg59_13_cif.got.tgz:24224.got - 2010.06.03 14:40:33.
