data_PCOD9448168
_publ_section_title
;
Structure prediction by ZEFSAII (Michael W. Deem and Ramdas Pophale) SiO2 
 PCOD9448168
Probable space group: P M M N
;
_chemical_formula_sum "Si O2"
_cell_formula_units_Z 64
_cell_length_a 25.098275
_cell_length_b 8.375754
_cell_length_c 16.684923
_cell_angle_alpha 90.000000
_cell_angle_beta 90.000000
_cell_angle_gamma 90.000000
_cell_volume 3507.454078
_symmetry_space_group_name_H-M "P M M N"
_symmetry_group_IT_number 59
_space_group.IT_coordinate_system_code '2'
_symmetry_cell_setting 'orthorhombic'
loop_
_space_group_symop_operation_xyz
x,y,z
1/2-x,1/2-y,z
1/2+x,-y,-z
-x,1/2+y,-z
-x,-y,-z
1/2+x,1/2+y,-z
1/2-x,y,z
x,1/2-y,z
loop_
_atom_site_type_symbol
_atom_site_label
_atom_site_fract_x
_atom_site_fract_y
_atom_site_fract_z
Si Si1 0.085712 0.060581 0.206798
Si Si2 0.309243 0.557927 0.290954
Si Si3 0.526246 0.055870 0.267970
Si Si4 0.189789 0.554868 0.476131
Si Si5 0.113178 0.937374 0.611905
Si Si6 0.397892 0.061045 0.875273
Si Si7 0.943483 0.437022 0.967718
Si Si8 0.188210 0.439705 0.747835
O O1 0.087254 0.250000 0.214891
O O2 0.034744 0.002264 0.258865
O O3 0.141692 0.994674 0.237138
O O4 0.073560 0.018519 0.114755
O O5 0.250000 0.502430 0.265434
O O6 0.308197 0.750000 0.291381
O O7 0.317139 0.507020 0.383651
O O8 0.527767 0.250000 0.267608
O O9 0.559159 0.998344 0.346306
O O10 0.558124 0.997921 0.189123
O O11 0.250000 0.506426 0.502246
O O12 0.189331 0.750000 0.479155
O O13 0.142107 0.495188 0.532916
O O14 0.103778 0.750000 0.597131
O O15 0.157329 0.960670 0.680996
O O16 0.405481 0.250000 0.887793
O O17 0.341761 0.033623 0.831553
O O18 0.403815 0.973335 0.959192
O O19 0.947735 0.250000 0.952876
O O20 0.000000 0.500000 0.000000
O O21 0.250000 0.478518 0.750562
O O22 0.182067 0.250000 0.729084
#
# Coordination Sequence:
#
# PCOD9448168 Si02
#       8
#     8   8   8   8   8   8   8   8
#     4  11  22  36  55  79 107 139 174 215 266 321
#     4   9  19  37  58  78 102 135 177 225 272 316
#     4   9  18  31  48  73 107 140 170 212 262 312
#     4   8  14  27  50  77 102 132 176 226 269 310
#     4   9  16  28  49  76 103 135 178 221 259 305
#     4  10  19  32  51  74 102 138 176 214 257 307
#     4  12  23  36  56  81 106 133 171 217 261 309
#     4   9  18  31  46  69 105 143 174 208 255 308
#
# _framework density 18.246853000000002
#
# number of rings (size 3 to 8) (size 9 to 14) (size 15 to 20)
#    0.000    2.375    1.250    3.000    0.000    2.000 
#    0.000    1.875    0.000    3.000    0.000    0.000 
#    0.000    0.000    0.000    0.000    0.000    0.000 
#
# Total GULP energy -356807.675905 kJ/mol
# GULP energy per Si atom -5575.119936 kJ/mol
# Density = 1.820532 g / cm^3
# Si number density = 18.246853 Si / 1000 Ang^3
#
#
#
# Elastic Constant Matrix: (Units=GPa)
#
#
# Indices 1 2 3 4 5 6 
#
# 1 127.0042 12.8188 60.4788 0.0000 0.0000 0.0000
# 2 12.8188 9.5963 0.3801 0.0000 0.0000 0.0000
# 3 60.4788 0.3801 80.2756 0.0000 0.0000 0.0000
# 4 0.0000 0.0000 0.0000 13.3625 0.0000 0.0000
# 5 0.0000 0.0000 0.0000 0.0000 27.7896 0.0000
# 6 0.0000 0.0000 0.0000 0.0000 0.0000 19.5343
#
#
#
# Elastic Compliance Matrix: (Units=1/GPa)
#
#
# Indices 1 2 3 4 5 6 
#
# 1 0.015368 -0.020074 -0.011483 0.000000 0.000000 0.000000
# 2 -0.020074 0.130447 0.014506 0.000000 0.000000 0.000000
# 3 -0.011483 0.014506 0.021040 0.000000 0.000000 0.000000
# 4 0.000000 0.000000 0.000000 0.074837 0.000000 0.000000
# 5 0.000000 0.000000 0.000000 0.000000 0.035985 0.000000
# 6 0.000000 0.000000 0.000000 0.000000 0.000000 0.051192
#
#
# Mechanical properties :
#
#
# Convention : Reuss Voigt Hill
#
# Bulk Modulus (GPa) = 7.53280 40.47016 24.00148
# Shear Modulus (GPa) = 12.27833 21.68384 16.98108
#
# Velocity S-wave (km/s) = 2.59685 3.45100 3.05393
# Velocity P-wave (km/s) = 3.62336 6.17305 5.06139
#
# Compressibility (1/GPa) = 0.13275272
#
# Stress axis : x y z
#
# Youngs Moduli (GPa) = 65.07014 7.66593 47.52932
#
# Poissons Ratio (x) = 0.15388 0.54578
# Poissons Ratio (y) = 1.30621 -0.68945
# Poissons Ratio (z) = 0.74721 -0.11120
#
# Static dielectric constant tensor:
#      x y z
#    x 1.642610 0.000000 0.000000 
#    y 0.000000 1.632160 0.000000 
#    z 0.000000 0.000000 1.599820 
# 
# From -- ./inp_files/28417.got.cif
#   From: 2010.05.17/outbox.cif.g08.bks.cpg/sg59_15_cif.got.tgz:28417.got - 2010.06.03 14:40:33.
