data_PCOD9448573
_publ_section_title
;
Structure prediction by ZEFSAII (Michael W. Deem and Ramdas Pophale) SiO2 
 PCOD9448573
Probable space group: P M M N
;
_chemical_formula_sum "Si O2"
_cell_formula_units_Z 48
_cell_length_a 15.495510
_cell_length_b 22.787232
_cell_length_c 6.391131
_cell_angle_alpha 90.000000
_cell_angle_beta 90.000000
_cell_angle_gamma 90.000000
_cell_volume 2256.706959
_symmetry_space_group_name_H-M "P M M N"
_symmetry_group_IT_number 59
_space_group.IT_coordinate_system_code '2'
_symmetry_cell_setting 'orthorhombic'
loop_
_space_group_symop_operation_xyz
x,y,z
1/2-x,1/2-y,z
1/2+x,-y,-z
-x,1/2+y,-z
-x,-y,-z
1/2+x,1/2+y,-z
1/2-x,y,z
x,1/2-y,z
loop_
_atom_site_type_symbol
_atom_site_label
_atom_site_fract_x
_atom_site_fract_y
_atom_site_fract_z
Si Si1 0.841869 0.819785 0.475284
Si Si2 0.345864 0.989952 0.574643
Si Si3 0.655239 0.916660 0.782175
Si Si4 0.028750 0.818290 0.501369
Si Si5 0.032246 0.579901 0.850489
Si Si6 0.347608 0.886074 0.232091
O O1 0.750000 0.839264 0.375294
O O2 0.838406 0.750000 0.489662
O O3 0.843296 0.849436 0.704983
O O4 0.937011 0.832531 0.386557
O O5 0.250000 0.989546 0.675574
O O6 0.424207 0.974115 0.726067
O O7 0.345395 0.938445 0.401251
O O8 0.354847 0.048706 0.439022
O O9 0.750000 0.932291 0.868730
O O10 0.568166 0.930007 0.904748
O O11 0.028071 0.750000 0.565081
O O12 0.034940 0.863771 0.693984
O O13 0.107264 0.831849 0.347592
O O14 0.092205 0.593568 0.044731
O O15 0.250000 0.874077 0.163368
#
# Coordination Sequence:
#
# PCOD9448573 Si02
#       6
#     8   8   8   8   8   8
#     4   8  14  28  52  77 100 129 162 197 244 300
#     4   9  18  33  51  73 103 134 167 209 253 300
#     4   9  17  30  50  77 105 132 167 210 252 298
#     4   9  19  35  53  75 102 130 164 208 253 298
#     4  10  19  33  54  75 100 136 171 206 254 307
#     4  10  21  35  50  71 100 134 171 211 254 298
#
# _framework density 21.269931
#
# number of rings (size 3 to 8) (size 9 to 14) (size 15 to 20)
#    0.000    2.833    0.000    1.000    0.000    2.333 
#    0.000    0.833    0.000    7.000    0.000    4.667 
#    0.000    0.000    0.000    0.000    0.000    0.000 
#
# Total GULP energy -267506.108003 kJ/mol
# GULP energy per Si atom -5573.043917 kJ/mol
# Density = 2.122152 g / cm^3
# Si number density = 21.269931 Si / 1000 Ang^3
#
#
#
# Elastic Constant Matrix: (Units=GPa)
#
#
# Indices 1 2 3 4 5 6 
#
# 1 207.7037 15.6348 42.2335 0.0000 0.0000 0.0000
# 2 15.6348 50.2779 6.1983 0.0000 0.0000 0.0000
# 3 42.2335 6.1983 35.0956 0.0000 0.0000 0.0000
# 4 0.0000 0.0000 0.0000 15.0871 0.0000 0.0000
# 5 0.0000 0.0000 0.0000 0.0000 6.0716 0.0000
# 6 0.0000 0.0000 0.0000 0.0000 0.0000 23.9205
#
#
#
# Elastic Compliance Matrix: (Units=1/GPa)
#
#
# Indices 1 2 3 4 5 6 
#
# 1 0.006430 -0.001069 -0.007549 0.000000 0.000000 0.000000
# 2 -0.001069 0.020510 -0.002336 0.000000 0.000000 0.000000
# 3 -0.007549 -0.002336 0.037991 0.000000 0.000000 0.000000
# 4 0.000000 0.000000 0.000000 0.066282 0.000000 0.000000
# 5 0.000000 0.000000 0.000000 0.000000 0.164700 0.000000
# 6 0.000000 0.000000 0.000000 0.000000 0.000000 0.041805
#
#
# Mechanical properties :
#
#
# Convention : Reuss Voigt Hill
#
# Bulk Modulus (GPa) = 23.24357 46.80115 35.02236
# Shear Modulus (GPa) = 13.37019 24.28320 18.82669
#
# Velocity S-wave (km/s) = 2.50990 3.38252 2.97834
# Velocity P-wave (km/s) = 4.39899 6.10790 5.32248
#
# Compressibility (1/GPa) = 0.04302266
#
# Stress axis : x y z
#
# Youngs Moduli (GPa) = 155.52134 48.75709 26.32235
#
# Poissons Ratio (x) = 0.05212 0.19871
# Poissons Ratio (y) = 0.16623 0.06149
# Poissons Ratio (z) = 1.17403 0.11390
#
# Static dielectric constant tensor:
#      x y z
#    x 1.847880 0.000000 0.000000 
#    y 0.000000 1.793230 0.000000 
#    z 0.000000 0.000000 1.735740 
# 
# From -- ./inp_files/2141.got.cif
#   From: 2010.05.17/outbox.cif.g08.bks.cpg/sg59_2_cif.got.tgz:2141.got - 2010.06.03 14:40:33.
