data_PCOD9448445
_publ_section_title
;
Structure prediction by ZEFSAII (Michael W. Deem and Ramdas Pophale) SiO2 
 PCOD9448445
Probable space group: P M M N
;
_chemical_formula_sum "Si O2"
_cell_formula_units_Z 64
_cell_length_a 8.893927
_cell_length_b 22.469298
_cell_length_c 16.782715
_cell_angle_alpha 90.000000
_cell_angle_beta 90.000000
_cell_angle_gamma 90.000000
_cell_volume 3353.862736
_symmetry_space_group_name_H-M "P M M N"
_symmetry_group_IT_number 59
_space_group.IT_coordinate_system_code '2'
_symmetry_cell_setting 'orthorhombic'
loop_
_space_group_symop_operation_xyz
x,y,z
1/2-x,1/2-y,z
1/2+x,-y,-z
-x,1/2+y,-z
-x,-y,-z
1/2+x,1/2+y,-z
1/2-x,y,z
x,1/2-y,z
loop_
_atom_site_type_symbol
_atom_site_label
_atom_site_fract_x
_atom_site_fract_y
_atom_site_fract_z
Si Si1 0.421438 0.684525 0.851955
Si Si2 0.072061 0.920265 0.977905
Si Si3 0.572869 0.445221 0.411203
Si Si4 0.076429 0.492061 0.159793
Si Si5 0.931889 0.319322 0.710870
Si Si6 0.079625 0.379889 0.278258
Si Si7 0.571941 0.608787 0.148917
Si Si8 0.069048 0.928235 0.405606
O O1 0.250000 0.677488 0.822588
O O2 0.440519 0.750000 0.885405
O O3 0.442554 0.636922 0.920797
O O4 0.529825 0.673476 0.778079
O O5 0.250000 0.935768 0.982413
O O6 0.979970 0.969431 0.926843
O O7 0.005968 0.900151 0.062710
O O8 0.750000 0.456031 0.412016
O O9 0.528821 0.393479 0.350817
O O10 0.493735 0.506523 0.383211
O O11 0.526908 0.425993 0.500603
O O12 0.250000 0.512021 0.156520
O O13 0.068835 0.436785 0.219245
O O14 0.971117 0.545373 0.188522
O O15 0.750000 0.321826 0.716607
O O16 0.971791 0.250000 0.692686
O O17 0.978181 0.370173 0.645739
O O18 0.002446 0.340479 0.794903
O O19 0.250000 0.374433 0.306225
O O20 0.750000 0.615769 0.140534
O O21 0.250000 0.930905 0.399113
#
# Coordination Sequence:
#
# PCOD9448445 Si02
#       8
#     8   8   8   8   8   8   8   8
#     4   9  19  36  56  76 100 134 176 219 261 308
#     4  10  20  35  55  79 107 140 180 226 275 324
#     4  10  19  32  55  86 115 141 173 216 267 322
#     4  10  20  35  54  78 110 145 180 221 271 322
#     4  10  22  41  61  78 102 141 187 230 271 319
#     4  10  20  33  52  79 110 142 174 211 258 313
#     4  12  24  36  53  79 109 140 177 222 271 323
#     4   9  19  36  57  82 110 140 176 220 270 321
#
# _framework density 19.082474000000001
#
# number of rings (size 3 to 8) (size 9 to 14) (size 15 to 20)
#    0.000    2.000    0.000    3.750    0.000    7.000 
#    0.000    1.875    0.000    2.250    0.000    0.000 
#    0.000    0.000    0.000    0.000    0.000    0.000 
#
# Total GULP energy -356999.675644 kJ/mol
# GULP energy per Si atom -5578.119932 kJ/mol
# Density = 1.903904 g / cm^3
# Si number density = 19.082474 Si / 1000 Ang^3
#
#
#
# Elastic Constant Matrix: (Units=GPa)
#
#
# Indices 1 2 3 4 5 6 
#
# 1 43.8656 21.5393 25.4966 0.0000 0.0000 0.0000
# 2 21.5393 80.2593 23.2695 0.0000 0.0000 0.0000
# 3 25.4966 23.2695 79.0780 0.0000 0.0000 0.0000
# 4 0.0000 0.0000 0.0000 22.5101 0.0000 0.0000
# 5 0.0000 0.0000 0.0000 0.0000 24.1136 0.0000
# 6 0.0000 0.0000 0.0000 0.0000 0.0000 24.8659
#
#
#
# Elastic Compliance Matrix: (Units=1/GPa)
#
#
# Indices 1 2 3 4 5 6 
#
# 1 0.030339 -0.005801 -0.008075 0.000000 0.000000 0.000000
# 2 -0.005801 0.014731 -0.002464 0.000000 0.000000 0.000000
# 3 -0.008075 -0.002464 0.015974 0.000000 0.000000 0.000000
# 4 0.000000 0.000000 0.000000 0.044424 0.000000 0.000000
# 5 0.000000 0.000000 0.000000 0.000000 0.041470 0.000000
# 6 0.000000 0.000000 0.000000 0.000000 0.000000 0.040216
#
#
# Mechanical properties :
#
#
# Convention : Reuss Voigt Hill
#
# Bulk Modulus (GPa) = 35.25630 38.20151 36.72891
# Shear Modulus (GPa) = 21.80647 23.15776 22.48212
#
# Velocity S-wave (km/s) = 3.38412 3.48740 3.43615
# Velocity P-wave (km/s) = 5.81254 6.02317 5.91879
#
# Compressibility (1/GPa) = 0.02836372
#
# Stress axis : x y z
#
# Youngs Moduli (GPa) = 32.96106 67.88446 62.59996
#
# Poissons Ratio (x) = 0.39379 0.50549
# Poissons Ratio (y) = 0.19120 0.15427
# Poissons Ratio (z) = 0.26616 0.16729
#
# Static dielectric constant tensor:
#      x y z
#    x 1.654830 0.000000 0.000000 
#    y 0.000000 1.685850 0.000000 
#    z 0.000000 0.000000 1.685200 
# 
# From -- ./inp_files/21475.got.cif
#   From: 2010.05.17/outbox.cif.g08.bks.cpg/sg59_11_cif.got.tgz:21475.got - 2010.06.03 14:40:33.
