data_PCOD9448681
_publ_section_title
;
Structure prediction by ZEFSAII (Michael W. Deem and Ramdas Pophale) SiO2 
 PCOD9448681
Probable space group: P M M N
;
_chemical_formula_sum "Si O2"
_cell_formula_units_Z 64
_cell_length_a 9.068601
_cell_length_b 19.586419
_cell_length_c 19.574204
_cell_angle_alpha 90.000000
_cell_angle_beta 90.000000
_cell_angle_gamma 90.000000
_cell_volume 3476.797889
_symmetry_space_group_name_H-M "P M M N"
_symmetry_group_IT_number 59
_space_group.IT_coordinate_system_code '2'
_symmetry_cell_setting 'orthorhombic'
loop_
_space_group_symop_operation_xyz
x,y,z
1/2-x,1/2-y,z
1/2+x,-y,-z
-x,1/2+y,-z
-x,-y,-z
1/2+x,1/2+y,-z
1/2-x,y,z
x,1/2-y,z
loop_
_atom_site_type_symbol
_atom_site_label
_atom_site_fract_x
_atom_site_fract_y
_atom_site_fract_z
Si Si1 0.927968 0.953794 0.713666
Si Si2 0.919311 0.168027 0.669084
Si Si3 0.424426 0.574131 0.079120
Si Si4 0.576008 0.169206 0.511270
Si Si5 0.075422 0.417532 0.782217
Si Si6 0.925867 0.588340 0.937910
Si Si7 0.570802 0.827887 0.803445
Si Si8 0.574771 0.548114 0.556260
O O1 0.750000 0.960206 0.720235
O O2 0.969995 0.878978 0.741909
O O3 0.967780 0.965941 0.634680
O O4 0.004827 0.010499 0.759754
O O5 0.750000 0.145432 0.682522
O O6 0.922544 0.250000 0.673557
O O7 0.954209 0.150236 0.590476
O O8 0.026569 0.134354 0.723064
O O9 0.250000 0.585573 0.083210
O O10 0.505608 0.602911 0.145392
O O11 0.449917 0.491816 0.078937
O O12 0.489652 0.601994 0.008298
O O13 0.750000 0.155678 0.499385
O O14 0.552110 0.250000 0.503778
O O15 0.476397 0.124231 0.462557
O O16 0.250000 0.422759 0.787580
O O17 0.750000 0.597100 0.947957
O O18 0.972943 0.635591 0.874563
O O19 0.750000 0.825776 0.804111
O O20 0.517750 0.750000 0.797477
O O21 0.500000 0.500000 0.500000
O O22 0.750000 0.540776 0.551281
#
# Coordination Sequence:
#
# PCOD9448681 Si02
#       8
#     8   8   8   8   8   8   8   8
#     4  10  21  38  56  79 110 148 191 231 277 336
#     4   9  19  37  59  80 105 142 183 223 277 342
#     4  10  19  33  55  79 108 145 181 221 268 323
#     4   9  19  37  59  80 106 143 184 226 279 344
#     4  12  23  34  54  84 114 145 183 230 279 328
#     4   9  17  32  54  81 107 136 179 227 273 321
#     4   9  17  33  58  83 109 143 184 232 283 330
#     4  11  23  36  55  81 113 148 187 237 286 337
#
# _framework density 18.407741999999999
#
# number of rings (size 3 to 8) (size 9 to 14) (size 15 to 20)
#    0.000    2.125    1.250    3.375    0.000    6.000 
#    0.000    3.125    0.000    3.750    0.000    0.000 
#    0.000    0.000    0.000    0.000    0.000    0.000 
#
# Total GULP energy -357289.545454 kJ/mol
# GULP energy per Si atom -5582.649148 kJ/mol
# Density = 1.836585 g / cm^3
# Si number density = 18.407742 Si / 1000 Ang^3
#
#
#
# Elastic Constant Matrix: (Units=GPa)
#
#
# Indices 1 2 3 4 5 6 
#
# 1 30.8041 6.0673 37.8439 0.0000 0.0000 0.0000
# 2 6.0673 43.5656 20.7851 0.0000 0.0000 0.0000
# 3 37.8439 20.7851 104.5587 0.0000 0.0000 0.0000
# 4 0.0000 0.0000 0.0000 27.3164 0.0000 0.0000
# 5 0.0000 0.0000 0.0000 0.0000 27.3276 0.0000
# 6 0.0000 0.0000 0.0000 0.0000 0.0000 22.9630
#
#
#
# Elastic Compliance Matrix: (Units=1/GPa)
#
#
# Indices 1 2 3 4 5 6 
#
# 1 0.058640 0.002165 -0.021654 0.000000 0.000000 0.000000
# 2 0.002165 0.025439 -0.005840 0.000000 0.000000 0.000000
# 3 -0.021654 -0.005840 0.018563 0.000000 0.000000 0.000000
# 4 0.000000 0.000000 0.000000 0.036608 0.000000 0.000000
# 5 0.000000 0.000000 0.000000 0.000000 0.036593 0.000000
# 6 0.000000 0.000000 0.000000 0.000000 0.000000 0.043548
#
#
# Mechanical properties :
#
#
# Convention : Reuss Voigt Hill
#
# Bulk Modulus (GPa) = 19.23776 34.25787 26.74781
# Shear Modulus (GPa) = 17.39865 23.13688 20.26776
#
# Velocity S-wave (km/s) = 3.07771 3.54914 3.32180
# Velocity P-wave (km/s) = 4.80660 5.95367 5.41062
#
# Compressibility (1/GPa) = 0.05198110
#
# Stress axis : x y z
#
# Youngs Moduli (GPa) = 17.05315 39.30989 53.87176
#
# Poissons Ratio (x) = -0.08509 1.16656
# Poissons Ratio (y) = -0.03691 0.31463
# Poissons Ratio (z) = 0.36928 0.22959
#
# Static dielectric constant tensor:
#      x y z
#    x 1.600860 0.000000 0.000000 
#    y 0.000000 1.644750 0.000000 
#    z 0.000000 0.000000 1.630800 
# 
# From -- ./inp_files/26295.got.cif
#   From: 2010.05.17/outbox.cif.g08.bks.cpg/sg59_14_cif.got.tgz:26295.got - 2010.06.03 14:40:33.
