data_PCOD9448026
_publ_section_title
;
Structure prediction by ZEFSAII (Michael W. Deem and Ramdas Pophale) SiO2 
 PCOD9448026
Probable space group: P M M N
;
_chemical_formula_sum "Si O2"
_cell_formula_units_Z 64
_cell_length_a 8.780102
_cell_length_b 30.172196
_cell_length_c 12.874317
_cell_angle_alpha 90.000000
_cell_angle_beta 90.000000
_cell_angle_gamma 90.000000
_cell_volume 3410.599153
_symmetry_space_group_name_H-M "P M M N"
_symmetry_group_IT_number 59
_space_group.IT_coordinate_system_code '2'
_symmetry_cell_setting 'orthorhombic'
loop_
_space_group_symop_operation_xyz
x,y,z
1/2-x,1/2-y,z
1/2+x,-y,-z
-x,1/2+y,-z
-x,-y,-z
1/2+x,1/2+y,-z
1/2-x,y,z
x,1/2-y,z
loop_
_atom_site_type_symbol
_atom_site_label
_atom_site_fract_x
_atom_site_fract_y
_atom_site_fract_z
Si Si1 0.933019 0.298557 0.376453
Si Si2 0.428335 0.423125 0.087007
Si Si3 0.935577 0.392267 0.453671
Si Si4 0.432171 0.963993 0.717091
Si Si5 0.066061 0.942498 0.337965
Si Si6 0.571631 0.678194 0.841626
Si Si7 0.933694 0.798598 0.074446
Si Si8 0.068040 0.892317 0.126321
O O1 0.750000 0.298339 0.384799
O O2 0.989478 0.250000 0.410270
O O3 0.989903 0.341929 0.437550
O O4 0.976961 0.305885 0.256314
O O5 0.250000 0.432965 0.076693
O O6 0.504985 0.456847 0.166900
O O7 0.444611 0.374395 0.139175
O O8 0.501067 0.417949 0.973507
O O9 0.750000 0.391307 0.454129
O O10 0.981161 0.423100 0.356688
O O11 0.983590 0.415318 0.560488
O O12 0.250000 0.964623 0.720114
O O13 0.494019 0.009082 0.668009
O O14 0.250000 0.946760 0.341420
O O15 0.025389 0.916354 0.233017
O O16 0.750000 0.687969 0.822946
O O17 0.527327 0.699336 0.951774
O O18 0.750000 0.802937 0.080616
O O19 0.977289 0.750000 0.115687
O O20 0.007474 0.841879 0.124504
O O21 0.250000 0.891664 0.117340
#
# Coordination Sequence:
#
# PCOD9448026 Si02
#       8
#     8   8   8   8   8   8   8   8
#     4  10  19  31  51  79 110 143 176 214 266 322
#     4  10  20  35  56  81 113 149 179 215 275 337
#     4   9  19  37  57  80 112 144 180 226 273 323
#     4  11  21  35  60  88 111 137 178 232 281 331
#     4  10  22  40  58  77 108 148 187 229 277 330
#     4   9  17  30  49  75 108 142 173 210 260 321
#     4   9  18  33  53  77 108 147 186 226 277 332
#     4  10  21  36  55  80 111 146 187 233 274 320
#
# _framework density 18.765032000000001
#
# number of rings (size 3 to 8) (size 9 to 14) (size 15 to 20)
#    0.000    2.250    1.250    2.625    0.000    4.500 
#    0.000    1.875    0.000    2.250    0.000    0.000 
#    0.000    0.000    0.000    0.000    0.000    0.000 
#
# Total GULP energy -357182.685593 kJ/mol
# GULP energy per Si atom -5580.979462 kJ/mol
# Density = 1.872232 g / cm^3
# Si number density = 18.765032 Si / 1000 Ang^3
#
#
#
# Elastic Constant Matrix: (Units=GPa)
#
#
# Indices 1 2 3 4 5 6 
#
# 1 20.4421 27.4956 26.1894 0.0000 0.0000 0.0000
# 2 27.4956 96.2442 38.1983 0.0000 0.0000 0.0000
# 3 26.1894 38.1983 86.3633 0.0000 0.0000 0.0000
# 4 0.0000 0.0000 0.0000 -782.3717 0.0000 0.0000
# 5 0.0000 0.0000 0.0000 0.0000 10.1313 0.0000
# 6 0.0000 0.0000 0.0000 0.0000 0.0000 18.7749
#
#
#
# Elastic Compliance Matrix: (Units=1/GPa)
#
#
# Indices 1 2 3 4 5 6 
#
# 1 0.107419 -0.021541 -0.023047 0.000000 0.000000 0.000000
# 2 -0.021541 0.016922 -0.000952 0.000000 0.000000 0.000000
# 3 -0.023047 -0.000952 0.018989 0.000000 0.000000 0.000000
# 4 0.000000 0.000000 0.000000 -0.001278 0.000000 0.000000
# 5 0.000000 0.000000 0.000000 0.000000 0.098704 0.000000
# 6 0.000000 0.000000 0.000000 0.000000 0.000000 0.053263
#
#
# Mechanical properties :
#
#
# Convention : Reuss Voigt Hill
#
# Bulk Modulus (GPa) = 19.13883 42.97958 31.05920
# Shear Modulus (GPa) = 12.42183 -143.28201 -65.43009
#
# Velocity S-wave (km/s) = 2.57566 -8.74766 -5.91133
# Velocity P-wave (km/s) = 4.36655 8.89241 5.47760
#
# Compressibility (1/GPa) = 0.05224980
#
# Stress axis : x y z
#
# Youngs Moduli (GPa) = 9.30930 59.09391 52.66159
#
# Poissons Ratio (x) = 1.27295 1.21369
# Poissons Ratio (y) = 0.20053 0.05015
# Poissons Ratio (z) = 0.21455 0.05628
#
# Static dielectric constant tensor:
#      x y z
#    x 1.633120 0.000000 0.000000 
#    y 0.000000 1.675660 0.000000 
#    z 0.000000 0.000000 1.622700 
# 
# From -- ./inp_files/14962.got.cif
#   From: 2010.05.17/outbox.cif.g08.bks.cpg/sg59_8_cif.got.tgz:14962.got - 2010.06.03 14:40:33.
