data_PCOD9448239
_publ_section_title
;
Structure prediction by ZEFSAII (Michael W. Deem and Ramdas Pophale) SiO2 
 PCOD9448239
Probable space group: P M M N
;
_chemical_formula_sum "Si O2"
_cell_formula_units_Z 64
_cell_length_a 18.699546
_cell_length_b 7.554019
_cell_length_c 21.095621
_cell_angle_alpha 90.000000
_cell_angle_beta 90.000000
_cell_angle_gamma 90.000000
_cell_volume 2979.898351
_symmetry_space_group_name_H-M "P M M N"
_symmetry_group_IT_number 59
_space_group.IT_coordinate_system_code '2'
_symmetry_cell_setting 'orthorhombic'
loop_
_space_group_symop_operation_xyz
x,y,z
1/2-x,1/2-y,z
1/2+x,-y,-z
-x,1/2+y,-z
-x,-y,-z
1/2+x,1/2+y,-z
1/2-x,y,z
x,1/2-y,z
loop_
_atom_site_type_symbol
_atom_site_label
_atom_site_fract_x
_atom_site_fract_y
_atom_site_fract_z
Si Si1 0.669043 0.037308 0.633410
Si Si2 0.580642 0.033235 0.265758
Si Si3 0.419447 0.040151 0.243875
Si Si4 0.332143 0.966667 0.611285
Si Si5 0.082824 0.962256 0.487704
Si Si6 0.555012 0.045996 0.895366
Si Si7 0.330552 0.967369 0.002588
Si Si8 0.393427 0.953104 0.872717
O O1 0.750000 0.971341 0.624571
O O2 0.671485 0.250000 0.627957
O O3 0.615433 0.970502 0.578601
O O4 0.638697 0.997193 0.702842
O O5 0.581620 0.250000 0.264817
O O6 0.497532 0.979161 0.268486
O O7 0.624860 0.975535 0.326523
O O8 0.611089 0.970056 0.198002
O O9 0.423729 0.250000 0.234547
O O10 0.409102 0.961525 0.174108
O O11 0.250000 0.021886 0.613079
O O12 0.333131 0.750000 0.611185
O O13 0.370988 0.026741 0.547332
O O14 0.089882 0.750000 0.486444
O O15 0.000000 0.000000 0.500000
O O16 0.539443 0.250000 0.911132
O O17 0.609218 0.973806 0.947733
O O18 0.477869 0.954944 0.890009
O O19 0.250000 0.019581 0.019602
O O20 0.332597 0.750000 0.002819
O O21 0.350959 0.029773 0.932019
O O22 0.369203 0.750000 0.867246
#
# Coordination Sequence:
#
# PCOD9448239 Si02
#       8
#     8   8   8   8   8   8   8   8
#     4  10  21  36  53  75 104 137 173 214 261 311
#     4   8  15  27  45  71  99 126 159 202 248 292
#     4  10  20  35  54  76 102 131 168 214 261 311
#     4   9  16  27  46  73 102 129 160 200 244 290
#     4  10  20  34  53  76 102 135 173 211 250 294
#     4  10  19  32  52  75 100 134 174 214 258 309
#     4   9  18  31  48  72 101 133 171 216 262 305
#     4   9  17  31  51  74 101 133 170 212 254 300
#
# _framework density 21.477243000000001
#
# number of rings (size 3 to 8) (size 9 to 14) (size 15 to 20)
#    0.000    2.625    0.000    3.000    0.000    4.250 
#    0.000    4.375    0.000    4.125    0.000    0.000 
#    0.000    0.000    0.000    0.000    0.000    0.000 
#
# Total GULP energy -357370.937765 kJ/mol
# GULP energy per Si atom -5583.920903 kJ/mol
# Density = 2.142836 g / cm^3
# Si number density = 21.477243 Si / 1000 Ang^3
#
#
#
# Elastic Constant Matrix: (Units=GPa)
#
#
# Indices 1 2 3 4 5 6 
#
# 1 50.7770 -6.8292 17.1823 0.0000 0.0000 0.0000
# 2 -6.8292 52.9312 -7.0878 0.0000 0.0000 0.0000
# 3 17.1823 -7.0878 70.9663 0.0000 0.0000 0.0000
# 4 0.0000 0.0000 0.0000 3.9845 0.0000 0.0000
# 5 0.0000 0.0000 0.0000 0.0000 1.8557 0.0000
# 6 0.0000 0.0000 0.0000 0.0000 0.0000 11.1927
#
#
#
# Elastic Compliance Matrix: (Units=1/GPa)
#
#
# Indices 1 2 3 4 5 6 
#
# 1 0.021684 0.002123 -0.005038 0.000000 0.000000 0.000000
# 2 0.002123 0.019356 0.001419 0.000000 0.000000 0.000000
# 3 -0.005038 0.001419 0.015453 0.000000 0.000000 0.000000
# 4 0.000000 0.000000 0.000000 0.250973 0.000000 0.000000
# 5 0.000000 0.000000 0.000000 0.000000 0.538874 0.000000
# 6 0.000000 0.000000 0.000000 0.000000 0.000000 0.089344
#
#
# Mechanical properties :
#
#
# Convention : Reuss Voigt Hill
#
# Bulk Modulus (GPa) = 18.69097 20.13390 19.41244
# Shear Modulus (GPa) = 5.22734 14.83386 10.03060
#
# Velocity S-wave (km/s) = 1.56179 2.63093 2.16344
# Velocity P-wave (km/s) = 3.46032 4.31554 3.91138
#
# Compressibility (1/GPa) = 0.05350177
#
# Stress axis : x y z
#
# Youngs Moduli (GPa) = 46.11618 51.66251 64.71326
#
# Poissons Ratio (x) = -0.10968 0.32604
# Poissons Ratio (y) = -0.09791 -0.09184
# Poissons Ratio (z) = 0.23234 -0.07332
#
# Static dielectric constant tensor:
#      x y z
#    x 1.735910 0.000000 0.000000 
#    y 0.000000 1.835600 0.000000 
#    z 0.000000 0.000000 1.766020 
# 
# From -- ./inp_files/30653.got.cif
#   From: 2010.05.17/outbox.cif.g08.bks.cpg/sg59_16_cif.got.tgz:30653.got - 2010.06.03 14:40:33.
