data_PCOD9448623
_publ_section_title
;
Structure prediction by ZEFSAII (Michael W. Deem and Ramdas Pophale) SiO2 
 PCOD9448623
Probable space group: P M M N
;
_chemical_formula_sum "Si O2"
_cell_formula_units_Z 64
_cell_length_a 8.730936
_cell_length_b 20.351216
_cell_length_c 20.659641
_cell_angle_alpha 90.000000
_cell_angle_beta 90.000000
_cell_angle_gamma 90.000000
_cell_volume 3670.911708
_symmetry_space_group_name_H-M "P M M N"
_symmetry_group_IT_number 59
_space_group.IT_coordinate_system_code '2'
_symmetry_cell_setting 'orthorhombic'
loop_
_space_group_symop_operation_xyz
x,y,z
1/2-x,1/2-y,z
1/2+x,-y,-z
-x,1/2+y,-z
-x,-y,-z
1/2+x,1/2+y,-z
1/2-x,y,z
x,1/2-y,z
loop_
_atom_site_type_symbol
_atom_site_label
_atom_site_fract_x
_atom_site_fract_y
_atom_site_fract_z
Si Si1 0.565367 0.174282 0.586678
Si Si2 0.568060 0.912521 0.302993
Si Si3 0.935255 0.429929 0.977759
Si Si4 0.934614 0.175346 0.084267
Si Si5 0.433219 0.092496 0.198088
Si Si6 0.066344 0.930119 0.523155
Si Si7 0.933838 0.945376 0.660525
Si Si8 0.933925 0.440678 0.831666
O O1 0.750000 0.170467 0.593070
O O2 0.523603 0.250000 0.575299
O O3 0.490708 0.145641 0.651509
O O4 0.521021 0.126493 0.527481
O O5 0.750000 0.918495 0.306614
O O6 0.514602 0.906234 0.228735
O O7 0.492670 0.980109 0.329363
O O8 0.750000 0.433636 0.979698
O O9 0.978374 0.417210 0.903101
O O10 0.987018 0.373305 0.026986
O O11 0.000000 0.500000 0.000000
O O12 0.750000 0.175797 0.082657
O O13 0.988962 0.250000 0.076194
O O14 0.987522 0.144688 0.152068
O O15 0.250000 0.100236 0.193446
O O16 0.476020 0.093341 0.273836
O O17 0.470141 0.018612 0.173559
O O18 0.250000 0.934425 0.524153
O O19 0.004585 0.917528 0.595092
O O20 0.000000 0.000000 0.500000
O O21 0.750000 0.947317 0.655872
O O22 0.750000 0.434415 0.823816
#
# Coordination Sequence:
#
# PCOD9448623 Si02
#       8
#     8   8   8   8   8   8   8   8
#     4  10  22  40  59  79 110 152 189 224 275 337
#     4  11  21  33  54  83 111 141 180 228 277 327
#     4  10  19  33  54  79 108 142 183 230 275 324
#     4  10  21  35  52  78 111 144 179 224 277 333
#     4   9  18  33  53  77 105 140 181 223 269 321
#     4  11  21  34  57  86 114 145 185 230 277 326
#     4  10  20  35  55  80 112 142 179 228 274 326
#     4   9  18  33  53  78 109 139 176 227 276 324
#
# _framework density 17.434362
#
# number of rings (size 3 to 8) (size 9 to 14) (size 15 to 20)
#    0.000    2.000    2.500    2.625    0.000    4.000 
#    0.000    1.250    0.000    4.500    0.000    0.000 
#    0.000    0.000    0.000    0.000    0.000    0.000 
#
# Total GULP energy -357208.200486 kJ/mol
# GULP energy per Si atom -5581.378133 kJ/mol
# Density = 1.739468 g / cm^3
# Si number density = 17.434362 Si / 1000 Ang^3
#
#
#
# Elastic Constant Matrix: (Units=GPa)
#
#
# Indices 1 2 3 4 5 6 
#
# 1 30.7852 36.1513 41.5058 0.0000 0.0000 0.0000
# 2 36.1513 123.0805 86.9849 0.0000 0.0000 0.0000
# 3 41.5058 86.9849 165.9883 0.0000 0.0000 0.0000
# 4 0.0000 0.0000 0.0000 24.6097 0.0000 0.0000
# 5 0.0000 0.0000 0.0000 0.0000 30.0813 0.0000
# 6 0.0000 0.0000 0.0000 0.0000 0.0000 20.7492
#
#
#
# Elastic Compliance Matrix: (Units=1/GPa)
#
#
# Indices 1 2 3 4 5 6 
#
# 1 0.056400 -0.010480 -0.008611 0.000000 0.000000 0.000000
# 2 -0.010480 0.014851 -0.005162 0.000000 0.000000 0.000000
# 3 -0.008611 -0.005162 0.010883 0.000000 0.000000 0.000000
# 4 0.000000 0.000000 0.000000 0.040634 0.000000 0.000000
# 5 0.000000 0.000000 0.000000 0.000000 0.033243 0.000000
# 6 0.000000 0.000000 0.000000 0.000000 0.000000 0.048195
#
#
# Mechanical properties :
#
#
# Convention : Reuss Voigt Hill
#
# Bulk Modulus (GPa) = 29.73758 72.12646 50.93202
# Shear Modulus (GPa) = 18.94506 25.43550 22.19028
#
# Velocity S-wave (km/s) = 3.30001 3.82374 3.57149
# Velocity P-wave (km/s) = 5.62264 7.80735 6.80326
#
# Compressibility (1/GPa) = 0.03362748
#
# Stress axis : x y z
#
# Youngs Moduli (GPa) = 17.73064 67.33462 91.88801
#
# Poissons Ratio (x) = 0.70568 0.79123
# Poissons Ratio (y) = 0.18582 0.47433
# Poissons Ratio (z) = 0.15267 0.34759
#
# Static dielectric constant tensor:
#      x y z
#    x 1.588800 0.000000 0.000000 
#    y 0.000000 1.569590 0.000000 
#    z 0.000000 0.000000 1.601840 
# 
# From -- ./inp_files/29468.got.cif
#   From: 2010.05.17/outbox.cif.g08.bks.cpg/sg59_15_cif.got.tgz:29468.got - 2010.06.03 14:40:33.
