data_PCOD9448215
_publ_section_title
;
Structure prediction by ZEFSAII (Michael W. Deem and Ramdas Pophale) SiO2 
 PCOD9448215
Probable space group: P M M N
;
_chemical_formula_sum "Si O2"
_cell_formula_units_Z 48
_cell_length_a 8.761872
_cell_length_b 18.547846
_cell_length_c 16.940898
_cell_angle_alpha 90.000000
_cell_angle_beta 90.000000
_cell_angle_gamma 90.000000
_cell_volume 2753.130599
_symmetry_space_group_name_H-M "P M M N"
_symmetry_group_IT_number 59
_space_group.IT_coordinate_system_code '2'
_symmetry_cell_setting 'orthorhombic'
loop_
_space_group_symop_operation_xyz
x,y,z
1/2-x,1/2-y,z
1/2+x,-y,-z
-x,1/2+y,-z
-x,-y,-z
1/2+x,1/2+y,-z
1/2-x,y,z
x,1/2-y,z
loop_
_atom_site_type_symbol
_atom_site_label
_atom_site_fract_x
_atom_site_fract_y
_atom_site_fract_z
Si Si1 0.933148 0.080163 0.509692
Si Si2 0.567967 0.046578 0.234982
Si Si3 0.936181 0.332318 0.354072
Si Si4 0.430849 0.396072 0.676645
Si Si5 0.932274 0.476107 0.916931
Si Si6 0.065905 0.830409 0.167805
O O1 0.750000 0.075571 0.509455
O O2 0.981728 0.129054 0.435533
O O3 0.990140 0.112231 0.592414
O O4 0.000000 0.000000 0.500000
O O5 0.750000 0.051000 0.220592
O O6 0.515897 0.117837 0.280779
O O7 0.543558 0.978245 0.293021
O O8 0.485679 0.028600 0.153449
O O9 0.750000 0.332200 0.353400
O O10 0.988178 0.250000 0.349494
O O11 0.250000 0.385001 0.669508
O O12 0.498305 0.346697 0.745856
O O13 0.750000 0.476070 0.921818
O O14 0.983093 0.395707 0.889411
O O15 0.000000 0.500000 0.000000
O O16 0.250000 0.833500 0.173216
O O17 0.022258 0.750000 0.141572
#
# Coordination Sequence:
#
# PCOD9448215 Si02
#       6
#     8   8   8   8   8   8
#     4  11  20  32  51  76 105 143 186 228 268 312
#     4   9  17  33  54  75 100 132 171 215 258 311
#     4   9  18  33  52  74 101 137 181 223 262 306
#     4  10  19  32  51  78 105 136 177 218 266 320
#     4  10  20  35  57  83 106 135 171 212 257 313
#     4   9  19  36  56  79 107 139 176 217 263 316
#
# _framework density 17.434698000000001
#
# number of rings (size 3 to 8) (size 9 to 14) (size 15 to 20)
#    0.000    2.333    1.667    1.500    0.000    2.333 
#    0.000    2.500    0.000    9.000    0.000    0.000 
#    0.000    0.000    0.000    0.000    0.000    0.000 
#
# Total GULP energy -267797.320209 kJ/mol
# GULP energy per Si atom -5579.110838 kJ/mol
# Density = 1.739502 g / cm^3
# Si number density = 17.434698 Si / 1000 Ang^3
#
#
#
# Elastic Constant Matrix: (Units=GPa)
#
#
# Indices 1 2 3 4 5 6 
#
# 1 27.8928 31.6462 42.5486 0.0000 0.0000 0.0000
# 2 31.6462 137.4940 83.9285 0.0000 0.0000 0.0000
# 3 42.5486 83.9285 158.1840 0.0000 0.0000 0.0000
# 4 0.0000 0.0000 0.0000 17.1207 0.0000 0.0000
# 5 0.0000 0.0000 0.0000 0.0000 32.0710 0.0000
# 6 0.0000 0.0000 0.0000 0.0000 0.0000 20.6603
#
#
#
# Elastic Compliance Matrix: (Units=1/GPa)
#
#
# Indices 1 2 3 4 5 6 
#
# 1 0.064255 -0.006270 -0.013957 0.000000 0.000000 0.000000
# 2 -0.006270 0.011369 -0.004345 0.000000 0.000000 0.000000
# 3 -0.013957 -0.004345 0.012382 0.000000 0.000000 0.000000
# 4 0.000000 0.000000 0.000000 0.058409 0.000000 0.000000
# 5 0.000000 0.000000 0.000000 0.000000 0.031181 0.000000
# 6 0.000000 0.000000 0.000000 0.000000 0.000000 0.048402
#
#
# Mechanical properties :
#
#
# Convention : Reuss Voigt Hill
#
# Bulk Modulus (GPa) = 25.73258 71.09082 48.41170
# Shear Modulus (GPa) = 17.35536 25.00023 21.17779
#
# Velocity S-wave (km/s) = 3.15850 3.79084 3.48902
# Velocity P-wave (km/s) = 5.30028 7.74756 6.63768
#
# Compressibility (1/GPa) = 0.03886124
#
# Stress axis : x y z
#
# Youngs Moduli (GPa) = 15.56287 87.96097 80.76551
#
# Poissons Ratio (x) = 0.55150 1.12724
# Poissons Ratio (y) = 0.09758 0.35097
# Poissons Ratio (z) = 0.21721 0.38223
#
# Static dielectric constant tensor:
#      x y z
#    x 1.591480 0.000000 0.000000 
#    y 0.000000 1.603420 0.000000 
#    z 0.000000 0.000000 1.564090 
# 
# From -- ./inp_files/20342.got.cif
#   From: 2010.05.17/outbox.cif.g08.bks.cpg/sg59_11_cif.got.tgz:20342.got - 2010.06.03 14:40:33.
