data_PCOD9448390
_publ_section_title
;
Structure prediction by ZEFSAII (Michael W. Deem and Ramdas Pophale) SiO2 
 PCOD9448390
Probable space group: P M M N
;
_chemical_formula_sum "Si O2"
_cell_formula_units_Z 56
_cell_length_a 9.132919
_cell_length_b 16.279930
_cell_length_c 21.118248
_cell_angle_alpha 90.000000
_cell_angle_beta 90.000000
_cell_angle_gamma 90.000000
_cell_volume 3139.930423
_symmetry_space_group_name_H-M "P M M N"
_symmetry_group_IT_number 59
_space_group.IT_coordinate_system_code '2'
_symmetry_cell_setting 'orthorhombic'
loop_
_space_group_symop_operation_xyz
x,y,z
1/2-x,1/2-y,z
1/2+x,-y,-z
-x,1/2+y,-z
-x,-y,-z
1/2+x,1/2+y,-z
1/2-x,y,z
x,1/2-y,z
loop_
_atom_site_type_symbol
_atom_site_label
_atom_site_fract_x
_atom_site_fract_y
_atom_site_fract_z
Si Si1 0.927173 0.508532 0.351221
Si Si2 0.921895 0.750000 0.059712
Si Si3 0.425869 0.844461 0.428816
Si Si4 0.910963 0.112632 0.012280
Si Si5 0.427749 0.250000 0.793593
Si Si6 0.425386 0.921080 0.231024
Si Si7 0.088001 0.483466 0.101707
Si Si8 0.926887 0.341327 0.421524
O O1 0.750000 0.511094 0.347405
O O2 0.973634 0.421830 0.382933
O O3 0.986263 0.585631 0.392108
O O4 0.001934 0.520708 0.283222
O O5 0.750000 0.750000 0.064246
O O6 0.975819 0.750000 0.132169
O O7 0.976544 0.673059 0.020373
O O8 0.250000 0.856042 0.420468
O O9 0.459408 0.750000 0.409227
O O10 0.459261 0.851084 0.503793
O O11 0.750000 0.149694 0.017597
O O12 0.899791 0.039838 0.960777
O O13 0.968447 0.081915 0.079863
O O14 0.250000 0.250000 0.788891
O O15 0.496439 0.332593 0.764892
O O16 0.250000 0.912665 0.240097
O O17 0.450293 0.960434 0.161630
O O18 0.250000 0.447459 0.113546
O O19 0.750000 0.339386 0.416837
O O20 0.980145 0.250000 0.401476
#
# Coordination Sequence:
#
# PCOD9448390 Si02
#       8
#     8   4   8   8   4   8   8   8
#     4  11  22  34  54  84 115 146 187 238 282 329
#     4  11  21  33  53  81 111 139 170 217 276 329
#     4   9  18  34  56  81 112 151 188 224 277 341
#     4  10  19  32  54  79 104 133 174 221 263 316
#     4  11  23  37  55  81 111 143 184 229 270 321
#     4  11  23  39  57  76 109 152 187 219 271 339
#     4   9  19  35  53  75 101 136 176 217 265 319
#     4   8  16  34  59  83 107 141 187 236 287 337
#
# _framework density 17.834790999999999
#
# number of rings (size 3 to 8) (size 9 to 14) (size 15 to 20)
#    0.000    2.143    1.429    3.000    1.000    2.571 
#    0.000    0.714    1.571    3.429    0.000    0.000 
#    0.000    0.000    0.000    0.000    0.000    0.000 
#
# Total GULP energy -312105.886094 kJ/mol
# GULP energy per Si atom -5573.319395 kJ/mol
# Density = 1.779420 g / cm^3
# Si number density = 17.834791 Si / 1000 Ang^3
#
#
#
# Elastic Constant Matrix: (Units=GPa)
#
#
# Indices 1 2 3 4 5 6 
#
# 1 51.6809 34.7415 31.0283 0.0000 0.0000 0.0000
# 2 34.7415 83.3279 44.9087 0.0000 0.0000 0.0000
# 3 31.0283 44.9087 72.1219 0.0000 0.0000 0.0000
# 4 0.0000 0.0000 0.0000 18.9604 0.0000 0.0000
# 5 0.0000 0.0000 0.0000 0.0000 24.3835 0.0000
# 6 0.0000 0.0000 0.0000 0.0000 0.0000 21.8478
#
#
#
# Elastic Compliance Matrix: (Units=1/GPa)
#
#
# Indices 1 2 3 4 5 6 
#
# 1 0.029380 -0.008183 -0.007544 0.000000 0.000000 0.000000
# 2 -0.008183 0.020342 -0.009146 0.000000 0.000000 0.000000
# 3 -0.007544 -0.009146 0.022806 0.000000 0.000000 0.000000
# 4 0.000000 0.000000 0.000000 0.052742 0.000000 0.000000
# 5 0.000000 0.000000 0.000000 0.000000 0.041011 0.000000
# 6 0.000000 0.000000 0.000000 0.000000 0.000000 0.045771
#
#
# Mechanical properties :
#
#
# Convention : Reuss Voigt Hill
#
# Bulk Modulus (GPa) = 43.89626 47.60977 45.75301
# Shear Modulus (GPa) = 18.56034 19.46850 19.01442
#
# Velocity S-wave (km/s) = 3.22946 3.30752 3.26873
# Velocity P-wave (km/s) = 6.21064 6.42955 6.32104
#
# Compressibility (1/GPa) = 0.02278099
#
# Stress axis : x y z
#
# Youngs Moduli (GPa) = 34.03664 49.16051 43.84837
#
# Poissons Ratio (x) = 0.40230 0.33081
# Poissons Ratio (y) = 0.27853 0.40102
# Poissons Ratio (z) = 0.25678 0.44960
#
# Static dielectric constant tensor:
#      x y z
#    x 1.614580 0.000000 0.000000 
#    y 0.000000 1.666830 0.000000 
#    z 0.000000 0.000000 1.601310 
# 
# From -- ./inp_files/29219.got.cif
#   From: 2010.05.17/outbox.cif.g08.bks.cpg/sg59_15_cif.got.tgz:29219.got - 2010.06.03 14:40:33.
