data_PCOD9448764
_publ_section_title
;
Structure prediction by ZEFSAII (Michael W. Deem and Ramdas Pophale) SiO2 
 PCOD9448764
Probable space group: P M M N
;
_chemical_formula_sum "Si O2"
_cell_formula_units_Z 48
_cell_length_a 28.761000
_cell_length_b 8.723533
_cell_length_c 10.414394
_cell_angle_alpha 90.000000
_cell_angle_beta 90.000000
_cell_angle_gamma 90.000000
_cell_volume 2612.945758
_symmetry_space_group_name_H-M "P M M N"
_symmetry_group_IT_number 59
_space_group.IT_coordinate_system_code '2'
_symmetry_cell_setting 'orthorhombic'
loop_
_space_group_symop_operation_xyz
x,y,z
1/2-x,1/2-y,z
1/2+x,-y,-z
-x,1/2+y,-z
-x,-y,-z
1/2+x,1/2+y,-z
1/2-x,y,z
x,1/2-y,z
loop_
_atom_site_type_symbol
_atom_site_label
_atom_site_fract_x
_atom_site_fract_y
_atom_site_fract_z
Si Si1 0.054644 0.065436 0.131375
Si Si2 0.544198 0.932997 0.167922
Si Si3 0.656342 0.565153 0.784136
Si Si4 0.802616 0.434594 0.043783
Si Si5 0.633854 0.066188 0.281690
Si Si6 0.696391 0.935451 0.508322
O O1 0.050301 0.250000 0.137118
O O2 0.102280 0.019347 0.200818
O O3 0.056926 0.022414 0.979923
O O4 0.008197 0.991135 0.187866
O O5 0.546045 0.750000 0.176358
O O6 0.581773 0.005157 0.263037
O O7 0.657976 0.750000 0.790358
O O8 0.683153 0.500340 0.906652
O O9 0.679460 0.517735 0.650408
O O10 0.750000 0.480225 0.076662
O O11 0.804493 0.250000 0.037705
O O12 0.837703 0.485486 0.154858
O O13 0.633608 0.250000 0.285717
O O14 0.661516 0.002527 0.403367
O O15 0.750000 0.983112 0.486388
O O16 0.694850 0.750000 0.502250
#
# Coordination Sequence:
#
# PCOD9448764 Si02
#       6
#     8   8   8   8   8   8
#     4   9  18  33  55  84 116 146 180 226 283 339
#     4  10  19  33  56  85 115 146 185 230 282 336
#     4  10  20  37  59  84 112 145 186 231 280 335
#     4  10  21  35  53  80 111 142 182 232 280 329
#     4  11  22  37  57  81 113 150 190 233 280 332
#     4  10  22  39  58  81 112 150 189 230 279 334
#
# _framework density 18.370072
#
# number of rings (size 3 to 8) (size 9 to 14) (size 15 to 20)
#    0.000    2.000    1.667    2.000    0.000    4.667 
#    0.000    0.833    0.000    0.000    0.000    0.000 
#    0.000    0.000    0.000    0.000    0.000    0.000 
#
# Total GULP energy -268033.310240 kJ/mol
# GULP energy per Si atom -5584.027297 kJ/mol
# Density = 1.832826 g / cm^3
# Si number density = 18.370072 Si / 1000 Ang^3
#
#
#
# Elastic Constant Matrix: (Units=GPa)
#
#
# Indices 1 2 3 4 5 6 
#
# 1 62.8367 7.8599 -21.4464 0.0000 0.0000 0.0000
# 2 7.8599 9.5974 1.6192 0.0000 0.0000 0.0000
# 3 -21.4464 1.6192 32.3771 0.0000 0.0000 0.0000
# 4 0.0000 0.0000 0.0000 24.9793 0.0000 0.0000
# 5 0.0000 0.0000 0.0000 0.0000 32.1351 0.0000
# 6 0.0000 0.0000 0.0000 0.0000 0.0000 25.7777
#
#
#
# Elastic Compliance Matrix: (Units=1/GPa)
#
#
# Indices 1 2 3 4 5 6 
#
# 1 0.024847 -0.023322 0.017625 0.000000 0.000000 0.000000
# 2 -0.023322 0.126973 -0.021799 0.000000 0.000000 0.000000
# 3 0.017625 -0.021799 0.043651 0.000000 0.000000 0.000000
# 4 0.000000 0.000000 0.000000 0.040033 0.000000 0.000000
# 5 0.000000 0.000000 0.000000 0.000000 0.031119 0.000000
# 6 0.000000 0.000000 0.000000 0.000000 0.000000 0.038793
#
#
# Mechanical properties :
#
#
# Convention : Reuss Voigt Hill
#
# Bulk Modulus (GPa) = 7.11853 8.98629 8.05241
# Shear Modulus (GPa) = 12.27796 24.36363 18.32080
#
# Velocity S-wave (km/s) = 2.58809 3.64575 3.16146
# Velocity P-wave (km/s) = 3.57972 4.75651 4.20944
#
# Compressibility (1/GPa) = 0.14047849
#
# Stress axis : x y z
#
# Youngs Moduli (GPa) = 40.24632 7.87571 22.90908
#
# Poissons Ratio (x) = 0.18368 -0.40377
# Poissons Ratio (y) = 0.93864 0.49938
# Poissons Ratio (z) = -0.70934 0.17168
#
# Static dielectric constant tensor:
#      x y z
#    x 1.630660 0.000000 0.000000 
#    y 0.000000 1.621180 0.000000 
#    z 0.000000 0.000000 1.606370 
# 
# From -- ./inp_files/12926.got.cif
#   From: 2010.05.17/outbox.cif.g08.bks.cpg/sg59_7_cif.got.tgz:12926.got - 2010.06.03 14:40:33.
