data_PCOD9448162
_publ_section_title
;
Structure prediction by ZEFSAII (Michael W. Deem and Ramdas Pophale) SiO2 
 PCOD9448162
Probable space group: P M M N
;
_chemical_formula_sum "Si O2"
_cell_formula_units_Z 64
_cell_length_a 23.044324
_cell_length_b 9.464103
_cell_length_c 16.706572
_cell_angle_alpha 90.000000
_cell_angle_beta 90.000000
_cell_angle_gamma 90.000000
_cell_volume 3643.600706
_symmetry_space_group_name_H-M "P M M N"
_symmetry_group_IT_number 59
_space_group.IT_coordinate_system_code '2'
_symmetry_cell_setting 'orthorhombic'
loop_
_space_group_symop_operation_xyz
x,y,z
1/2-x,1/2-y,z
1/2+x,-y,-z
-x,1/2+y,-z
-x,-y,-z
1/2+x,1/2+y,-z
1/2-x,y,z
x,1/2-y,z
loop_
_atom_site_type_symbol
_atom_site_label
_atom_site_fract_x
_atom_site_fract_y
_atom_site_fract_z
Si Si1 0.460599 0.582523 0.894043
Si Si2 0.088834 0.581994 0.719881
Si Si3 0.680829 0.408704 0.515726
Si Si4 0.996303 0.582545 0.583742
Si Si5 0.819425 0.914465 0.360058
Si Si6 0.317259 0.078481 0.168727
Si Si7 0.869812 0.918086 0.658933
Si Si8 0.911868 0.919476 0.958771
O O1 0.452738 0.750000 0.908397
O O2 0.443033 0.552819 0.803229
O O3 0.528516 0.551581 0.909832
O O4 0.421974 0.496333 0.957084
O O5 0.100871 0.750000 0.715865
O O6 0.146979 0.492382 0.710557
O O7 0.047217 0.545076 0.645558
O O8 0.750000 0.397621 0.510183
O O9 0.655913 0.250000 0.511839
O O10 0.662481 0.504163 0.440981
O O11 0.665798 0.488446 0.596769
O O12 0.999756 0.750000 0.566641
O O13 0.936407 0.559458 0.632631
O O14 0.000000 0.500000 0.500000
O O15 0.750000 0.925408 0.351784
O O16 0.834705 0.750000 0.365371
O O17 0.250000 0.029996 0.168834
O O18 0.315794 0.250000 0.166206
O O19 0.351020 0.042874 0.251042
O O20 0.356396 0.033262 0.093172
O O21 0.857474 0.750000 0.649130
O O22 0.908144 0.750000 0.970052
#
# Coordination Sequence:
#
# PCOD9448162 Si02
#       8
#     8   8   8   8   8   8   8   8
#     4   9  18  33  54  78 102 131 167 208 253 301
#     4  10  20  35  54  75 102 134 168 206 252 306
#     4  10  20  33  49  70  98 133 172 211 251 296
#     4  10  21  34  49  73 104 137 171 211 257 301
#     4  10  21  36  53  73  97 126 164 210 254 296
#     4   9  17  30  51  78 105 135 171 210 255 308
#     4  10  19  32  51  74 101 134 174 215 253 299
#     4   9  17  32  54  78 104 133 167 207 251 302
#
# _framework density 17.565041999999998
#
# number of rings (size 3 to 8) (size 9 to 14) (size 15 to 20)
#    0.000    2.375    0.000    2.625    0.000    8.500 
#    0.000    1.250    0.000    6.375    0.000    0.000 
#    0.000    0.000    0.000    0.000    0.000    0.000 
#
# Total GULP energy -356925.900229 kJ/mol
# GULP energy per Si atom -5576.967191 kJ/mol
# Density = 1.752506 g / cm^3
# Si number density = 17.565042 Si / 1000 Ang^3
#
#
#
# Elastic Constant Matrix: (Units=GPa)
#
#
# Indices 1 2 3 4 5 6 
#
# 1 77.4818 41.3146 68.0411 0.0000 0.0000 0.0000
# 2 41.3146 49.1353 50.5705 0.0000 0.0000 0.0000
# 3 68.0411 50.5705 116.3532 0.0000 0.0000 0.0000
# 4 0.0000 0.0000 0.0000 28.6405 0.0000 0.0000
# 5 0.0000 0.0000 0.0000 0.0000 28.8649 0.0000
# 6 0.0000 0.0000 0.0000 0.0000 0.0000 21.8830
#
#
#
# Elastic Compliance Matrix: (Units=1/GPa)
#
#
# Indices 1 2 3 4 5 6 
#
# 1 0.030660 -0.013257 -0.012168 0.000000 0.000000 0.000000
# 2 -0.013257 0.042557 -0.010744 0.000000 0.000000 0.000000
# 3 -0.012168 -0.010744 0.020379 0.000000 0.000000 0.000000
# 4 0.000000 0.000000 0.000000 0.034916 0.000000 0.000000
# 5 0.000000 0.000000 0.000000 0.000000 0.034644 0.000000
# 6 0.000000 0.000000 0.000000 0.000000 0.000000 0.045698
#
#
# Mechanical properties :
#
#
# Convention : Reuss Voigt Hill
#
# Bulk Modulus (GPa) = 47.03841 62.53585 54.78713
# Shear Modulus (GPa) = 17.34441 21.41395 19.37918
#
# Velocity S-wave (km/s) = 3.14576 3.49538 3.32517
# Velocity P-wave (km/s) = 6.32710 7.20902 6.78241
#
# Compressibility (1/GPa) = 0.02125922
#
# Stress axis : x y z
#
# Youngs Moduli (GPa) = 32.61554 23.49805 49.06904
#
# Poissons Ratio (x) = 0.31152 0.59705
# Poissons Ratio (y) = 0.43239 0.52719
# Poissons Ratio (z) = 0.39685 0.25246
#
# Static dielectric constant tensor:
#      x y z
#    x 1.644090 0.000000 0.000000 
#    y 0.000000 1.585940 0.000000 
#    z 0.000000 0.000000 1.578270 
# 
# From -- ./inp_files/21570.got.cif
#   From: 2010.05.17/outbox.cif.g08.bks.cpg/sg59_11_cif.got.tgz:21570.got - 2010.06.03 14:40:33.
