data_PCOD9448759
_publ_section_title
;
Structure prediction by ZEFSAII (Michael W. Deem and Ramdas Pophale) SiO2 
 PCOD9448759
Probable space group: P M M N
;
_chemical_formula_sum "Si O2"
_cell_formula_units_Z 64
_cell_length_a 29.612878
_cell_length_b 7.765814
_cell_length_c 12.704945
_cell_angle_alpha 90.000000
_cell_angle_beta 90.000000
_cell_angle_gamma 90.000000
_cell_volume 2921.732095
_symmetry_space_group_name_H-M "P M M N"
_symmetry_group_IT_number 59
_space_group.IT_coordinate_system_code '2'
_symmetry_cell_setting 'orthorhombic'
loop_
_space_group_symop_operation_xyz
x,y,z
1/2-x,1/2-y,z
1/2+x,-y,-z
-x,1/2+y,-z
-x,-y,-z
1/2+x,1/2+y,-z
1/2-x,y,z
x,1/2-y,z
loop_
_atom_site_type_symbol
_atom_site_label
_atom_site_fract_x
_atom_site_fract_y
_atom_site_fract_z
Si Si1 0.105078 0.957527 0.435305
Si Si2 0.458836 0.547993 0.257694
Si Si3 0.199772 0.456946 0.361678
Si Si4 0.165077 0.041202 0.133693
Si Si5 0.548974 0.446383 0.366582
Si Si6 0.931673 0.052459 0.953710
Si Si7 0.894766 0.549517 0.172141
Si Si8 0.798597 0.540916 0.090104
O O1 0.101323 0.750000 0.434385
O O2 0.081972 0.025631 0.327959
O O3 0.075644 0.021157 0.533732
O O4 0.157948 0.998434 0.436623
O O5 0.449803 0.750000 0.240891
O O6 0.503378 0.534663 0.327910
O O7 0.463472 0.476948 0.138776
O O8 0.250000 0.520250 0.389489
O O9 0.201904 0.250000 0.357140
O O10 0.185640 0.516534 0.244255
O O11 0.159370 0.250000 0.136220
O O12 0.117043 0.959637 0.104551
O O13 0.196393 0.001254 0.033630
O O14 0.536594 0.250000 0.391950
O O15 0.582094 0.451987 0.267015
O O16 0.943407 0.250000 0.978003
O O17 0.923921 0.961088 0.064716
O O18 0.891906 0.750000 0.202147
O O19 0.844575 0.481846 0.145537
O O20 0.750000 0.479807 0.130023
O O21 0.799318 0.750000 0.097970
#
# Coordination Sequence:
#
# PCOD9448759 Si02
#       8
#     8   8   8   8   8   8   8   8
#     4  10  22  41  60  83 115 150 189 236 288 339
#     4  10  21  38  61  87 114 144 183 233 289 346
#     4  10  20  33  54  86 119 152 192 234 276 329
#     4   9  16  28  49  79 115 149 180 223 275 329
#     4  11  24  40  60  82 108 146 193 241 287 339
#     4  10  19  33  56  84 117 149 179 224 277 336
#     4  10  21  37  57  81 114 152 189 231 282 338
#     4   8  14  27  50  78 105 138 181 225 270 321
#
# _framework density 21.904813000000001
#
# number of rings (size 3 to 8) (size 9 to 14) (size 15 to 20)
#    0.000    2.250    1.250    2.625    0.000    4.750 
#    0.000    0.625    0.000   14.625    0.000    0.000 
#    0.000    0.000    0.000    0.000    0.000    0.000 
#
# Total GULP energy -357257.303848 kJ/mol
# GULP energy per Si atom -5582.145373 kJ/mol
# Density = 2.185496 g / cm^3
# Si number density = 21.904813 Si / 1000 Ang^3
#
#
#
# Elastic Constant Matrix: (Units=GPa)
#
#
# Indices 1 2 3 4 5 6 
#
# 1 88.7436 -7.8393 5.5474 0.0000 0.0000 0.0000
# 2 -7.8393 36.4675 -6.2182 0.0000 0.0000 0.0000
# 3 5.5474 -6.2182 49.3328 0.0000 0.0000 0.0000
# 4 0.0000 0.0000 0.0000 15.5362 0.0000 0.0000
# 5 0.0000 0.0000 0.0000 0.0000 29.1038 0.0000
# 6 0.0000 0.0000 0.0000 0.0000 0.0000 25.6780
#
#
#
# Elastic Compliance Matrix: (Units=1/GPa)
#
#
# Indices 1 2 3 4 5 6 
#
# 1 0.011535 0.002308 -0.001006 0.000000 0.000000 0.000000
# 2 0.002308 0.028486 0.003331 0.000000 0.000000 0.000000
# 3 -0.001006 0.003331 0.020803 0.000000 0.000000 0.000000
# 4 0.000000 0.000000 0.000000 0.064366 0.000000 0.000000
# 5 0.000000 0.000000 0.000000 0.000000 0.034360 0.000000
# 6 0.000000 0.000000 0.000000 0.000000 0.000000 0.038944
#
#
# Mechanical properties :
#
#
# Convention : Reuss Voigt Hill
#
# Bulk Modulus (GPa) = 14.26730 17.50263 15.88496
# Shear Modulus (GPa) = 23.51929 26.26721 24.89325
#
# Velocity S-wave (km/s) = 3.28030 3.46663 3.37475
# Velocity P-wave (km/s) = 4.56887 4.90215 4.73844
#
# Compressibility (1/GPa) = 0.07009036
#
# Stress axis : x y z
#
# Youngs Moduli (GPa) = 86.69111 35.10515 48.06889
#
# Poissons Ratio (x) = -0.08103 0.04837
# Poissons Ratio (y) = -0.20009 -0.16012
# Poissons Ratio (z) = 0.08723 -0.11693
#
# Static dielectric constant tensor:
#      x y z
#    x 1.835620 0.000000 0.000000 
#    y 0.000000 1.802250 0.000000 
#    z 0.000000 0.000000 1.812680 
# 
# From -- ./inp_files/19264.got.cif
#   From: 2010.05.17/outbox.cif.g08.bks.cpg/sg59_10_cif.got.tgz:19264.got - 2010.06.03 14:40:33.
