data_PCOD9448191
_publ_section_title
;
Structure prediction by ZEFSAII (Michael W. Deem and Ramdas Pophale) SiO2 
 PCOD9448191
Probable space group: P M M N
;
_chemical_formula_sum "Si O2"
_cell_formula_units_Z 64
_cell_length_a 20.114889
_cell_length_b 7.995824
_cell_length_c 19.648116
_cell_angle_alpha 90.000000
_cell_angle_beta 90.000000
_cell_angle_gamma 90.000000
_cell_volume 3160.106942
_symmetry_space_group_name_H-M "P M M N"
_symmetry_group_IT_number 59
_space_group.IT_coordinate_system_code '2'
_symmetry_cell_setting 'orthorhombic'
loop_
_space_group_symop_operation_xyz
x,y,z
1/2-x,1/2-y,z
1/2+x,-y,-z
-x,1/2+y,-z
-x,-y,-z
1/2+x,1/2+y,-z
1/2-x,y,z
x,1/2-y,z
loop_
_atom_site_type_symbol
_atom_site_label
_atom_site_fract_x
_atom_site_fract_y
_atom_site_fract_z
Si Si1 0.828043 0.438633 0.363800
Si Si2 0.175240 0.052722 0.491063
Si Si3 0.958314 0.548489 0.567460
Si Si4 0.435826 0.952849 0.139752
Si Si5 0.008838 0.947549 0.279749
Si Si6 0.873303 0.059771 0.225023
Si Si7 0.580531 0.943972 0.085164
Si Si8 0.826239 0.050960 0.962069
O O1 0.750000 0.423468 0.373582
O O2 0.857010 0.250000 0.362732
O O3 0.850734 0.531011 0.431306
O O4 0.836317 0.517404 0.289763
O O5 0.250000 0.982302 0.482968
O O6 0.180041 0.250000 0.478658
O O7 0.117066 0.984195 0.444299
O O8 0.958889 0.750000 0.570671
O O9 0.980252 0.482215 0.641033
O O10 0.000000 0.500000 0.500000
O O11 0.437318 0.750000 0.133261
O O12 0.436952 0.986276 0.220926
O O13 0.505734 0.010156 0.103542
O O14 0.370524 0.016021 0.100967
O O15 0.992520 0.750000 0.271882
O O16 0.947609 0.056922 0.254145
O O17 0.849427 0.250000 0.213251
O O18 0.877398 0.964097 0.154623
O O19 0.572785 0.750000 0.067632
O O20 0.624807 0.025307 0.026477
O O21 0.750000 0.985371 0.969220
O O22 0.819829 0.250000 0.952885
#
# Coordination Sequence:
#
# PCOD9448191 Si02
#       8
#     8   8   8   8   8   8   8   8
#     4   9  18  31  47  68  95 128 166 208 253 304
#     4   9  19  35  52  70  96 133 174 213 256 310
#     4  11  22  35  54  80 109 140 175 219 270 321
#     4   8  17  35  56  77 102 136 175 214 259 311
#     4  10  20  35  54  77 106 136 172 219 266 315
#     4  10  19  32  51  75 104 137 174 214 258 312
#     4  10  20  34  53  77 107 140 174 215 263 318
#     4  10  20  35  56  80 106 137 175 220 267 315
#
# _framework density 20.252478
#
# number of rings (size 3 to 8) (size 9 to 14) (size 15 to 20)
#    0.000    2.375    0.000    3.375    0.000    4.750 
#    0.000    5.000    0.000    0.750    0.000    0.000 
#    0.000    0.000    0.000    0.000    0.000    0.000 
#
# Total GULP energy -356301.661811 kJ/mol
# GULP energy per Si atom -5567.213466 kJ/mol
# Density = 2.020638 g / cm^3
# Si number density = 20.252478 Si / 1000 Ang^3
#
#
#
# Elastic Constant Matrix: (Units=GPa)
#
#
# Indices 1 2 3 4 5 6 
#
# 1 71.1543 7.8555 43.4697 0.0000 0.0000 0.0000
# 2 7.8555 27.6373 1.8545 0.0000 0.0000 0.0000
# 3 43.4697 1.8545 117.7568 0.0000 0.0000 0.0000
# 4 0.0000 0.0000 0.0000 -2.5649 0.0000 0.0000
# 5 0.0000 0.0000 0.0000 0.0000 28.1317 0.0000
# 6 0.0000 0.0000 0.0000 0.0000 0.0000 15.2118
#
#
#
# Elastic Compliance Matrix: (Units=1/GPa)
#
#
# Indices 1 2 3 4 5 6 
#
# 1 0.018781 -0.004878 -0.006856 0.000000 0.000000 0.000000
# 2 -0.004878 0.037488 0.001210 0.000000 0.000000 0.000000
# 3 -0.006856 0.001210 0.011004 0.000000 0.000000 0.000000
# 4 0.000000 0.000000 0.000000 -0.389885 0.000000 0.000000
# 5 0.000000 0.000000 0.000000 0.000000 0.035547 0.000000
# 6 0.000000 0.000000 0.000000 0.000000 0.000000 0.065738
#
#
# Mechanical properties :
#
#
# Convention : Reuss Voigt Hill
#
# Bulk Modulus (GPa) = 21.63310 35.87863 28.75587
# Shear Modulus (GPa) = -27.04607 19.04698 -3.99954
#
# Velocity S-wave (km/s) = -3.65834 3.07005 -1.40681
# Velocity P-wave (km/s) = 2.67202 5.50646 3.40451
#
# Compressibility (1/GPa) = 0.04622546
#
# Stress axis : x y z
#
# Youngs Moduli (GPa) = 53.24502 26.67493 90.87636
#
# Poissons Ratio (x) = 0.13013 0.62306
# Poissons Ratio (y) = 0.25974 -0.11000
# Poissons Ratio (z) = 0.36506 -0.03229
#
# Static dielectric constant tensor:
#      x y z
#    x 1.796940 0.000000 0.000000 
#    y 0.000000 1.747150 0.000000 
#    z 0.000000 0.000000 1.747070 
# 
# From -- ./inp_files/28238.got.cif
#   From: 2010.05.17/outbox.cif.g08.bks.cpg/sg59_15_cif.got.tgz:28238.got - 2010.06.03 14:40:33.
