data_PCOD9448108
_publ_section_title
;
Structure prediction by ZEFSAII (Michael W. Deem and Ramdas Pophale) SiO2 
 PCOD9448108
Probable space group: P M M N
;
_chemical_formula_sum "Si O2"
_cell_formula_units_Z 64
_cell_length_a 30.390818
_cell_length_b 8.907797
_cell_length_c 15.234259
_cell_angle_alpha 90.000000
_cell_angle_beta 90.000000
_cell_angle_gamma 90.000000
_cell_volume 4124.146042
_symmetry_space_group_name_H-M "P M M N"
_symmetry_group_IT_number 59
_space_group.IT_coordinate_system_code '2'
_symmetry_cell_setting 'orthorhombic'
loop_
_space_group_symop_operation_xyz
x,y,z
1/2-x,1/2-y,z
1/2+x,-y,-z
-x,1/2+y,-z
-x,-y,-z
1/2+x,1/2+y,-z
1/2-x,y,z
x,1/2-y,z
loop_
_atom_site_type_symbol
_atom_site_label
_atom_site_fract_x
_atom_site_fract_y
_atom_site_fract_z
Si Si1 0.939284 0.569931 0.144540
Si Si2 0.199017 0.073255 0.785203
Si Si3 0.894349 0.568638 0.957909
Si Si4 0.798890 0.567819 0.008518
Si Si5 0.528228 0.570900 0.630098
Si Si6 0.438125 0.428660 0.558315
Si Si7 0.040149 0.929646 0.182341
Si Si8 0.382353 0.927397 0.699383
O O1 0.935026 0.750000 0.156849
O O2 0.914479 0.489581 0.224184
O O3 0.991021 0.532186 0.146910
O O4 0.916470 0.531573 0.052092
O O5 0.250000 0.057032 0.760490
O O6 0.187075 0.250000 0.778356
O O7 0.195372 0.031953 0.888225
O O8 0.166120 0.976313 0.728323
O O9 0.895453 0.750000 0.949690
O O10 0.923202 0.496276 0.881753
O O11 0.843183 0.518754 0.959507
O O12 0.750000 0.515034 0.980522
O O13 0.798091 0.750000 0.003873
O O14 0.524223 0.750000 0.640873
O O15 0.481010 0.503191 0.602873
O O16 0.559026 0.540935 0.545607
O O17 0.543587 0.496834 0.720138
O O18 0.440540 0.250000 0.571309
O O19 0.396836 0.495841 0.608854
O O20 0.043381 0.750000 0.185527
O O21 0.386837 0.750000 0.693005
#
# Coordination Sequence:
#
# PCOD9448108 Si02
#       8
#     8   8   8   8   8   8   8   8
#     4  10  20  34  48  66  96 137 176 207 241 286
#     4   9  17  32  53  72  96 132 169 205 248 298
#     4  10  19  32  50  69  96 132 171 211 244 291
#     4   8  14  27  49  73  93 121 163 207 249 290
#     4  10  20  34  52  74  96 124 164 207 248 287
#     4  10  20  34  52  72  98 128 162 202 244 296
#     4  11  22  33  48  69 100 137 170 207 248 295
#     4  12  22  30  48  75 104 135 166 204 246 297
#
# _framework density 15.518363000000001
#
# number of rings (size 3 to 8) (size 9 to 14) (size 15 to 20)
#    0.000    2.000    2.500    3.375    0.000    2.750 
#    0.000    0.000    0.000    0.375    0.000    0.875 
#    0.000    3.000    0.000    0.000    0.000    0.000 
#
# Total GULP energy -357076.243875 kJ/mol
# GULP energy per Si atom -5579.316311 kJ/mol
# Density = 1.548304 g / cm^3
# Si number density = 15.518363 Si / 1000 Ang^3
#
#
#
# Elastic Constant Matrix: (Units=GPa)
#
#
# Indices 1 2 3 4 5 6 
#
# 1 101.5865 35.7809 54.5834 0.0000 0.0000 0.0000
# 2 35.7809 38.5313 37.4226 0.0000 0.0000 0.0000
# 3 54.5834 37.4226 84.7222 0.0000 0.0000 0.0000
# 4 0.0000 0.0000 0.0000 21.3994 0.0000 0.0000
# 5 0.0000 0.0000 0.0000 0.0000 18.4293 0.0000
# 6 0.0000 0.0000 0.0000 0.0000 0.0000 22.7031
#
#
#
# Elastic Compliance Matrix: (Units=1/GPa)
#
#
# Indices 1 2 3 4 5 6 
#
# 1 0.016603 -0.008807 -0.006807 0.000000 0.000000 0.000000
# 2 -0.008807 0.050124 -0.016466 0.000000 0.000000 0.000000
# 3 -0.006807 -0.016466 0.023462 0.000000 0.000000 0.000000
# 4 0.000000 0.000000 0.000000 0.046730 0.000000 0.000000
# 5 0.000000 0.000000 0.000000 0.000000 0.054262 0.000000
# 6 0.000000 0.000000 0.000000 0.000000 0.000000 0.044047
#
#
# Mechanical properties :
#
#
# Convention : Reuss Voigt Hill
#
# Bulk Modulus (GPa) = 38.41868 53.37932 45.89900
# Shear Modulus (GPa) = 16.23045 18.97655 17.60350
#
# Velocity S-wave (km/s) = 3.23753 3.50071 3.37169
# Velocity P-wave (km/s) = 6.22785 7.12827 6.69322
#
# Compressibility (1/GPa) = 0.02602900
#
# Stress axis : x y z
#
# Youngs Moduli (GPa) = 60.22939 19.95066 42.62294
#
# Poissons Ratio (x) = 0.17571 0.29011
# Poissons Ratio (y) = 0.53046 0.70182
# Poissons Ratio (z) = 0.40995 0.32850
#
# Static dielectric constant tensor:
#      x y z
#    x 1.525680 0.000000 0.000000 
#    y 0.000000 1.517860 0.000000 
#    z 0.000000 0.000000 1.499250 
# 
# From -- ./inp_files/25004.got.cif
#   From: 2010.05.17/outbox.cif.g08.bks.cpg/sg59_13_cif.got.tgz:25004.got - 2010.06.03 14:40:33.
