data_PCOD9448016
_publ_section_title
;
Structure prediction by ZEFSAII (Michael W. Deem and Ramdas Pophale) SiO2 
 PCOD9448016
Probable space group: P M M N
;
_chemical_formula_sum "Si O2"
_cell_formula_units_Z 40
_cell_length_a 8.022959
_cell_length_b 7.709040
_cell_length_c 30.406532
_cell_angle_alpha 90.000000
_cell_angle_beta 90.000000
_cell_angle_gamma 90.000000
_cell_volume 1880.623080
_symmetry_space_group_name_H-M "P M M N"
_symmetry_group_IT_number 59
_space_group.IT_coordinate_system_code '2'
_symmetry_cell_setting 'orthorhombic'
loop_
_space_group_symop_operation_xyz
x,y,z
1/2-x,1/2-y,z
1/2+x,-y,-z
-x,1/2+y,-z
-x,-y,-z
1/2+x,1/2+y,-z
1/2-x,y,z
x,1/2-y,z
loop_
_atom_site_type_symbol
_atom_site_label
_atom_site_fract_x
_atom_site_fract_y
_atom_site_fract_z
Si Si1 0.048847 0.554426 0.548717
Si Si2 0.560626 0.041303 0.950757
Si Si3 0.943525 0.460700 0.357118
Si Si4 0.750000 0.963050 0.209454
Si Si5 0.929814 0.043566 0.737560
Si Si6 0.250000 0.037629 0.892131
O O1 0.250000 0.551581 0.550599
O O2 0.986640 0.750000 0.551374
O O3 0.995181 0.471124 0.595164
O O4 0.000000 0.500000 0.500000
O O5 0.750000 0.976088 0.943771
O O6 0.566739 0.250000 0.946582
O O7 0.417110 0.979043 0.917441
O O8 0.500000 0.000000 0.000000
O O9 0.750000 0.514421 0.351372
O O10 0.944892 0.250000 0.358721
O O11 0.041954 0.516357 0.314289
O O12 0.750000 0.750000 0.210722
O O13 0.586510 0.025098 0.235327
O O14 0.750000 0.014380 0.158666
O O15 0.750000 0.971164 0.750518
O O16 0.926648 0.250000 0.745236
O O17 0.250000 0.250000 0.893379
#
# Coordination Sequence:
#
# PCOD9448016 Si02
#       6
#     8   8   8   4   8   4
#     4   9  19  34  50  71 100 132 167 206 250 302
#     4  10  19  31  51  78 106 139 179 219 260 309
#     4   9  18  34  54  73  97 134 174 211 255 309
#     4   9  18  34  53  75 109 141 169 217 268 307
#     4  10  20  33  53  80 104 131 170 214 260 309
#     4   9  18  32  51  77 107 141 177 215 264 313
#
# _framework density 21.269546999999999
#
# number of rings (size 3 to 8) (size 9 to 14) (size 15 to 20)
#    0.000    2.600    2.000    1.200    0.000    3.200 
#    0.000   10.000    0.000    2.400    0.000    2.800 
#    0.000    0.000    0.000    0.000    0.000    0.000 
#
# Total GULP energy -223072.599786 kJ/mol
# GULP energy per Si atom -5576.814995 kJ/mol
# Density = 2.122114 g / cm^3
# Si number density = 21.269547 Si / 1000 Ang^3
#
#
#
# Elastic Constant Matrix: (Units=GPa)
#
#
# Indices 1 2 3 4 5 6 
#
# 1 178.0379 9.9240 105.7222 0.0000 0.0000 0.0000
# 2 9.9240 28.0336 -0.8010 0.0000 0.0000 0.0000
# 3 105.7222 -0.8010 184.8828 0.0000 0.0000 0.0000
# 4 0.0000 0.0000 0.0000 21.7511 0.0000 0.0000
# 5 0.0000 0.0000 0.0000 0.0000 24.2216 0.0000
# 6 0.0000 0.0000 0.0000 0.0000 0.0000 9.1350
#
#
#
# Elastic Compliance Matrix: (Units=1/GPa)
#
#
# Indices 1 2 3 4 5 6 
#
# 1 0.008792 -0.003257 -0.005042 0.000000 0.000000 0.000000
# 2 -0.003257 0.036882 0.002022 0.000000 0.000000 0.000000
# 3 -0.005042 0.002022 0.008301 0.000000 0.000000 0.000000
# 4 0.000000 0.000000 0.000000 0.045975 0.000000 0.000000
# 5 0.000000 0.000000 0.000000 0.000000 0.041286 0.000000
# 6 0.000000 0.000000 0.000000 0.000000 0.000000 0.109469
#
#
# Mechanical properties :
#
#
# Convention : Reuss Voigt Hill
#
# Bulk Modulus (GPa) = 24.14160 68.96051 46.55106
# Shear Modulus (GPa) = 18.04637 29.42882 23.73760
#
# Velocity S-wave (km/s) = 2.91599 3.72373 3.34434
# Velocity P-wave (km/s) = 4.76574 7.14008 6.07014
#
# Compressibility (1/GPa) = 0.04142227
#
# Stress axis : x y z
#
# Youngs Moduli (GPa) = 113.73712 27.11344 120.47249
#
# Poissons Ratio (x) = 0.08830 0.60740
# Poissons Ratio (y) = 0.37039 -0.24359
# Poissons Ratio (z) = 0.57344 -0.05482
#
# Static dielectric constant tensor:
#      x y z
#    x 1.778160 0.000000 0.000000 
#    y 0.000000 1.806300 0.000000 
#    z 0.000000 0.000000 1.758380 
# 
# From -- ./inp_files/32428.got.cif
#   From: 2010.05.17/outbox.cif.g08.bks.cpg/sg59_17_cif.got.tgz:32428.got - 2010.06.03 14:40:33.
