data_PCOD9448576
_publ_section_title
;
Structure prediction by ZEFSAII (Michael W. Deem and Ramdas Pophale) SiO2 
 PCOD9448576
Probable space group: P M M N
;
_chemical_formula_sum "Si O2"
_cell_formula_units_Z 64
_cell_length_a 18.181518
_cell_length_b 8.040957
_cell_length_c 23.219463
_cell_angle_alpha 90.000000
_cell_angle_beta 90.000000
_cell_angle_gamma 90.000000
_cell_volume 3394.611291
_symmetry_space_group_name_H-M "P M M N"
_symmetry_group_IT_number 59
_space_group.IT_coordinate_system_code '2'
_symmetry_cell_setting 'orthorhombic'
loop_
_space_group_symop_operation_xyz
x,y,z
1/2-x,1/2-y,z
1/2+x,-y,-z
-x,1/2+y,-z
-x,-y,-z
1/2+x,1/2+y,-z
1/2-x,y,z
x,1/2-y,z
loop_
_atom_site_type_symbol
_atom_site_label
_atom_site_fract_x
_atom_site_fract_y
_atom_site_fract_z
Si Si1 0.668709 0.048808 0.299385
Si Si2 0.169145 0.055839 0.447683
Si Si3 0.487720 0.448008 0.737901
Si Si4 0.430483 0.051604 0.960881
Si Si5 0.531182 0.045913 0.861722
Si Si6 0.832334 0.051341 0.940195
Si Si7 0.477476 0.945097 0.389227
Si Si8 0.628852 0.443438 0.428645
O O1 0.750000 0.997337 0.279938
O O2 0.665014 0.250000 0.298675
O O3 0.657554 0.997531 0.366350
O O4 0.599546 0.982076 0.264118
O O5 0.250000 0.991011 0.431940
O O6 0.165236 0.250000 0.432743
O O7 0.101927 0.966487 0.416709
O O8 0.158993 0.037404 0.516260
O O9 0.499230 0.250000 0.738260
O O10 0.524267 0.513365 0.796264
O O11 0.518732 0.509790 0.676615
O O12 0.423505 0.250000 0.960592
O O13 0.458050 0.997110 0.897844
O O14 0.500000 0.000000 0.000000
O O15 0.360787 0.981125 0.994825
O O16 0.532745 0.250000 0.862158
O O17 0.604280 0.989224 0.896147
O O18 0.750000 0.984808 0.930907
O O19 0.829841 0.250000 0.932500
O O20 0.497531 0.750000 0.389088
O O21 0.540651 0.037668 0.425068
O O22 0.648757 0.250000 0.434929
#
# Coordination Sequence:
#
# PCOD9448576 Si02
#       8
#     8   8   8   8   8   8   8   8
#     4   9  18  32  49  71  98 125 154 193 243 293
#     4  11  23  36  50  70  97 127 159 198 244 292
#     4   9  18  33  52  72  94 125 166 204 235 276
#     4   9  16  28  48  71  96 125 155 191 235 282
#     4   8  15  30  50  71  95 125 163 201 237 280
#     4   9  17  30  49  73 101 131 162 200 245 287
#     4  10  20  34  52  73  97 125 159 199 241 287
#     4  10  19  33  54  75  96 123 156 195 242 297
#
# _framework density 18.853408999999999
#
# number of rings (size 3 to 8) (size 9 to 14) (size 15 to 20)
#    0.000    2.625    0.000    3.000    0.000    3.000 
#    0.000    4.375    0.000    6.000    0.000    0.000 
#    0.000    0.000    0.000    0.000    0.000    0.000 
#
# Total GULP energy -356753.208894 kJ/mol
# GULP energy per Si atom -5574.268889 kJ/mol
# Density = 1.881050 g / cm^3
# Si number density = 18.853409 Si / 1000 Ang^3
#
#
#
# Elastic Constant Matrix: (Units=GPa)
#
#
# Indices 1 2 3 4 5 6 
#
# 1 106.5421 -4.5805 34.4420 0.0000 0.0000 0.0000
# 2 -4.5805 13.0525 -0.4442 0.0000 0.0000 0.0000
# 3 34.4420 -0.4442 62.9112 0.0000 0.0000 0.0000
# 4 0.0000 0.0000 0.0000 14.5418 0.0000 0.0000
# 5 0.0000 0.0000 0.0000 0.0000 17.3342 0.0000
# 6 0.0000 0.0000 0.0000 0.0000 0.0000 20.0930
#
#
#
# Elastic Compliance Matrix: (Units=1/GPa)
#
#
# Indices 1 2 3 4 5 6 
#
# 1 0.011595 0.003854 -0.006321 0.000000 0.000000 0.000000
# 2 0.003854 0.077913 -0.001560 0.000000 0.000000 0.000000
# 3 -0.006321 -0.001560 0.019345 0.000000 0.000000 0.000000
# 4 0.000000 0.000000 0.000000 0.068767 0.000000 0.000000
# 5 0.000000 0.000000 0.000000 0.000000 0.057689 0.000000
# 6 0.000000 0.000000 0.000000 0.000000 0.000000 0.049768
#
#
# Mechanical properties :
#
#
# Convention : Reuss Voigt Hill
#
# Bulk Modulus (GPa) = 9.92066 26.81559 18.36813
# Shear Modulus (GPa) = 15.30312 20.59972 17.95142
#
# Velocity S-wave (km/s) = 2.85211 3.30907 3.08905
# Velocity P-wave (km/s) = 4.01490 5.37160 4.74202
#
# Compressibility (1/GPa) = 0.10079970
#
# Stress axis : x y z
#
# Youngs Moduli (GPa) = 86.24453 12.83482 51.69353
#
# Poissons Ratio (x) = -0.04946 0.32674
# Poissons Ratio (y) = -0.33238 0.08063
# Poissons Ratio (z) = 0.54512 0.02002
#
# Static dielectric constant tensor:
#      x y z
#    x 1.661820 0.000000 0.000000 
#    y 0.000000 1.668160 0.000000 
#    z 0.000000 0.000000 1.663290 
# 
# From -- ./inp_files/32328.got.cif
#   From: 2010.05.17/outbox.cif.g08.bks.cpg/sg59_17_cif.got.tgz:32328.got - 2010.06.03 14:40:33.
