data_PCOD9448156
_publ_section_title
;
Structure prediction by ZEFSAII (Michael W. Deem and Ramdas Pophale) SiO2 
 PCOD9448156
Probable space group: P M M N
;
_chemical_formula_sum "Si O2"
_cell_formula_units_Z 64
_cell_length_a 9.054214
_cell_length_b 25.289653
_cell_length_c 15.826398
_cell_angle_alpha 90.000000
_cell_angle_beta 90.000000
_cell_angle_gamma 90.000000
_cell_volume 3623.895857
_symmetry_space_group_name_H-M "P M M N"
_symmetry_group_IT_number 59
_space_group.IT_coordinate_system_code '2'
_symmetry_cell_setting 'orthorhombic'
loop_
_space_group_symop_operation_xyz
x,y,z
1/2-x,1/2-y,z
1/2+x,-y,-z
-x,1/2+y,-z
-x,-y,-z
1/2+x,1/2+y,-z
1/2-x,y,z
x,1/2-y,z
loop_
_atom_site_type_symbol
_atom_site_label
_atom_site_fract_x
_atom_site_fract_y
_atom_site_fract_z
Si Si1 0.415247 0.187236 0.802178
Si Si2 0.572143 0.188548 0.628513
Si Si3 0.573629 0.020900 0.372542
Si Si4 0.072665 0.691140 0.835969
Si Si5 0.077771 0.414447 0.224168
Si Si6 0.074044 0.658587 0.024976
Si Si7 0.922969 0.552603 0.969454
Si Si8 0.927204 0.079361 0.548129
O O1 0.250000 0.163820 0.802892
O O2 0.401685 0.250000 0.793478
O O3 0.507229 0.171425 0.719481
O O4 0.496788 0.178357 0.890490
O O5 0.750000 0.189667 0.633291
O O6 0.525947 0.250000 0.609168
O O7 0.530358 0.140538 0.565356
O O8 0.750000 0.016489 0.365397
O O9 0.506189 0.049759 0.291618
O O10 0.539408 0.057896 0.454142
O O11 0.504837 0.963116 0.390344
O O12 0.250000 0.684190 0.829306
O O13 0.034244 0.750000 0.805760
O O14 0.036220 0.687390 0.936329
O O15 0.993186 0.643666 0.787518
O O16 0.250000 0.409936 0.246780
O O17 0.067496 0.440707 0.131519
O O18 0.250000 0.661186 0.034957
O O19 0.014588 0.599995 0.010169
O O20 0.750000 0.555189 0.992741
O O21 0.000000 0.500000 0.000000
O O22 0.750000 0.075565 0.559949
#
# Coordination Sequence:
#
# PCOD9448156 Si02
#       8
#     8   8   8   8   8   8   8   8
#     4  10  20  32  47  71 103 135 168 207 249 297
#     4   9  18  34  55  77 104 138 173 211 258 312
#     4  10  20  35  57  82 106 135 173 216 262 311
#     4   9  18  33  53  76 102 134 174 218 261 307
#     4  10  21  36  54  77 106 138 172 214 263 313
#     4  10  19  32  51  73  98 132 174 216 257 303
#     4  10  21  36  52  72 100 135 173 213 259 307
#     4   9  19  36  57  81 106 133 170 214 260 312
#
# _framework density 17.660550000000001
#
# number of rings (size 3 to 8) (size 9 to 14) (size 15 to 20)
#    0.000    2.375    0.000    2.250    0.000    5.500 
#    0.000    1.875    0.000    2.250    0.000    0.000 
#    0.000    0.000    0.000    0.000    0.000    0.000 
#
# Total GULP energy -356765.659973 kJ/mol
# GULP energy per Si atom -5574.463437 kJ/mol
# Density = 1.762035 g / cm^3
# Si number density = 17.660550 Si / 1000 Ang^3
#
#
#
# Elastic Constant Matrix: (Units=GPa)
#
#
# Indices 1 2 3 4 5 6 
#
# 1 33.4473 28.4237 16.5010 0.0000 0.0000 0.0000
# 2 28.4237 103.8838 25.8298 0.0000 0.0000 0.0000
# 3 16.5010 25.8298 29.5484 0.0000 0.0000 0.0000
# 4 0.0000 0.0000 0.0000 23.2430 0.0000 0.0000
# 5 0.0000 0.0000 0.0000 0.0000 24.8128 0.0000
# 6 0.0000 0.0000 0.0000 0.0000 0.0000 28.0467
#
#
#
# Elastic Compliance Matrix: (Units=1/GPa)
#
#
# Indices 1 2 3 4 5 6 
#
# 1 0.045825 -0.007890 -0.018693 0.000000 0.000000 0.000000
# 2 -0.007890 0.013658 -0.007533 0.000000 0.000000 0.000000
# 3 -0.018693 -0.007533 0.050867 0.000000 0.000000 0.000000
# 4 0.000000 0.000000 0.000000 0.043024 0.000000 0.000000
# 5 0.000000 0.000000 0.000000 0.000000 0.040302 0.000000
# 6 0.000000 0.000000 0.000000 0.000000 0.000000 0.035655
#
#
# Mechanical properties :
#
#
# Convention : Reuss Voigt Hill
#
# Bulk Modulus (GPa) = 23.74338 34.26539 29.00438
# Shear Modulus (GPa) = 16.04609 21.62884 18.83746
#
# Velocity S-wave (km/s) = 3.01754 3.50337 3.26949
# Velocity P-wave (km/s) = 5.06105 5.98407 5.54181
#
# Compressibility (1/GPa) = 0.04211701
#
# Stress axis : x y z
#
# Youngs Moduli (GPa) = 21.82203 73.21706 19.65917
#
# Poissons Ratio (x) = 0.57771 0.36749
# Poissons Ratio (y) = 0.17218 0.14809
# Poissons Ratio (z) = 0.40793 0.55154
#
# Static dielectric constant tensor:
#      x y z
#    x 1.601690 0.000000 0.000000 
#    y 0.000000 1.595220 0.000000 
#    z 0.000000 0.000000 1.588500 
# 
# From -- ./inp_files/21509.got.cif
#   From: 2010.05.17/outbox.cif.g08.bks.cpg/sg59_11_cif.got.tgz:21509.got - 2010.06.03 14:40:33.
