data_PCOD9448229
_publ_section_title
;
Structure prediction by ZEFSAII (Michael W. Deem and Ramdas Pophale) SiO2 
 PCOD9448229
Probable space group: P M M N
;
_chemical_formula_sum "Si O2"
_cell_formula_units_Z 64
_cell_length_a 7.557339
_cell_length_b 22.037456
_cell_length_c 17.142162
_cell_angle_alpha 90.000000
_cell_angle_beta 90.000000
_cell_angle_gamma 90.000000
_cell_volume 2854.933240
_symmetry_space_group_name_H-M "P M M N"
_symmetry_group_IT_number 59
_space_group.IT_coordinate_system_code '2'
_symmetry_cell_setting 'orthorhombic'
loop_
_space_group_symop_operation_xyz
x,y,z
1/2-x,1/2-y,z
1/2+x,-y,-z
-x,1/2+y,-z
-x,-y,-z
1/2+x,1/2+y,-z
1/2-x,y,z
x,1/2-y,z
loop_
_atom_site_type_symbol
_atom_site_label
_atom_site_fract_x
_atom_site_fract_y
_atom_site_fract_z
Si Si1 0.043926 0.181377 0.812759
Si Si2 0.538037 0.565860 0.907980
Si Si3 0.963256 0.988127 0.591665
Si Si4 0.462943 0.068765 0.913465
Si Si5 0.034400 0.146017 0.362049
Si Si6 0.449436 0.895199 0.331803
Si Si7 0.966628 0.817643 0.809719
Si Si8 0.962983 0.684086 0.470040
O O1 0.250000 0.187105 0.834270
O O2 0.968623 0.250000 0.815511
O O3 0.968800 0.127938 0.867889
O O4 0.037388 0.151975 0.726723
O O5 0.750000 0.571337 0.910660
O O6 0.502203 0.497626 0.877401
O O7 0.473462 0.623886 0.859244
O O8 0.470901 0.568298 0.997225
O O9 0.750000 0.989653 0.598002
O O10 0.033497 0.039775 0.650176
O O11 0.022954 0.922685 0.620965
O O12 0.000000 0.000000 0.500000
O O13 0.250000 0.072882 0.915153
O O14 0.250000 0.146708 0.359420
O O15 0.976117 0.172339 0.279771
O O16 0.983674 0.181245 0.440070
O O17 0.250000 0.903194 0.302431
O O18 0.448507 0.865865 0.417366
O O19 0.750000 0.818192 0.810994
O O20 0.020391 0.750000 0.836663
O O21 0.750000 0.674746 0.466778
O O22 0.003584 0.750000 0.437015
#
# Coordination Sequence:
#
# PCOD9448229 Si02
#       8
#     8   8   8   8   8   8   8   8
#     4  10  22  39  57  77 105 144 186 225 267 319
#     4   9  18  33  57  85 113 142 173 213 263 315
#     4  10  20  34  52  74  99 132 174 218 266 316
#     4   9  19  36  56  81 110 142 178 216 259 313
#     4   9  17  30  48  72 103 133 167 212 257 305
#     4  11  23  35  51  77 106 134 171 223 276 320
#     4   9  17  29  50  82 112 136 170 217 263 306
#     4  10  19  32  52  72  95 136 180 212 252 311
#
# _framework density 22.417335999999999
#
# number of rings (size 3 to 8) (size 9 to 14) (size 15 to 20)
#    0.000    2.375    1.250    1.125    1.750    5.000 
#    0.000    2.500    0.000    1.125    0.000    3.500 
#    0.000    0.000    0.000    0.000    0.000    0.000 
#
# Total GULP energy -357136.158836 kJ/mol
# GULP energy per Si atom -5580.252482 kJ/mol
# Density = 2.236631 g / cm^3
# Si number density = 22.417336 Si / 1000 Ang^3
#
#
#
# Elastic Constant Matrix: (Units=GPa)
#
#
# Indices 1 2 3 4 5 6 
#
# 1 50.2431 6.2291 -4.0720 0.0000 0.0000 0.0000
# 2 6.2291 194.2023 58.1509 0.0000 0.0000 0.0000
# 3 -4.0720 58.1509 76.1308 0.0000 0.0000 0.0000
# 4 0.0000 0.0000 0.0000 29.1090 0.0000 0.0000
# 5 0.0000 0.0000 0.0000 0.0000 -40.2334 0.0000
# 6 0.0000 0.0000 0.0000 0.0000 0.0000 14.1309
#
#
#
# Elastic Compliance Matrix: (Units=1/GPa)
#
#
# Indices 1 2 3 4 5 6 
#
# 1 0.020225 -0.001261 0.002045 0.000000 0.000000 0.000000
# 2 -0.001261 0.006755 -0.005227 0.000000 0.000000 0.000000
# 3 0.002045 -0.005227 0.017237 0.000000 0.000000 0.000000
# 4 0.000000 0.000000 0.000000 0.034354 0.000000 0.000000
# 5 0.000000 0.000000 0.000000 0.000000 -0.024855 0.000000
# 6 0.000000 0.000000 0.000000 0.000000 0.000000 0.070767
#
#
# Mechanical properties :
#
#
# Convention : Reuss Voigt Hill
#
# Bulk Modulus (GPa) = 28.30354 49.02135 38.66244
# Shear Modulus (GPa) = 34.44809 17.95254 26.20031
#
# Velocity S-wave (km/s) = 3.92429 2.83297 3.42241
# Velocity P-wave (km/s) = 5.76078 5.71104 5.73597
#
# Compressibility (1/GPa) = 0.03533127
#
# Stress axis : x y z
#
# Youngs Moduli (GPa) = 49.44302 148.04145 58.01403
#
# Poissons Ratio (x) = 0.18669 -0.11864
# Poissons Ratio (y) = 0.06235 0.30324
# Poissons Ratio (z) = -0.10111 0.77381
#
# Static dielectric constant tensor:
#      x y z
#    x 1.885550 0.000000 0.000000 
#    y 0.000000 1.841960 0.000000 
#    z 0.000000 0.000000 1.803380 
# 
# From -- ./inp_files/26189.got.cif
#   From: 2010.05.17/outbox.cif.g08.bks.cpg/sg59_14_cif.got.tgz:26189.got - 2010.06.03 14:40:33.
