data_PCOD9448942
_publ_section_title
;
Structure prediction by ZEFSAII (Michael W. Deem and Ramdas Pophale) SiO2 
 PCOD9448942
Probable space group: P M M N
;
_chemical_formula_sum "Si O2"
_cell_formula_units_Z 56
_cell_length_a 7.717913
_cell_length_b 18.975464
_cell_length_c 18.151031
_cell_angle_alpha 90.000000
_cell_angle_beta 90.000000
_cell_angle_gamma 90.000000
_cell_volume 2658.236283
_symmetry_space_group_name_H-M "P M M N"
_symmetry_group_IT_number 59
_space_group.IT_coordinate_system_code '2'
_symmetry_cell_setting 'orthorhombic'
loop_
_space_group_symop_operation_xyz
x,y,z
1/2-x,1/2-y,z
1/2+x,-y,-z
-x,1/2+y,-z
-x,-y,-z
1/2+x,1/2+y,-z
1/2-x,y,z
x,1/2-y,z
loop_
_atom_site_type_symbol
_atom_site_label
_atom_site_fract_x
_atom_site_fract_y
_atom_site_fract_z
Si Si1 0.954966 0.919555 0.519914
Si Si2 0.037469 0.580945 0.236788
Si Si3 0.456138 0.925177 0.962522
Si Si4 0.455979 0.075727 0.208292
Si Si5 0.457950 0.829878 0.376676
Si Si6 0.037395 0.330745 0.340400
Si Si7 0.038016 0.830225 0.094147
O O1 0.750000 0.918878 0.527813
O O2 0.023084 0.884270 0.595375
O O3 0.004596 0.869414 0.452358
O O4 0.000000 0.000000 0.500000
O O5 0.250000 0.579877 0.237637
O O6 0.975864 0.500584 0.233793
O O7 0.978096 0.623607 0.308222
O O8 0.985003 0.621589 0.162771
O O9 0.250000 0.920246 0.960428
O O10 0.516942 0.917643 0.878891
O O11 0.521779 0.865143 0.018082
O O12 0.500000 0.000000 0.000000
O O13 0.250000 0.073336 0.219714
O O14 0.519643 0.137729 0.261586
O O15 0.250000 0.825948 0.368778
O O16 0.525601 0.750000 0.375949
O O17 0.250000 0.329376 0.341736
O O18 0.981037 0.250000 0.352280
O O19 0.250000 0.830244 0.093925
O O20 0.981305 0.750000 0.102902
#
# Coordination Sequence:
#
# PCOD9448942 Si02
#       7
#     8   8   8   8   8   8   8
#     4  11  22  38  60  83 112 150 196 242 287 340
#     4   9  16  30  52  79 108 142 183 222 264 324
#     4  11  21  35  55  80 109 142 182 227 276 331
#     4  10  19  34  57  81 106 140 185 230 272 324
#     4  10  20  34  56  86 116 146 183 228 279 337
#     4   9  19  36  58  83 112 150 191 230 278 344
#     4   9  17  30  51  77 103 136 180 225 264 315
#
# _framework density 21.066600999999999
#
# number of rings (size 3 to 8) (size 9 to 14) (size 15 to 20)
#    0.000    2.143    1.429    2.571    0.000    5.429 
#    0.000    3.571    0.000    3.000    0.000    0.000 
#    0.000    0.000    0.000    0.000    0.000    0.000 
#
# Total GULP energy -312758.321310 kJ/mol
# GULP energy per Si atom -5584.970023 kJ/mol
# Density = 2.101865 g / cm^3
# Si number density = 21.066601 Si / 1000 Ang^3
#
#
#
# Elastic Constant Matrix: (Units=GPa)
#
#
# Indices 1 2 3 4 5 6 
#
# 1 29.4565 8.9998 -1.3430 0.0000 0.0000 0.0000
# 2 8.9998 122.4405 67.9883 0.0000 0.0000 0.0000
# 3 -1.3430 67.9883 163.0551 0.0000 0.0000 0.0000
# 4 0.0000 0.0000 0.0000 42.5425 0.0000 0.0000
# 5 0.0000 0.0000 0.0000 0.0000 25.5652 0.0000
# 6 0.0000 0.0000 0.0000 0.0000 0.0000 12.9012
#
#
#
# Elastic Compliance Matrix: (Units=1/GPa)
#
#
# Indices 1 2 3 4 5 6 
#
# 1 0.035120 -0.003568 0.001777 0.000000 0.000000 0.000000
# 2 -0.003568 0.010990 -0.004612 0.000000 0.000000 0.000000
# 3 0.001777 -0.004612 0.008071 0.000000 0.000000 0.000000
# 4 0.000000 0.000000 0.000000 0.023506 0.000000 0.000000
# 5 0.000000 0.000000 0.000000 0.000000 0.039116 0.000000
# 6 0.000000 0.000000 0.000000 0.000000 0.000000 0.077512
#
#
# Mechanical properties :
#
#
# Convention : Reuss Voigt Hill
#
# Bulk Modulus (GPa) = 24.16955 51.80470 37.98712
# Shear Modulus (GPa) = 22.63341 32.15558 27.39450
#
# Velocity S-wave (km/s) = 3.28132 3.91113 3.60998
# Velocity P-wave (km/s) = 5.08467 6.71120 5.95374
#
# Compressibility (1/GPa) = 0.04137438
#
# Stress axis : x y z
#
# Youngs Moduli (GPa) = 28.47414 90.98803 123.90670
#
# Poissons Ratio (x) = 0.32466 -0.22019
# Poissons Ratio (y) = 0.10160 0.57146
# Poissons Ratio (z) = -0.05060 0.41964
#
# Static dielectric constant tensor:
#      x y z
#    x 1.797170 0.000000 0.000000 
#    y 0.000000 1.735280 0.000000 
#    z 0.000000 0.000000 1.723180 
# 
# From -- ./inp_files/21017.got.cif
#   From: 2010.05.17/outbox.cif.g08.bks.cpg/sg59_11_cif.got.tgz:21017.got - 2010.06.03 14:40:33.
