data_PCOD9448259
_publ_section_title
;
Structure prediction by ZEFSAII (Michael W. Deem and Ramdas Pophale) SiO2 
 PCOD9448259
Probable space group: P M M N
;
_chemical_formula_sum "Si O2"
_cell_formula_units_Z 64
_cell_length_a 8.693046
_cell_length_b 19.314204
_cell_length_c 22.312562
_cell_angle_alpha 90.000000
_cell_angle_beta 90.000000
_cell_angle_gamma 90.000000
_cell_volume 3746.262734
_symmetry_space_group_name_H-M "P M M N"
_symmetry_group_IT_number 59
_space_group.IT_coordinate_system_code '2'
_symmetry_cell_setting 'orthorhombic'
loop_
_space_group_symop_operation_xyz
x,y,z
1/2-x,1/2-y,z
1/2+x,-y,-z
-x,1/2+y,-z
-x,-y,-z
1/2+x,1/2+y,-z
1/2-x,y,z
x,1/2-y,z
loop_
_atom_site_type_symbol
_atom_site_label
_atom_site_fract_x
_atom_site_fract_y
_atom_site_fract_z
Si Si1 0.435418 0.470673 0.438384
Si Si2 0.067026 0.593427 0.847380
Si Si3 0.435336 0.669929 0.091482
Si Si4 0.933252 0.831713 0.962014
Si Si5 0.574445 0.862576 0.727309
Si Si6 0.437335 0.944271 0.188097
Si Si7 0.574391 0.476664 0.685492
Si Si8 0.933132 0.173906 0.396259
O O1 0.500000 0.500000 0.500000
O O2 0.250000 0.473066 0.437719
O O3 0.494137 0.515633 0.380882
O O4 0.486693 0.391485 0.427341
O O5 0.250000 0.591663 0.842902
O O6 0.013845 0.624698 0.910265
O O7 0.999491 0.639403 0.792754
O O8 0.000888 0.516123 0.838233
O O9 0.250000 0.666906 0.085308
O O10 0.477822 0.750000 0.103321
O O11 0.479978 0.618882 0.145096
O O12 0.509583 0.648704 0.028339
O O13 0.750000 0.840389 0.957782
O O14 0.969364 0.750000 0.954215
O O15 0.750000 0.837332 0.728106
O O16 0.479367 0.828728 0.673830
O O17 0.579384 0.943960 0.709086
O O18 0.250000 0.949179 0.190002
O O19 0.493355 0.936917 0.257188
O O20 0.750000 0.451811 0.677804
O O21 0.750000 0.166187 0.401805
O O22 0.977942 0.250000 0.419804
#
# Coordination Sequence:
#
# PCOD9448259 Si02
#       8
#     8   8   8   8   8   8   8   8
#     4  10  19  32  52  76 104 140 179 215 254 302
#     4  11  21  32  49  73 100 129 165 209 252 294
#     4   9  18  33  53  75  96 121 158 205 256 306
#     4  10  21  36  51  66  90 127 166 203 248 305
#     4   9  17  31  49  69  97 131 164 198 242 296
#     4   9  17  32  53  74  99 129 161 202 250 301
#     4   7  13  27  47  70  94 122 155 192 235 284
#     4  10  20  33  50  75 106 137 173 216 256 298
#
# _framework density 17.083691999999999
#
# number of rings (size 3 to 8) (size 9 to 14) (size 15 to 20)
#    0.000    2.625    0.000    4.125    0.000    3.250 
#    0.000    0.625    0.000    0.750    0.000    3.500 
#    0.000    0.000    0.000    0.000    0.000    0.000 
#
# Total GULP energy -356636.972008 kJ/mol
# GULP energy per Si atom -5572.452688 kJ/mol
# Density = 1.704481 g / cm^3
# Si number density = 17.083692 Si / 1000 Ang^3
#
#
#
# Elastic Constant Matrix: (Units=GPa)
#
#
# Indices 1 2 3 4 5 6 
#
# 1 43.3055 23.0749 35.9646 0.0000 0.0000 0.0000
# 2 23.0749 61.4919 64.4664 0.0000 0.0000 0.0000
# 3 35.9646 64.4664 157.3132 0.0000 0.0000 0.0000
# 4 0.0000 0.0000 0.0000 12.0411 0.0000 0.0000
# 5 0.0000 0.0000 0.0000 0.0000 26.8121 0.0000
# 6 0.0000 0.0000 0.0000 0.0000 0.0000 17.5979
#
#
#
# Elastic Compliance Matrix: (Units=1/GPa)
#
#
# Indices 1 2 3 4 5 6 
#
# 1 0.030210 -0.007181 -0.003964 0.000000 0.000000 0.000000
# 2 -0.007181 0.030218 -0.010742 0.000000 0.000000 0.000000
# 3 -0.003964 -0.010742 0.011665 0.000000 0.000000 0.000000
# 4 0.000000 0.000000 0.000000 0.083049 0.000000 0.000000
# 5 0.000000 0.000000 0.000000 0.000000 0.037297 0.000000
# 6 0.000000 0.000000 0.000000 0.000000 0.000000 0.056825
#
#
# Mechanical properties :
#
#
# Convention : Reuss Voigt Hill
#
# Bulk Modulus (GPa) = 35.31017 56.56915 45.93966
# Shear Modulus (GPa) = 16.53025 20.53053 18.53039
#
# Velocity S-wave (km/s) = 3.11401 3.47040 3.29703
# Velocity P-wave (km/s) = 5.80028 7.01734 6.43764
#
# Compressibility (1/GPa) = 0.02832045
#
# Stress axis : x y z
#
# Youngs Moduli (GPa) = 33.10177 33.09277 85.72759
#
# Poissons Ratio (x) = 0.23763 0.33982
# Poissons Ratio (y) = 0.23769 0.92086
# Poissons Ratio (z) = 0.13121 0.35547
#
# Static dielectric constant tensor:
#      x y z
#    x 1.581800 0.000000 0.000000 
#    y 0.000000 1.577890 0.000000 
#    z 0.000000 0.000000 1.587750 
# 
# From -- ./inp_files/29622.got.cif
#   From: 2010.05.17/outbox.cif.g08.bks.cpg/sg59_15_cif.got.tgz:29622.got - 2010.06.03 14:40:33.
