data_PCOD9448209
_publ_section_title
;
Structure prediction by ZEFSAII (Michael W. Deem and Ramdas Pophale) SiO2 
 PCOD9448209
Probable space group: P M M N
;
_chemical_formula_sum "Si O2"
_cell_formula_units_Z 64
_cell_length_a 7.832091
_cell_length_b 19.417342
_cell_length_c 20.390099
_cell_angle_alpha 90.000000
_cell_angle_beta 90.000000
_cell_angle_gamma 90.000000
_cell_volume 3100.893418
_symmetry_space_group_name_H-M "P M M N"
_symmetry_group_IT_number 59
_space_group.IT_coordinate_system_code '2'
_symmetry_cell_setting 'orthorhombic'
loop_
_space_group_symop_operation_xyz
x,y,z
1/2-x,1/2-y,z
1/2+x,-y,-z
-x,1/2+y,-z
-x,-y,-z
1/2+x,1/2+y,-z
1/2-x,y,z
x,1/2-y,z
loop_
_atom_site_type_symbol
_atom_site_label
_atom_site_fract_x
_atom_site_fract_y
_atom_site_fract_z
Si Si1 0.541656 0.827226 0.277891
Si Si2 0.545228 0.604805 0.787082
Si Si3 0.951585 0.669189 0.428218
Si Si4 0.455246 0.070146 0.963471
Si Si5 0.562487 0.069444 0.463578
Si Si6 0.046325 0.328634 0.348360
Si Si7 0.959060 0.829142 0.923942
Si Si8 0.043098 0.449133 0.815199
O O1 0.750000 0.826264 0.276562
O O2 0.485145 0.750000 0.259900
O O3 0.495233 0.841334 0.353151
O O4 0.482154 0.887290 0.230762
O O5 0.750000 0.613739 0.787049
O O6 0.479637 0.643565 0.721983
O O7 0.481874 0.635497 0.856340
O O8 0.508484 0.523607 0.788314
O O9 0.750000 0.651007 0.434963
O O10 0.966348 0.750000 0.442655
O O11 0.056739 0.624689 0.478218
O O12 0.250000 0.076762 0.959461
O O13 0.519607 0.064250 0.889230
O O14 0.517735 0.130764 0.011112
O O15 0.500000 0.000000 0.000000
O O16 0.750000 0.052343 0.439117
O O17 0.479801 0.112101 0.403363
O O18 0.500000 0.000000 0.500000
O O19 0.250000 0.322258 0.342533
O O20 0.982585 0.250000 0.363502
O O21 0.750000 0.831823 0.923736
O O22 0.010045 0.750000 0.924966
O O23 0.250000 0.447799 0.816146
#
# Coordination Sequence:
#
# PCOD9448209 Si02
#       8
#     8   8   8   8   8   8   8   8
#     4   8  16  32  54  80 110 143 179 220 270 325
#     4  10  20  35  57  83 112 149 188 229 278 334
#     4   9  18  36  61  84 110 147 185 223 273 333
#     4  10  19  32  51  76 107 143 182 229 277 326
#     4  12  26  41  59  85 117 150 188 234 282 335
#     4  10  22  41  63  87 117 152 191 236 287 342
#     4   9  17  31  53  80 107 141 188 234 274 323
#     4  10  20  32  52  82 113 145 184 232 282 330
#
# _framework density 20.639213000000002
#
# number of rings (size 3 to 8) (size 9 to 14) (size 15 to 20)
#    0.000    2.250    1.250    2.625    1.750    4.500 
#    0.000    2.500    0.000    3.375    0.000    1.750 
#    0.000    0.000    0.000    0.000    0.000    0.000 
#
# Total GULP energy -357018.864918 kJ/mol
# GULP energy per Si atom -5578.419764 kJ/mol
# Density = 2.059224 g / cm^3
# Si number density = 20.639213 Si / 1000 Ang^3
#
#
#
# Elastic Constant Matrix: (Units=GPa)
#
#
# Indices 1 2 3 4 5 6 
#
# 1 24.6230 4.7621 10.7937 0.0000 0.0000 0.0000
# 2 4.7621 99.2423 82.7066 0.0000 0.0000 0.0000
# 3 10.7937 82.7066 96.2884 0.0000 0.0000 0.0000
# 4 0.0000 0.0000 0.0000 38.0031 0.0000 0.0000
# 5 0.0000 0.0000 0.0000 0.0000 1.3087 0.0000
# 6 0.0000 0.0000 0.0000 0.0000 0.0000 24.4191
#
#
#
# Elastic Compliance Matrix: (Units=1/GPa)
#
#
# Indices 1 2 3 4 5 6 
#
# 1 0.044068 0.007046 -0.010992 0.000000 0.000000 0.000000
# 2 0.007046 0.036585 -0.032215 0.000000 0.000000 0.000000
# 3 -0.010992 -0.032215 0.039288 0.000000 0.000000 0.000000
# 4 0.000000 0.000000 0.000000 0.026314 0.000000 0.000000
# 5 0.000000 0.000000 0.000000 0.000000 0.764112 0.000000
# 6 0.000000 0.000000 0.000000 0.000000 0.000000 0.040952
#
#
# Mechanical properties :
#
#
# Convention : Reuss Voigt Hill
#
# Bulk Modulus (GPa) = 20.99942 46.29761 33.64851
# Shear Modulus (GPa) = 4.80994 20.87227 12.84111
#
# Velocity S-wave (km/s) = 1.52825 3.18353 2.49704
# Velocity P-wave (km/s) = 3.64838 5.99948 4.96510
#
# Compressibility (1/GPa) = 0.04762037
#
# Stress axis : x y z
#
# Youngs Moduli (GPa) = 22.69209 27.33336 25.45285
#
# Poissons Ratio (x) = -0.19259 0.27978
# Poissons Ratio (y) = -0.15989 0.81996
# Poissons Ratio (z) = 0.24943 0.88054
#
# Static dielectric constant tensor:
#      x y z
#    x 1.791170 0.000000 0.000000 
#    y 0.000000 1.414180 0.000000 
#    z 0.000000 0.000000 1.740780 
# 
# From -- ./inp_files/29358.got.cif
#   From: 2010.05.17/outbox.cif.g08.bks.cpg/sg59_15_cif.got.tgz:29358.got - 2010.06.03 14:40:33.
