data_PCOD9448719
_publ_section_title
;
Structure prediction by ZEFSAII (Michael W. Deem and Ramdas Pophale) SiO2 
 PCOD9448719
Probable space group: P M M N
;
_chemical_formula_sum "Si O2"
_cell_formula_units_Z 64
_cell_length_a 15.688045
_cell_length_b 8.849996
_cell_length_c 24.575679
_cell_angle_alpha 90.000000
_cell_angle_beta 90.000000
_cell_angle_gamma 90.000000
_cell_volume 3412.066027
_symmetry_space_group_name_H-M "P M M N"
_symmetry_group_IT_number 59
_space_group.IT_coordinate_system_code '2'
_symmetry_cell_setting 'orthorhombic'
loop_
_space_group_symop_operation_xyz
x,y,z
1/2-x,1/2-y,z
1/2+x,-y,-z
-x,1/2+y,-z
-x,-y,-z
1/2+x,1/2+y,-z
1/2-x,y,z
x,1/2-y,z
loop_
_atom_site_type_symbol
_atom_site_label
_atom_site_fract_x
_atom_site_fract_y
_atom_site_fract_z
Si Si1 0.396876 0.424992 0.057955
Si Si2 0.996439 0.568141 0.630399
Si Si3 0.349030 0.569279 0.443780
Si Si4 0.656081 0.434270 0.174421
Si Si5 0.154232 0.929916 0.170222
Si Si6 0.993704 0.932279 0.756894
Si Si7 0.396942 0.926866 0.945116
Si Si8 0.151226 0.430949 0.563693
O O1 0.374063 0.250000 0.064608
O O2 0.360989 0.518484 0.108228
O O3 0.500185 0.436940 0.059677
O O4 0.369586 0.485099 0.998962
O O5 0.003647 0.250000 0.373654
O O6 0.916133 0.501770 0.597703
O O7 0.991400 0.524465 0.693795
O O8 0.082705 0.503996 0.603760
O O9 0.250000 0.539245 0.428689
O O10 0.360674 0.750000 0.446629
O O11 0.363085 0.498132 0.503410
O O12 0.750000 0.480763 0.192705
O O13 0.653493 0.250000 0.173594
O O14 0.580211 0.484967 0.213382
O O15 0.640478 0.482186 0.112041
O O16 0.250000 0.973152 0.186490
O O17 0.145860 0.750000 0.173331
O O18 0.085123 0.005815 0.208917
O O19 0.992047 0.750000 0.759595
O O20 0.375071 0.750000 0.951796
O O21 0.250000 0.463982 0.578578
O O22 0.140537 0.250000 0.562180
#
# Coordination Sequence:
#
# PCOD9448719 Si02
#       8
#     8   8   8   8   8   8   8   8
#     4  10  19  33  55  82 113 145 181 227 280 342
#     4  11  23  37  59  87 119 156 195 241 289 345
#     4  10  21  38  61  88 120 156 195 240 288 342
#     4   9  17  33  58  83 108 141 182 229 279 332
#     4  11  24  40  59  82 109 146 191 238 291 346
#     4  10  22  41  60  83 112 148 194 238 282 333
#     4   9  17  31  53  82 114 145 179 222 277 340
#     4  10  21  38  61  89 123 159 195 237 285 338
#
# _framework density 18.756965000000001
#
# number of rings (size 3 to 8) (size 9 to 14) (size 15 to 20)
#    0.000    2.000    1.250    2.250    0.000    5.500 
#    0.000    5.000    0.000    1.125    0.000    0.000 
#    0.000    0.000    0.000    0.000    0.000    0.000 
#
# Total GULP energy -357509.203258 kJ/mol
# GULP energy per Si atom -5586.081301 kJ/mol
# Density = 1.871427 g / cm^3
# Si number density = 18.756965 Si / 1000 Ang^3
#
#
#
# Elastic Constant Matrix: (Units=GPa)
#
#
# Indices 1 2 3 4 5 6 
#
# 1 120.5050 37.9273 85.7074 0.0000 0.0000 0.0000
# 2 37.9273 33.4702 34.0949 0.0000 0.0000 0.0000
# 3 85.7074 34.0949 129.2825 0.0000 0.0000 0.0000
# 4 0.0000 0.0000 0.0000 26.3144 0.0000 0.0000
# 5 0.0000 0.0000 0.0000 0.0000 -11.4916 0.0000
# 6 0.0000 0.0000 0.0000 0.0000 0.0000 19.0650
#
#
#
# Elastic Compliance Matrix: (Units=1/GPa)
#
#
# Indices 1 2 3 4 5 6 
#
# 1 0.018487 -0.011573 -0.009204 0.000000 0.000000 0.000000
# 2 -0.011573 0.048097 -0.005012 0.000000 0.000000 0.000000
# 3 -0.009204 -0.005012 0.015158 0.000000 0.000000 0.000000
# 4 0.000000 0.000000 0.000000 0.038002 0.000000 0.000000
# 5 0.000000 0.000000 0.000000 0.000000 -0.087020 0.000000
# 6 0.000000 0.000000 0.000000 0.000000 0.000000 0.052452
#
#
# Mechanical properties :
#
#
# Convention : Reuss Voigt Hill
#
# Bulk Modulus (GPa) = 33.15130 66.52411 49.83770
# Shear Modulus (GPa) = 34.05769 15.14610 24.60190
#
# Velocity S-wave (km/s) = 4.26577 2.84472 3.62555
# Velocity P-wave (km/s) = 6.47880 6.80685 6.64485
#
# Compressibility (1/GPa) = 0.03016473
#
# Stress axis : x y z
#
# Youngs Moduli (GPa) = 54.09216 20.79116 65.97029
#
# Poissons Ratio (x) = 0.24062 0.60717
# Poissons Ratio (y) = 0.62603 0.33064
# Poissons Ratio (z) = 0.49785 0.10420
#
# Static dielectric constant tensor:
#      x y z
#    x 1.656650 0.000000 0.000000 
#    y 0.000000 1.649130 0.000000 
#    z 0.000000 0.000000 1.612100 
# 
# From -- ./inp_files/32170.got.cif
#   From: 2010.05.17/outbox.cif.g08.bks.cpg/sg59_17_cif.got.tgz:32170.got - 2010.06.03 14:40:33.
