data_PCOD9448450
_publ_section_title
;
Structure prediction by ZEFSAII (Michael W. Deem and Ramdas Pophale) SiO2 
 PCOD9448450
Probable space group: P M M N
;
_chemical_formula_sum "Si O2"
_cell_formula_units_Z 64
_cell_length_a 9.193928
_cell_length_b 18.951761
_cell_length_c 19.183367
_cell_angle_alpha 90.000000
_cell_angle_beta 90.000000
_cell_angle_gamma 90.000000
_cell_volume 3342.531469
_symmetry_space_group_name_H-M "P M M N"
_symmetry_group_IT_number 59
_space_group.IT_coordinate_system_code '2'
_symmetry_cell_setting 'orthorhombic'
loop_
_space_group_symop_operation_xyz
x,y,z
1/2-x,1/2-y,z
1/2+x,-y,-z
-x,1/2+y,-z
-x,-y,-z
1/2+x,1/2+y,-z
1/2-x,y,z
x,1/2-y,z
loop_
_atom_site_type_symbol
_atom_site_label
_atom_site_fract_x
_atom_site_fract_y
_atom_site_fract_z
Si Si1 0.079412 0.950258 0.704854
Si Si2 0.914999 0.165169 0.660228
Si Si3 0.421792 0.578602 0.077016
Si Si4 0.580228 0.166018 0.498585
Si Si5 0.081417 0.406734 0.783839
Si Si6 0.922642 0.589448 0.935650
Si Si7 0.575710 0.833242 0.791876
Si Si8 0.577272 0.541899 0.562773
O O1 0.250000 0.941541 0.687879
O O2 0.009891 0.879076 0.735083
O O3 0.991640 0.976386 0.637255
O O4 0.066779 0.010896 0.763254
O O5 0.750000 0.140352 0.674867
O O6 0.915293 0.250000 0.663890
O O7 0.948290 0.147510 0.579777
O O8 0.022698 0.134590 0.716880
O O9 0.250000 0.589401 0.076191
O O10 0.491183 0.609143 0.147001
O O11 0.449633 0.493774 0.078352
O O12 0.492773 0.607417 0.006259
O O13 0.750000 0.147749 0.484061
O O14 0.565884 0.250000 0.490808
O O15 0.470569 0.122670 0.451295
O O16 0.250000 0.391444 0.795810
O O17 0.750000 0.597704 0.947368
O O18 0.962451 0.635537 0.868243
O O19 0.750000 0.843760 0.782601
O O20 0.545408 0.750000 0.787864
O O21 0.500000 0.500000 0.500000
O O22 0.750000 0.531843 0.561700
#
# Coordination Sequence:
#
# PCOD9448450 Si02
#       8
#     8   8   8   8   8   8   8   8
#     4  11  24  40  59  85 117 152 196 242 290 347
#     4   9  19  36  58  83 111 145 183 225 280 344
#     4  10  19  32  56  83 110 147 188 232 284 336
#     4   9  19  38  62  85 111 147 190 235 287 349
#     4  11  22  35  55  84 115 149 189 235 283 337
#     4   9  18  34  55  82 113 145 187 236 286 338
#     4  10  21  39  62  87 118 157 199 244 297 353
#     4  12  25  40  60  86 118 153 193 243 298 351
#
# _framework density 19.147165000000001
#
# number of rings (size 3 to 8) (size 9 to 14) (size 15 to 20)
#    0.000    1.875    1.250    3.750    0.000    6.250 
#    0.000    1.875    0.000    2.250    0.000    0.000 
#    0.000    0.000    0.000    0.000    0.000    0.000 
#
# Total GULP energy -357532.345934 kJ/mol
# GULP energy per Si atom -5586.442905 kJ/mol
# Density = 1.910358 g / cm^3
# Si number density = 19.147165 Si / 1000 Ang^3
#
#
#
# Elastic Constant Matrix: (Units=GPa)
#
#
# Indices 1 2 3 4 5 6 
#
# 1 73.6128 20.5573 52.9869 0.0000 0.0000 0.0000
# 2 20.5573 36.5947 7.9513 0.0000 0.0000 0.0000
# 3 52.9869 7.9513 86.7826 0.0000 0.0000 0.0000
# 4 0.0000 0.0000 0.0000 29.6178 0.0000 0.0000
# 5 0.0000 0.0000 0.0000 0.0000 36.3069 0.0000
# 6 0.0000 0.0000 0.0000 0.0000 0.0000 26.2607
#
#
#
# Elastic Compliance Matrix: (Units=1/GPa)
#
#
# Indices 1 2 3 4 5 6 
#
# 1 0.029082 -0.012732 -0.016590 0.000000 0.000000 0.000000
# 2 -0.012732 0.033456 0.004709 0.000000 0.000000 0.000000
# 3 -0.016590 0.004709 0.021221 0.000000 0.000000 0.000000
# 4 0.000000 0.000000 0.000000 0.033764 0.000000 0.000000
# 5 0.000000 0.000000 0.000000 0.000000 0.027543 0.000000
# 6 0.000000 0.000000 0.000000 0.000000 0.000000 0.038080
#
#
# Mechanical properties :
#
#
# Convention : Reuss Voigt Hill
#
# Bulk Modulus (GPa) = 28.95920 39.99789 34.47854
# Shear Modulus (GPa) = 20.50175 26.13673 23.31924
#
# Velocity S-wave (km/s) = 3.27578 3.69866 3.49362
# Velocity P-wave (km/s) = 5.42817 6.25901 5.85833
#
# Compressibility (1/GPa) = 0.03453134
#
# Stress axis : x y z
#
# Youngs Moduli (GPa) = 34.38595 29.89033 47.12341
#
# Poissons Ratio (x) = 0.38057 0.78177
# Poissons Ratio (y) = 0.43781 -0.22188
# Poissons Ratio (z) = 0.57046 -0.14074
#
# Static dielectric constant tensor:
#      x y z
#    x 1.639640 0.000000 0.000000 
#    y 0.000000 1.686200 0.000000 
#    z 0.000000 0.000000 1.651840 
# 
# From -- ./inp_files/26296.got.cif
#   From: 2010.05.17/outbox.cif.g08.bks.cpg/sg59_14_cif.got.tgz:26296.got - 2010.06.03 14:40:33.
