data_PCOD9448284
_publ_section_title
;
Structure prediction by ZEFSAII (Michael W. Deem and Ramdas Pophale) SiO2 
 PCOD9448284
Probable space group: P M M N
;
_chemical_formula_sum "Si O2"
_cell_formula_units_Z 56
_cell_length_a 21.939975
_cell_length_b 8.724952
_cell_length_c 17.087772
_cell_angle_alpha 90.000000
_cell_angle_beta 90.000000
_cell_angle_gamma 90.000000
_cell_volume 3271.030664
_symmetry_space_group_name_H-M "P M M N"
_symmetry_group_IT_number 59
_space_group.IT_coordinate_system_code '2'
_symmetry_cell_setting 'orthorhombic'
loop_
_space_group_symop_operation_xyz
x,y,z
1/2-x,1/2-y,z
1/2+x,-y,-z
-x,1/2+y,-z
-x,-y,-z
1/2+x,1/2+y,-z
1/2-x,y,z
x,1/2-y,z
loop_
_atom_site_type_symbol
_atom_site_label
_atom_site_fract_x
_atom_site_fract_y
_atom_site_fract_z
Si Si1 0.940957 0.566317 0.454229
Si Si2 0.473687 0.432128 0.872723
Si Si3 0.318936 0.434956 0.452480
Si Si4 0.678950 0.568824 0.846312
Si Si5 0.584658 0.567813 0.971179
Si Si6 0.014552 0.568212 0.702221
Si Si7 0.380690 0.930624 0.303970
O O1 0.944994 0.750000 0.457627
O O2 0.876382 0.519593 0.493101
O O3 0.945473 0.509819 0.365161
O O4 0.000000 0.500000 0.500000
O O5 0.473542 0.250000 0.858913
O O6 0.535557 0.479920 0.917831
O O7 0.469303 0.515380 0.789944
O O8 0.422877 0.473099 0.937939
O O9 0.250000 0.477254 0.477981
O O10 0.320564 0.250000 0.445774
O O11 0.333717 0.507357 0.368328
O O12 0.750000 0.535884 0.845183
O O13 0.669899 0.750000 0.827466
O O14 0.649317 0.542328 0.930952
O O15 0.644601 0.470922 0.781352
O O16 0.570302 0.750000 0.965489
O O17 0.018468 0.750000 0.695734
O O18 0.945078 0.515504 0.686453
O O19 0.390016 0.750000 0.313082
#
# Coordination Sequence:
#
# PCOD9448284 Si02
#       7
#     8   8   8   8   8   8   8
#     4  11  22  37  59  85 113 145 183 228 276 331
#     4  10  19  32  52  78 104 135 175 222 268 318
#     4  10  22  40  60  81 110 149 186 222 272 336
#     4  10  20  34  52  75 108 148 182 214 261 325
#     4   9  18  32  51  75 105 139 175 214 261 317
#     4  12  23  36  55  79 111 147 183 229 280 328
#     4  12  23  34  52  80 112 146 184 225 272 328
#
# _framework density 17.119985
#
# number of rings (size 3 to 8) (size 9 to 14) (size 15 to 20)
#    0.000    1.429    2.857    3.857    0.000    3.429 
#    0.000    0.000    0.000    0.857    0.000    4.000 
#    0.000    0.000    0.000    0.000    0.000    0.000 
#
# Total GULP energy -312634.318446 kJ/mol
# GULP energy per Si atom -5582.755687 kJ/mol
# Density = 1.708102 g / cm^3
# Si number density = 17.119985 Si / 1000 Ang^3
#
#
#
# Elastic Constant Matrix: (Units=GPa)
#
#
# Indices 1 2 3 4 5 6 
#
# 1 83.4588 31.3776 44.6777 0.0000 0.0000 0.0000
# 2 31.3776 43.6444 25.7617 0.0000 0.0000 0.0000
# 3 44.6777 25.7617 96.6089 0.0000 0.0000 0.0000
# 4 0.0000 0.0000 0.0000 27.7394 0.0000 0.0000
# 5 0.0000 0.0000 0.0000 0.0000 21.3128 0.0000
# 6 0.0000 0.0000 0.0000 0.0000 0.0000 16.8923
#
#
#
# Elastic Compliance Matrix: (Units=1/GPa)
#
#
# Indices 1 2 3 4 5 6 
#
# 1 0.019049 -0.010082 -0.006121 0.000000 0.000000 0.000000
# 2 -0.010082 0.032529 -0.004012 0.000000 0.000000 0.000000
# 3 -0.006121 -0.004012 0.014251 0.000000 0.000000 0.000000
# 4 0.000000 0.000000 0.000000 0.036050 0.000000 0.000000
# 5 0.000000 0.000000 0.000000 0.000000 0.046920 0.000000
# 6 0.000000 0.000000 0.000000 0.000000 0.000000 0.059198
#
#
# Mechanical properties :
#
#
# Convention : Reuss Voigt Hill
#
# Bulk Modulus (GPa) = 39.37000 47.48290 43.42645
# Shear Modulus (GPa) = 19.46329 21.31525 20.38927
#
# Velocity S-wave (km/s) = 3.37542 3.53236 3.45478
# Velocity P-wave (km/s) = 6.18366 6.66576 6.42923
#
# Compressibility (1/GPa) = 0.02540005
#
# Stress axis : x y z
#
# Youngs Moduli (GPa) = 52.49552 30.74199 70.16845
#
# Poissons Ratio (x) = 0.30995 0.42950
# Poissons Ratio (y) = 0.52927 0.28148
# Poissons Ratio (z) = 0.32132 0.12332
#
# Static dielectric constant tensor:
#      x y z
#    x 1.578130 0.000000 0.000000 
#    y 0.000000 1.582770 0.000000 
#    z 0.000000 0.000000 1.583060 
# 
# From -- ./inp_files/28030.got.cif
#   From: 2010.05.17/outbox.cif.g08.bks.cpg/sg59_15_cif.got.tgz:28030.got - 2010.06.03 14:40:33.
