data_PCOD9448355
_publ_section_title
;
Structure prediction by ZEFSAII (Michael W. Deem and Ramdas Pophale) SiO2 
 PCOD9448355
Probable space group: P M M N
;
_chemical_formula_sum "Si O2"
_cell_formula_units_Z 56
_cell_length_a 22.424679
_cell_length_b 11.979696
_cell_length_c 11.708867
_cell_angle_alpha 90.000000
_cell_angle_beta 90.000000
_cell_angle_gamma 90.000000
_cell_volume 3145.479835
_symmetry_space_group_name_H-M "P M M N"
_symmetry_group_IT_number 59
_space_group.IT_coordinate_system_code '2'
_symmetry_cell_setting 'orthorhombic'
loop_
_space_group_symop_operation_xyz
x,y,z
1/2-x,1/2-y,z
1/2+x,-y,-z
-x,1/2+y,-z
-x,-y,-z
1/2+x,1/2+y,-z
1/2-x,y,z
x,1/2-y,z
loop_
_atom_site_type_symbol
_atom_site_label
_atom_site_fract_x
_atom_site_fract_y
_atom_site_fract_z
Si Si1 0.898807 0.481111 0.316361
Si Si2 0.865844 0.877119 0.535924
Si Si3 0.474953 0.381547 0.862272
Si Si4 0.183969 0.115827 0.230987
Si Si5 0.905670 0.496542 0.937009
Si Si6 0.499921 0.874405 0.555782
Si Si7 0.680875 0.116571 0.118157
O O1 0.871608 0.544001 0.426231
O O2 0.940321 0.566136 0.244985
O O3 0.945211 0.385839 0.357069
O O4 0.848421 0.435215 0.232123
O O5 0.850342 0.750000 0.501076
O O6 0.823070 0.917043 0.636308
O O7 0.931505 0.871110 0.594949
O O8 0.475712 0.250000 0.853325
O O9 0.541806 0.427948 0.875776
O O10 0.439007 0.420731 0.974862
O O11 0.250000 0.085811 0.189248
O O12 0.178166 0.250000 0.227889
O O13 0.133956 0.060953 0.154019
O O14 0.861341 0.422268 0.014223
O O15 0.492642 0.750000 0.496784
O O16 0.500000 0.000000 0.500000
O O17 0.750000 0.081508 0.104004
O O18 0.679358 0.250000 0.126106
#
# Coordination Sequence:
#
# PCOD9448355 Si02
#       7
#     8   8   8   8   8   8   8
#     4  10  19  32  53  79 107 138 174 217 267 322
#     4   9  18  32  50  75 107 139 172 214 265 318
#     4  10  20  33  53  81 109 136 169 218 279 332
#     4  10  20  34  53  75 102 140 182 220 257 304
#     4  10  20  35  54  77 104 136 175 218 267 321
#     4   9  17  30  49  74 103 136 173 215 266 321
#     4  10  21  36  54  75 101 137 178 219 263 313
#
# _framework density 17.803325999999998
#
# number of rings (size 3 to 8) (size 9 to 14) (size 15 to 20)
#    0.000    2.286    0.000    3.000    0.000    1.143 
#    0.000    4.286    0.000   10.714    0.000    2.000 
#    0.000    0.000    0.000    0.000    0.000    0.000 
#
# Total GULP energy -311846.009104 kJ/mol
# GULP energy per Si atom -5568.678734 kJ/mol
# Density = 1.776280 g / cm^3
# Si number density = 17.803326 Si / 1000 Ang^3
#
#
#
# Elastic Constant Matrix: (Units=GPa)
#
#
# Indices 1 2 3 4 5 6 
#
# 1 123.9347 47.8210 47.4537 0.0000 0.0000 0.0000
# 2 47.8210 100.3813 42.3531 0.0000 0.0000 0.0000
# 3 47.4537 42.3531 80.3776 0.0000 0.0000 0.0000
# 4 0.0000 0.0000 0.0000 14.7253 0.0000 0.0000
# 5 0.0000 0.0000 0.0000 0.0000 16.6516 0.0000
# 6 0.0000 0.0000 0.0000 0.0000 0.0000 20.3231
#
#
#
# Elastic Compliance Matrix: (Units=1/GPa)
#
#
# Indices 1 2 3 4 5 6 
#
# 1 0.011204 -0.003275 -0.004889 0.000000 0.000000 0.000000
# 2 -0.003275 0.013767 -0.005321 0.000000 0.000000 0.000000
# 3 -0.004889 -0.005321 0.018132 0.000000 0.000000 0.000000
# 4 0.000000 0.000000 0.000000 0.067910 0.000000 0.000000
# 5 0.000000 0.000000 0.000000 0.000000 0.060054 0.000000
# 6 0.000000 0.000000 0.000000 0.000000 0.000000 0.049205
#
#
# Mechanical properties :
#
#
# Convention : Reuss Voigt Hill
#
# Bulk Modulus (GPa) = 61.98438 64.43880 63.21159
# Shear Modulus (GPa) = 19.79254 21.47773 20.63513
#
# Velocity S-wave (km/s) = 3.33788 3.47708 3.40819
# Velocity P-wave (km/s) = 7.05316 7.23833 7.14635
#
# Compressibility (1/GPa) = 0.01613310
#
# Stress axis : x y z
#
# Youngs Moduli (GPa) = 89.25002 72.63699 55.15236
#
# Poissons Ratio (x) = 0.23787 0.26966
# Poissons Ratio (y) = 0.29228 0.29346
# Poissons Ratio (z) = 0.43638 0.38649
#
# Static dielectric constant tensor:
#      x y z
#    x 1.614820 0.000000 0.000000 
#    y 0.000000 1.608920 0.000000 
#    z 0.000000 0.000000 1.620120 
# 
# From -- ./inp_files/18310.got.cif
#   From: 2010.05.17/outbox.cif.g08.bks.cpg/sg59_10_cif.got.tgz:18310.got - 2010.06.03 14:40:33.
