data_PCOD9448863
_publ_section_title
;
Structure prediction by ZEFSAII (Michael W. Deem and Ramdas Pophale) SiO2 
 PCOD9448863
Probable space group: P M M N
;
_chemical_formula_sum "Si O2"
_cell_formula_units_Z 64
_cell_length_a 18.656990
_cell_length_b 14.922237
_cell_length_c 11.646915
_cell_angle_alpha 90.000000
_cell_angle_beta 90.000000
_cell_angle_gamma 90.000000
_cell_volume 3242.548032
_symmetry_space_group_name_H-M "P M M N"
_symmetry_group_IT_number 59
_space_group.IT_coordinate_system_code '2'
_symmetry_cell_setting 'orthorhombic'
loop_
_space_group_symop_operation_xyz
x,y,z
1/2-x,1/2-y,z
1/2+x,-y,-z
-x,1/2+y,-z
-x,-y,-z
1/2+x,1/2+y,-z
1/2-x,y,z
x,1/2-y,z
loop_
_atom_site_type_symbol
_atom_site_label
_atom_site_fract_x
_atom_site_fract_y
_atom_site_fract_z
Si Si1 0.834075 0.948788 0.170182
Si Si2 0.408113 0.642627 0.203840
Si Si3 0.037629 0.147504 0.208641
Si Si4 0.329172 0.357666 0.073225
Si Si5 0.062399 0.570442 0.963973
Si Si6 0.057137 0.357514 0.671390
Si Si7 0.330647 0.640446 0.434969
Si Si8 0.525742 0.359827 0.443606
O O1 0.750000 0.965715 0.188507
O O2 0.873628 0.906006 0.278844
O O3 0.879988 0.032234 0.125126
O O4 0.841640 0.883104 0.059257
O O5 0.401692 0.750000 0.195609
O O6 0.489627 0.623586 0.244748
O O7 0.355787 0.613621 0.306743
O O8 0.398742 0.601662 0.079015
O O9 0.054298 0.250000 0.239314
O O10 0.110052 0.105744 0.157896
O O11 0.981670 0.145268 0.104432
O O12 0.002775 0.105646 0.321926
O O13 0.250000 0.389943 0.104886
O O14 0.330709 0.250000 0.079813
O O15 0.000000 0.500000 0.000000
O O16 0.068208 0.250000 0.671335
O O17 0.029170 0.384015 0.545356
O O18 0.250000 0.610428 0.461498
O O19 0.330579 0.750000 0.436421
O O20 0.394170 0.611281 0.520732
O O21 0.528565 0.250000 0.441263
#
# Coordination Sequence:
#
# PCOD9448863 Si02
#       8
#     8   8   8   8   8   8   8   8
#     4  11  22  34  49  73 106 139 173 216 264 313
#     4   9  17  30  52  77 101 129 169 216 259 307
#     4  10  19  34  55  79 106 140 177 211 254 315
#     4   9  17  30  50  76 103 131 168 216 266 315
#     4  12  21  33  51  76 104 139 175 208 257 313
#     4   9  16  31  53  76 100 128 168 217 260 308
#     4   8  14  27  50  77 101 128 168 221 266 291
#     4   8  16  30  51  79 104 131 173 216 252 304
#
# _framework density 19.737563999999999
#
# number of rings (size 3 to 8) (size 9 to 14) (size 15 to 20)
#    0.000    2.500    2.500    2.250    0.000    3.250 
#    0.000    1.875    0.000    4.125    0.000    0.000 
#    0.000    0.000    0.000    0.000    0.000    0.000 
#
# Total GULP energy -356954.282508 kJ/mol
# GULP energy per Si atom -5577.410664 kJ/mol
# Density = 1.969264 g / cm^3
# Si number density = 19.737564 Si / 1000 Ang^3
#
#
#
# Elastic Constant Matrix: (Units=GPa)
#
#
# Indices 1 2 3 4 5 6 
#
# 1 143.2918 17.2071 50.4805 0.0000 0.0000 0.0000
# 2 17.2071 18.4132 8.5996 0.0000 0.0000 0.0000
# 3 50.4805 8.5996 82.3131 0.0000 0.0000 0.0000
# 4 0.0000 0.0000 0.0000 5.5962 0.0000 0.0000
# 5 0.0000 0.0000 0.0000 0.0000 23.1955 0.0000
# 6 0.0000 0.0000 0.0000 0.0000 0.0000 12.6173
#
#
#
# Elastic Compliance Matrix: (Units=1/GPa)
#
#
# Indices 1 2 3 4 5 6 
#
# 1 0.009597 -0.006538 -0.005202 0.000000 0.000000 0.000000
# 2 -0.006538 0.061549 -0.002421 0.000000 0.000000 0.000000
# 3 -0.005202 -0.002421 0.015592 0.000000 0.000000 0.000000
# 4 0.000000 0.000000 0.000000 0.178691 0.000000 0.000000
# 5 0.000000 0.000000 0.000000 0.000000 0.043112 0.000000
# 6 0.000000 0.000000 0.000000 0.000000 0.000000 0.079256
#
#
# Mechanical properties :
#
#
# Convention : Reuss Voigt Hill
#
# Bulk Modulus (GPa) = 17.11871 44.06586 30.59228
# Shear Modulus (GPa) = 11.47863 19.46386 15.47124
#
# Velocity S-wave (km/s) = 2.41418 3.14368 2.80277
# Velocity P-wave (km/s) = 4.05746 5.96249 5.09972
#
# Compressibility (1/GPa) = 0.05841563
#
# Stress axis : x y z
#
# Youngs Moduli (GPa) = 104.20308 16.24713 64.13527
#
# Poissons Ratio (x) = 0.10623 0.33365
# Poissons Ratio (y) = 0.68132 0.15524
# Poissons Ratio (z) = 0.54209 0.03933
#
# Static dielectric constant tensor:
#      x y z
#    x 1.693390 0.000000 0.000000 
#    y 0.000000 1.806210 0.000000 
#    z 0.000000 0.000000 1.687700 
# 
# From -- ./inp_files/17834.got.cif
#   From: 2010.05.17/outbox.cif.g08.bks.cpg/sg59_9_cif.got.tgz:17834.got - 2010.06.03 14:40:33.
