data_PCOD9448818
_publ_section_title
;
Structure prediction by ZEFSAII (Michael W. Deem and Ramdas Pophale) SiO2 
 PCOD9448818
Probable space group: P M M N
;
_chemical_formula_sum "Si O2"
_cell_formula_units_Z 64
_cell_length_a 7.616213
_cell_length_b 31.621346
_cell_length_c 12.774247
_cell_angle_alpha 90.000000
_cell_angle_beta 90.000000
_cell_angle_gamma 90.000000
_cell_volume 3076.484582
_symmetry_space_group_name_H-M "P M M N"
_symmetry_group_IT_number 59
_space_group.IT_coordinate_system_code '2'
_symmetry_cell_setting 'orthorhombic'
loop_
_space_group_symop_operation_xyz
x,y,z
1/2-x,1/2-y,z
1/2+x,-y,-z
-x,1/2+y,-z
-x,-y,-z
1/2+x,1/2+y,-z
1/2-x,y,z
x,1/2-y,z
loop_
_atom_site_type_symbol
_atom_site_label
_atom_site_fract_x
_atom_site_fract_y
_atom_site_fract_z
Si Si1 0.046314 0.129572 0.083356
Si Si2 0.538209 0.549333 0.519205
Si Si3 0.958603 0.986214 0.118513
Si Si4 0.961579 0.200870 0.238368
Si Si5 0.038609 0.701505 0.527750
Si Si6 0.040231 0.125074 0.626624
Si Si7 0.463955 0.111532 0.856356
Si Si8 0.047400 0.064571 0.250400
O O1 0.250000 0.116330 0.069735
O O2 0.964759 0.095166 0.162837
O O3 0.037355 0.172859 0.146311
O O4 0.973154 0.131361 0.966043
O O5 0.500000 0.500000 0.500000
O O6 0.750000 0.552429 0.521348
O O7 0.473560 0.582787 0.432486
O O8 0.469486 0.563161 0.633735
O O9 0.750000 0.988912 0.133593
O O10 0.043496 0.018164 0.200324
O O11 0.010568 0.937945 0.136612
O O12 0.000000 0.000000 0.000000
O O13 0.750000 0.196837 0.234607
O O14 0.005589 0.250000 0.226496
O O15 0.020956 0.188006 0.355409
O O16 0.250000 0.703407 0.531928
O O17 0.977715 0.750000 0.507672
O O18 0.990741 0.666600 0.442833
O O19 0.250000 0.119686 0.634067
O O20 0.971851 0.128962 0.745199
O O21 0.250000 0.115045 0.854420
O O22 0.250000 0.078379 0.263157
#
# Coordination Sequence:
#
# PCOD9448818 Si02
#       8
#     8   8   8   8   8   8   8   8
#     4  10  19  34  54  76 104 136 172 215 259 306
#     4  10  21  35  52  76 109 145 182 227 274 323
#     4  11  20  34  54  75 103 141 181 221 263 312
#     4   9  19  36  56  79 107 134 164 210 265 320
#     4   9  19  37  59  82 109 139 171 216 277 333
#     4  10  20  36  57  80 106 143 187 226 267 318
#     4   9  19  35  53  74 106 143 177 218 264 309
#     4  10  20  34  51  75 106 137 174 222 268 310
#
# _framework density 20.802963999999999
#
# number of rings (size 3 to 8) (size 9 to 14) (size 15 to 20)
#    0.000    2.250    1.250    2.625    0.000    4.500 
#    0.000    3.750    0.000    3.750    0.000    0.000 
#    0.000    0.000    0.000    0.000    0.000    0.000 
#
# Total GULP energy -357271.801665 kJ/mol
# GULP energy per Si atom -5582.371901 kJ/mol
# Density = 2.075562 g / cm^3
# Si number density = 20.802964 Si / 1000 Ang^3
#
#
#
# Elastic Constant Matrix: (Units=GPa)
#
#
# Indices 1 2 3 4 5 6 
#
# 1 41.8539 -0.9566 9.4786 0.0000 0.0000 0.0000
# 2 -0.9566 87.2885 88.1295 0.0000 0.0000 0.0000
# 3 9.4786 88.1295 219.4054 0.0000 0.0000 0.0000
# 4 0.0000 0.0000 0.0000 35.4368 0.0000 0.0000
# 5 0.0000 0.0000 0.0000 0.0000 9.5232 0.0000
# 6 0.0000 0.0000 0.0000 0.0000 0.0000 26.1150
#
#
#
# Elastic Compliance Matrix: (Units=1/GPa)
#
#
# Indices 1 2 3 4 5 6 
#
# 1 0.024386 0.002239 -0.001953 0.000000 0.000000 0.000000
# 2 0.002239 0.019477 -0.007920 0.000000 0.000000 0.000000
# 3 -0.001953 -0.007920 0.007824 0.000000 0.000000 0.000000
# 4 0.000000 0.000000 0.000000 0.028219 0.000000 0.000000
# 5 0.000000 0.000000 0.000000 0.000000 0.105006 0.000000
# 6 0.000000 0.000000 0.000000 0.000000 0.000000 0.038292
#
#
# Mechanical properties :
#
#
# Convention : Reuss Voigt Hill
#
# Bulk Modulus (GPa) = 27.45858 60.20566 43.83212
# Shear Modulus (GPa) = 19.95111 31.00809 25.47960
#
# Velocity S-wave (km/s) = 3.10022 3.86497 3.50352
# Velocity P-wave (km/s) = 5.10325 6.99436 6.12226
#
# Compressibility (1/GPa) = 0.03641850
#
# Stress axis : x y z
#
# Youngs Moduli (GPa) = 41.00704 51.34151 127.81971
#
# Poissons Ratio (x) = -0.11495 0.24961
# Poissons Ratio (y) = -0.09181 1.01237
# Poissons Ratio (z) = 0.08008 0.40664
#
# Static dielectric constant tensor:
#      x y z
#    x 1.792230 0.000000 0.000000 
#    y 0.000000 1.708480 0.000000 
#    z 0.000000 0.000000 1.775080 
# 
# From -- ./inp_files/14921.got.cif
#   From: 2010.05.17/outbox.cif.g08.bks.cpg/sg59_8_cif.got.tgz:14921.got - 2010.06.03 14:40:33.
