data_PCOD9448755
_publ_section_title
;
Structure prediction by ZEFSAII (Michael W. Deem and Ramdas Pophale) SiO2 
 PCOD9448755
Probable space group: P M M N
;
_chemical_formula_sum "Si O2"
_cell_formula_units_Z 64
_cell_length_a 30.344481
_cell_length_b 8.344958
_cell_length_c 12.946144
_cell_angle_alpha 90.000000
_cell_angle_beta 90.000000
_cell_angle_gamma 90.000000
_cell_volume 3278.266853
_symmetry_space_group_name_H-M "P M M N"
_symmetry_group_IT_number 59
_space_group.IT_coordinate_system_code '2'
_symmetry_cell_setting 'orthorhombic'
loop_
_space_group_symop_operation_xyz
x,y,z
1/2-x,1/2-y,z
1/2+x,-y,-z
-x,1/2+y,-z
-x,-y,-z
1/2+x,1/2+y,-z
1/2-x,y,z
x,1/2-y,z
loop_
_atom_site_type_symbol
_atom_site_label
_atom_site_fract_x
_atom_site_fract_y
_atom_site_fract_z
Si Si1 0.678753 0.939102 0.155251
Si Si2 0.416977 0.941805 0.898886
Si Si3 0.393999 0.945257 0.126588
Si Si4 0.963024 0.556201 0.291788
Si Si5 0.297455 0.557884 0.068220
Si Si6 0.109020 0.441029 0.543273
Si Si7 0.701801 0.058786 0.381374
Si Si8 0.939022 0.056189 0.661628
O O1 0.686674 0.750000 0.152522
O O2 0.626682 0.975036 0.147219
O O3 0.696458 0.008487 0.261919
O O4 0.698904 0.018746 0.053241
O O5 0.410952 0.750000 0.894566
O O6 0.456321 0.992492 0.824103
O O7 0.418366 0.989397 0.019507
O O8 0.393309 0.750000 0.128667
O O9 0.343117 0.001695 0.118002
O O10 0.417525 0.999183 0.230530
O O11 0.962100 0.750000 0.287804
O O12 0.922956 0.498659 0.364425
O O13 0.009826 0.506395 0.339081
O O14 0.250000 0.496709 0.106922
O O15 0.297597 0.750000 0.080047
O O16 0.108395 0.250000 0.549008
O O17 0.159015 0.496087 0.559351
O O18 0.088041 0.495007 0.435788
O O19 0.750000 0.001221 0.418259
O O20 0.701192 0.250000 0.387426
O O21 0.937947 0.250000 0.660028
#
# Coordination Sequence:
#
# PCOD9448755 Si02
#       8
#     8   8   8   8   8   8   8   8
#     4  11  20  31  50  80 117 149 178 220 276 333
#     4  10  19  33  56  83 114 149 184 226 278 336
#     4   8  17  34  54  79 110 147 190 236 281 329
#     4  10  21  36  57  86 115 148 187 236 293 343
#     4   9  17  31  52  77 106 143 187 229 272 327
#     4  11  23  39  58  83 116 148 189 239 288 335
#     4  11  23  38  58  84 112 147 189 227 276 341
#     4  10  21  39  60  80 111 153 197 239 283 337
#
# _framework density 19.522511000000002
#
# number of rings (size 3 to 8) (size 9 to 14) (size 15 to 20)
#    0.000    2.000    1.250    3.750    0.000    4.250 
#    0.000    3.750    0.000    2.250    0.000    0.000 
#    0.000    0.000    0.000    0.000    0.000    0.000 
#
# Total GULP energy -357276.773922 kJ/mol
# GULP energy per Si atom -5582.449593 kJ/mol
# Density = 1.947808 g / cm^3
# Si number density = 19.522511 Si / 1000 Ang^3
#
#
#
# Elastic Constant Matrix: (Units=GPa)
#
#
# Indices 1 2 3 4 5 6 
#
# 1 112.1686 17.6653 51.7722 0.0000 0.0000 0.0000
# 2 17.6653 15.4785 10.8288 0.0000 0.0000 0.0000
# 3 51.7722 10.8288 97.8434 0.0000 0.0000 0.0000
# 4 0.0000 0.0000 0.0000 9.1312 0.0000 0.0000
# 5 0.0000 0.0000 0.0000 0.0000 -5.3992 0.0000
# 6 0.0000 0.0000 0.0000 0.0000 0.0000 14.9596
#
#
#
# Elastic Compliance Matrix: (Units=1/GPa)
#
#
# Indices 1 2 3 4 5 6 
#
# 1 0.013369 -0.011174 -0.005837 0.000000 0.000000 0.000000
# 2 -0.011174 0.079367 -0.002871 0.000000 0.000000 0.000000
# 3 -0.005837 -0.002871 0.013627 0.000000 0.000000 0.000000
# 4 0.000000 0.000000 0.000000 0.109515 0.000000 0.000000
# 5 0.000000 0.000000 0.000000 0.000000 -0.185214 0.000000
# 6 0.000000 0.000000 0.000000 0.000000 0.000000 0.066847
#
#
# Mechanical properties :
#
#
# Convention : Reuss Voigt Hill
#
# Bulk Modulus (GPa) = 15.01557 42.89147 28.95352
# Shear Modulus (GPa) = 31.35269 13.41994 22.38631
#
# Velocity S-wave (km/s) = 4.01181 2.62469 3.38996
# Velocity P-wave (km/s) = 5.40071 5.58599 5.49413
#
# Compressibility (1/GPa) = 0.06659752
#
# Stress axis : x y z
#
# Youngs Moduli (GPa) = 74.79853 12.59968 73.38377
#
# Poissons Ratio (x) = 0.14079 0.42837
# Poissons Ratio (y) = 0.83580 0.21071
# Poissons Ratio (z) = 0.43663 0.03618
#
# Static dielectric constant tensor:
#      x y z
#    x 1.734040 0.000000 0.000000 
#    y 0.000000 1.672460 0.000000 
#    z 0.000000 0.000000 1.655700 
# 
# From -- ./inp_files/19209.got.cif
#   From: 2010.05.17/outbox.cif.g08.bks.cpg/sg59_10_cif.got.tgz:19209.got - 2010.06.03 14:40:33.
