data_PCOD9448625
_publ_section_title
;
Structure prediction by ZEFSAII (Michael W. Deem and Ramdas Pophale) SiO2 
 PCOD9448625
Probable space group: P M M N
;
_chemical_formula_sum "Si O2"
_cell_formula_units_Z 56
_cell_length_a 8.834998
_cell_length_b 26.063497
_cell_length_c 14.607257
_cell_angle_alpha 90.000000
_cell_angle_beta 90.000000
_cell_angle_gamma 90.000000
_cell_volume 3363.626857
_symmetry_space_group_name_H-M "P M M N"
_symmetry_group_IT_number 59
_space_group.IT_coordinate_system_code '2'
_symmetry_cell_setting 'orthorhombic'
loop_
_space_group_symop_operation_xyz
x,y,z
1/2-x,1/2-y,z
1/2+x,-y,-z
-x,1/2+y,-z
-x,-y,-z
1/2+x,1/2+y,-z
1/2-x,y,z
x,1/2-y,z
loop_
_atom_site_type_symbol
_atom_site_label
_atom_site_fract_x
_atom_site_fract_y
_atom_site_fract_z
Si Si1 0.930506 0.557238 0.607087
Si Si2 0.432311 0.648392 0.285412
Si Si3 0.070378 0.311101 0.105009
Si Si4 0.069812 0.653004 0.710457
Si Si5 0.431025 0.689353 0.089098
Si Si6 0.431832 0.750000 0.402701
Si Si7 0.930785 0.750000 0.604064
Si Si8 0.930404 0.553573 0.392464
O O1 0.750000 0.560250 0.619376
O O2 0.964377 0.566074 0.499186
O O3 0.011541 0.600257 0.666890
O O4 0.989419 0.500299 0.629245
O O5 0.250000 0.642305 0.288542
O O6 0.475679 0.658875 0.180152
O O7 0.468796 0.699252 0.344345
O O8 0.510264 0.599285 0.329555
O O9 0.250000 0.318266 0.114194
O O10 0.038339 0.250000 0.115574
O O11 0.984387 0.340474 0.185209
O O12 0.014920 0.325887 0.003799
O O13 0.250000 0.656485 0.704471
O O14 0.996072 0.699851 0.654051
O O15 0.250000 0.684003 0.076307
O O16 0.460341 0.750000 0.105417
O O17 0.250000 0.750000 0.418607
O O18 0.516515 0.750000 0.499008
O O19 0.750000 0.750000 0.610974
O O20 0.750000 0.547656 0.384224
#
# Coordination Sequence:
#
# PCOD9448625 Si02
#       8
#     8   8   8   8   8   4   4   8
#     4  10  21  38  58  79 107 142 182 228 271 316
#     4  10  19  33  54  79 109 145 182 223 270 319
#     4  10  20  34  53  78 109 142 178 222 268 320
#     4  12  23  36  56  80 107 142 180 221 269 324
#     4   9  17  32  53  77 107 142 182 223 264 318
#     4  10  20  34  51  76 109 146 183 218 264 322
#     4  12  24  36  49  74 111 146 179 218 266 320
#     4  10  21  36  55  80 108 142 185 227 268 319
#
# _framework density 16.648695
#
# number of rings (size 3 to 8) (size 9 to 14) (size 15 to 20)
#    0.000    1.714    1.429    4.071    0.000    5.714 
#    0.000    0.000    0.000    0.857    0.000    0.000 
#    0.000    0.000    0.000    0.000    0.000    0.000 
#
# Total GULP energy -312836.854453 kJ/mol
# GULP energy per Si atom -5586.372401 kJ/mol
# Density = 1.661080 g / cm^3
# Si number density = 16.648695 Si / 1000 Ang^3
#
#
#
# Elastic Constant Matrix: (Units=GPa)
#
#
# Indices 1 2 3 4 5 6 
#
# 1 84.9892 62.6757 73.0448 0.0000 0.0000 0.0000
# 2 62.6757 108.5920 81.5986 0.0000 0.0000 0.0000
# 3 73.0448 81.5986 135.8455 0.0000 0.0000 0.0000
# 4 0.0000 0.0000 0.0000 13.8355 0.0000 0.0000
# 5 0.0000 0.0000 0.0000 0.0000 25.5270 0.0000
# 6 0.0000 0.0000 0.0000 0.0000 0.0000 29.1514
#
#
#
# Elastic Compliance Matrix: (Units=1/GPa)
#
#
# Indices 1 2 3 4 5 6 
#
# 1 0.025138 -0.007932 -0.008752 0.000000 0.000000 0.000000
# 2 -0.007932 0.019288 -0.007320 0.000000 0.000000 0.000000
# 3 -0.008752 -0.007320 0.016465 0.000000 0.000000 0.000000
# 4 0.000000 0.000000 0.000000 0.072278 0.000000 0.000000
# 5 0.000000 0.000000 0.000000 0.000000 0.039174 0.000000
# 6 0.000000 0.000000 0.000000 0.000000 0.000000 0.034304
#
#
# Mechanical properties :
#
#
# Convention : Reuss Voigt Hill
#
# Bulk Modulus (GPa) = 77.63563 84.89612 81.26588
# Shear Modulus (GPa) = 19.30881 21.17660 20.24270
#
# Velocity S-wave (km/s) = 3.40925 3.57033 3.49072
# Velocity P-wave (km/s) = 7.88861 8.25226 8.07248
#
# Compressibility (1/GPa) = 0.01288068
#
# Stress axis : x y z
#
# Youngs Moduli (GPa) = 39.78040 51.84644 60.73662
#
# Poissons Ratio (x) = 0.41126 0.53158
# Poissons Ratio (y) = 0.31555 0.44462
# Poissons Ratio (z) = 0.34816 0.37954
#
# Static dielectric constant tensor:
#      x y z
#    x 1.554300 0.000000 0.000000 
#    y 0.000000 1.528770 0.000000 
#    z 0.000000 0.000000 1.549040 
# 
# From -- ./inp_files/21183.got.cif
#   From: 2010.05.17/outbox.cif.g08.bks.cpg/sg59_11_cif.got.tgz:21183.got - 2010.06.03 14:40:33.
