data_PCOD9448771
_publ_section_title
;
Structure prediction by ZEFSAII (Michael W. Deem and Ramdas Pophale) SiO2 
 PCOD9448771
Probable space group: P M M N
;
_chemical_formula_sum "Si O2"
_cell_formula_units_Z 56
_cell_length_a 14.595791
_cell_length_b 7.845264
_cell_length_c 22.850985
_cell_angle_alpha 90.000000
_cell_angle_beta 90.000000
_cell_angle_gamma 90.000000
_cell_volume 2616.616790
_symmetry_space_group_name_H-M "P M M N"
_symmetry_group_IT_number 59
_space_group.IT_coordinate_system_code '2'
_symmetry_cell_setting 'orthorhombic'
loop_
_space_group_symop_operation_xyz
x,y,z
1/2-x,1/2-y,z
1/2+x,-y,-z
-x,1/2+y,-z
-x,-y,-z
1/2+x,1/2+y,-z
1/2-x,y,z
x,1/2-y,z
loop_
_atom_site_type_symbol
_atom_site_label
_atom_site_fract_x
_atom_site_fract_y
_atom_site_fract_z
Si Si1 0.474645 0.438856 0.935604
Si Si2 0.448954 0.954604 0.583901
Si Si3 0.952464 0.456406 0.289961
Si Si4 0.152501 0.046188 0.268491
Si Si5 0.354053 0.044130 0.831364
Si Si6 0.354895 0.956112 0.464562
Si Si7 0.148898 0.451311 0.128325
O O1 0.437686 0.250000 0.944779
O O2 0.405667 0.525767 0.889212
O O3 0.569692 0.442434 0.900565
O O4 0.500000 0.500000 0.000000
O O5 0.441775 0.750000 0.582534
O O6 0.413325 0.012802 0.647398
O O7 0.389444 0.017608 0.528881
O O8 0.557551 0.993991 0.575363
O O9 0.955357 0.250000 0.290038
O O10 0.903846 0.503900 0.229697
O O11 0.056747 0.523752 0.289918
O O12 0.250000 0.975537 0.290084
O O13 0.153357 0.250000 0.280350
O O14 0.149666 0.027674 0.198190
O O15 0.250000 0.983180 0.829391
O O16 0.354298 0.250000 0.835414
O O17 0.250000 0.014698 0.451322
O O18 0.351991 0.750000 0.464667
O O19 0.250000 0.495208 0.106125
O O20 0.132463 0.250000 0.116855
#
# Coordination Sequence:
#
# PCOD9448771 Si02
#       7
#     8   8   8   8   8   8   8
#     4  11  23  38  58  82 109 142 183 230 275 322
#     4   9  19  33  52  82 112 141 182 233 280 325
#     4  10  19  33  57  85 112 141 180 228 275 324
#     4   8  14  26  47  75 105 135 165 203 260 325
#     4  10  23  42  59  78 110 150 186 222 270 326
#     4   9  18  34  53  73 107 152 191 229 275 326
#     4   9  17  32  55  79 105 137 170 209 264 326
#
# _framework density 21.401682999999998
#
# number of rings (size 3 to 8) (size 9 to 14) (size 15 to 20)
#    0.000    2.571    1.429    1.286    0.000    3.714 
#    0.000    4.286    0.000    0.429    0.000    0.000 
#    0.000    0.000    0.000    0.000    0.000    0.000 
#
# Total GULP energy -312070.675851 kJ/mol
# GULP energy per Si atom -5572.690640 kJ/mol
# Density = 2.135297 g / cm^3
# Si number density = 21.401683 Si / 1000 Ang^3
#
#
#
# Elastic Constant Matrix: (Units=GPa)
#
#
# Indices 1 2 3 4 5 6 
#
# 1 86.8433 -2.5696 44.2063 0.0000 0.0000 0.0000
# 2 -2.5696 17.9031 10.1931 0.0000 0.0000 0.0000
# 3 44.2063 10.1931 130.2899 0.0000 0.0000 0.0000
# 4 0.0000 0.0000 0.0000 14.7462 0.0000 0.0000
# 5 0.0000 0.0000 0.0000 0.0000 -10.9954 0.0000
# 6 0.0000 0.0000 0.0000 0.0000 0.0000 20.3962
#
#
#
# Elastic Compliance Matrix: (Units=1/GPa)
#
#
# Indices 1 2 3 4 5 6 
#
# 1 0.014343 0.005055 -0.005262 0.000000 0.000000 0.000000
# 2 0.005055 0.060242 -0.006428 0.000000 0.000000 0.000000
# 3 -0.005262 -0.006428 0.009963 0.000000 0.000000 0.000000
# 4 0.000000 0.000000 0.000000 0.067814 0.000000 0.000000
# 5 0.000000 0.000000 0.000000 0.000000 -0.090947 0.000000
# 6 0.000000 0.000000 0.000000 0.000000 0.000000 0.049029
#
#
# Mechanical properties :
#
#
# Convention : Reuss Voigt Hill
#
# Bulk Modulus (GPa) = 14.02969 37.63286 25.83128
# Shear Modulus (GPa) = 33.90439 17.04316 25.47377
#
# Velocity S-wave (km/s) = 3.98451 2.82502 3.45377
# Velocity P-wave (km/s) = 5.26669 5.31632 5.29156
#
# Compressibility (1/GPa) = 0.07127742
#
# Stress axis : x y z
#
# Youngs Moduli (GPa) = 69.72012 16.59984 100.36734
#
# Poissons Ratio (x) = -0.08390 0.52812
# Poissons Ratio (y) = -0.35240 0.64515
# Poissons Ratio (z) = 0.36686 0.10670
#
# Static dielectric constant tensor:
#      x y z
#    x 1.783570 0.000000 0.000000 
#    y 0.000000 1.836900 0.000000 
#    z 0.000000 0.000000 1.797500 
# 
# From -- ./inp_files/30288.got.cif
#   From: 2010.05.17/outbox.cif.g08.bks.cpg/sg59_16_cif.got.tgz:30288.got - 2010.06.03 14:40:33.
