data_PCOD9448939
_publ_section_title
;
Structure prediction by ZEFSAII (Michael W. Deem and Ramdas Pophale) SiO2 
 PCOD9448939
Probable space group: P M M N
;
_chemical_formula_sum "Si O2"
_cell_formula_units_Z 64
_cell_length_a 18.947808
_cell_length_b 7.772881
_cell_length_c 20.502062
_cell_angle_alpha 90.000000
_cell_angle_beta 90.000000
_cell_angle_gamma 90.000000
_cell_volume 3019.524354
_symmetry_space_group_name_H-M "P M M N"
_symmetry_group_IT_number 59
_space_group.IT_coordinate_system_code '2'
_symmetry_cell_setting 'orthorhombic'
loop_
_space_group_symop_operation_xyz
x,y,z
1/2-x,1/2-y,z
1/2+x,-y,-z
-x,1/2+y,-z
-x,-y,-z
1/2+x,1/2+y,-z
1/2-x,y,z
x,1/2-y,z
loop_
_atom_site_type_symbol
_atom_site_label
_atom_site_fract_x
_atom_site_fract_y
_atom_site_fract_z
Si Si1 0.931912 0.040945 0.290573
Si Si2 0.589552 0.049601 0.676365
Si Si3 0.170965 0.046828 0.197383
Si Si4 0.327193 0.951551 0.818064
Si Si5 0.595026 0.547732 0.058644
Si Si6 0.169764 0.540221 0.590059
Si Si7 0.564254 0.959231 0.913290
Si Si8 0.576811 0.042572 0.529346
O O1 0.938902 0.250000 0.289337
O O2 0.889611 0.978879 0.227102
O O3 0.883602 0.991771 0.352304
O O4 0.010018 0.969482 0.297222
O O5 0.607901 0.250000 0.671941
O O6 0.588247 0.976300 0.602764
O O7 0.641879 0.971431 0.729460
O O8 0.250000 0.974181 0.190624
O O9 0.175406 0.250000 0.183332
O O10 0.113317 0.978287 0.145728
O O11 0.250000 0.028039 0.805786
O O12 0.323043 0.750000 0.800753
O O13 0.349001 0.965505 0.893003
O O14 0.609225 0.750000 0.057109
O O15 0.516818 0.517712 0.087853
O O16 0.593700 0.484772 0.984044
O O17 0.250000 0.481456 0.599961
O O18 0.171235 0.750000 0.590020
O O19 0.135956 0.483251 0.521754
O O20 0.562062 0.750000 0.912369
O O21 0.580118 0.250000 0.532266
O O22 0.500000 0.000000 0.500000
#
# Coordination Sequence:
#
# PCOD9448939 Si02
#       8
#     8   8   8   8   8   8   8   8
#     4  10  19  34  57  79 103 142 187 228 264 316
#     4  11  23  36  55  84 115 145 177 223 279 331
#     4  10  22  40  60  81 107 145 192 235 275 325
#     4  10  21  35  51  76 110 144 180 223 270 322
#     4  10  20  34  56  84 111 141 181 227 277 331
#     4   9  17  31  54  81 104 134 180 226 266 312
#     4   9  19  37  59  81 107 142 185 231 272 321
#     4  10  20  35  56  81 109 143 181 224 269 324
#
# _framework density 21.19539
#
# number of rings (size 3 to 8) (size 9 to 14) (size 15 to 20)
#    0.000    2.125    1.250    1.875    0.000    8.000 
#    0.000    2.500    0.000    2.250    0.000    0.000 
#    0.000    0.000    0.000    0.000    0.000    0.000 
#
# Total GULP energy -357426.724645 kJ/mol
# GULP energy per Si atom -5584.792573 kJ/mol
# Density = 2.114715 g / cm^3
# Si number density = 21.195390 Si / 1000 Ang^3
#
#
#
# Elastic Constant Matrix: (Units=GPa)
#
#
# Indices 1 2 3 4 5 6 
#
# 1 46.1406 -9.0728 14.5566 0.0000 0.0000 0.0000
# 2 -9.0728 26.5691 -4.3141 0.0000 0.0000 0.0000
# 3 14.5566 -4.3141 96.4509 0.0000 0.0000 0.0000
# 4 0.0000 0.0000 0.0000 19.4284 0.0000 0.0000
# 5 0.0000 0.0000 0.0000 0.0000 16.3123 0.0000
# 6 0.0000 0.0000 0.0000 0.0000 0.0000 10.6683
#
#
#
# Elastic Compliance Matrix: (Units=1/GPa)
#
#
# Indices 1 2 3 4 5 6 
#
# 1 0.024240 0.007740 -0.003312 0.000000 0.000000 0.000000
# 2 0.007740 0.040384 0.000638 0.000000 0.000000 0.000000
# 3 -0.003312 0.000638 0.010896 0.000000 0.000000 0.000000
# 4 0.000000 0.000000 0.000000 0.051471 0.000000 0.000000
# 5 0.000000 0.000000 0.000000 0.000000 0.061304 0.000000
# 6 0.000000 0.000000 0.000000 0.000000 0.000000 0.093736
#
#
# Mechanical properties :
#
#
# Convention : Reuss Voigt Hill
#
# Bulk Modulus (GPa) = 11.67519 19.05556 15.36538
# Shear Modulus (GPa) = 16.64173 20.48120 18.56146
#
# Velocity S-wave (km/s) = 2.80511 3.11192 2.96249
# Velocity P-wave (km/s) = 4.00148 4.68209 4.35510
#
# Compressibility (1/GPa) = 0.08565168
#
# Stress axis : x y z
#
# Youngs Moduli (GPa) = 41.25470 24.76212 91.77351
#
# Poissons Ratio (x) = -0.19165 0.30397
# Poissons Ratio (y) = -0.31929 -0.05858
# Poissons Ratio (z) = 0.13664 -0.01580
#
# Static dielectric constant tensor:
#      x y z
#    x 1.731590 0.000000 0.000000 
#    y 0.000000 1.808450 0.000000 
#    z 0.000000 0.000000 1.773420 
# 
# From -- ./inp_files/30833.got.cif
#   From: 2010.05.17/outbox.cif.g08.bks.cpg/sg59_16_cif.got.tgz:30833.got - 2010.06.03 14:40:33.
