data_PCOD9448622
_publ_section_title
;
Structure prediction by ZEFSAII (Michael W. Deem and Ramdas Pophale) SiO2 
 PCOD9448622
Probable space group: P M M N
;
_chemical_formula_sum "Si O2"
_cell_formula_units_Z 64
_cell_length_a 7.460040
_cell_length_b 22.074910
_cell_length_c 16.892802
_cell_angle_alpha 90.000000
_cell_angle_beta 90.000000
_cell_angle_gamma 90.000000
_cell_volume 2781.901761
_symmetry_space_group_name_H-M "P M M N"
_symmetry_group_IT_number 59
_space_group.IT_coordinate_system_code '2'
_symmetry_cell_setting 'orthorhombic'
loop_
_space_group_symop_operation_xyz
x,y,z
1/2-x,1/2-y,z
1/2+x,-y,-z
-x,1/2+y,-z
-x,-y,-z
1/2+x,1/2+y,-z
1/2-x,y,z
x,1/2-y,z
loop_
_atom_site_type_symbol
_atom_site_label
_atom_site_fract_x
_atom_site_fract_y
_atom_site_fract_z
Si Si1 0.543515 0.440692 0.107975
Si Si2 0.957096 0.316543 0.177513
Si Si3 0.968687 0.679941 0.189133
Si Si4 0.467968 0.148829 0.352365
Si Si5 0.454296 0.478843 0.410364
Si Si6 0.533168 0.897996 0.340805
Si Si7 0.467405 0.313837 0.523392
Si Si8 0.031648 0.428274 0.923680
O O1 0.750000 0.443016 0.135647
O O2 0.461303 0.379682 0.145174
O O3 0.471423 0.509261 0.119833
O O4 0.535762 0.431397 0.013329
O O5 0.750000 0.315726 0.149915
O O6 0.034194 0.250000 0.156430
O O7 0.960118 0.323622 0.272007
O O8 0.750000 0.681803 0.189794
O O9 0.028555 0.750000 0.184115
O O10 0.024573 0.644518 0.268824
O O11 0.021662 0.633919 0.119054
O O12 0.250000 0.151252 0.344476
O O13 0.519188 0.182739 0.432685
O O14 0.536652 0.080952 0.371353
O O15 0.500000 0.500000 0.500000
O O16 0.250000 0.460858 0.419675
O O17 0.474438 0.533142 0.348255
O O18 0.750000 0.898753 0.339147
O O19 0.469297 0.867993 0.422574
O O20 0.250000 0.316447 0.524608
O O21 0.521582 0.250000 0.559717
O O22 0.250000 0.430168 0.925727
#
# Coordination Sequence:
#
# PCOD9448622 Si02
#       8
#     8   8   8   8   8   8   8   8
#     4   9  19  36  56  79 109 144 180 219 269 329
#     4  10  22  38  56  81 112 144 180 223 272 327
#     4   9  18  32  54  85 114 141 181 228 269 319
#     4  10  21  36  53  77 107 141 182 226 269 318
#     4  11  22  37  55  79 107 139 183 231 277 324
#     4  10  19  33  54  79 108 142 180 221 271 323
#     4   9  16  29  50  73 100 137 179 219 259 310
#     4   9  18  34  56  82 110 141 181 225 268 316
#
# _framework density 23.005844
#
# number of rings (size 3 to 8) (size 9 to 14) (size 15 to 20)
#    0.000    2.375    1.250    1.125    1.750    4.250 
#    0.000    0.625    0.000    2.250    0.000    0.000 
#    0.000    0.000    0.000    0.000    0.000    0.000 
#
# Total GULP energy -357045.600018 kJ/mol
# GULP energy per Si atom -5578.837500 kJ/mol
# Density = 2.295348 g / cm^3
# Si number density = 23.005844 Si / 1000 Ang^3
#
#
#
# Elastic Constant Matrix: (Units=GPa)
#
#
# Indices 1 2 3 4 5 6 
#
# 1 66.1280 -6.0818 -11.6220 0.0000 0.0000 0.0000
# 2 -6.0818 180.4506 23.2680 0.0000 0.0000 0.0000
# 3 -11.6220 23.2680 41.7217 0.0000 0.0000 0.0000
# 4 0.0000 0.0000 0.0000 28.7353 0.0000 0.0000
# 5 0.0000 0.0000 0.0000 0.0000 11.5945 0.0000
# 6 0.0000 0.0000 0.0000 0.0000 0.0000 -29.4903
#
#
#
# Elastic Compliance Matrix: (Units=1/GPa)
#
#
# Indices 1 2 3 4 5 6 
#
# 1 0.015901 -0.000038 0.004451 0.000000 0.000000 0.000000
# 2 -0.000038 0.005971 -0.003341 0.000000 0.000000 0.000000
# 3 0.004451 -0.003341 0.027071 0.000000 0.000000 0.000000
# 4 0.000000 0.000000 0.000000 0.034800 0.000000 0.000000
# 5 0.000000 0.000000 0.000000 0.000000 0.086248 0.000000
# 6 0.000000 0.000000 0.000000 0.000000 0.000000 -0.033909
#
#
# Mechanical properties :
#
#
# Convention : Reuss Voigt Hill
#
# Bulk Modulus (GPa) = 19.57447 33.26986 26.42216
# Shear Modulus (GPa) = 33.11986 21.01699 27.06843
#
# Velocity S-wave (km/s) = 3.79836 3.02578 3.43387
# Velocity P-wave (km/s) = 5.26912 5.16720 5.21841
#
# Compressibility (1/GPa) = 0.05108696
#
# Stress axis : x y z
#
# Youngs Moduli (GPa) = 62.88959 167.47159 36.93973
#
# Poissons Ratio (x) = 0.00636 -0.16440
# Poissons Ratio (y) = 0.00239 0.12340
# Poissons Ratio (z) = -0.27989 0.55947
#
# Static dielectric constant tensor:
#      x y z
#    x 1.886220 0.000000 0.000000 
#    y 0.000000 1.903860 0.000000 
#    z 0.000000 0.000000 1.813390 
# 
# From -- ./inp_files/26280.got.cif
#   From: 2010.05.17/outbox.cif.g08.bks.cpg/sg59_14_cif.got.tgz:26280.got - 2010.06.03 14:40:33.
