data_PCOD9448357
_publ_section_title
;
Structure prediction by ZEFSAII (Michael W. Deem and Ramdas Pophale) SiO2 
 PCOD9448357
Probable space group: P M M N
;
_chemical_formula_sum "Si O2"
_cell_formula_units_Z 64
_cell_length_a 8.357180
_cell_length_b 15.132855
_cell_length_c 25.103754
_cell_angle_alpha 90.000000
_cell_angle_beta 90.000000
_cell_angle_gamma 90.000000
_cell_volume 3174.821389
_symmetry_space_group_name_H-M "P M M N"
_symmetry_group_IT_number 59
_space_group.IT_coordinate_system_code '2'
_symmetry_cell_setting 'orthorhombic'
loop_
_space_group_symop_operation_xyz
x,y,z
1/2-x,1/2-y,z
1/2+x,-y,-z
-x,1/2+y,-z
-x,-y,-z
1/2+x,1/2+y,-z
1/2-x,y,z
x,1/2-y,z
loop_
_atom_site_type_symbol
_atom_site_label
_atom_site_fract_x
_atom_site_fract_y
_atom_site_fract_z
Si Si1 0.559903 0.654298 0.915981
Si Si2 0.940112 0.849438 0.137140
Si Si3 0.442657 0.149949 0.471968
Si Si4 0.554874 0.848224 0.403900
Si Si5 0.936599 0.407121 0.977506
Si Si6 0.943157 0.148713 0.274810
Si Si7 0.559106 0.970881 0.822240
Si Si8 0.942212 0.036938 0.375387
O O1 0.750000 0.642749 0.926700
O O2 0.539447 0.750000 0.889230
O O3 0.504405 0.577237 0.876867
O O4 0.469589 0.653716 0.971697
O O5 0.750000 0.849642 0.144114
O O6 0.000889 0.750000 0.147713
O O7 0.978139 0.873949 0.075718
O O8 0.010739 0.927090 0.173589
O O9 0.250000 0.144046 0.469729
O O10 0.488885 0.250000 0.455554
O O11 0.489198 0.139566 0.533816
O O12 0.515153 0.079157 0.432167
O O13 0.750000 0.847068 0.402120
O O14 0.501022 0.750000 0.386781
O O15 0.499532 0.935421 0.372854
O O16 0.750000 0.414325 0.964981
O O17 0.000000 0.500000 0.000000
O O18 0.750000 0.152547 0.276995
O O19 0.001565 0.250000 0.269545
O O20 0.002504 0.101170 0.328784
O O21 0.990125 0.085437 0.226205
O O22 0.750000 0.963922 0.820680
O O23 0.750000 0.034228 0.371043
#
# Coordination Sequence:
#
# PCOD9448357 Si02
#       8
#     8   8   8   8   8   8   8   8
#     4  10  21  37  57  83 114 146 182 228 282 337
#     4  11  24  42  64  89 119 154 190 231 280 336
#     4   9  17  29  47  74 109 146 182 225 280 341
#     4   8  15  29  49  75 108 145 184 226 276 334
#     4  12  23  36  57  86 120 158 194 229 276 330
#     4  10  22  39  57  80 113 147 181 229 287 343
#     4  11  23  40  63  86 110 145 189 237 284 333
#     4  10  19  32  53  79 107 144 189 235 279 327
#
# _framework density 20.158615999999999
#
# number of rings (size 3 to 8) (size 9 to 14) (size 15 to 20)
#    0.000    1.875    1.250    4.125    0.000    5.250 
#    0.000    0.625    0.000    3.375    0.000    0.000 
#    0.000    0.000    0.000    0.000    0.000    0.000 
#
# Total GULP energy -357310.362734 kJ/mol
# GULP energy per Si atom -5582.974418 kJ/mol
# Density = 2.011273 g / cm^3
# Si number density = 20.158616 Si / 1000 Ang^3
#
#
#
# Elastic Constant Matrix: (Units=GPa)
#
#
# Indices 1 2 3 4 5 6 
#
# 1 10.4587 13.5385 6.2015 0.0000 0.0000 0.0000
# 2 13.5385 189.4366 53.6653 0.0000 0.0000 0.0000
# 3 6.2015 53.6653 53.3262 0.0000 0.0000 0.0000
# 4 0.0000 0.0000 0.0000 29.3231 0.0000 0.0000
# 5 0.0000 0.0000 0.0000 0.0000 19.0091 0.0000
# 6 0.0000 0.0000 0.0000 0.0000 0.0000 19.6575
#
#
#
# Elastic Compliance Matrix: (Units=1/GPa)
#
#
# Indices 1 2 3 4 5 6 
#
# 1 0.107017 -0.005767 -0.006642 0.000000 0.000000 0.000000
# 2 -0.005767 0.007695 -0.007073 0.000000 0.000000 0.000000
# 3 -0.006642 -0.007073 0.026643 0.000000 0.000000 0.000000
# 4 0.000000 0.000000 0.000000 0.034103 0.000000 0.000000
# 5 0.000000 0.000000 0.000000 0.000000 0.052606 0.000000
# 6 0.000000 0.000000 0.000000 0.000000 0.000000 0.050871
#
#
# Mechanical properties :
#
#
# Convention : Reuss Voigt Hill
#
# Bulk Modulus (GPa) = 9.76642 44.44800 27.10721
# Shear Modulus (GPa) = 14.20337 25.58569 19.89453
#
# Velocity S-wave (km/s) = 2.65727 3.56647 3.14490
# Velocity P-wave (km/s) = 3.77758 6.24953 5.16366
#
# Compressibility (1/GPa) = 0.10239162
#
# Stress axis : x y z
#
# Youngs Moduli (GPa) = 9.34427 129.96086 37.53349
#
# Poissons Ratio (x) = 0.74943 0.24930
# Poissons Ratio (y) = 0.05388 0.26547
# Poissons Ratio (z) = 0.06207 0.91921
#
# Static dielectric constant tensor:
#      x y z
#    x 1.680010 0.000000 0.000000 
#    y 0.000000 1.758960 0.000000 
#    z 0.000000 0.000000 1.719670 
# 
# From -- ./inp_files/31398.got.cif
#   From: 2010.05.17/outbox.cif.g08.bks.cpg/sg59_16_cif.got.tgz:31398.got - 2010.06.03 14:40:33.
