data_PCOD9448199
_publ_section_title
;
Structure prediction by ZEFSAII (Michael W. Deem and Ramdas Pophale) SiO2 
 PCOD9448199
Probable space group: P M M N
;
_chemical_formula_sum "Si O2"
_cell_formula_units_Z 64
_cell_length_a 8.923854
_cell_length_b 20.922475
_cell_length_c 20.017055
_cell_angle_alpha 90.000000
_cell_angle_beta 90.000000
_cell_angle_gamma 90.000000
_cell_volume 3737.366568
_symmetry_space_group_name_H-M "P M M N"
_symmetry_group_IT_number 59
_space_group.IT_coordinate_system_code '2'
_symmetry_cell_setting 'orthorhombic'
loop_
_space_group_symop_operation_xyz
x,y,z
1/2-x,1/2-y,z
1/2+x,-y,-z
-x,1/2+y,-z
-x,-y,-z
1/2+x,1/2+y,-z
1/2-x,y,z
x,1/2-y,z
loop_
_atom_site_type_symbol
_atom_site_label
_atom_site_fract_x
_atom_site_fract_y
_atom_site_fract_z
Si Si1 0.925779 0.518260 0.673533
Si Si2 0.928422 0.059822 0.460602
Si Si3 0.926384 0.865032 0.184433
Si Si4 0.427178 0.981655 0.812922
Si Si5 0.571682 0.677063 0.461543
Si Si6 0.929913 0.321439 0.952773
Si Si7 0.068932 0.558455 0.958792
Si Si8 0.073302 0.635700 0.325008
O O1 0.750000 0.531483 0.664663
O O2 0.946575 0.441273 0.667826
O O3 0.020065 0.551839 0.615736
O O4 0.981391 0.536683 0.747215
O O5 0.750000 0.057085 0.466967
O O6 0.990100 0.124666 0.493119
O O7 0.000000 0.000000 0.500000
O O8 0.750000 0.851518 0.189628
O O9 0.945509 0.941884 0.177043
O O10 0.995165 0.833634 0.118769
O O11 0.008303 0.845715 0.252846
O O12 0.250000 0.970232 0.801671
O O13 0.475142 0.947565 0.881272
O O14 0.750000 0.665911 0.463287
O O15 0.541888 0.750000 0.482678
O O16 0.512955 0.667714 0.386085
O O17 0.750000 0.326211 0.944409
O O18 0.965676 0.250000 0.976203
O O19 0.975813 0.376030 0.004981
O O20 0.250000 0.553132 0.960771
O O21 0.000000 0.500000 0.000000
O O22 0.250000 0.649516 0.328635
#
# Coordination Sequence:
#
# PCOD9448199 Si02
#       8
#     8   8   8   8   8   8   8   8
#     4  10  20  34  55  84 112 142 181 226 275 326
#     4  12  23  37  60  86 114 148 186 231 276 327
#     4  10  19  32  51  75 106 142 182 225 268 318
#     4   9  18  32  51  78 107 137 175 223 275 323
#     4  11  24  40  58  82 114 150 187 229 277 328
#     4  10  21  35  51  74 106 143 179 218 267 323
#     4  10  19  33  54  78 105 136 177 222 268 319
#     4  10  20  34  54  79 110 148 187 226 268 324
#
# _framework density 17.124355999999999
#
# number of rings (size 3 to 8) (size 9 to 14) (size 15 to 20)
#    0.000    1.750    2.500    2.625    0.000    3.750 
#    0.000    0.000    0.000    0.750    0.000    1.750 
#    0.000    0.000    0.000    0.000    0.000    0.000 
#
# Total GULP energy -357476.816229 kJ/mol
# GULP energy per Si atom -5585.575254 kJ/mol
# Density = 1.708538 g / cm^3
# Si number density = 17.124356 Si / 1000 Ang^3
#
#
#
# Elastic Constant Matrix: (Units=GPa)
#
#
# Indices 1 2 3 4 5 6 
#
# 1 82.5532 62.6016 54.1131 0.0000 0.0000 0.0000
# 2 62.6016 95.5972 63.4005 0.0000 0.0000 0.0000
# 3 54.1131 63.4005 118.0464 0.0000 0.0000 0.0000
# 4 0.0000 0.0000 0.0000 18.1816 0.0000 0.0000
# 5 0.0000 0.0000 0.0000 0.0000 31.8019 0.0000
# 6 0.0000 0.0000 0.0000 0.0000 0.0000 19.7263
#
#
#
# Elastic Compliance Matrix: (Units=1/GPa)
#
#
# Indices 1 2 3 4 5 6 
#
# 1 0.025335 -0.013806 -0.004199 0.000000 0.000000 0.000000
# 2 -0.013806 0.023771 -0.006438 0.000000 0.000000 0.000000
# 3 -0.004199 -0.006438 0.013854 0.000000 0.000000 0.000000
# 4 0.000000 0.000000 0.000000 0.055001 0.000000 0.000000
# 5 0.000000 0.000000 0.000000 0.000000 0.031445 0.000000
# 6 0.000000 0.000000 0.000000 0.000000 0.000000 0.050694
#
#
# Mechanical properties :
#
#
# Convention : Reuss Voigt Hill
#
# Bulk Modulus (GPa) = 71.05303 72.93636 71.99470
# Shear Modulus (GPa) = 19.71013 21.68074 20.69544
#
# Velocity S-wave (km/s) = 3.39632 3.56206 3.48017
# Velocity P-wave (km/s) = 7.54735 7.72025 7.63429
#
# Compressibility (1/GPa) = 0.01407399
#
# Stress axis : x y z
#
# Youngs Moduli (GPa) = 39.47126 42.06758 72.18156
#
# Poissons Ratio (x) = 0.58078 0.30308
# Poissons Ratio (y) = 0.54493 0.46474
# Poissons Ratio (z) = 0.16573 0.27085
#
# Static dielectric constant tensor:
#      x y z
#    x 1.572090 0.000000 0.000000 
#    y 0.000000 1.577490 0.000000 
#    z 0.000000 0.000000 1.563000 
# 
# From -- ./inp_files/26231.got.cif
#   From: 2010.05.17/outbox.cif.g08.bks.cpg/sg59_14_cif.got.tgz:26231.got - 2010.06.03 14:40:33.
