data_PCOD9448084
_publ_section_title
;
Structure prediction by ZEFSAII (Michael W. Deem and Ramdas Pophale) SiO2 
 PCOD9448084
Probable space group: P M M N
;
_chemical_formula_sum "Si O2"
_cell_formula_units_Z 64
_cell_length_a 20.593277
_cell_length_b 7.412995
_cell_length_c 20.586266
_cell_angle_alpha 90.000000
_cell_angle_beta 90.000000
_cell_angle_gamma 90.000000
_cell_volume 3142.655301
_symmetry_space_group_name_H-M "P M M N"
_symmetry_group_IT_number 59
_space_group.IT_coordinate_system_code '2'
_symmetry_cell_setting 'orthorhombic'
loop_
_space_group_symop_operation_xyz
x,y,z
1/2-x,1/2-y,z
1/2+x,-y,-z
-x,1/2+y,-z
-x,-y,-z
1/2+x,1/2+y,-z
1/2-x,y,z
x,1/2-y,z
loop_
_atom_site_type_symbol
_atom_site_label
_atom_site_fract_x
_atom_site_fract_y
_atom_site_fract_z
Si Si1 0.823042 0.965137 0.036815
Si Si2 0.031186 0.531240 0.345298
Si Si3 0.177416 0.969055 0.744352
Si Si4 0.925315 0.034493 0.520440
Si Si5 0.616886 0.039265 0.386427
Si Si6 0.822822 0.466411 0.885771
Si Si7 0.556391 0.028583 0.801271
Si Si8 0.578178 0.541371 0.141927
O O1 0.750000 0.036207 0.049832
O O2 0.820135 0.750000 0.048048
O O3 0.837665 0.994127 0.961112
O O4 0.878584 0.039228 0.084039
O O5 0.030582 0.750000 0.346176
O O6 0.076703 0.469466 0.405249
O O7 0.052071 0.472429 0.273864
O O8 0.957349 0.473310 0.360562
O O9 0.250000 0.023050 0.763946
O O10 0.174495 0.750000 0.744610
O O11 0.160976 0.033775 0.671528
O O12 0.123490 0.034585 0.794419
O O13 0.915280 0.250000 0.521942
O O14 0.883598 0.962389 0.459698
O O15 0.000000 0.000000 0.500000
O O16 0.633878 0.250000 0.392442
O O17 0.750000 0.534948 0.872249
O O18 0.820930 0.250000 0.879438
O O19 0.878999 0.531409 0.838137
O O20 0.555388 0.250000 0.800989
O O21 0.491806 0.965556 0.838971
O O22 0.566000 0.750000 0.124511
#
# Coordination Sequence:
#
# PCOD9448084 Si02
#       8
#     8   8   8   8   8   8   8   8
#     4   9  18  32  48  66  89 116 147 185 225 267
#     4   9  15  26  44  65  88 114 144 183 227 264
#     4  10  20  31  43  62  92 128 159 188 225 270
#     4   8  14  23  39  61  83 110 143 178 217 258
#     4   9  16  27  41  60  88 117 149 187 221 260
#     4   9  18  33  51  68  88 118 151 181 223 280
#     4   9  17  29  47  70  94 117 146 189 231 267
#     4  10  19  32  49  68  91 119 152 190 230 269
#
# _framework density 20.364943
#
# number of rings (size 3 to 8) (size 9 to 14) (size 15 to 20)
#    0.000    2.875    1.250    0.375    0.000    1.750 
#    0.000    2.500    0.000    0.750    0.000    5.250 
#    0.000    0.000    0.000   11.000    0.000   11.000 
#
# Total GULP energy -356823.171377 kJ/mol
# GULP energy per Si atom -5575.362053 kJ/mol
# Density = 2.031859 g / cm^3
# Si number density = 20.364943 Si / 1000 Ang^3
#
#
#
# Elastic Constant Matrix: (Units=GPa)
#
#
# Indices 1 2 3 4 5 6 
#
# 1 96.7627 -1.8754 76.2397 0.0000 0.0000 0.0000
# 2 -1.8754 69.0438 -3.2254 0.0000 0.0000 0.0000
# 3 76.2397 -3.2254 134.2081 0.0000 0.0000 0.0000
# 4 0.0000 0.0000 0.0000 -84.9399 0.0000 0.0000
# 5 0.0000 0.0000 0.0000 0.0000 17.8899 0.0000
# 6 0.0000 0.0000 0.0000 0.0000 0.0000 -51.0220
#
#
#
# Elastic Compliance Matrix: (Units=1/GPa)
#
#
# Indices 1 2 3 4 5 6 
#
# 1 0.018708 0.000012 -0.010627 0.000000 0.000000 0.000000
# 2 0.000012 0.014500 0.000342 0.000000 0.000000 0.000000
# 3 -0.010627 0.000342 0.013496 0.000000 0.000000 0.000000
# 4 0.000000 0.000000 0.000000 -0.011773 0.000000 0.000000
# 5 0.000000 0.000000 0.000000 0.000000 0.055898 0.000000
# 6 0.000000 0.000000 0.000000 0.000000 0.000000 -0.019599
#
#
# Mechanical properties :
#
#
# Convention : Reuss Voigt Hill
#
# Bulk Modulus (GPa) = 38.23092 49.14362 43.68727
# Shear Modulus (GPa) = 49.75346 -8.35602 20.69872
#
# Velocity S-wave (km/s) = 4.94813 -2.02782 3.19155
# Velocity P-wave (km/s) = 7.17349 4.32448 5.92284
#
# Compressibility (1/GPa) = 0.02615684
#
# Stress axis : x y z
#
# Youngs Moduli (GPa) = 53.45316 68.96623 74.09432
#
# Poissons Ratio (x) = -0.00081 0.78741
# Poissons Ratio (y) = -0.00063 -0.02533
# Poissons Ratio (z) = 0.56806 -0.02357
#
# Static dielectric constant tensor:
#      x y z
#    x 1.695360 0.000000 0.000000 
#    y 0.000000 1.565990 0.000000 
#    z 0.000000 0.000000 1.742020 
# 
# From -- ./inp_files/30905.got.cif
#   From: 2010.05.17/outbox.cif.g08.bks.cpg/sg59_16_cif.got.tgz:30905.got - 2010.06.03 14:40:33.
