data_PCOD9448452
_publ_section_title
;
Structure prediction by ZEFSAII (Michael W. Deem and Ramdas Pophale) SiO2 
 PCOD9448452
Probable space group: P M M N
;
_chemical_formula_sum "Si O2"
_cell_formula_units_Z 64
_cell_length_a 15.529321
_cell_length_b 8.769937
_cell_length_c 24.197544
_cell_angle_alpha 90.000000
_cell_angle_beta 90.000000
_cell_angle_gamma 90.000000
_cell_volume 3295.491752
_symmetry_space_group_name_H-M "P M M N"
_symmetry_group_IT_number 59
_space_group.IT_coordinate_system_code '2'
_symmetry_cell_setting 'orthorhombic'
loop_
_space_group_symop_operation_xyz
x,y,z
1/2-x,1/2-y,z
1/2+x,-y,-z
-x,1/2+y,-z
-x,-y,-z
1/2+x,1/2+y,-z
1/2-x,y,z
x,1/2-y,z
loop_
_atom_site_type_symbol
_atom_site_label
_atom_site_fract_x
_atom_site_fract_y
_atom_site_fract_z
Si Si1 0.652937 0.572146 0.171162
Si Si2 0.652736 0.067591 0.816727
Si Si3 0.008058 0.929486 0.753769
Si Si4 0.149680 0.568043 0.550434
Si Si5 0.605250 0.070668 0.059376
Si Si6 0.650335 0.932554 0.571170
Si Si7 0.010079 0.431276 0.633594
Si Si8 0.583640 0.431773 0.937541
O O1 0.750000 0.549734 0.192080
O O2 0.629672 0.750000 0.176561
O O3 0.583988 0.473508 0.204089
O O4 0.649782 0.525421 0.107014
O O5 0.750000 0.024197 0.802032
O O6 0.642934 0.250000 0.808319
O O7 0.636267 0.039533 0.881927
O O8 0.580960 0.982104 0.781682
O O9 0.007197 0.750000 0.743530
O O10 0.021696 0.016785 0.696477
O O11 0.250000 0.537625 0.564774
O O12 0.138576 0.750000 0.545627
O O13 0.133092 0.492133 0.490872
O O14 0.084364 0.502806 0.595292
O O15 0.618923 0.250000 0.069455
O O16 0.503923 0.028770 0.063769
O O17 0.629863 0.036501 0.995885
O O18 0.750000 0.970934 0.584467
O O19 0.641230 0.750000 0.572512
O O20 0.581558 0.007724 0.611596
O O21 0.012852 0.250000 0.629091
O O22 0.561393 0.250000 0.938414
#
# Coordination Sequence:
#
# PCOD9448452 Si02
#       8
#     8   8   8   8   8   8   8   8
#     4  11  24  42  63  86 116 156 199 246 303 366
#     4  10  21  39  63  88 117 157 200 243 297 361
#     4  12  26  44  64  87 117 154 202 257 306 354
#     4  10  21  39  64  95 131 167 204 248 297 352
#     4  10  19  32  56  89 120 153 192 241 297 355
#     4  10  21  39  64  95 131 167 205 251 299 349
#     4  12  25  41  64  90 122 164 206 250 301 360
#     4   9  18  33  56  85 121 157 192 237 294 359
#
# _framework density 19.420470000000002
#
# number of rings (size 3 to 8) (size 9 to 14) (size 15 to 20)
#    0.000    1.500    1.250    4.125    0.000    4.750 
#    0.000    1.250    0.000    0.000    0.000    0.000 
#    0.000    0.000    0.000    0.000    0.000    0.000 
#
# Total GULP energy -357797.299118 kJ/mol
# GULP energy per Si atom -5590.582799 kJ/mol
# Density = 1.937627 g / cm^3
# Si number density = 19.420470 Si / 1000 Ang^3
#
#
#
# Elastic Constant Matrix: (Units=GPa)
#
#
# Indices 1 2 3 4 5 6 
#
# 1 42.8803 15.3318 2.8865 0.0000 0.0000 0.0000
# 2 15.3318 53.9055 1.1975 0.0000 0.0000 0.0000
# 3 2.8865 1.1975 40.4150 0.0000 0.0000 0.0000
# 4 0.0000 0.0000 0.0000 34.2156 0.0000 0.0000
# 5 0.0000 0.0000 0.0000 0.0000 -13.0922 0.0000
# 6 0.0000 0.0000 0.0000 0.0000 0.0000 -2.0190
#
#
#
# Elastic Compliance Matrix: (Units=1/GPa)
#
#
# Indices 1 2 3 4 5 6 
#
# 1 0.026069 -0.007378 -0.001643 0.000000 0.000000 0.000000
# 2 -0.007378 0.020651 -0.000085 0.000000 0.000000 0.000000
# 3 -0.001643 -0.000085 0.024863 0.000000 0.000000 0.000000
# 4 0.000000 0.000000 0.000000 0.029226 0.000000 0.000000
# 5 0.000000 0.000000 0.000000 0.000000 -0.076382 0.000000
# 6 0.000000 0.000000 0.000000 0.000000 0.000000 -0.495288
#
#
# Mechanical properties :
#
#
# Convention : Reuss Voigt Hill
#
# Bulk Modulus (GPa) = 18.73670 19.55914 19.14792
# Shear Modulus (GPa) = -11.49806 11.67321 0.08758
#
# Velocity S-wave (km/s) = -2.43587 2.45435 0.21258
# Velocity P-wave (km/s) = 1.32575 4.25735 3.15299
#
# Compressibility (1/GPa) = 0.05337119
#
# Stress axis : x y z
#
# Youngs Moduli (GPa) = 38.35912 48.42291 40.22010
#
# Poissons Ratio (x) = 0.35727 0.06609
# Poissons Ratio (y) = 0.28302 0.00342
# Poissons Ratio (z) = 0.06304 0.00411
#
# Static dielectric constant tensor:
#      x y z
#    x 1.676360 0.000000 0.000000 
#    y 0.000000 1.654950 0.000000 
#    z 0.000000 0.000000 1.658880 
# 
# From -- ./inp_files/32182.got.cif
#   From: 2010.05.17/outbox.cif.g08.bks.cpg/sg59_17_cif.got.tgz:32182.got - 2010.06.03 14:40:33.
