data_PCOD9448091
_publ_section_title
;
Structure prediction by ZEFSAII (Michael W. Deem and Ramdas Pophale) SiO2 
 PCOD9448091
Probable space group: P M M N
;
_chemical_formula_sum "Si O2"
_cell_formula_units_Z 64
_cell_length_a 9.012122
_cell_length_b 29.145966
_cell_length_c 15.862210
_cell_angle_alpha 90.000000
_cell_angle_beta 90.000000
_cell_angle_gamma 90.000000
_cell_volume 4166.479136
_symmetry_space_group_name_H-M "P M M N"
_symmetry_group_IT_number 59
_space_group.IT_coordinate_system_code '2'
_symmetry_cell_setting 'orthorhombic'
loop_
_space_group_symop_operation_xyz
x,y,z
1/2-x,1/2-y,z
1/2+x,-y,-z
-x,1/2+y,-z
-x,-y,-z
1/2+x,1/2+y,-z
1/2-x,y,z
x,1/2-y,z
loop_
_atom_site_type_symbol
_atom_site_label
_atom_site_fract_x
_atom_site_fract_y
_atom_site_fract_z
Si Si1 0.071059 0.144542 0.163789
Si Si2 0.571785 0.696011 0.665975
Si Si3 0.072819 0.453913 0.099313
Si Si4 0.920501 0.194316 0.508264
Si Si5 0.072875 0.195606 0.683059
Si Si6 0.928048 0.358528 0.836984
Si Si7 0.073553 0.449716 0.899726
Si Si8 0.071565 0.803338 0.993305
O O1 0.250000 0.147501 0.157661
O O2 0.026593 0.166589 0.252801
O O3 0.030697 0.091210 0.151651
O O4 0.002151 0.172891 0.086938
O O5 0.750000 0.692946 0.656346
O O6 0.536220 0.750000 0.680241
O O7 0.495223 0.680237 0.579599
O O8 0.250000 0.461563 0.107022
O O9 0.986928 0.499997 0.123233
O O10 0.042545 0.444010 0.000187
O O11 0.750000 0.179241 0.513645
O O12 0.921878 0.250000 0.507014
O O13 0.010607 0.181097 0.591696
O O14 0.250000 0.190399 0.685475
O O15 0.038797 0.250000 0.694360
O O16 0.996745 0.166676 0.756534
O O17 0.750000 0.359555 0.830573
O O18 0.992142 0.409326 0.850176
O O19 0.969052 0.329739 0.920986
O O20 0.250000 0.446867 0.887842
O O21 0.250000 0.805804 0.984854
O O22 0.028771 0.750000 0.998648
#
# Coordination Sequence:
#
# PCOD9448091 Si02
#       8
#     8   8   8   8   8   8   8   8
#     4  10  19  32  49  70  95 127 165 202 239 284
#     4   9  17  29  46  69  97 128 161 197 237 280
#     4   9  18  32  49  69  94 123 160 204 249 290
#     4   9  17  30  48  69  94 125 160 199 241 282
#     4  10  20  33  50  72  98 128 163 202 241 284
#     4  11  21  33  49  69  97 130 164 200 243 290
#     4  10  19  32  50  70  93 122 162 206 248 290
#     4  10  21  33  44  63  95 132 165 196 232 278
#
# _framework density 15.360690999999999
#
# number of rings (size 3 to 8) (size 9 to 14) (size 15 to 20)
#    0.000    2.250    1.250    2.250    0.000    5.500 
#    0.000    1.250    0.000    0.000    0.000    0.875 
#    0.000    0.000    0.000    0.000    0.000    0.000 
#
# Total GULP energy -357028.466853 kJ/mol
# GULP energy per Si atom -5578.569795 kJ/mol
# Density = 1.532573 g / cm^3
# Si number density = 15.360691 Si / 1000 Ang^3
#
#
#
# Elastic Constant Matrix: (Units=GPa)
#
#
# Indices 1 2 3 4 5 6 
#
# 1 47.7518 47.3208 55.4047 0.0000 0.0000 0.0000
# 2 47.3208 106.9399 72.5780 0.0000 0.0000 0.0000
# 3 55.4047 72.5780 138.7575 0.0000 0.0000 0.0000
# 4 0.0000 0.0000 0.0000 6.9410 0.0000 0.0000
# 5 0.0000 0.0000 0.0000 0.0000 24.8865 0.0000
# 6 0.0000 0.0000 0.0000 0.0000 0.0000 23.5063
#
#
#
# Elastic Compliance Matrix: (Units=1/GPa)
#
#
# Indices 1 2 3 4 5 6 
#
# 1 0.048188 -0.012813 -0.012539 0.000000 0.000000 0.000000
# 2 -0.012813 0.017904 -0.004249 0.000000 0.000000 0.000000
# 3 -0.012539 -0.004249 0.014436 0.000000 0.000000 0.000000
# 4 0.000000 0.000000 0.000000 0.144072 0.000000 0.000000
# 5 0.000000 0.000000 0.000000 0.000000 0.040182 0.000000
# 6 0.000000 0.000000 0.000000 0.000000 0.000000 0.042542
#
#
# Mechanical properties :
#
#
# Convention : Reuss Voigt Hill
#
# Bulk Modulus (GPa) = 46.89074 71.56181 59.22628
# Shear Modulus (GPa) = 13.38206 18.94312 16.16259
#
# Velocity S-wave (km/s) = 2.95479 3.51553 3.24729
# Velocity P-wave (km/s) = 6.49875 7.94779 7.25952
#
# Compressibility (1/GPa) = 0.02132617
#
# Stress axis : x y z
#
# Youngs Moduli (GPa) = 20.75225 55.85209 69.27156
#
# Poissons Ratio (x) = 0.71563 0.86859
# Poissons Ratio (y) = 0.26590 0.29433
# Poissons Ratio (z) = 0.26021 0.23731
#
# Static dielectric constant tensor:
#      x y z
#    x 1.510740 0.000000 0.000000 
#    y 0.000000 1.495540 0.000000 
#    z 0.000000 0.000000 1.488810 
# 
# From -- ./inp_files/21882.got.cif
#   From: 2010.05.17/outbox.cif.g08.bks.cpg/sg59_11_cif.got.tgz:21882.got - 2010.06.03 14:40:33.
