data_PCOD9448296
_publ_section_title
;
Structure prediction by ZEFSAII (Michael W. Deem and Ramdas Pophale) SiO2 
 PCOD9448296
Probable space group: P M M N
;
_chemical_formula_sum "Si O2"
_cell_formula_units_Z 48
_cell_length_a 7.653643
_cell_length_b 22.764291
_cell_length_c 12.446381
_cell_angle_alpha 90.000000
_cell_angle_beta 90.000000
_cell_angle_gamma 90.000000
_cell_volume 2168.529930
_symmetry_space_group_name_H-M "P M M N"
_symmetry_group_IT_number 59
_space_group.IT_coordinate_system_code '2'
_symmetry_cell_setting 'orthorhombic'
loop_
_space_group_symop_operation_xyz
x,y,z
1/2-x,1/2-y,z
1/2+x,-y,-z
-x,1/2+y,-z
-x,-y,-z
1/2+x,1/2+y,-z
1/2-x,y,z
x,1/2-y,z
loop_
_atom_site_type_symbol
_atom_site_label
_atom_site_fract_x
_atom_site_fract_y
_atom_site_fract_z
Si Si1 0.540461 0.023532 0.618383
Si Si2 0.036182 0.085010 0.247563
Si Si3 0.040322 0.070281 0.006628
Si Si4 0.960494 0.813254 0.594200
Si Si5 0.542234 0.154577 0.647295
Si Si6 0.546404 0.814510 0.118057
O O1 0.750000 0.026625 0.626520
O O2 0.477428 0.977420 0.706045
O O3 0.500000 0.000000 0.500000
O O4 0.471538 0.088295 0.637446
O O5 0.250000 0.085649 0.248864
O O6 0.982796 0.091291 0.125003
O O7 0.974628 0.134282 0.330977
O O8 0.250000 0.071475 0.999685
O O9 0.975047 0.122216 0.925754
O O10 0.000000 0.000000 0.000000
O O11 0.750000 0.815378 0.597770
O O12 0.018935 0.750000 0.635670
O O13 0.010321 0.818558 0.469688
O O14 0.750000 0.154266 0.664723
O O15 0.463547 0.183297 0.752762
O O16 0.750000 0.813424 0.085595
O O17 0.471822 0.750000 0.084268
#
# Coordination Sequence:
#
# PCOD9448296 Si02
#       6
#     8   8   8   8   8   8
#     4  10  19  32  52  78 108 141 177 218 269 331
#     4   9  18  34  55  79 108 139 175 223 276 327
#     4  10  21  39  62  86 115 149 190 242 293 344
#     4  10  20  34  54  79 108 145 185 223 270 333
#     4  11  22  35  55  83 114 148 186 233 287 340
#     4  10  22  39  59  84 114 154 202 245 287 342
#
# _framework density 22.134810999999999
#
# number of rings (size 3 to 8) (size 9 to 14) (size 15 to 20)
#    0.000    2.000    1.667    2.000    0.000    6.000 
#    0.000    5.000    0.000    0.000    0.000    2.333 
#    0.000    0.000    0.000    0.000    0.000    0.000 
#
# Total GULP energy -267854.136074 kJ/mol
# GULP energy per Si atom -5580.294502 kJ/mol
# Density = 2.208443 g / cm^3
# Si number density = 22.134811 Si / 1000 Ang^3
#
#
#
# Elastic Constant Matrix: (Units=GPa)
#
#
# Indices 1 2 3 4 5 6 
#
# 1 44.3599 12.3712 -5.6296 0.0000 0.0000 0.0000
# 2 12.3712 186.6136 53.6396 0.0000 0.0000 0.0000
# 3 -5.6296 53.6396 105.3999 0.0000 0.0000 0.0000
# 4 0.0000 0.0000 0.0000 6.6555 0.0000 0.0000
# 5 0.0000 0.0000 0.0000 0.0000 10.4488 0.0000
# 6 0.0000 0.0000 0.0000 0.0000 0.0000 14.1232
#
#
#
# Elastic Compliance Matrix: (Units=1/GPa)
#
#
# Indices 1 2 3 4 5 6 
#
# 1 0.023473 -0.002245 0.002396 0.000000 0.000000 0.000000
# 2 -0.002245 0.006492 -0.003424 0.000000 0.000000 0.000000
# 3 0.002396 -0.003424 0.011358 0.000000 0.000000 0.000000
# 4 0.000000 0.000000 0.000000 0.150251 0.000000 0.000000
# 5 0.000000 0.000000 0.000000 0.000000 0.095705 0.000000
# 6 0.000000 0.000000 0.000000 0.000000 0.000000 0.070805
#
#
# Mechanical properties :
#
#
# Convention : Reuss Voigt Hill
#
# Bulk Modulus (GPa) = 28.75374 50.79287 39.77331
# Shear Modulus (GPa) = 13.29006 24.64498 18.96752
#
# Velocity S-wave (km/s) = 2.45299 3.34039 2.93048
# Velocity P-wave (km/s) = 4.58709 6.15422 5.42752
#
# Compressibility (1/GPa) = 0.03477808
#
# Stress axis : x y z
#
# Youngs Moduli (GPa) = 42.60209 154.04672 88.04401
#
# Poissons Ratio (x) = 0.34581 -0.21097
# Poissons Ratio (y) = 0.09564 0.30142
# Poissons Ratio (z) = -0.10208 0.52739
#
# Static dielectric constant tensor:
#      x y z
#    x 1.823680 0.000000 0.000000 
#    y 0.000000 1.971890 0.000000 
#    z 0.000000 0.000000 1.777200 
# 
# From -- ./inp_files/14393.got.cif
#   From: 2010.05.17/outbox.cif.g08.bks.cpg/sg59_8_cif.got.tgz:14393.got - 2010.06.03 14:40:33.
