data_PCOD9448975
_publ_section_title
;
Structure prediction by ZEFSAII (Michael W. Deem and Ramdas Pophale) SiO2 
 PCOD9448975
Probable space group: P M M N
;
_chemical_formula_sum "Si O2"
_cell_formula_units_Z 56
_cell_length_a 13.962977
_cell_length_b 16.090580
_cell_length_c 12.798414
_cell_angle_alpha 90.000000
_cell_angle_beta 90.000000
_cell_angle_gamma 90.000000
_cell_volume 2875.450370
_symmetry_space_group_name_H-M "P M M N"
_symmetry_group_IT_number 59
_space_group.IT_coordinate_system_code '2'
_symmetry_cell_setting 'orthorhombic'
loop_
_space_group_symop_operation_xyz
x,y,z
1/2-x,1/2-y,z
1/2+x,-y,-z
-x,1/2+y,-z
-x,-y,-z
1/2+x,1/2+y,-z
1/2-x,y,z
x,1/2-y,z
loop_
_atom_site_type_symbol
_atom_site_label
_atom_site_fract_x
_atom_site_fract_y
_atom_site_fract_z
Si Si1 0.434706 0.850451 0.114049
Si Si2 0.457972 0.568093 0.694570
Si Si3 0.361211 0.543311 0.309659
Si Si4 0.857897 0.898500 0.373580
Si Si5 0.360409 0.848838 0.885244
Si Si6 0.353096 0.153794 0.862497
Si Si7 0.048425 0.844160 0.483475
O O1 0.435212 0.750000 0.132189
O O2 0.388993 0.896599 0.212755
O O3 0.545053 0.880393 0.100900
O O4 0.380225 0.867242 0.006538
O O5 0.566121 0.533848 0.695039
O O6 0.392294 0.490546 0.658420
O O7 0.426336 0.600454 0.806695
O O8 0.444264 0.636770 0.605531
O O9 0.250000 0.521763 0.306464
O O10 0.387711 0.593123 0.415261
O O11 0.750000 0.897908 0.415880
O O12 0.858110 0.849902 0.263410
O O13 0.939000 0.861430 0.447801
O O14 0.250000 0.866541 0.859827
O O15 0.377105 0.750000 0.871788
O O16 0.250000 0.114974 0.892677
O O17 0.350841 0.250000 0.895688
O O18 0.074612 0.750000 0.458736
#
# Coordination Sequence:
#
# PCOD9448975 Si02
#       7
#     8   8   8   8   8   8   8
#     4  10  19  36  60  87 119 152 194 247 296 344
#     4  11  23  39  58  81 119 156 194 238 285 347
#     4  11  23  39  59  87 119 151 191 242 302 352
#     4  10  19  34  57  85 113 145 185 234 289 345
#     4  10  22  40  62  86 114 154 199 240 286 345
#     4   9  16  29  53  84 115 145 181 230 289 346
#     4  11  23  38  58  85 114 151 193 239 291 346
#
# _framework density 19.475211000000002
#
# number of rings (size 3 to 8) (size 9 to 14) (size 15 to 20)
#    0.000    1.714    2.857    3.857    0.000    6.000 
#    0.000    0.714    0.000    2.143    0.000    0.000 
#    0.000    0.000    0.000    0.000    0.000    0.000 
#
# Total GULP energy -312707.100919 kJ/mol
# GULP energy per Si atom -5584.055374 kJ/mol
# Density = 1.943088 g / cm^3
# Si number density = 19.475211 Si / 1000 Ang^3
#
#
#
# Elastic Constant Matrix: (Units=GPa)
#
#
# Indices 1 2 3 4 5 6 
#
# 1 89.7648 17.4157 9.2080 0.0000 0.0000 0.0000
# 2 17.4157 24.3063 9.8576 0.0000 0.0000 0.0000
# 3 9.2080 9.8576 65.6656 0.0000 0.0000 0.0000
# 4 0.0000 0.0000 0.0000 53.7616 0.0000 0.0000
# 5 0.0000 0.0000 0.0000 0.0000 -5.1590 0.0000
# 6 0.0000 0.0000 0.0000 0.0000 0.0000 31.8528
#
#
#
# Elastic Compliance Matrix: (Units=1/GPa)
#
#
# Indices 1 2 3 4 5 6 
#
# 1 0.012951 -0.009097 -0.000450 0.000000 0.000000 0.000000
# 2 -0.009097 0.050199 -0.006260 0.000000 0.000000 0.000000
# 3 -0.000450 -0.006260 0.016232 0.000000 0.000000 0.000000
# 4 0.000000 0.000000 0.000000 0.018601 0.000000 0.000000
# 5 0.000000 0.000000 0.000000 0.000000 -0.193835 0.000000
# 6 0.000000 0.000000 0.000000 0.000000 0.000000 0.031394
#
#
# Mechanical properties :
#
#
# Convention : Reuss Voigt Hill
#
# Bulk Modulus (GPa) = 20.93527 28.07770 24.50648
# Shear Modulus (GPa) = -295.49038 25.64144 -134.92447
#
# Velocity S-wave (km/s) = -12.33109 3.63246 -8.33250
# Velocity P-wave (km/s) = 13.85525 5.66052 8.94222
#
# Compressibility (1/GPa) = 0.04776628
#
# Stress axis : x y z
#
# Youngs Moduli (GPa) = 77.21157 19.92085 61.60829
#
# Poissons Ratio (x) = 0.18122 0.02775
# Poissons Ratio (y) = 0.70241 0.38567
# Poissons Ratio (z) = 0.03478 0.12471
#
# Static dielectric constant tensor:
#      x y z
#    x 1.696950 0.000000 0.000000 
#    y 0.000000 1.690920 0.000000 
#    z 0.000000 0.000000 1.650350 
# 
# From -- ./inp_files/16954.got.cif
#   From: 2010.05.17/outbox.cif.g08.bks.cpg/sg59_9_cif.got.tgz:16954.got - 2010.06.03 14:40:33.
