data_PCOD9448990
_publ_section_title
;
Structure prediction by ZEFSAII (Michael W. Deem and Ramdas Pophale) SiO2 
 PCOD9448990
Probable space group: P M M N
;
_chemical_formula_sum "Si O2"
_cell_formula_units_Z 48
_cell_length_a 8.546902
_cell_length_b 16.326754
_cell_length_c 17.187051
_cell_angle_alpha 90.000000
_cell_angle_beta 90.000000
_cell_angle_gamma 90.000000
_cell_volume 2398.335518
_symmetry_space_group_name_H-M "P M M N"
_symmetry_group_IT_number 59
_space_group.IT_coordinate_system_code '2'
_symmetry_cell_setting 'orthorhombic'
loop_
_space_group_symop_operation_xyz
x,y,z
1/2-x,1/2-y,z
1/2+x,-y,-z
-x,1/2+y,-z
-x,-y,-z
1/2+x,1/2+y,-z
1/2-x,y,z
x,1/2-y,z
loop_
_atom_site_type_symbol
_atom_site_label
_atom_site_fract_x
_atom_site_fract_y
_atom_site_fract_z
Si Si1 0.564244 0.998342 0.412684
Si Si2 0.562116 0.158663 0.680197
Si Si3 0.938434 0.073904 0.838595
Si Si4 0.563708 0.660087 0.671482
Si Si5 0.440410 0.843686 0.002296
Si Si6 0.564129 0.104208 0.169748
O O1 0.750000 0.996283 0.413628
O O2 0.504445 0.916964 0.368721
O O3 0.500000 0.000000 0.500000
O O4 0.510410 0.081626 0.370086
O O5 0.750000 0.157541 0.670582
O O6 0.505366 0.250000 0.659106
O O7 0.530981 0.140057 0.771316
O O8 0.750000 0.059633 0.839715
O O9 0.990375 0.103106 0.923891
O O10 0.024967 0.990675 0.817010
O O11 0.750000 0.654680 0.662464
O O12 0.511602 0.750000 0.642278
O O13 0.520209 0.653525 0.762379
O O14 0.250000 0.845476 0.002531
O O15 0.489152 0.750000 0.013259
O O16 0.490560 0.874084 0.917442
O O17 0.750000 0.119062 0.174612
#
# Coordination Sequence:
#
# PCOD9448990 Si02
#       6
#     8   8   8   8   8   8
#     4  12  26  45  70  97 129 164 201 252 310 374
#     4  10  21  39  65  95 128 168 212 256 307 369
#     4  10  19  34  58  84 118 164 212 258 305 363
#     4  11  24  43  67  94 126 165 211 261 313 371
#     4   9  18  32  51  80 117 160 212 262 307 361
#     4  11  21  34  56  86 123 165 208 258 314 369
#
# _framework density 20.01388
#
# number of rings (size 3 to 8) (size 9 to 14) (size 15 to 20)
#    0.000    1.500    1.667    4.000    0.000    5.000 
#    0.000    0.833    0.000    3.500    0.000    0.000 
#    0.000    0.000    0.000    0.000    0.000    0.000 
#
# Total GULP energy -268219.735370 kJ/mol
# GULP energy per Si atom -5587.911154 kJ/mol
# Density = 1.996833 g / cm^3
# Si number density = 20.013880 Si / 1000 Ang^3
#
#
#
# Elastic Constant Matrix: (Units=GPa)
#
#
# Indices 1 2 3 4 5 6 
#
# 1 39.9638 31.5942 25.5791 0.0000 0.0000 0.0000
# 2 31.5942 148.5270 48.7801 0.0000 0.0000 0.0000
# 3 25.5791 48.7801 114.3786 0.0000 0.0000 0.0000
# 4 0.0000 0.0000 0.0000 10.3058 0.0000 0.0000
# 5 0.0000 0.0000 0.0000 0.0000 27.0770 0.0000
# 6 0.0000 0.0000 0.0000 0.0000 0.0000 3.9502
#
#
#
# Elastic Compliance Matrix: (Units=1/GPa)
#
#
# Indices 1 2 3 4 5 6 
#
# 1 0.032369 -0.005242 -0.005003 0.000000 0.000000 0.000000
# 2 -0.005242 0.008678 -0.002529 0.000000 0.000000 0.000000
# 3 -0.005003 -0.002529 0.010940 0.000000 0.000000 0.000000
# 4 0.000000 0.000000 0.000000 0.097033 0.000000 0.000000
# 5 0.000000 0.000000 0.000000 0.000000 0.036932 0.000000
# 6 0.000000 0.000000 0.000000 0.000000 0.000000 0.253151
#
#
# Mechanical properties :
#
#
# Convention : Reuss Voigt Hill
#
# Bulk Modulus (GPa) = 37.82229 57.19734 47.50982
# Shear Modulus (GPa) = 10.56044 21.39435 15.97739
#
# Velocity S-wave (km/s) = 2.29957 3.27307 2.82851
# Velocity P-wave (km/s) = 5.09801 6.55170 5.87003
#
# Compressibility (1/GPa) = 0.02643944
#
# Stress axis : x y z
#
# Youngs Moduli (GPa) = 30.89340 115.22810 91.40547
#
# Poissons Ratio (x) = 0.60406 0.45732
# Poissons Ratio (y) = 0.16195 0.23115
# Poissons Ratio (z) = 0.15457 0.29139
#
# Static dielectric constant tensor:
#      x y z
#    x 1.675470 0.000000 0.000000 
#    y 0.000000 1.707160 0.000000 
#    z 0.000000 0.000000 1.707050 
# 
# From -- ./inp_files/25502.got.cif
#   From: 2010.05.17/outbox.cif.g08.bks.cpg/sg59_13_cif.got.tgz:25502.got - 2010.06.03 14:40:33.
