data_PCOD9448985
_publ_section_title
;
Structure prediction by ZEFSAII (Michael W. Deem and Ramdas Pophale) SiO2 
 PCOD9448985
Probable space group: P M M N
;
_chemical_formula_sum "Si O2"
_cell_formula_units_Z 48
_cell_length_a 7.601078
_cell_length_b 31.674154
_cell_length_c 9.225372
_cell_angle_alpha 90.000000
_cell_angle_beta 90.000000
_cell_angle_gamma 90.000000
_cell_volume 2221.079484
_symmetry_space_group_name_H-M "P M M N"
_symmetry_group_IT_number 59
_space_group.IT_coordinate_system_code '2'
_symmetry_cell_setting 'orthorhombic'
loop_
_space_group_symop_operation_xyz
x,y,z
1/2-x,1/2-y,z
1/2+x,-y,-z
-x,1/2+y,-z
-x,-y,-z
1/2+x,1/2+y,-z
1/2-x,y,z
x,1/2-y,z
loop_
_atom_site_type_symbol
_atom_site_label
_atom_site_fract_x
_atom_site_fract_y
_atom_site_fract_z
Si Si1 0.544557 0.087881 0.832840
Si Si2 0.955560 0.750000 0.199722
Si Si3 0.040258 0.497216 0.669889
Si Si4 0.034684 0.667329 0.685198
Si Si5 0.536916 0.250000 0.139621
Si Si6 0.534682 0.419553 0.160376
Si Si7 0.955804 0.335858 0.643438
O O1 0.750000 0.098555 0.856327
O O2 0.533395 0.045153 0.741266
O O3 0.466100 0.126489 0.740531
O O4 0.472087 0.081121 0.994184
O O5 0.750000 0.750000 0.232056
O O6 0.032797 0.792077 0.271165
O O7 0.982667 0.750000 0.027506
O O8 0.250000 0.495311 0.687209
O O9 0.975313 0.538894 0.753720
O O10 0.000000 0.500000 0.500000
O O11 0.250000 0.668652 0.685488
O O12 0.976765 0.708003 0.776581
O O13 0.982336 0.623539 0.760026
O O14 0.972304 0.668548 0.519010
O O15 0.750000 0.250000 0.141551
O O16 0.750000 0.420758 0.161686
O O17 0.750000 0.346587 0.622473
#
# Coordination Sequence:
#
# PCOD9448985 Si02
#       7
#     8   4   8   8   4   8   8
#     4  10  20  36  60  86 111 141 180 228 280 332
#     4  12  25  38  54  80 116 150 183 226 272 322
#     4  11  22  36  55  79 112 151 190 231 276 329
#     4   9  17  32  57  86 109 135 182 235 274 319
#     4  10  19  34  58  82 106 140 181 224 270 322
#     4   9  18  33  54  82 113 144 180 226 278 329
#     4  10  20  37  62  86 109 142 184 227 275 333
#
# _framework density 21.611113
#
# number of rings (size 3 to 8) (size 9 to 14) (size 15 to 20)
#    0.000    2.000    0.000    4.250    0.000    7.333 
#    0.000    2.500    0.000    5.000    0.000    0.000 
#    0.000    0.000    0.000    0.000    0.000    0.000 
#
# Total GULP energy -268325.761184 kJ/mol
# GULP energy per Si atom -5590.120025 kJ/mol
# Density = 2.156192 g / cm^3
# Si number density = 21.611113 Si / 1000 Ang^3
#
#
#
# Elastic Constant Matrix: (Units=GPa)
#
#
# Indices 1 2 3 4 5 6 
#
# 1 40.6258 -27.8018 -20.3896 0.0000 0.0000 0.0000
# 2 -27.8018 183.9488 102.6640 0.0000 0.0000 0.0000
# 3 -20.3896 102.6640 218.4543 0.0000 0.0000 0.0000
# 4 0.0000 0.0000 0.0000 31.1854 0.0000 0.0000
# 5 0.0000 0.0000 0.0000 0.0000 1.1875 0.0000
# 6 0.0000 0.0000 0.0000 0.0000 0.0000 5.3029
#
#
#
# Elastic Compliance Matrix: (Units=1/GPa)
#
#
# Indices 1 2 3 4 5 6 
#
# 1 0.027566 0.003701 0.000834 0.000000 0.000000 0.000000
# 2 0.003701 0.007866 -0.003351 0.000000 0.000000 0.000000
# 3 0.000834 -0.003351 0.006230 0.000000 0.000000 0.000000
# 4 0.000000 0.000000 0.000000 0.032066 0.000000 0.000000
# 5 0.000000 0.000000 0.000000 0.000000 0.842099 0.000000
# 6 0.000000 0.000000 0.000000 0.000000 0.000000 0.188575
#
#
# Mechanical properties :
#
#
# Convention : Reuss Voigt Hill
#
# Bulk Modulus (GPa) = 22.71217 61.33044 42.02130
# Shear Modulus (GPa) = 4.47743 33.43893 18.95818
#
# Velocity S-wave (km/s) = 1.44094 3.93784 2.96504
# Velocity P-wave (km/s) = 3.64702 7.00830 5.58645
#
# Compressibility (1/GPa) = 0.04402927
#
# Stress axis : x y z
#
# Youngs Moduli (GPa) = 36.27647 127.12861 160.50441
#
# Poissons Ratio (x) = -0.47052 -0.13379
# Poissons Ratio (y) = -0.13426 0.53789
# Poissons Ratio (z) = -0.03024 0.42604
#
# Static dielectric constant tensor:
#      x y z
#    x 1.850590 0.000000 0.000000 
#    y 0.000000 1.743020 0.000000 
#    z 0.000000 0.000000 1.735550 
# 
# From -- ./inp_files/6383.got.cif
#   From: 2010.05.17/outbox.cif.g08.bks.cpg/sg59_4_cif.got.tgz:6383.got - 2010.06.03 14:40:33.
