data_PCOD9448679
_publ_section_title
;
Structure prediction by ZEFSAII (Michael W. Deem and Ramdas Pophale) SiO2 
 PCOD9448679
Probable space group: P M M N
;
_chemical_formula_sum "Si O2"
_cell_formula_units_Z 48
_cell_length_a 16.086109
_cell_length_b 8.266900
_cell_length_c 19.553019
_cell_angle_alpha 90.000000
_cell_angle_beta 90.000000
_cell_angle_gamma 90.000000
_cell_volume 2600.204549
_symmetry_space_group_name_H-M "P M M N"
_symmetry_group_IT_number 59
_space_group.IT_coordinate_system_code '2'
_symmetry_cell_setting 'orthorhombic'
loop_
_space_group_symop_operation_xyz
x,y,z
1/2-x,1/2-y,z
1/2+x,-y,-z
-x,1/2+y,-z
-x,-y,-z
1/2+x,1/2+y,-z
1/2-x,y,z
x,1/2-y,z
loop_
_atom_site_type_symbol
_atom_site_label
_atom_site_fract_x
_atom_site_fract_y
_atom_site_fract_z
Si Si1 0.750000 0.059597 0.953473
Si Si2 0.010824 0.558875 0.658478
Si Si3 0.656024 0.439983 0.589253
Si Si4 0.750000 0.553968 0.798377
Si Si5 0.070263 0.556154 0.051432
Si Si6 0.656495 0.939398 0.437341
Si Si7 0.567097 0.944938 0.792456
O O1 0.750000 0.250000 0.969971
O O2 0.839535 0.991654 0.974190
O O3 0.750000 0.032665 0.871843
O O4 0.027515 0.750000 0.659714
O O5 0.921442 0.529840 0.623048
O O6 0.998512 0.497445 0.736233
O O7 0.084147 0.477502 0.615935
O O8 0.750000 0.499140 0.606668
O O9 0.651270 0.250000 0.606229
O O10 0.646594 0.461633 0.507419
O O11 0.750000 0.750000 0.807389
O O12 0.839201 0.509125 0.767633
O O13 0.073930 0.750000 0.052014
O O14 0.056057 0.501536 0.129753
O O15 0.000000 0.500000 0.000000
O O16 0.750000 0.971850 0.410416
O O17 0.652169 0.750000 0.455880
O O18 0.563985 0.750000 0.793026
#
# Coordination Sequence:
#
# PCOD9448679 Si02
#       7
#     4   8   8   4   8   8   8
#     4   8  16  30  48  74 102 132 165 200 247 300
#     4  11  22  34  54  80 110 142 175 219 268 321
#     4  10  21  36  54  79 110 142 178 219 263 316
#     4   8  14  28  48  70 100 134 165 200 241 300
#     4  10  19  33  55  79 107 139 174 215 258 308
#     4  10  21  38  58  76  99 137 183 229 272 316
#     4   9  19  33  51  77 107 140 175 210 256 311
#
# _framework density 18.460087000000001
#
# number of rings (size 3 to 8) (size 9 to 14) (size 15 to 20)
#    0.000    2.333    0.000    2.500    1.167    4.000 
#    0.000    0.000    1.833    0.000    0.000    0.000 
#    0.000    0.000    0.000    0.000    0.000    0.000 
#
# Total GULP energy -267595.311104 kJ/mol
# GULP energy per Si atom -5574.902315 kJ/mol
# Density = 1.841807 g / cm^3
# Si number density = 18.460087 Si / 1000 Ang^3
#
#
#
# Elastic Constant Matrix: (Units=GPa)
#
#
# Indices 1 2 3 4 5 6 
#
# 1 102.7443 -3.5119 47.8865 0.0000 0.0000 0.0000
# 2 -3.5119 17.3236 -5.8892 0.0000 0.0000 0.0000
# 3 47.8865 -5.8892 62.4893 0.0000 0.0000 0.0000
# 4 0.0000 0.0000 0.0000 18.8178 0.0000 0.0000
# 5 0.0000 0.0000 0.0000 0.0000 30.8421 0.0000
# 6 0.0000 0.0000 0.0000 0.0000 0.0000 18.1774
#
#
#
# Elastic Compliance Matrix: (Units=1/GPa)
#
#
# Indices 1 2 3 4 5 6 
#
# 1 0.015154 -0.000905 -0.011698 0.000000 0.000000 0.000000
# 2 -0.000905 0.059690 0.006319 0.000000 0.000000 0.000000
# 3 -0.011698 0.006319 0.025563 0.000000 0.000000 0.000000
# 4 0.000000 0.000000 0.000000 0.053141 0.000000 0.000000
# 5 0.000000 0.000000 0.000000 0.000000 0.032423 0.000000
# 6 0.000000 0.000000 0.000000 0.000000 0.000000 0.055013
#
#
# Mechanical properties :
#
#
# Convention : Reuss Voigt Hill
#
# Bulk Modulus (GPa) = 11.38460 28.83642 20.11051
# Shear Modulus (GPa) = 17.67835 23.17225 20.42530
#
# Velocity S-wave (km/s) = 3.09795 3.54681 3.32995
# Velocity P-wave (km/s) = 4.35625 5.69456 5.06976
#
# Compressibility (1/GPa) = 0.08783793
#
# Stress axis : x y z
#
# Youngs Moduli (GPa) = 65.98838 16.75337 39.11952
#
# Poissons Ratio (x) = 0.01516 0.45763
# Poissons Ratio (y) = 0.05970 -0.24718
# Poissons Ratio (z) = 0.77194 -0.10586
#
# Static dielectric constant tensor:
#      x y z
#    x 1.667140 0.000000 0.000000 
#    y 0.000000 1.636420 0.000000 
#    z 0.000000 0.000000 1.627010 
# 
# From -- ./inp_files/27448.got.cif
#   From: 2010.05.17/outbox.cif.g08.bks.cpg/sg59_14_cif.got.tgz:27448.got - 2010.06.03 14:40:33.
