data_PCOD9448767
_publ_section_title
;
Structure prediction by ZEFSAII (Michael W. Deem and Ramdas Pophale) SiO2 
 PCOD9448767
Probable space group: P M M N
;
_chemical_formula_sum "Si O2"
_cell_formula_units_Z 48
_cell_length_a 8.623556
_cell_length_b 18.754230
_cell_length_c 15.061817
_cell_angle_alpha 90.000000
_cell_angle_beta 90.000000
_cell_angle_gamma 90.000000
_cell_volume 2435.919839
_symmetry_space_group_name_H-M "P M M N"
_symmetry_group_IT_number 59
_space_group.IT_coordinate_system_code '2'
_symmetry_cell_setting 'orthorhombic'
loop_
_space_group_symop_operation_xyz
x,y,z
1/2-x,1/2-y,z
1/2+x,-y,-z
-x,1/2+y,-z
-x,-y,-z
1/2+x,1/2+y,-z
1/2-x,y,z
x,1/2-y,z
loop_
_atom_site_type_symbol
_atom_site_label
_atom_site_fract_x
_atom_site_fract_y
_atom_site_fract_z
Si Si1 0.434148 0.831550 0.024940
Si Si2 0.431371 0.435877 0.122295
Si Si3 0.567999 0.585256 0.178622
Si Si4 0.433755 0.941036 0.370859
Si Si5 0.065670 0.830881 0.736151
Si Si6 0.565533 0.090540 0.436844
O O1 0.250000 0.836081 0.010574
O O2 0.482832 0.750000 0.006909
O O3 0.475943 0.854693 0.124594
O O4 0.515836 0.888180 0.960573
O O5 0.250000 0.452590 0.116739
O O6 0.523639 0.509217 0.134610
O O7 0.469526 0.387030 0.207366
O O8 0.750000 0.597486 0.169595
O O9 0.520864 0.580471 0.281639
O O10 0.250000 0.935710 0.354862
O O11 0.475931 0.897637 0.460452
O O12 0.476811 0.022012 0.398095
O O13 0.250000 0.841906 0.754405
O O14 0.026927 0.750000 0.759981
O O15 0.041290 0.845783 0.631995
O O16 0.750000 0.073243 0.435687
#
# Coordination Sequence:
#
# PCOD9448767 Si02
#       6
#     8   8   8   8   8   8
#     4  11  25  45  66  88 118 156 196 242 299 361
#     4  12  24  39  61  90 121 155 198 247 298 355
#     4  12  24  40  63  90 121 157 200 249 299 352
#     4  10  19  33  56  86 116 151 198 246 293 346
#     4  10  20  35  56  84 120 160 200 244 298 359
#     4   9  18  33  54  81 116 156 196 240 294 353
#
# _framework density 19.705082999999998
#
# number of rings (size 3 to 8) (size 9 to 14) (size 15 to 20)
#    0.000    1.333    1.667    5.000    0.000    4.333 
#    0.000    0.833    0.000    3.000    0.000    0.000 
#    0.000    0.000    0.000    0.000    0.000    0.000 
#
# Total GULP energy -268286.817389 kJ/mol
# GULP energy per Si atom -5589.308696 kJ/mol
# Density = 1.966023 g / cm^3
# Si number density = 19.705083 Si / 1000 Ang^3
#
#
#
# Elastic Constant Matrix: (Units=GPa)
#
#
# Indices 1 2 3 4 5 6 
#
# 1 27.5923 -0.3727 3.0975 0.0000 0.0000 0.0000
# 2 -0.3727 27.2501 12.5391 0.0000 0.0000 0.0000
# 3 3.0975 12.5391 96.8863 0.0000 0.0000 0.0000
# 4 0.0000 0.0000 0.0000 -2.8588 0.0000 0.0000
# 5 0.0000 0.0000 0.0000 0.0000 31.6873 0.0000
# 6 0.0000 0.0000 0.0000 0.0000 0.0000 21.1716
#
#
#
# Elastic Compliance Matrix: (Units=1/GPa)
#
#
# Indices 1 2 3 4 5 6 
#
# 1 0.036403 0.001099 -0.001306 0.000000 0.000000 0.000000
# 2 0.001099 0.039054 -0.005090 0.000000 0.000000 0.000000
# 3 -0.001306 -0.005090 0.011022 0.000000 0.000000 0.000000
# 4 0.000000 0.000000 0.000000 -0.349794 0.000000 0.000000
# 5 0.000000 0.000000 0.000000 0.000000 0.031558 0.000000
# 6 0.000000 0.000000 0.000000 0.000000 0.000000 0.047233
#
#
# Mechanical properties :
#
#
# Convention : Reuss Voigt Hill
#
# Bulk Modulus (GPa) = 13.17767 20.25072 16.71419
# Shear Modulus (GPa) = -33.63953 19.09768 -7.27093
#
# Velocity S-wave (km/s) = -4.13625 3.11654 -1.92299
# Velocity P-wave (km/s) = 4.01366 4.82178 1.88946
#
# Compressibility (1/GPa) = 0.07588597
#
# Stress axis : x y z
#
# Youngs Moduli (GPa) = 27.46990 25.60552 90.72914
#
# Poissons Ratio (x) = -0.02814 0.11850
# Poissons Ratio (y) = -0.03019 0.46177
# Poissons Ratio (z) = 0.03588 0.13032
#
# Static dielectric constant tensor:
#      x y z
#    x 1.664440 0.000000 0.000000 
#    y 0.000000 1.660120 0.000000 
#    z 0.000000 0.000000 1.732450 
# 
# From -- ./inp_files/20350.got.cif
#   From: 2010.05.17/outbox.cif.g08.bks.cpg/sg59_11_cif.got.tgz:20350.got - 2010.06.03 14:40:33.
