data_PCOD9448520
_publ_section_title
;
Structure prediction by ZEFSAII (Michael W. Deem and Ramdas Pophale) SiO2 
 PCOD9448520
Probable space group: P M M N
;
_chemical_formula_sum "Si O2"
_cell_formula_units_Z 64
_cell_length_a 22.644233
_cell_length_b 22.513362
_cell_length_c 6.795629
_cell_angle_alpha 90.000000
_cell_angle_beta 90.000000
_cell_angle_gamma 90.000000
_cell_volume 3464.396814
_symmetry_space_group_name_H-M "P M M N"
_symmetry_group_IT_number 59
_space_group.IT_coordinate_system_code '2'
_symmetry_cell_setting 'orthorhombic'
loop_
_space_group_symop_operation_xyz
x,y,z
1/2-x,1/2-y,z
1/2+x,-y,-z
-x,1/2+y,-z
-x,-y,-z
1/2+x,1/2+y,-z
1/2-x,y,z
x,1/2-y,z
loop_
_atom_site_type_symbol
_atom_site_label
_atom_site_fract_x
_atom_site_fract_y
_atom_site_fract_z
Si Si1 0.118798 0.394825 0.348163
Si Si2 0.987594 0.408200 0.236155
Si Si3 0.093150 0.981861 0.523398
Si Si4 0.398876 0.180536 0.702759
Si Si5 0.407182 0.904245 0.140465
Si Si6 0.818013 0.905836 0.039770
Si Si7 0.180946 0.955992 0.847580
Si Si8 0.466426 0.819581 0.410964
O O1 0.112219 0.450319 0.496698
O O2 0.121905 0.336704 0.482179
O O3 0.057386 0.399506 0.228586
O O4 0.170816 0.400360 0.193361
O O5 0.964843 0.467904 0.346325
O O6 0.965541 0.356642 0.386031
O O7 0.957766 0.407545 0.024943
O O8 0.086754 0.954712 0.306700
O O9 0.144615 0.948680 0.645920
O O10 0.390285 0.250000 0.746784
O O11 0.362496 0.138716 0.849931
O O12 0.469462 0.168600 0.690407
O O13 0.416969 0.844307 0.263469
O O14 0.347862 0.915763 0.017602
O O15 0.750000 0.892182 0.091197
O O16 0.828789 0.974916 0.092522
O O17 0.250000 0.945623 0.824115
O O18 0.461799 0.750000 0.447864
#
# Coordination Sequence:
#
# PCOD9448520 Si02
#       8
#     8   8   8   8   8   8   8   8
#     4  11  20  35  55  79 107 147 184 231 283 339
#     4   9  20  32  51  81 117 143 178 224 282 338
#     4  10  19  33  52  80 111 146 184 222 277 341
#     4  10  22  40  57  76 107 147 190 236 284 333
#     4  10  19  35  55  87 115 143 181 227 280 335
#     4  11  23  37  55  79 108 148 196 240 282 328
#     4  10  21  36  54  80 114 150 188 230 278 330
#     4   9  19  36  58  83 111 145 184 225 277 342
#
# _framework density 18.473634000000001
#
# number of rings (size 3 to 8) (size 9 to 14) (size 15 to 20)
#    0.000    2.000    2.500    1.125    0.000    3.250 
#    0.000    2.500    0.000    0.375    0.000    0.000 
#    0.000    0.000    0.000    0.000    0.000    0.000 
#
# Total GULP energy -356988.724435 kJ/mol
# GULP energy per Si atom -5577.948819 kJ/mol
# Density = 1.843159 g / cm^3
# Si number density = 18.473634 Si / 1000 Ang^3
#
#
#
# Elastic Constant Matrix: (Units=GPa)
#
#
# Indices 1 2 3 4 5 6 
#
# 1 66.8548 30.2048 32.9707 0.0000 0.0000 0.0000
# 2 30.2048 60.5510 29.3540 0.0000 0.0000 0.0000
# 3 32.9707 29.3540 84.2963 0.0000 0.0000 0.0000
# 4 0.0000 0.0000 0.0000 11.7662 0.0000 0.0000
# 5 0.0000 0.0000 0.0000 0.0000 25.6446 0.0000
# 6 0.0000 0.0000 0.0000 0.0000 0.0000 20.4497
#
#
#
# Elastic Compliance Matrix: (Units=1/GPa)
#
#
# Indices 1 2 3 4 5 6 
#
# 1 0.021280 -0.007917 -0.005566 0.000000 0.000000 0.000000
# 2 -0.007917 0.022814 -0.004848 0.000000 0.000000 0.000000
# 3 -0.005566 -0.004848 0.015728 0.000000 0.000000 0.000000
# 4 0.000000 0.000000 0.000000 0.084990 0.000000 0.000000
# 5 0.000000 0.000000 0.000000 0.000000 0.038995 0.000000
# 6 0.000000 0.000000 0.000000 0.000000 0.000000 0.048901
#
#
# Mechanical properties :
#
#
# Convention : Reuss Voigt Hill
#
# Bulk Modulus (GPa) = 43.17739 44.08458 43.63098
# Shear Modulus (GPa) = 18.04476 19.51693 18.78084
#
# Velocity S-wave (km/s) = 3.12875 3.25387 3.19192
# Velocity P-wave (km/s) = 6.03947 6.16703 6.10358
#
# Compressibility (1/GPa) = 0.02316027
#
# Stress axis : x y z
#
# Youngs Moduli (GPa) = 46.99341 43.83217 63.57966
#
# Poissons Ratio (x) = 0.34700 0.35391
# Poissons Ratio (y) = 0.37202 0.30824
# Poissons Ratio (z) = 0.26158 0.21250
#
# Static dielectric constant tensor:
#      x y z
#    x 1.650930 0.000000 0.000000 
#    y 0.000000 1.649380 0.000000 
#    z 0.000000 0.000000 1.637900 
# 
# From -- ./inp_files/3941.got.cif
#   From: 2010.05.17/outbox.cif.g08.bks.cpg/sg59_2_cif.got.tgz:3941.got - 2010.06.03 14:40:33.
