data_PCOD9448458
_publ_section_title
;
Structure prediction by ZEFSAII (Michael W. Deem and Ramdas Pophale) SiO2 
 PCOD9448458
Probable space group: P M M N
;
_chemical_formula_sum "Si O2"
_cell_formula_units_Z 56
_cell_length_a 16.439983
_cell_length_b 18.942990
_cell_length_c 9.774472
_cell_angle_alpha 90.000000
_cell_angle_beta 90.000000
_cell_angle_gamma 90.000000
_cell_volume 3043.989857
_symmetry_space_group_name_H-M "P M M N"
_symmetry_group_IT_number 59
_space_group.IT_coordinate_system_code '2'
_symmetry_cell_setting 'orthorhombic'
loop_
_space_group_symop_operation_xyz
x,y,z
1/2-x,1/2-y,z
1/2+x,-y,-z
-x,1/2+y,-z
-x,-y,-z
1/2+x,1/2+y,-z
1/2-x,y,z
x,1/2-y,z
loop_
_atom_site_type_symbol
_atom_site_label
_atom_site_fract_x
_atom_site_fract_y
_atom_site_fract_z
Si Si1 0.025154 0.575893 0.205509
Si Si2 0.589810 0.667541 0.700969
Si Si3 0.161536 0.041321 0.168149
Si Si4 0.973687 0.416465 0.493851
Si Si5 0.161274 0.047891 0.846151
Si Si6 0.339959 0.608871 0.735381
Si Si7 0.043672 0.828127 0.941607
O O1 0.080838 0.505157 0.197275
O O2 0.047328 0.607364 0.352817
O O3 0.926702 0.569440 0.211784
O O4 0.043239 0.617428 0.066031
O O5 0.610186 0.750000 0.680341
O O6 0.658416 0.611835 0.741658
O O7 0.543013 0.632716 0.572918
O O8 0.530250 0.663220 0.834109
O O9 0.250000 0.005142 0.191300
O O10 0.158415 0.060512 0.008152
O O11 0.897867 0.406159 0.392835
O O12 0.000000 0.500000 0.500000
O O13 0.250000 0.076251 0.795202
O O14 0.163566 0.964645 0.817555
O O15 0.250000 0.629680 0.692353
O O16 0.379407 0.662423 0.842469
O O17 0.039515 0.750000 0.000595
#
# Coordination Sequence:
#
# PCOD9448458 Si02
#       7
#     8   8   8   8   8   8   8
#     4  12  20  36  59  85 123 152 197 257 302 348
#     4  10  21  39  58  81 114 155 197 238 293 367
#     4  11  21  33  58  91 116 150 199 252 303 352
#     4  11  21  35  57  87 117 158 198 242 297 358
#     4  10  19  32  57  88 113 148 197 251 304 351
#     4  10  20  36  56  82 116 152 197 246 293 356
#     4  10  21  36  59  83 109 153 198 243 306 361
#
# _framework density 18.396906999999999
#
# number of rings (size 3 to 8) (size 9 to 14) (size 15 to 20)
#    0.000    1.429    5.714    1.286    0.000    1.714 
#    0.000    0.714    0.000    0.429    0.000    2.000 
#    0.000    0.000    0.000    0.000    0.000    0.000 
#
# Total GULP energy -311809.655640 kJ/mol
# GULP energy per Si atom -5568.029565 kJ/mol
# Density = 1.835503 g / cm^3
# Si number density = 18.396907 Si / 1000 Ang^3
#
#
#
# Elastic Constant Matrix: (Units=GPa)
#
#
# Indices 1 2 3 4 5 6 
#
# 1 108.7459 26.4167 13.3006 0.0000 0.0000 0.0000
# 2 26.4167 74.0799 28.3249 0.0000 0.0000 0.0000
# 3 13.3006 28.3249 66.4256 0.0000 0.0000 0.0000
# 4 0.0000 0.0000 0.0000 18.0345 0.0000 0.0000
# 5 0.0000 0.0000 0.0000 0.0000 9.3343 0.0000
# 6 0.0000 0.0000 0.0000 0.0000 0.0000 10.3515
#
#
#
# Elastic Compliance Matrix: (Units=1/GPa)
#
#
# Indices 1 2 3 4 5 6 
#
# 1 0.010087 -0.003375 -0.000581 0.000000 0.000000 0.000000
# 2 -0.003375 0.017258 -0.006683 0.000000 0.000000 0.000000
# 3 -0.000581 -0.006683 0.018021 0.000000 0.000000 0.000000
# 4 0.000000 0.000000 0.000000 0.055449 0.000000 0.000000
# 5 0.000000 0.000000 0.000000 0.000000 0.107132 0.000000
# 6 0.000000 0.000000 0.000000 0.000000 0.000000 0.096605
#
#
# Mechanical properties :
#
#
# Convention : Reuss Voigt Hill
#
# Bulk Modulus (GPa) = 41.51523 42.81511 42.16517
# Shear Modulus (GPa) = 14.97644 19.62464 17.30054
#
# Velocity S-wave (km/s) = 2.85629 3.26964 3.06993
# Velocity P-wave (km/s) = 5.78734 6.13005 5.96116
#
# Compressibility (1/GPa) = 0.02408755
#
# Stress axis : x y z
#
# Youngs Moduli (GPa) = 99.14151 57.94489 55.49226
#
# Poissons Ratio (x) = 0.19556 0.03222
# Poissons Ratio (y) = 0.33459 0.37087
# Poissons Ratio (z) = 0.05756 0.38726
#
# Static dielectric constant tensor:
#      x y z
#    x 1.703470 0.000000 0.000000 
#    y 0.000000 1.640040 0.000000 
#    z 0.000000 0.000000 1.612870 
# 
# From -- ./inp_files/9345.got.cif
#   From: 2010.05.17/outbox.cif.g08.bks.cpg/sg59_5_cif.got.tgz:9345.got - 2010.06.03 14:40:33.
