data_PCOD9448937
_publ_section_title
;
Structure prediction by ZEFSAII (Michael W. Deem and Ramdas Pophale) SiO2 
 PCOD9448937
Probable space group: P M M N
;
_chemical_formula_sum "Si O2"
_cell_formula_units_Z 48
_cell_length_a 32.297391
_cell_length_b 8.551615
_cell_length_c 9.252977
_cell_angle_alpha 90.000000
_cell_angle_beta 90.000000
_cell_angle_gamma 90.000000
_cell_volume 2555.624625
_symmetry_space_group_name_H-M "P M M N"
_symmetry_group_IT_number 59
_space_group.IT_coordinate_system_code '2'
_symmetry_cell_setting 'orthorhombic'
loop_
_space_group_symop_operation_xyz
x,y,z
1/2-x,1/2-y,z
1/2+x,-y,-z
-x,1/2+y,-z
-x,-y,-z
1/2+x,1/2+y,-z
1/2-x,y,z
x,1/2-y,z
loop_
_atom_site_type_symbol
_atom_site_label
_atom_site_fract_x
_atom_site_fract_y
_atom_site_fract_z
Si Si1 0.750000 0.440373 0.333687
Si Si2 0.668414 0.437950 0.159024
Si Si3 0.409764 0.438361 0.665984
Si Si4 0.669955 0.936242 0.834169
Si Si5 0.250000 0.561943 0.333118
Si Si6 0.000387 0.561877 0.336196
Si Si7 0.408953 0.561578 0.336575
O O1 0.750000 0.250000 0.334191
O O2 0.708658 0.490297 0.250133
O O3 0.750000 0.491213 0.500011
O O4 0.668279 0.250000 0.155422
O O5 0.627079 0.496474 0.237512
O O6 0.671031 0.501466 0.997259
O O7 0.407719 0.250000 0.661564
O O8 0.455580 0.485929 0.724793
O O9 0.405797 0.502422 0.502186
O O10 0.671527 0.750000 0.834205
O O11 0.709221 0.002019 0.747274
O O12 0.628127 0.992894 0.756447
O O13 0.250000 0.750000 0.330666
O O14 0.000580 0.750000 0.338795
O O15 0.045366 0.513609 0.277086
O O16 0.000000 0.500000 0.500000
O O17 0.406237 0.750000 0.336901
#
# Coordination Sequence:
#
# PCOD9448937 Si02
#       7
#     4   8   8   8   4   8   8
#     4   9  21  39  62  86 108 137 182 229 270 322
#     4  11  22  39  60  83 112 152 193 232 281 343
#     4  10  19  34  56  86 118 148 185 239 293 338
#     4  12  25  40  57  84 118 152 189 237 288 333
#     4  11  22  41  66  90 114 145 184 229 278 342
#     4   8  16  30  52  80 112 146 186 234 286 336
#     4  10  19  35  58  84 112 151 197 237 279 341
#
# _framework density 18.7821
#
# number of rings (size 3 to 8) (size 9 to 14) (size 15 to 20)
#    0.000    1.833    0.000    4.750    0.000    3.333 
#    0.000    4.583    0.000    0.000    0.000    0.000 
#    0.000    0.000    0.000    0.000    0.000    0.000 
#
# Total GULP energy -267967.015203 kJ/mol
# GULP energy per Si atom -5582.646150 kJ/mol
# Density = 1.873935 g / cm^3
# Si number density = 18.782100 Si / 1000 Ang^3
#
#
#
# Elastic Constant Matrix: (Units=GPa)
#
#
# Indices 1 2 3 4 5 6 
#
# 1 238.7957 56.2350 109.2991 0.0000 0.0000 0.0000
# 2 56.2350 77.3646 40.0887 0.0000 0.0000 0.0000
# 3 109.2991 40.0887 134.6794 0.0000 0.0000 0.0000
# 4 0.0000 0.0000 0.0000 24.9171 0.0000 0.0000
# 5 0.0000 0.0000 0.0000 0.0000 -25.4957 0.0000
# 6 0.0000 0.0000 0.0000 0.0000 0.0000 18.3524
#
#
#
# Elastic Compliance Matrix: (Units=1/GPa)
#
#
# Indices 1 2 3 4 5 6 
#
# 1 0.007067 -0.002560 -0.004973 0.000000 0.000000 0.000000
# 2 -0.002560 0.016210 -0.002748 0.000000 0.000000 0.000000
# 3 -0.004973 -0.002748 0.012279 0.000000 0.000000 0.000000
# 4 0.000000 0.000000 0.000000 0.040133 0.000000 0.000000
# 5 0.000000 0.000000 0.000000 0.000000 -0.039222 0.000000
# 6 0.000000 0.000000 0.000000 0.000000 0.000000 0.054489
#
#
# Mechanical properties :
#
#
# Convention : Reuss Voigt Hill
#
# Bulk Modulus (GPa) = 66.69049 95.78728 81.23888
# Shear Modulus (GPa) = 42.91299 19.90254 31.40776
#
# Velocity S-wave (km/s) = 4.78512 3.25877 4.09371
# Velocity P-wave (km/s) = 8.13108 8.07894 8.10505
#
# Compressibility (1/GPa) = 0.01499464
#
# Stress axis : x y z
#
# Youngs Moduli (GPa) = 141.50884 61.68917 81.44093
#
# Poissons Ratio (x) = 0.15791 0.40501
# Poissons Ratio (y) = 0.36222 0.22378
# Poissons Ratio (z) = 0.70373 0.16951
#
# Static dielectric constant tensor:
#      x y z
#    x 1.674800 0.000000 0.000000 
#    y 0.000000 1.639060 0.000000 
#    z 0.000000 0.000000 1.600550 
# 
# From -- ./inp_files/13007.got.cif
#   From: 2010.05.17/outbox.cif.g08.bks.cpg/sg59_7_cif.got.tgz:13007.got - 2010.06.03 14:40:33.
