data_PCOD9448348
_publ_section_title
;
Structure prediction by ZEFSAII (Michael W. Deem and Ramdas Pophale) SiO2 
 PCOD9448348
Probable space group: P M M N
;
_chemical_formula_sum "Si O2"
_cell_formula_units_Z 48
_cell_length_a 7.519430
_cell_length_b 28.929180
_cell_length_c 10.085196
_cell_angle_alpha 90.000000
_cell_angle_beta 90.000000
_cell_angle_gamma 90.000000
_cell_volume 2193.842206
_symmetry_space_group_name_H-M "P M M N"
_symmetry_group_IT_number 59
_space_group.IT_coordinate_system_code '2'
_symmetry_cell_setting 'orthorhombic'
loop_
_space_group_symop_operation_xyz
x,y,z
1/2-x,1/2-y,z
1/2+x,-y,-z
-x,1/2+y,-z
-x,-y,-z
1/2+x,1/2+y,-z
1/2-x,y,z
x,1/2-y,z
loop_
_atom_site_type_symbol
_atom_site_label
_atom_site_fract_x
_atom_site_fract_y
_atom_site_fract_z
Si Si1 0.533542 0.938071 0.393795
Si Si2 0.531907 0.373316 0.181379
Si Si3 0.036147 0.800886 0.597874
Si Si4 0.043974 0.800855 0.028493
Si Si5 0.458381 0.535666 0.695502
Si Si6 0.540856 0.662486 0.309366
O O1 0.750000 0.938110 0.395693
O O2 0.474854 0.943768 0.546376
O O3 0.472718 0.889676 0.332892
O O4 0.469037 0.983653 0.315641
O O5 0.750000 0.375968 0.181229
O O6 0.475615 0.341644 0.305880
O O7 0.467630 0.425542 0.205590
O O8 0.471439 0.344496 0.053332
O O9 0.250000 0.800745 0.605237
O O10 0.973105 0.750000 0.639241
O O11 0.986030 0.810897 0.446855
O O12 0.250000 0.797794 0.986327
O O13 0.964300 0.750000 0.003326
O O14 0.039731 0.811990 0.183744
O O15 0.250000 0.530440 0.725890
O O16 0.750000 0.659604 0.282360
#
# Coordination Sequence:
#
# PCOD9448348 Si02
#       6
#     8   8   8   8   8   8
#     4   9  18  31  49  76 107 136 165 205 254 303
#     4   9  17  32  55  80 101 127 167 217 264 303
#     4  10  19  32  53  79 102 126 167 220 264 303
#     4  10  21  37  55  74 100 136 176 216 258 304
#     4   9  16  30  54  79 102 130 167 209 256 308
#     4  11  22  35  50  73 107 141 172 207 252 306
#
# _framework density 21.879422999999999
#
# number of rings (size 3 to 8) (size 9 to 14) (size 15 to 20)
#    0.000    2.333    1.667    1.500    0.000    5.333 
#    0.000    2.500    0.000    2.000    0.000    0.000 
#    0.000    0.000    0.000    0.000    0.000    0.000 
#
# Total GULP energy -267959.557717 kJ/mol
# GULP energy per Si atom -5582.490786 kJ/mol
# Density = 2.182962 g / cm^3
# Si number density = 21.879423 Si / 1000 Ang^3
#
#
#
# Elastic Constant Matrix: (Units=GPa)
#
#
# Indices 1 2 3 4 5 6 
#
# 1 55.7553 0.2897 -12.1875 0.0000 0.0000 0.0000
# 2 0.2897 94.6810 -18.7478 0.0000 0.0000 0.0000
# 3 -12.1875 -18.7478 38.9421 0.0000 0.0000 0.0000
# 4 0.0000 0.0000 0.0000 -62.4701 0.0000 0.0000
# 5 0.0000 0.0000 0.0000 0.0000 -9.1323 0.0000
# 6 0.0000 0.0000 0.0000 0.0000 0.0000 3.6574
#
#
#
# Elastic Compliance Matrix: (Units=1/GPa)
#
#
# Indices 1 2 3 4 5 6 
#
# 1 0.019388 0.001263 0.006676 0.000000 0.000000 0.000000
# 2 0.001263 0.011757 0.006055 0.000000 0.000000 0.000000
# 3 0.006676 0.006055 0.030684 0.000000 0.000000 0.000000
# 4 0.000000 0.000000 0.000000 -0.016008 0.000000 0.000000
# 5 0.000000 0.000000 0.000000 0.000000 -0.109501 0.000000
# 6 0.000000 0.000000 0.000000 0.000000 0.000000 0.273420
#
#
# Mechanical properties :
#
#
# Convention : Reuss Voigt Hill
#
# Bulk Modulus (GPa) = 11.13395 14.23191 12.68293
# Shear Modulus (GPa) = 23.61929 1.07927 12.34928
#
# Velocity S-wave (km/s) = 3.28917 0.70310 2.37834
# Velocity P-wave (km/s) = 4.41867 2.67917 3.65395
#
# Compressibility (1/GPa) = 0.08981536
#
# Stress axis : x y z
#
# Youngs Moduli (GPa) = 51.57783 85.05635 32.59077
#
# Poissons Ratio (x) = -0.10739 -0.21756
# Poissons Ratio (y) = -0.06512 -0.19734
# Poissons Ratio (z) = -0.34431 -0.51503
#
# Static dielectric constant tensor:
#      x y z
#    x 1.827830 0.000000 0.000000 
#    y 0.000000 2.070640 0.000000 
#    z 0.000000 0.000000 1.752420 
# 
# From -- ./inp_files/6224.got.cif
#   From: 2010.05.17/outbox.cif.g08.bks.cpg/sg59_4_cif.got.tgz:6224.got - 2010.06.03 14:40:33.
