data_PCOD9448300
_publ_section_title
;
Structure prediction by ZEFSAII (Michael W. Deem and Ramdas Pophale) SiO2 
 PCOD9448300
Probable space group: P M M N
;
_chemical_formula_sum "Si O2"
_cell_formula_units_Z 32
_cell_length_a 21.638143
_cell_length_b 8.627151
_cell_length_c 9.477617
_cell_angle_alpha 90.000000
_cell_angle_beta 90.000000
_cell_angle_gamma 90.000000
_cell_volume 1769.239148
_symmetry_space_group_name_H-M "P M M N"
_symmetry_group_IT_number 59
_space_group.IT_coordinate_system_code '2'
_symmetry_cell_setting 'orthorhombic'
loop_
_space_group_symop_operation_xyz
x,y,z
1/2-x,1/2-y,z
1/2+x,-y,-z
-x,1/2+y,-z
-x,-y,-z
1/2+x,1/2+y,-z
1/2-x,y,z
x,1/2-y,z
loop_
_atom_site_type_symbol
_atom_site_label
_atom_site_fract_x
_atom_site_fract_y
_atom_site_fract_z
Si Si1 0.250000 0.071792 0.167189
Si Si2 0.750000 0.571233 0.176287
Si Si3 0.884001 0.938520 0.158335
Si Si4 0.998246 0.062847 0.657442
Si Si5 0.881084 0.435601 0.842005
O O1 0.250000 0.250000 0.212607
O O2 0.186218 0.991100 0.209671
O O3 0.250000 0.070396 0.995226
O O4 0.750000 0.750000 0.224638
O O5 0.683031 0.504067 0.214676
O O6 0.881621 0.750000 0.153686
O O7 0.941218 0.986404 0.254669
O O8 0.891756 0.996919 0.998590
O O9 0.998419 0.250000 0.653710
O O10 0.936390 0.013381 0.739886
O O11 0.000000 0.000000 0.500000
O O12 0.881303 0.250000 0.851309
#
# Coordination Sequence:
#
# PCOD9448300 Si02
#       5
#     4   4   8   8   8
#     4   9  17  31  52  77 102 132 166 206 256 311
#     4   7  12  25  48  73  96 120 156 204 246 287
#     4   9  17  32  53  77 102 133 171 210 253 306
#     4  10  22  36  50  71 104 142 178 214 254 299
#     4  10  19  32  52  79 105 132 168 214 260 302
#
# _framework density 18.086870999999999
#
# number of rings (size 3 to 8) (size 9 to 14) (size 15 to 20)
#    0.000    2.750    0.000    3.375    0.000    3.000 
#    0.000    1.250    0.000    1.500    0.000    0.000 
#    0.000    0.000    0.000    0.000    0.000    0.000 
#
# Total GULP energy -178349.177119 kJ/mol
# GULP energy per Si atom -5573.411785 kJ/mol
# Density = 1.804570 g / cm^3
# Si number density = 18.086871 Si / 1000 Ang^3
#
#
#
# Elastic Constant Matrix: (Units=GPa)
#
#
# Indices 1 2 3 4 5 6 
#
# 1 227.7557 35.7765 97.3753 0.0000 0.0000 0.0000
# 2 35.7765 22.8657 18.4678 0.0000 0.0000 0.0000
# 3 97.3753 18.4678 88.8944 0.0000 0.0000 0.0000
# 4 0.0000 0.0000 0.0000 25.3973 0.0000 0.0000
# 5 0.0000 0.0000 0.0000 0.0000 -3.5523 0.0000
# 6 0.0000 0.0000 0.0000 0.0000 0.0000 19.5650
#
#
#
# Elastic Compliance Matrix: (Units=1/GPa)
#
#
# Indices 1 2 3 4 5 6 
#
# 1 0.009226 -0.007538 -0.008540 0.000000 0.000000 0.000000
# 2 -0.007538 0.058710 -0.003940 0.000000 0.000000 0.000000
# 3 -0.008540 -0.003940 0.021423 0.000000 0.000000 0.000000
# 4 0.000000 0.000000 0.000000 0.039374 0.000000 0.000000
# 5 0.000000 0.000000 0.000000 0.000000 -0.281507 0.000000
# 6 0.000000 0.000000 0.000000 0.000000 0.000000 0.051112
#
#
# Mechanical properties :
#
#
# Convention : Reuss Voigt Hill
#
# Bulk Modulus (GPa) = 20.27471 71.41721 45.84596
# Shear Modulus (GPa) = -110.65626 20.80841 -44.92392
#
# Velocity S-wave (km/s) = -7.83028 3.39554 -4.98917
# Velocity P-wave (km/s) = 8.39744 7.41244 2.79041
#
# Compressibility (1/GPa) = 0.04932253
#
# Stress axis : x y z
#
# Youngs Moduli (GPa) = 108.38844 17.03296 46.67894
#
# Poissons Ratio (x) = 0.12839 0.39865
# Poissons Ratio (y) = 0.81701 0.18391
# Poissons Ratio (z) = 0.92567 0.06711
#
# Static dielectric constant tensor:
#      x y z
#    x 1.664870 0.000000 0.000000 
#    y 0.000000 1.610610 0.000000 
#    z 0.000000 0.000000 1.570080 
# 
# From -- ./inp_files/10910.got.cif
#   From: 2010.05.17/outbox.cif.g08.bks.cpg/sg59_6_cif.got.tgz:10910.got - 2010.06.03 14:40:33.
