data_PCOD9448147
_publ_section_title
;
Structure prediction by ZEFSAII (Michael W. Deem and Ramdas Pophale) SiO2 
 PCOD9448147
Probable space group: P M M N
;
_chemical_formula_sum "Si O2"
_cell_formula_units_Z 56
_cell_length_a 7.656382
_cell_length_b 19.326155
_cell_length_c 18.657808
_cell_angle_alpha 90.000000
_cell_angle_beta 90.000000
_cell_angle_gamma 90.000000
_cell_volume 2760.766469
_symmetry_space_group_name_H-M "P M M N"
_symmetry_group_IT_number 59
_space_group.IT_coordinate_system_code '2'
_symmetry_cell_setting 'orthorhombic'
loop_
_space_group_symop_operation_xyz
x,y,z
1/2-x,1/2-y,z
1/2+x,-y,-z
-x,1/2+y,-z
-x,-y,-z
1/2+x,1/2+y,-z
1/2-x,y,z
x,1/2-y,z
loop_
_atom_site_type_symbol
_atom_site_label
_atom_site_fract_x
_atom_site_fract_y
_atom_site_fract_z
Si Si1 0.462444 0.571014 0.085522
Si Si2 0.042581 0.918213 0.499467
Si Si3 0.547151 0.583495 0.342094
Si Si4 0.035910 0.670588 0.788433
Si Si5 0.964019 0.424407 0.344033
Si Si6 0.956597 0.087341 0.075381
Si Si7 0.455061 0.827355 0.208491
O O1 0.250000 0.570616 0.084794
O O2 0.518270 0.492138 0.099029
O O3 0.527522 0.622461 0.146840
O O4 0.525360 0.592106 0.005867
O O5 0.250000 0.908830 0.496147
O O6 0.981036 0.894736 0.578137
O O7 0.969393 0.891622 0.424321
O O8 0.000000 0.000000 0.500000
O O9 0.750000 0.578998 0.323872
O O10 0.476499 0.504510 0.337254
O O11 0.467384 0.635076 0.284819
O O12 0.250000 0.669211 0.788714
O O13 0.982496 0.750000 0.780192
O O14 0.980589 0.622350 0.722291
O O15 0.973929 0.637900 0.863450
O O16 0.750000 0.426169 0.345211
O O17 0.750000 0.101002 0.070506
O O18 0.250000 0.821116 0.191853
O O19 0.530235 0.750000 0.209689
#
# Coordination Sequence:
#
# PCOD9448147 Si02
#       7
#     8   8   8   8   8   8   8
#     4   9  18  32  50  72  97 126 159 195 239 289
#     4   9  16  28  47  72 100 128 163 206 248 289
#     4  10  19  32  51  72  95 125 163 207 252 297
#     4   9  16  26  43  69  98 125 155 192 232 273
#     4   8  15  27  44  68  96 125 158 197 238 280
#     4   9  17  30  50  75  99 124 158 198 236 278
#     4  10  21  35  49  68  97 130 163 202 249 300
#
# _framework density 20.284220999999999
#
# number of rings (size 3 to 8) (size 9 to 14) (size 15 to 20)
#    0.000    2.857    0.000    2.571    0.000    2.571 
#    0.000    3.571    0.000    3.857    0.000    4.000 
#    0.000    0.000    0.000    0.000    0.000    0.000 
#
# Total GULP energy -312243.996175 kJ/mol
# GULP energy per Si atom -5575.785646 kJ/mol
# Density = 2.023805 g / cm^3
# Si number density = 20.284221 Si / 1000 Ang^3
#
#
#
# Elastic Constant Matrix: (Units=GPa)
#
#
# Indices 1 2 3 4 5 6 
#
# 1 31.5432 -11.4648 -14.6371 0.0000 0.0000 0.0000
# 2 -11.4648 51.8631 38.4797 0.0000 0.0000 0.0000
# 3 -14.6371 38.4797 90.5997 0.0000 0.0000 0.0000
# 4 0.0000 0.0000 0.0000 -5.1182 0.0000 0.0000
# 5 0.0000 0.0000 0.0000 0.0000 9.6065 0.0000
# 6 0.0000 0.0000 0.0000 0.0000 0.0000 12.3228
#
#
#
# Elastic Compliance Matrix: (Units=1/GPa)
#
#
# Indices 1 2 3 4 5 6 
#
# 1 0.035207 0.005202 0.003479 0.000000 0.000000 0.000000
# 2 0.005202 0.028922 -0.011443 0.000000 0.000000 0.000000
# 3 0.003479 -0.011443 0.016460 0.000000 0.000000 0.000000
# 4 0.000000 0.000000 0.000000 -0.195379 0.000000 0.000000
# 5 0.000000 0.000000 0.000000 0.000000 0.104096 0.000000
# 6 0.000000 0.000000 0.000000 0.000000 0.000000 0.081150
#
#
# Mechanical properties :
#
#
# Convention : Reuss Voigt Hill
#
# Bulk Modulus (GPa) = 13.32203 22.08463 17.70333
# Shear Modulus (GPa) = 49.50369 14.13743 31.82056
#
# Velocity S-wave (km/s) = 4.94550 2.64288 3.96502
# Velocity P-wave (km/s) = 6.26040 4.49714 5.45055
#
# Compressibility (1/GPa) = 0.07506366
#
# Stress axis : x y z
#
# Youngs Moduli (GPa) = 28.40306 34.57599 60.75409
#
# Poissons Ratio (x) = -0.17986 -0.21134
# Poissons Ratio (y) = -0.14775 0.69523
# Poissons Ratio (z) = -0.09880 0.39566
#
# Static dielectric constant tensor:
#      x y z
#    x 1.756740 0.000000 0.000000 
#    y 0.000000 1.683330 0.000000 
#    z 0.000000 0.000000 1.733660 
# 
# From -- ./inp_files/29181.got.cif
#   From: 2010.05.17/outbox.cif.g08.bks.cpg/sg59_15_cif.got.tgz:29181.got - 2010.06.03 14:40:33.
