data_PCOD9448224
_publ_section_title
;
Structure prediction by ZEFSAII (Michael W. Deem and Ramdas Pophale) SiO2 
 PCOD9448224
Probable space group: P M M N
;
_chemical_formula_sum "Si O2"
_cell_formula_units_Z 56
_cell_length_a 23.871175
_cell_length_b 8.611621
_cell_length_c 15.982791
_cell_angle_alpha 90.000000
_cell_angle_beta 90.000000
_cell_angle_gamma 90.000000
_cell_volume 3285.574545
_symmetry_space_group_name_H-M "P M M N"
_symmetry_group_IT_number 59
_space_group.IT_coordinate_system_code '2'
_symmetry_cell_setting 'orthorhombic'
loop_
_space_group_symop_operation_xyz
x,y,z
1/2-x,1/2-y,z
1/2+x,-y,-z
-x,1/2+y,-z
-x,-y,-z
1/2+x,1/2+y,-z
1/2-x,y,z
x,1/2-y,z
loop_
_atom_site_type_symbol
_atom_site_label
_atom_site_fract_x
_atom_site_fract_y
_atom_site_fract_z
Si Si1 0.569146 0.563694 0.676850
Si Si2 0.062157 0.937021 0.006985
Si Si3 0.868508 0.063450 0.157070
Si Si4 0.750000 0.437823 0.917291
Si Si5 0.557786 0.563041 0.309251
Si Si6 0.633174 0.437478 0.833246
Si Si7 0.937084 0.936743 0.493520
Si Si8 0.750000 0.934972 0.107093
O O1 0.564191 0.750000 0.679444
O O2 0.506904 0.494531 0.693982
O O3 0.612095 0.507350 0.746751
O O4 0.588719 0.516290 0.582825
O O5 0.060799 0.750000 0.006587
O O6 0.099526 0.986135 0.927983
O O7 0.090591 0.986743 0.093433
O O8 0.000000 0.000000 0.000000
O O9 0.865907 0.250000 0.158081
O O10 0.904863 0.005350 0.235256
O O11 0.805996 0.997143 0.151668
O O12 0.750000 0.250000 0.926854
O O13 0.694668 0.482112 0.865743
O O14 0.750000 0.505954 0.010726
O O15 0.557391 0.750000 0.303370
O O16 0.582309 0.515392 0.400841
O O17 0.631741 0.250000 0.827043
O O18 0.938044 0.750000 0.492543
O O19 0.000000 0.000000 0.500000
O O20 0.750000 0.750000 0.107504
#
# Coordination Sequence:
#
# PCOD9448224 Si02
#       8
#     8   8   8   4   8   8   8   4
#     4  10  19  32  51  79 111 143 175 212 264 322
#     4  10  21  34  50  72 103 137 168 204 258 312
#     4  11  22  38  56  76 105 142 177 219 266 313
#     4  10  20  40  60  73  98 137 182 223 264 306
#     4  10  19  33  53  80 109 139 178 221 263 315
#     4  10  20  35  54  74  99 137 177 219 263 308
#     4   8  16  30  49  73 106 141 173 212 260 312
#     4  12  24  38  58  81 102 135 182 225 262 310
#
# _framework density 17.044203
#
# number of rings (size 3 to 8) (size 9 to 14) (size 15 to 20)
#    0.000    2.000    1.429    2.786    0.000    5.714 
#    0.000    0.000    0.000    0.857    0.000    5.000 
#    0.000    0.000    0.000    0.000    0.000    0.000 
#
# Total GULP energy -312338.558538 kJ/mol
# GULP energy per Si atom -5577.474260 kJ/mol
# Density = 1.700541 g / cm^3
# Si number density = 17.044203 Si / 1000 Ang^3
#
#
#
# Elastic Constant Matrix: (Units=GPa)
#
#
# Indices 1 2 3 4 5 6 
#
# 1 47.5818 12.6840 -9.6218 0.0000 0.0000 0.0000
# 2 12.6840 32.2434 17.1674 0.0000 0.0000 0.0000
# 3 -9.6218 17.1674 79.8755 0.0000 0.0000 0.0000
# 4 0.0000 0.0000 0.0000 24.3141 0.0000 0.0000
# 5 0.0000 0.0000 0.0000 0.0000 8.0970 0.0000
# 6 0.0000 0.0000 0.0000 0.0000 0.0000 23.2814
#
#
#
# Elastic Compliance Matrix: (Units=1/GPa)
#
#
# Indices 1 2 3 4 5 6 
#
# 1 0.025772 -0.013315 0.005966 0.000000 0.000000 0.000000
# 2 -0.013315 0.041901 -0.010610 0.000000 0.000000 0.000000
# 3 0.005966 -0.010610 0.015518 0.000000 0.000000 0.000000
# 4 0.000000 0.000000 0.000000 0.041128 0.000000 0.000000
# 5 0.000000 0.000000 0.000000 0.000000 0.123502 0.000000
# 6 0.000000 0.000000 0.000000 0.000000 0.000000 0.042953
#
#
# Mechanical properties :
#
#
# Convention : Reuss Voigt Hill
#
# Bulk Modulus (GPa) = 21.15280 22.23999 21.69639
# Shear Modulus (GPa) = 14.60069 20.43658 17.51863
#
# Velocity S-wave (km/s) = 2.93001 3.46646 3.20947
# Velocity P-wave (km/s) = 4.88714 5.39431 5.14697
#
# Compressibility (1/GPa) = 0.04727507
#
# Stress axis : x y z
#
# Youngs Moduli (GPa) = 38.80129 23.86585 64.43943
#
# Poissons Ratio (x) = 0.31777 -0.38446
# Poissons Ratio (y) = 0.51664 0.68367
# Poissons Ratio (z) = -0.23150 0.25321
#
# Static dielectric constant tensor:
#      x y z
#    x 1.545350 0.000000 0.000000 
#    y 0.000000 1.581890 0.000000 
#    z 0.000000 0.000000 1.602560 
# 
# From -- ./inp_files/24336.got.cif
#   From: 2010.05.17/outbox.cif.g08.bks.cpg/sg59_13_cif.got.tgz:24336.got - 2010.06.03 14:40:33.
