data_PCOD9448700
_publ_section_title
;
Structure prediction by ZEFSAII (Michael W. Deem and Ramdas Pophale) SiO2 
 PCOD9448700
Probable space group: P M M N
;
_chemical_formula_sum "Si O2"
_cell_formula_units_Z 56
_cell_length_a 8.743161
_cell_length_b 24.898126
_cell_length_c 15.177120
_cell_angle_alpha 90.000000
_cell_angle_beta 90.000000
_cell_angle_gamma 90.000000
_cell_volume 3303.881819
_symmetry_space_group_name_H-M "P M M N"
_symmetry_group_IT_number 59
_space_group.IT_coordinate_system_code '2'
_symmetry_cell_setting 'orthorhombic'
loop_
_space_group_symop_operation_xyz
x,y,z
1/2-x,1/2-y,z
1/2+x,-y,-z
-x,1/2+y,-z
-x,-y,-z
1/2+x,1/2+y,-z
1/2-x,y,z
x,1/2-y,z
loop_
_atom_site_type_symbol
_atom_site_label
_atom_site_fract_x
_atom_site_fract_y
_atom_site_fract_z
Si Si1 0.433938 0.951400 0.173968
Si Si2 0.067541 0.079104 0.448658
Si Si3 0.435666 0.250000 0.008675
Si Si4 0.566457 0.066116 0.127893
Si Si5 0.065672 0.131081 0.961736
Si Si6 0.566303 0.460623 0.622137
Si Si7 0.566679 0.750000 0.787069
Si Si8 0.567696 0.358097 0.292378
O O1 0.250000 0.952548 0.168053
O O2 0.499520 0.901075 0.120973
O O3 0.478011 0.950035 0.277156
O O4 0.499500 0.006270 0.132260
O O5 0.250000 0.083333 0.446942
O O6 0.008583 0.077152 0.548603
O O7 0.994345 0.123789 0.386761
O O8 0.023563 0.021535 0.405150
O O9 0.250000 0.250000 0.008252
O O10 0.484790 0.250000 0.110866
O O11 0.483435 0.306412 0.965769
O O12 0.750000 0.063984 0.117967
O O13 0.528837 0.096500 0.219363
O O14 0.495375 0.100512 0.048586
O O15 0.250000 0.128862 0.961495
O O16 0.750000 0.456441 0.615516
O O17 0.750000 0.750000 0.786207
O O18 0.505235 0.802952 0.740090
O O19 0.750000 0.353155 0.294677
#
# Coordination Sequence:
#
# PCOD9448700 Si02
#       8
#     8   8   4   8   8   8   4   8
#     4  11  22  37  55  80 113 148 184 224 276 331
#     4  10  19  33  55  81 108 142 180 220 270 326
#     4   9  20  37  57  78 103 140 183 229 274 320
#     4  11  22  35  53  80 112 148 183 222 271 328
#     4  11  22  38  57  78 107 144 186 230 278 327
#     4   9  19  34  53  78 110 143 177 222 271 324
#     4  11  21  37  59  80 107 144 189 227 274 332
#     4  11  22  35  54  82 115 146 182 226 276 327
#
# _framework density 16.949759
#
# number of rings (size 3 to 8) (size 9 to 14) (size 15 to 20)
#    0.000    1.571    2.857    2.786    0.000    2.857 
#    0.000    1.429    0.000    0.857    0.000    2.000 
#    0.000    0.000    0.000    0.000    0.000    0.000 
#
# Total GULP energy -312792.228189 kJ/mol
# GULP energy per Si atom -5585.575503 kJ/mol
# Density = 1.691118 g / cm^3
# Si number density = 16.949759 Si / 1000 Ang^3
#
#
#
# Elastic Constant Matrix: (Units=GPa)
#
#
# Indices 1 2 3 4 5 6 
#
# 1 38.9910 39.8434 35.3186 0.0000 0.0000 0.0000
# 2 39.8434 140.9697 68.0769 0.0000 0.0000 0.0000
# 3 35.3186 68.0769 103.4571 0.0000 0.0000 0.0000
# 4 0.0000 0.0000 0.0000 -32.2260 0.0000 0.0000
# 5 0.0000 0.0000 0.0000 0.0000 27.1005 0.0000
# 6 0.0000 0.0000 0.0000 0.0000 0.0000 24.2111
#
#
#
# Elastic Compliance Matrix: (Units=1/GPa)
#
#
# Indices 1 2 3 4 5 6 
#
# 1 0.041550 -0.007173 -0.009464 0.000000 0.000000 0.000000
# 2 -0.007173 0.011636 -0.005208 0.000000 0.000000 0.000000
# 3 -0.009464 -0.005208 0.016324 0.000000 0.000000 0.000000
# 4 0.000000 0.000000 0.000000 -0.031031 0.000000 0.000000
# 5 0.000000 0.000000 0.000000 0.000000 0.036900 0.000000
# 6 0.000000 0.000000 0.000000 0.000000 0.000000 0.041303
#
#
# Mechanical properties :
#
#
# Convention : Reuss Voigt Hill
#
# Bulk Modulus (GPa) = 38.73153 63.32174 51.02664
# Shear Modulus (GPa) = 29.58942 13.16239 21.37591
#
# Velocity S-wave (km/s) = 4.18271 2.78969 3.55510
# Velocity P-wave (km/s) = 6.79905 6.91492 6.85723
#
# Compressibility (1/GPa) = 0.02581876
#
# Stress axis : x y z
#
# Youngs Moduli (GPa) = 24.06753 85.93896 61.25994
#
# Poissons Ratio (x) = 0.61644 0.57979
# Poissons Ratio (y) = 0.17264 0.31905
# Poissons Ratio (z) = 0.22779 0.44758
#
# Static dielectric constant tensor:
#      x y z
#    x 1.563510 0.000000 0.000000 
#    y 0.000000 1.554010 0.000000 
#    z 0.000000 0.000000 1.563840 
# 
# From -- ./inp_files/21208.got.cif
#   From: 2010.05.17/outbox.cif.g08.bks.cpg/sg59_11_cif.got.tgz:21208.got - 2010.06.03 14:40:33.
