data_PCOD9448159
_publ_section_title
;
Structure prediction by ZEFSAII (Michael W. Deem and Ramdas Pophale) SiO2 
 PCOD9448159
Probable space group: P M M N
;
_chemical_formula_sum "Si O2"
_cell_formula_units_Z 56
_cell_length_a 7.965785
_cell_length_b 14.851095
_cell_length_c 23.407384
_cell_angle_alpha 90.000000
_cell_angle_beta 90.000000
_cell_angle_gamma 90.000000
_cell_volume 2769.108269
_symmetry_space_group_name_H-M "P M M N"
_symmetry_group_IT_number 59
_space_group.IT_coordinate_system_code '2'
_symmetry_cell_setting 'orthorhombic'
loop_
_space_group_symop_operation_xyz
x,y,z
1/2-x,1/2-y,z
1/2+x,-y,-z
-x,1/2+y,-z
-x,-y,-z
1/2+x,1/2+y,-z
1/2-x,y,z
x,1/2-y,z
loop_
_atom_site_type_symbol
_atom_site_label
_atom_site_fract_x
_atom_site_fract_y
_atom_site_fract_z
Si Si1 0.451870 0.854245 0.029453
Si Si2 0.051110 0.346562 0.407439
Si Si3 0.455906 0.849716 0.349818
Si Si4 0.455500 0.465807 0.304840
Si Si5 0.547594 0.853501 0.804606
Si Si6 0.944984 0.404784 0.525138
Si Si7 0.950618 0.462802 0.082776
O O1 0.250000 0.848676 0.026472
O O2 0.512017 0.750000 0.037309
O O3 0.492438 0.933184 0.075244
O O4 0.514023 0.900609 0.970232
O O5 0.250000 0.360600 0.415672
O O6 0.027607 0.250000 0.378342
O O7 0.987835 0.422365 0.364813
O O8 0.974759 0.344211 0.470014
O O9 0.250000 0.848673 0.350472
O O10 0.511899 0.750000 0.333870
O O11 0.517385 0.872227 0.414506
O O12 0.505823 0.930107 0.307678
O O13 0.250000 0.462237 0.304941
O O14 0.513383 0.406178 0.251837
O O15 0.750000 0.849107 0.800893
O O16 0.485978 0.750000 0.808538
O O17 0.503400 0.913310 0.859452
O O18 0.750000 0.412067 0.536787
O O19 0.000000 0.500000 0.500000
O O20 0.750000 0.463491 0.079524
#
# Coordination Sequence:
#
# PCOD9448159 Si02
#       7
#     8   8   8   8   8   8   8
#     4   9  18  34  56  82 113 149 188 226 263 310
#     4  10  19  32  51  74 100 131 165 206 260 314
#     4   9  17  30  50  73  96 125 164 211 262 315
#     4   9  17  32  51  72  99 132 174 219 260 305
#     4  10  20  34  54  78 104 140 184 226 266 313
#     4  11  20  32  50  73 101 130 164 208 263 319
#     4  10  20  34  54  82 116 149 180 221 274 323
#
# _framework density 20.223116000000001
#
# number of rings (size 3 to 8) (size 9 to 14) (size 15 to 20)
#    0.000    2.286    1.429    2.143    0.000    4.286 
#    0.000    1.429    0.000    4.286    0.000    0.000 
#    0.000    0.000    0.000    0.000    0.000    0.000 
#
# Total GULP energy -312132.047161 kJ/mol
# GULP energy per Si atom -5573.786556 kJ/mol
# Density = 2.017709 g / cm^3
# Si number density = 20.223116 Si / 1000 Ang^3
#
#
#
# Elastic Constant Matrix: (Units=GPa)
#
#
# Indices 1 2 3 4 5 6 
#
# 1 14.0001 15.4369 -3.2134 0.0000 0.0000 0.0000
# 2 15.4369 206.0477 66.6828 0.0000 0.0000 0.0000
# 3 -3.2134 66.6828 86.5513 0.0000 0.0000 0.0000
# 4 0.0000 0.0000 0.0000 26.7832 0.0000 0.0000
# 5 0.0000 0.0000 0.0000 0.0000 17.4771 0.0000
# 6 0.0000 0.0000 0.0000 0.0000 0.0000 10.1720
#
#
#
# Elastic Compliance Matrix: (Units=1/GPa)
#
#
# Indices 1 2 3 4 5 6 
#
# 1 0.084701 -0.009809 0.010702 0.000000 0.000000 0.000000
# 2 -0.009809 0.007601 -0.006221 0.000000 0.000000 0.000000
# 3 0.010702 -0.006221 0.016744 0.000000 0.000000 0.000000
# 4 0.000000 0.000000 0.000000 0.037337 0.000000 0.000000
# 5 0.000000 0.000000 0.000000 0.000000 0.057218 0.000000
# 6 0.000000 0.000000 0.000000 0.000000 0.000000 0.098309
#
#
# Mechanical properties :
#
#
# Convention : Reuss Voigt Hill
#
# Bulk Modulus (GPa) = 10.16359 51.60130 30.88245
# Shear Modulus (GPa) = 14.47760 26.06599 20.27180
#
# Velocity S-wave (km/s) = 2.67852 3.59405 3.16952
# Velocity P-wave (km/s) = 3.82134 6.54174 5.35709
#
# Compressibility (1/GPa) = 0.09839038
#
# Stress axis : x y z
#
# Youngs Moduli (GPa) = 11.80630 131.55668 59.72372
#
# Poissons Ratio (x) = 1.29047 -0.63917
# Poissons Ratio (y) = 0.11581 0.37151
# Poissons Ratio (z) = -0.12635 0.81835
#
# Static dielectric constant tensor:
#      x y z
#    x 1.729410 0.000000 0.000000 
#    y 0.000000 1.811710 0.000000 
#    z 0.000000 0.000000 1.709380 
# 
# From -- ./inp_files/29151.got.cif
#   From: 2010.05.17/outbox.cif.g08.bks.cpg/sg59_15_cif.got.tgz:29151.got - 2010.06.03 14:40:33.
