data_PCOD9448642
_publ_section_title
;
Structure prediction by ZEFSAII (Michael W. Deem and Ramdas Pophale) SiO2 
 PCOD9448642
Probable space group: P M M N
;
_chemical_formula_sum "Si O2"
_cell_formula_units_Z 48
_cell_length_a 17.461154
_cell_length_b 7.871415
_cell_length_c 16.914192
_cell_angle_alpha 90.000000
_cell_angle_beta 90.000000
_cell_angle_gamma 90.000000
_cell_volume 2324.754028
_symmetry_space_group_name_H-M "P M M N"
_symmetry_group_IT_number 59
_space_group.IT_coordinate_system_code '2'
_symmetry_cell_setting 'orthorhombic'
loop_
_space_group_symop_operation_xyz
x,y,z
1/2-x,1/2-y,z
1/2+x,-y,-z
-x,1/2+y,-z
-x,-y,-z
1/2+x,1/2+y,-z
1/2-x,y,z
x,1/2-y,z
loop_
_atom_site_type_symbol
_atom_site_label
_atom_site_fract_x
_atom_site_fract_y
_atom_site_fract_z
Si Si1 0.558287 0.047598 0.223132
Si Si2 0.250000 0.054661 0.016030
Si Si3 0.163476 0.542143 0.634569
Si Si4 0.250000 0.543772 0.197658
Si Si5 0.414084 0.545535 0.475455
Si Si6 0.602318 0.044053 0.703702
Si Si7 0.920587 0.047992 0.046127
O O1 0.572741 0.250000 0.219434
O O2 0.609833 0.979279 0.294868
O O3 0.574005 0.977358 0.135799
O O4 0.471912 0.018109 0.250197
O O5 0.250000 0.250000 0.993709
O O6 0.334511 0.989377 0.987202
O O7 0.250000 0.028554 0.110133
O O8 0.250000 0.494461 0.650859
O O9 0.158773 0.750000 0.633206
O O10 0.138057 0.483295 0.547668
O O11 0.250000 0.750000 0.191024
O O12 0.323767 0.491589 0.247449
O O13 0.500000 0.500000 0.500000
O O14 0.406757 0.750000 0.472706
O O15 0.397170 0.482473 0.387119
O O16 0.600384 0.250000 0.701753
O O17 0.924527 0.250000 0.049710
O O18 0.000000 0.000000 0.000000
#
# Coordination Sequence:
#
# PCOD9448642 Si02
#       7
#     8   4   8   4   8   8   8
#     4  10  21  37  60  86 112 149 195 240 291 354
#     4  12  26  44  66  93 124 162 207 254 313 379
#     4   9  18  32  54  81 110 146 191 236 275 331
#     4  10  22  40  60  85 118 154 195 246 299 353
#     4  10  19  33  54  80 111 149 190 235 285 341
#     4  10  21  35  56  85 118 153 192 240 294 347
#     4  11  24  42  66  94 126 162 206 258 314 376
#
# _framework density 20.647345999999999
#
# number of rings (size 3 to 8) (size 9 to 14) (size 15 to 20)
#    0.000    1.833    1.667    2.250    2.333    4.667 
#    0.000    0.000    0.000    1.500    0.000    0.000 
#    0.000    0.000    0.000    0.000    0.000    0.000 
#
# Total GULP energy -267836.833926 kJ/mol
# GULP energy per Si atom -5579.934040 kJ/mol
# Density = 2.060035 g / cm^3
# Si number density = 20.647346 Si / 1000 Ang^3
#
#
#
# Elastic Constant Matrix: (Units=GPa)
#
#
# Indices 1 2 3 4 5 6 
#
# 1 150.2042 -4.8550 83.3355 0.0000 0.0000 0.0000
# 2 -4.8550 27.3472 3.1851 0.0000 0.0000 0.0000
# 3 83.3355 3.1851 186.5039 0.0000 0.0000 0.0000
# 4 0.0000 0.0000 0.0000 16.3940 0.0000 0.0000
# 5 0.0000 0.0000 0.0000 0.0000 11.5888 0.0000
# 6 0.0000 0.0000 0.0000 0.0000 0.0000 28.7682
#
#
#
# Elastic Compliance Matrix: (Units=1/GPa)
#
#
# Indices 1 2 3 4 5 6 
#
# 1 0.008967 0.002063 -0.004042 0.000000 0.000000 0.000000
# 2 0.002063 0.037114 -0.001555 0.000000 0.000000 0.000000
# 3 -0.004042 -0.001555 0.007194 0.000000 0.000000 0.000000
# 4 0.000000 0.000000 0.000000 0.060998 0.000000 0.000000
# 5 0.000000 0.000000 0.000000 0.000000 0.086290 0.000000
# 6 0.000000 0.000000 0.000000 0.000000 0.000000 0.034761
#
#
# Mechanical properties :
#
#
# Convention : Reuss Voigt Hill
#
# Bulk Modulus (GPa) = 21.64225 58.59849 40.12037
# Shear Modulus (GPa) = 19.39523 30.17618 24.78570
#
# Velocity S-wave (km/s) = 3.06822 3.82711 3.46848
# Velocity P-wave (km/s) = 4.80172 6.92613 5.95936
#
# Compressibility (1/GPa) = 0.04620592
#
# Stress axis : x y z
#
# Youngs Moduli (GPa) = 111.52319 26.94391 138.99705
#
# Poissons Ratio (x) = -0.05558 0.56180
# Poissons Ratio (y) = -0.23003 0.21621
# Poissons Ratio (z) = 0.45076 0.04191
#
# Static dielectric constant tensor:
#      x y z
#    x 1.696860 0.000000 0.000000 
#    y 0.000000 1.712240 0.000000 
#    z 0.000000 0.000000 1.746280 
# 
# From -- ./inp_files/23729.got.cif
#   From: 2010.05.17/outbox.cif.g08.bks.cpg/sg59_12_cif.got.tgz:23729.got - 2010.06.03 14:40:33.
