data_PCOD9448318
_publ_section_title
;
Structure prediction by ZEFSAII (Michael W. Deem and Ramdas Pophale) SiO2 
 PCOD9448318
Probable space group: P M M N
;
_chemical_formula_sum "Si O2"
_cell_formula_units_Z 64
_cell_length_a 14.969211
_cell_length_b 21.886855
_cell_length_c 9.565222
_cell_angle_alpha 90.000000
_cell_angle_beta 90.000000
_cell_angle_gamma 90.000000
_cell_volume 3133.843646
_symmetry_space_group_name_H-M "P M M N"
_symmetry_group_IT_number 59
_space_group.IT_coordinate_system_code '2'
_symmetry_cell_setting 'orthorhombic'
loop_
_space_group_symop_operation_xyz
x,y,z
1/2-x,1/2-y,z
1/2+x,-y,-z
-x,1/2+y,-z
-x,-y,-z
1/2+x,1/2+y,-z
1/2-x,y,z
x,1/2-y,z
loop_
_atom_site_type_symbol
_atom_site_label
_atom_site_fract_x
_atom_site_fract_y
_atom_site_fract_z
Si Si1 0.450037 0.892518 0.847636
Si Si2 0.018403 0.819400 0.103041
Si Si3 0.108264 0.430163 0.511361
Si Si4 0.148824 0.523848 0.032150
Si Si5 0.853102 0.676909 0.268728
Si Si6 0.397776 0.933271 0.562094
Si Si7 0.652690 0.378826 0.723510
Si Si8 0.652983 0.599324 0.801402
O O1 0.395609 0.895222 0.704967
O O2 0.552961 0.874068 0.816403
O O3 0.427496 0.848852 0.975887
O O4 0.426368 0.958159 0.919308
O O5 0.006261 0.750000 0.067943
O O6 0.076259 0.830782 0.241685
O O7 0.920450 0.843330 0.145391
O O8 0.132031 0.370964 0.604359
O O9 0.131036 0.495945 0.579247
O O10 0.151632 0.425700 0.357879
O O11 0.001970 0.432398 0.484363
O O12 0.250000 0.538229 0.979738
O O13 0.134743 0.563662 0.173593
O O14 0.149488 0.455131 0.086172
O O15 0.750000 0.672973 0.226274
O O16 0.870527 0.750000 0.301748
O O17 0.348875 0.902504 0.433292
O O18 0.750000 0.353933 0.758776
O O19 0.750000 0.631567 0.819474
#
# Coordination Sequence:
#
# PCOD9448318 Si02
#       8
#     8   8   8   8   8   8   8   8
#     4  10  22  35  55  82 118 154 190 240 294 353
#     4  10  22  42  61  80 114 158 200 245 299 355
#     4  10  19  34  57  85 123 158 191 245 304 354
#     4   9  18  33  52  78 114 155 188 226 283 349
#     4  10  21  37  60  87 115 157 212 255 286 338
#     4  10  20  34  56  91 121 152 191 238 309 364
#     4  10  19  35  61  87 113 147 194 242 290 358
#     4  10  19  32  52  81 117 156 192 228 284 352
#
# _framework density 20.422208000000001
#
# number of rings (size 3 to 8) (size 9 to 14) (size 15 to 20)
#    0.000    2.125    2.500    0.750    0.000    2.750 
#    0.000    4.375    0.000    0.750    0.000    0.000 
#    0.000    0.000    0.000    0.000    0.000    0.000 
#
# Total GULP energy -356287.707273 kJ/mol
# GULP energy per Si atom -5566.995426 kJ/mol
# Density = 2.037573 g / cm^3
# Si number density = 20.422208 Si / 1000 Ang^3
#
#
#
# Elastic Constant Matrix: (Units=GPa)
#
#
# Indices 1 2 3 4 5 6 
#
# 1 60.8905 2.9670 16.3479 0.0000 0.0000 0.0000
# 2 2.9670 24.4861 24.5441 0.0000 0.0000 0.0000
# 3 16.3479 24.5441 92.8304 0.0000 0.0000 0.0000
# 4 0.0000 0.0000 0.0000 12.2346 0.0000 0.0000
# 5 0.0000 0.0000 0.0000 0.0000 13.8481 0.0000
# 6 0.0000 0.0000 0.0000 0.0000 0.0000 18.1546
#
#
#
# Elastic Compliance Matrix: (Units=1/GPa)
#
#
# Indices 1 2 3 4 5 6 
#
# 1 0.017268 0.001300 -0.003385 0.000000 0.000000 0.000000
# 2 0.001300 0.055664 -0.014946 0.000000 0.000000 0.000000
# 3 -0.003385 -0.014946 0.015320 0.000000 0.000000 0.000000
# 4 0.000000 0.000000 0.000000 0.081735 0.000000 0.000000
# 5 0.000000 0.000000 0.000000 0.000000 0.072212 0.000000
# 6 0.000000 0.000000 0.000000 0.000000 0.000000 0.055082
#
#
# Mechanical properties :
#
#
# Convention : Reuss Voigt Hill
#
# Bulk Modulus (GPa) = 18.45334 29.54724 24.00029
# Shear Modulus (GPa) = 14.30995 17.80399 16.05697
#
# Velocity S-wave (km/s) = 2.64996 2.95582 2.80706
# Velocity P-wave (km/s) = 4.29168 5.11359 4.72056
#
# Compressibility (1/GPa) = 0.05419073
#
# Stress axis : x y z
#
# Youngs Moduli (GPa) = 57.90947 17.96501 65.27329
#
# Poissons Ratio (x) = -0.02336 0.22094
# Poissons Ratio (y) = -0.07531 0.97560
# Poissons Ratio (z) = 0.19602 0.26851
#
# Static dielectric constant tensor:
#      x y z
#    x 1.813400 0.000000 0.000000 
#    y 0.000000 1.748670 0.000000 
#    z 0.000000 0.000000 1.726620 
# 
# From -- ./inp_files/9557.got.cif
#   From: 2010.05.17/outbox.cif.g08.bks.cpg/sg59_5_cif.got.tgz:9557.got - 2010.06.03 14:40:33.
