data_PCOD9448226
_publ_section_title
;
Structure prediction by ZEFSAII (Michael W. Deem and Ramdas Pophale) SiO2 
 PCOD9448226
Probable space group: P M M N
;
_chemical_formula_sum "Si O2"
_cell_formula_units_Z 56
_cell_length_a 23.535464
_cell_length_b 8.696492
_cell_length_c 14.620713
_cell_angle_alpha 90.000000
_cell_angle_beta 90.000000
_cell_angle_gamma 90.000000
_cell_volume 2992.508680
_symmetry_space_group_name_H-M "P M M N"
_symmetry_group_IT_number 59
_space_group.IT_coordinate_system_code '2'
_symmetry_cell_setting 'orthorhombic'
loop_
_space_group_symop_operation_xyz
x,y,z
1/2-x,1/2-y,z
1/2+x,-y,-z
-x,1/2+y,-z
-x,-y,-z
1/2+x,1/2+y,-z
1/2-x,y,z
x,1/2-y,z
loop_
_atom_site_type_symbol
_atom_site_label
_atom_site_fract_x
_atom_site_fract_y
_atom_site_fract_z
Si Si1 0.094553 0.565525 0.148956
Si Si2 0.137715 0.434349 0.535846
Si Si3 0.095180 0.565700 0.356599
Si Si4 0.471782 0.931210 0.855851
Si Si5 0.250000 0.065614 0.856560
Si Si6 0.858364 0.063596 0.038195
Si Si7 0.470969 0.568786 0.639101
Si Si8 0.750000 0.937252 0.354717
O O1 0.096278 0.750000 0.151415
O O2 0.106470 0.511205 0.252358
O O3 0.030392 0.517046 0.123931
O O4 0.136150 0.515090 0.067835
O O5 0.135786 0.250000 0.536215
O O6 0.136174 0.494396 0.432193
O O7 0.081398 0.498643 0.584580
O O8 0.193327 0.485875 0.591706
O O9 0.098246 0.750000 0.359655
O O10 0.030839 0.513489 0.379957
O O11 0.480509 0.750000 0.873700
O O12 0.417151 0.982902 0.912445
O O13 0.460085 0.949591 0.747691
O O14 0.250000 0.250000 0.856270
O O15 0.250000 0.011868 0.750765
O O16 0.305402 0.005575 0.908885
O O17 0.854766 0.250000 0.042130
O O18 0.476509 0.750000 0.618786
O O19 0.750000 0.750000 0.354111
#
# Coordination Sequence:
#
# PCOD9448226 Si02
#       8
#     8   8   8   8   4   8   8   4
#     4   9  19  34  54  78 108 142 174 209 258 312
#     4  11  21  36  56  76 101 139 178 218 265 313
#     4  10  20  35  53  78 108 139 175 216 258 309
#     4   9  18  31  52  81 111 139 173 215 261 309
#     4  11  23  39  58  81 104 134 175 217 256 307
#     4  10  20  36  55  78 108 143 176 213 261 310
#     4  10  19  32  51  80 112 141 172 213 262 314
#     4   9  22  41  58  77 104 134 171 215 264 315
#
# _framework density 18.713395999999999
#
# number of rings (size 3 to 8) (size 9 to 14) (size 15 to 20)
#    0.000    2.143    0.000    3.214    0.000    2.286 
#    0.000    4.286    0.000    2.571    0.000    0.000 
#    0.000    0.000    0.000    0.000    0.000    0.000 
#
# Total GULP energy -312710.823539 kJ/mol
# GULP energy per Si atom -5584.121849 kJ/mol
# Density = 1.867080 g / cm^3
# Si number density = 18.713396 Si / 1000 Ang^3
#
#
#
# Elastic Constant Matrix: (Units=GPa)
#
#
# Indices 1 2 3 4 5 6 
#
# 1 83.2960 17.0822 97.9174 0.0000 0.0000 0.0000
# 2 17.0822 30.3020 34.0412 0.0000 0.0000 0.0000
# 3 97.9174 34.0412 143.7977 0.0000 0.0000 0.0000
# 4 0.0000 0.0000 0.0000 23.9093 0.0000 0.0000
# 5 0.0000 0.0000 0.0000 0.0000 34.0776 0.0000
# 6 0.0000 0.0000 0.0000 0.0000 0.0000 25.7251
#
#
#
# Elastic Compliance Matrix: (Units=1/GPa)
#
#
# Indices 1 2 3 4 5 6 
#
# 1 0.066896 0.018339 -0.049893 0.000000 0.000000 0.000000
# 2 0.018339 0.049985 -0.024320 0.000000 0.000000 0.000000
# 3 -0.049893 -0.024320 0.046686 0.000000 0.000000 0.000000
# 4 0.000000 0.000000 0.000000 0.041825 0.000000 0.000000
# 5 0.000000 0.000000 0.000000 0.000000 0.029345 0.000000
# 6 0.000000 0.000000 0.000000 0.000000 0.000000 0.038873
#
#
# Mechanical properties :
#
#
# Convention : Reuss Voigt Hill
#
# Bulk Modulus (GPa) = 19.29894 61.71972 40.50933
# Shear Modulus (GPa) = 12.41834 23.96605 18.19220
#
# Velocity S-wave (km/s) = 2.57885 3.58256 3.12131
# Velocity P-wave (km/s) = 4.38208 7.08280 5.88934
#
# Compressibility (1/GPa) = 0.05181632
#
# Stress axis : x y z
#
# Youngs Moduli (GPa) = 14.94862 20.00620 21.41976
#
# Poissons Ratio (x) = -0.36689 1.06870
# Poissons Ratio (y) = -0.27414 0.52094
# Poissons Ratio (z) = 0.74584 0.48656
#
# Static dielectric constant tensor:
#      x y z
#    x 1.604030 0.000000 0.000000 
#    y 0.000000 1.632750 0.000000 
#    z 0.000000 0.000000 1.682720 
# 
# From -- ./inp_files/24412.got.cif
#   From: 2010.05.17/outbox.cif.g08.bks.cpg/sg59_13_cif.got.tgz:24412.got - 2010.06.03 14:40:33.
