data_PCOD9448765
_publ_section_title
;
Structure prediction by ZEFSAII (Michael W. Deem and Ramdas Pophale) SiO2 
 PCOD9448765
Probable space group: P M M N
;
_chemical_formula_sum "Si O2"
_cell_formula_units_Z 48
_cell_length_a 8.517225
_cell_length_b 18.490765
_cell_length_c 15.074895
_cell_angle_alpha 90.000000
_cell_angle_beta 90.000000
_cell_angle_gamma 90.000000
_cell_volume 2374.145303
_symmetry_space_group_name_H-M "P M M N"
_symmetry_group_IT_number 59
_space_group.IT_coordinate_system_code '2'
_symmetry_cell_setting 'orthorhombic'
loop_
_space_group_symop_operation_xyz
x,y,z
1/2-x,1/2-y,z
1/2+x,-y,-z
-x,1/2+y,-z
-x,-y,-z
1/2+x,1/2+y,-z
1/2-x,y,z
x,1/2-y,z
loop_
_atom_site_type_symbol
_atom_site_label
_atom_site_fract_x
_atom_site_fract_y
_atom_site_fract_z
Si Si1 0.439264 0.446373 0.120800
Si Si2 0.934867 0.909536 0.680492
Si Si3 0.932531 0.167414 0.764521
Si Si4 0.068645 0.060681 0.625240
Si Si5 0.935690 0.331935 0.480229
Si Si6 0.935099 0.603486 0.069037
O O1 0.250000 0.459672 0.121296
O O2 0.482192 0.414533 0.216272
O O3 0.523815 0.522634 0.103347
O O4 0.473980 0.396843 0.035404
O O5 0.750000 0.893669 0.675927
O O6 0.027300 0.852498 0.620969
O O7 0.967778 0.988689 0.639036
O O8 0.750000 0.150431 0.746682
O O9 0.961721 0.250000 0.737931
O O10 0.038007 0.112306 0.709443
O O11 0.969085 0.156515 0.867942
O O12 0.250000 0.039532 0.618777
O O13 0.019068 0.108870 0.541590
O O14 0.750000 0.335987 0.497067
O O15 0.988246 0.250000 0.499926
O O16 0.750000 0.617030 0.079178
#
# Coordination Sequence:
#
# PCOD9448765 Si02
#       6
#     8   8   8   8   8   8
#     4   9  19  35  57  85 117 152 191 238 292 344
#     4  11  22  39  64  91 121 156 197 245 295 352
#     4  11  23  38  56  82 120 162 200 244 302 361
#     4  12  24  39  62  91 119 151 197 248 299 357
#     4  11  25  44  63  85 118 158 198 244 299 355
#     4  10  19  33  56  85 115 151 195 241 289 345
#
# _framework density 20.217801999999999
#
# number of rings (size 3 to 8) (size 9 to 14) (size 15 to 20)
#    0.000    1.333    1.667    4.500    0.000    6.000 
#    0.000    0.833    0.000    5.000    0.000    0.000 
#    0.000    0.000    0.000    0.000    0.000    0.000 
#
# Total GULP energy -268375.526450 kJ/mol
# GULP energy per Si atom -5591.156801 kJ/mol
# Density = 2.017178 g / cm^3
# Si number density = 20.217802 Si / 1000 Ang^3
#
#
#
# Elastic Constant Matrix: (Units=GPa)
#
#
# Indices 1 2 3 4 5 6 
#
# 1 21.1466 -4.8465 2.1387 0.0000 0.0000 0.0000
# 2 -4.8465 23.2163 10.3939 0.0000 0.0000 0.0000
# 3 2.1387 10.3939 109.3934 0.0000 0.0000 0.0000
# 4 0.0000 0.0000 0.0000 -1.6786 0.0000 0.0000
# 5 0.0000 0.0000 0.0000 0.0000 29.3546 0.0000
# 6 0.0000 0.0000 0.0000 0.0000 0.0000 23.1069
#
#
#
# Elastic Compliance Matrix: (Units=1/GPa)
#
#
# Indices 1 2 3 4 5 6 
#
# 1 0.050106 0.011383 -0.002061 0.000000 0.000000 0.000000
# 2 0.011383 0.047573 -0.004743 0.000000 0.000000 0.000000
# 3 -0.002061 -0.004743 0.009632 0.000000 0.000000 0.000000
# 4 0.000000 0.000000 0.000000 -0.595733 0.000000 0.000000
# 5 0.000000 0.000000 0.000000 0.000000 0.034066 0.000000
# 6 0.000000 0.000000 0.000000 0.000000 0.000000 0.043277
#
#
# Mechanical properties :
#
#
# Convention : Reuss Voigt Hill
#
# Bulk Modulus (GPa) = 8.58601 18.79206 13.68903
# Shear Modulus (GPa) = -13.10912 19.89459 3.39274
#
# Velocity S-wave (km/s) = -2.54912 3.14030 1.29682
# Velocity P-wave (km/s) = 2.09954 4.73958 3.00463
#
# Compressibility (1/GPa) = 0.11646855
#
# Stress axis : x y z
#
# Youngs Moduli (GPa) = 19.95768 21.02048 103.81811
#
# Poissons Ratio (x) = -0.23927 0.21398
# Poissons Ratio (y) = -0.22717 0.49237
# Poissons Ratio (z) = 0.04113 0.09969
#
# Static dielectric constant tensor:
#      x y z
#    x 1.681570 0.000000 0.000000 
#    y 0.000000 1.683880 0.000000 
#    z 0.000000 0.000000 1.760650 
# 
# From -- ./inp_files/20423.got.cif
#   From: 2010.05.17/outbox.cif.g08.bks.cpg/sg59_11_cif.got.tgz:20423.got - 2010.06.03 14:40:33.
