data_PCOD9448161
_publ_section_title
;
Structure prediction by ZEFSAII (Michael W. Deem and Ramdas Pophale) SiO2 
 PCOD9448161
Probable space group: P M M N
;
_chemical_formula_sum "Si O2"
_cell_formula_units_Z 64
_cell_length_a 20.821070
_cell_length_b 7.931026
_cell_length_c 20.034306
_cell_angle_alpha 90.000000
_cell_angle_beta 90.000000
_cell_angle_gamma 90.000000
_cell_volume 3308.313984
_symmetry_space_group_name_H-M "P M M N"
_symmetry_group_IT_number 59
_space_group.IT_coordinate_system_code '2'
_symmetry_cell_setting 'orthorhombic'
loop_
_space_group_symop_operation_xyz
x,y,z
1/2-x,1/2-y,z
1/2+x,-y,-z
-x,1/2+y,-z
-x,-y,-z
1/2+x,1/2+y,-z
1/2-x,y,z
x,1/2-y,z
loop_
_atom_site_type_symbol
_atom_site_label
_atom_site_fract_x
_atom_site_fract_y
_atom_site_fract_z
Si Si1 0.318332 0.946967 0.419190
Si Si2 0.319804 0.055320 0.268593
Si Si3 0.965675 0.447099 0.930518
Si Si4 0.542115 0.541773 0.709203
Si Si5 0.821551 0.454134 0.110440
Si Si6 0.444930 0.945094 0.814196
Si Si7 0.321882 0.447752 0.043903
Si Si8 0.450449 0.449578 0.443831
O O1 0.250000 0.980613 0.452192
O O2 0.320796 0.750000 0.400298
O O3 0.320157 0.048890 0.349734
O O4 0.379420 0.989821 0.462362
O O5 0.250000 0.980562 0.248159
O O6 0.319360 0.250000 0.246251
O O7 0.390962 0.983966 0.255450
O O8 0.978040 0.250000 0.920668
O O9 0.002308 0.546642 0.872764
O O10 0.888767 0.476020 0.930011
O O11 0.000000 0.500000 0.000000
O O12 0.544043 0.750000 0.710626
O O13 0.480692 0.481408 0.750162
O O14 0.538546 0.486306 0.632045
O O15 0.750000 0.489258 0.136483
O O16 0.827982 0.250000 0.102910
O O17 0.879150 0.518361 0.156551
O O18 0.825944 0.528544 0.036170
O O19 0.430711 0.750000 0.798449
O O20 0.250000 0.513456 0.063737
O O21 0.322864 0.250000 0.060290
O O22 0.500000 0.500000 0.500000
O O23 0.450359 0.250000 0.438803
#
# Coordination Sequence:
#
# PCOD9448161 Si02
#       8
#     8   8   8   8   8   8   8   8
#     4   9  16  26  43  69  98 125 158 203 251 298
#     4   8  13  24  43  65  90 123 162 200 238 288
#     4  12  23  35  52  75 103 134 169 210 254 302
#     4   8  16  30  48  71  98 129 166 207 254 304
#     4   9  17  29  48  73  97 126 167 213 258 302
#     4  10  19  33  52  73 101 135 169 212 259 310
#     4  10  20  34  53  76 102 132 169 213 258 304
#     4  10  19  32  51  74 101 134 172 213 254 303
#
# _framework density 19.345200999999999
#
# number of rings (size 3 to 8) (size 9 to 14) (size 15 to 20)
#    0.000    2.500    1.250    3.000    0.000    1.500 
#    0.000    3.750    0.000    3.000    0.000    3.500 
#    0.000    0.000    0.000    0.000    0.000    0.000 
#
# Total GULP energy -356550.206794 kJ/mol
# GULP energy per Si atom -5571.096981 kJ/mol
# Density = 1.930117 g / cm^3
# Si number density = 19.345201 Si / 1000 Ang^3
#
#
#
# Elastic Constant Matrix: (Units=GPa)
#
#
# Indices 1 2 3 4 5 6 
#
# 1 146.2592 -2.2003 36.6044 0.0000 0.0000 0.0000
# 2 -2.2003 31.1936 -4.1526 0.0000 0.0000 0.0000
# 3 36.6044 -4.1526 46.5461 0.0000 0.0000 0.0000
# 4 0.0000 0.0000 0.0000 6.7277 0.0000 0.0000
# 5 0.0000 0.0000 0.0000 0.0000 22.8246 0.0000
# 6 0.0000 0.0000 0.0000 0.0000 0.0000 19.3847
#
#
#
# Elastic Compliance Matrix: (Units=1/GPa)
#
#
# Indices 1 2 3 4 5 6 
#
# 1 0.008515 -0.000294 -0.006723 0.000000 0.000000 0.000000
# 2 -0.000294 0.032453 0.003127 0.000000 0.000000 0.000000
# 3 -0.006723 0.003127 0.027050 0.000000 0.000000 0.000000
# 4 0.000000 0.000000 0.000000 0.148640 0.000000 0.000000
# 5 0.000000 0.000000 0.000000 0.000000 0.043812 0.000000
# 6 0.000000 0.000000 0.000000 0.000000 0.000000 0.051587
#
#
# Mechanical properties :
#
#
# Convention : Reuss Voigt Hill
#
# Bulk Modulus (GPa) = 16.60085 31.61132 24.10609
# Shear Modulus (GPa) = 14.70942 22.70387 18.70664
#
# Velocity S-wave (km/s) = 2.76046 3.42953 3.11302
# Velocity P-wave (km/s) = 4.33131 5.66201 5.04076
#
# Compressibility (1/GPa) = 0.06023786
#
# Stress axis : x y z
#
# Youngs Moduli (GPa) = 117.43619 30.81347 36.96871
#
# Poissons Ratio (x) = 0.00907 0.24853
# Poissons Ratio (y) = 0.03456 -0.11559
# Poissons Ratio (z) = 0.78950 -0.09635
#
# Static dielectric constant tensor:
#      x y z
#    x 1.740810 0.000000 0.000000 
#    y 0.000000 1.713760 0.000000 
#    z 0.000000 0.000000 1.628250 
# 
# From -- ./inp_files/31020.got.cif
#   From: 2010.05.17/outbox.cif.g08.bks.cpg/sg59_16_cif.got.tgz:31020.got - 2010.06.03 14:40:33.
