data_PCOD9448114
_publ_section_title
;
Structure prediction by ZEFSAII (Michael W. Deem and Ramdas Pophale) SiO2 
 PCOD9448114
Probable space group: P M M N
;
_chemical_formula_sum "Si O2"
_cell_formula_units_Z 56
_cell_length_a 7.454085
_cell_length_b 20.403121
_cell_length_c 18.051368
_cell_angle_alpha 90.000000
_cell_angle_beta 90.000000
_cell_angle_gamma 90.000000
_cell_volume 2745.371152
_symmetry_space_group_name_H-M "P M M N"
_symmetry_group_IT_number 59
_space_group.IT_coordinate_system_code '2'
_symmetry_cell_setting 'orthorhombic'
loop_
_space_group_symop_operation_xyz
x,y,z
1/2-x,1/2-y,z
1/2+x,-y,-z
-x,1/2+y,-z
-x,-y,-z
1/2+x,1/2+y,-z
1/2-x,y,z
x,1/2-y,z
loop_
_atom_site_type_symbol
_atom_site_label
_atom_site_fract_x
_atom_site_fract_y
_atom_site_fract_z
Si Si1 0.962323 0.554923 0.394861
Si Si2 0.033581 0.407458 0.447638
Si Si3 0.964195 0.175973 0.052895
Si Si4 0.967426 0.675901 0.688401
Si Si5 0.534734 0.676150 0.118499
Si Si6 0.029178 0.437730 0.771804
Si Si7 0.540674 0.079525 0.176766
O O1 0.750000 0.568106 0.392548
O O2 0.034521 0.591795 0.467835
O O3 0.032258 0.570027 0.313156
O O4 0.986706 0.477774 0.411942
O O5 0.250000 0.404410 0.450786
O O6 0.973019 0.351332 0.391514
O O7 0.750000 0.179128 0.064852
O O8 0.034517 0.250000 0.066628
O O9 0.037365 0.121261 0.108621
O O10 0.994420 0.159801 0.966956
O O11 0.750000 0.675671 0.689193
O O12 0.027929 0.750000 0.702438
O O13 0.027916 0.625857 0.751480
O O14 0.750000 0.678182 0.125326
O O15 0.466740 0.750000 0.132565
O O16 0.470838 0.621328 0.175426
O O17 0.250000 0.438815 0.770530
O O18 0.967425 0.507986 0.803425
O O19 0.750000 0.068441 0.159439
#
# Coordination Sequence:
#
# PCOD9448114 Si02
#       7
#     8   8   8   8   8   8   8
#     4   9  16  29  49  69  91 121 155 194 235 274
#     4   9  17  29  46  68  93 123 159 192 229 277
#     4   9  18  32  48  67  92 122 157 195 236 285
#     4  10  20  32  45  67 102 134 159 195 240 284
#     4   9  18  33  51  69  92 124 158 193 240 293
#     4   9  17  30  49  73  97 120 155 202 241 276
#     4  10  19  32  50  71  95 125 162 200 237 281
#
# _framework density 20.397970000000001
#
# number of rings (size 3 to 8) (size 9 to 14) (size 15 to 20)
#    0.000    2.714    1.429    0.429    0.000    2.000 
#    0.000    3.571    0.000    4.286    0.000    0.000 
#    0.000    3.429    0.000    0.000    0.000    0.000 
#
# Total GULP energy -312450.288414 kJ/mol
# GULP energy per Si atom -5579.469436 kJ/mol
# Density = 2.035154 g / cm^3
# Si number density = 20.397970 Si / 1000 Ang^3
#
#
#
# Elastic Constant Matrix: (Units=GPa)
#
#
# Indices 1 2 3 4 5 6 
#
# 1 70.1907 5.0359 -7.6284 0.0000 0.0000 0.0000
# 2 5.0359 131.6509 102.3827 0.0000 0.0000 0.0000
# 3 -7.6284 102.3827 184.4009 0.0000 0.0000 0.0000
# 4 0.0000 0.0000 0.0000 37.2263 0.0000 0.0000
# 5 0.0000 0.0000 0.0000 0.0000 10.4262 0.0000
# 6 0.0000 0.0000 0.0000 0.0000 0.0000 -12.3703
#
#
#
# Elastic Compliance Matrix: (Units=1/GPa)
#
#
# Indices 1 2 3 4 5 6 
#
# 1 0.014551 -0.001803 0.001603 0.000000 0.000000 0.000000
# 2 -0.001803 0.013591 -0.007621 0.000000 0.000000 0.000000
# 3 0.001603 -0.007621 0.009720 0.000000 0.000000 0.000000
# 4 0.000000 0.000000 0.000000 0.026863 0.000000 0.000000
# 5 0.000000 0.000000 0.000000 0.000000 0.095912 0.000000
# 6 0.000000 0.000000 0.000000 0.000000 0.000000 -0.080839
#
#
# Mechanical properties :
#
#
# Convention : Reuss Voigt Hill
#
# Bulk Modulus (GPa) = 45.00351 65.09142 55.04747
# Shear Modulus (GPa) = 48.61598 26.15328 37.38463
#
# Velocity S-wave (km/s) = 4.88728 3.58460 4.28572
# Velocity P-wave (km/s) = 7.34561 7.00803 7.17880
#
# Compressibility (1/GPa) = 0.02222049
#
# Stress axis : x y z
#
# Youngs Moduli (GPa) = 68.72609 73.57604 102.87556
#
# Poissons Ratio (x) = 0.13268 -0.16493
# Poissons Ratio (y) = 0.12394 0.78399
# Poissons Ratio (z) = -0.11018 0.56071
#
# Static dielectric constant tensor:
#      x y z
#    x 1.871020 0.000000 0.000000 
#    y 0.000000 1.698110 0.000000 
#    z 0.000000 0.000000 1.716610 
# 
# From -- ./inp_files/21005.got.cif
#   From: 2010.05.17/outbox.cif.g08.bks.cpg/sg59_11_cif.got.tgz:21005.got - 2010.06.03 14:40:33.
