data_PCOD9448289
_publ_section_title
;
Structure prediction by ZEFSAII (Michael W. Deem and Ramdas Pophale) SiO2 
 PCOD9448289
Probable space group: P M M N
;
_chemical_formula_sum "Si O2"
_cell_formula_units_Z 48
_cell_length_a 8.711948
_cell_length_b 23.343563
_cell_length_c 14.034128
_cell_angle_alpha 90.000000
_cell_angle_beta 90.000000
_cell_angle_gamma 90.000000
_cell_volume 2854.091238
_symmetry_space_group_name_H-M "P M M N"
_symmetry_group_IT_number 59
_space_group.IT_coordinate_system_code '2'
_symmetry_cell_setting 'orthorhombic'
loop_
_space_group_symop_operation_xyz
x,y,z
1/2-x,1/2-y,z
1/2+x,-y,-z
-x,1/2+y,-z
-x,-y,-z
1/2+x,1/2+y,-z
1/2-x,y,z
x,1/2-y,z
loop_
_atom_site_type_symbol
_atom_site_label
_atom_site_fract_x
_atom_site_fract_y
_atom_site_fract_z
Si Si1 0.065870 0.750000 0.742177
Si Si2 0.066309 0.750000 0.518904
Si Si3 0.565129 0.479433 0.100340
Si Si4 0.435899 0.365266 0.568555
Si Si5 0.570368 0.869497 0.800894
Si Si6 0.567001 0.547097 0.285285
Si Si7 0.570891 0.557280 0.609164
O O1 0.250000 0.750000 0.742584
O O2 0.014078 0.750000 0.630332
O O3 0.005184 0.692744 0.793260
O O4 0.250000 0.750000 0.520296
O O5 0.006350 0.694358 0.463655
O O6 0.750000 0.479624 0.098924
O O7 0.507963 0.416087 0.130009
O O8 0.509749 0.523170 0.184018
O O9 0.500000 0.500000 0.000000
O O10 0.250000 0.459493 0.398665
O O11 0.487412 0.393272 0.668668
O O12 0.477232 0.410929 0.486357
O O13 0.750000 0.864522 0.824766
O O14 0.558115 0.897505 0.695623
O O15 0.750000 0.551473 0.277400
O O16 0.527147 0.497108 0.360262
O O17 0.750000 0.639951 0.431384
#
# Coordination Sequence:
#
# PCOD9448289 Si02
#       7
#     4   4   8   8   8   8   8
#     4  11  21  33  49  74 109 144 177 213 252 298
#     4  11  23  33  47  72 103 144 183 215 248 292
#     4  10  20  36  56  80 106 133 171 220 273 324
#     4  10  19  33  49  69 100 139 175 208 248 297
#     4  10  19  32  52  78 106 139 175 212 258 311
#     4   9  19  32  50  74 100 130 167 211 258 306
#     4   9  17  28  46  72 102 134 168 202 245 300
#
# _framework density 16.817962000000001
#
# number of rings (size 3 to 8) (size 9 to 14) (size 15 to 20)
#    0.000    2.167    1.667    2.000    0.000    3.333 
#    0.000    0.000    0.000    1.000    0.000    4.667 
#    0.000    0.000    0.000    0.000    0.000    0.000 
#
# Total GULP energy -267668.807189 kJ/mol
# GULP energy per Si atom -5576.433483 kJ/mol
# Density = 1.677968 g / cm^3
# Si number density = 16.817962 Si / 1000 Ang^3
#
#
#
# Elastic Constant Matrix: (Units=GPa)
#
#
# Indices 1 2 3 4 5 6 
#
# 1 34.9015 33.8378 36.3386 0.0000 0.0000 0.0000
# 2 33.8378 112.3904 87.2145 0.0000 0.0000 0.0000
# 3 36.3386 87.2145 105.1641 0.0000 0.0000 0.0000
# 4 0.0000 0.0000 0.0000 17.5421 0.0000 0.0000
# 5 0.0000 0.0000 0.0000 0.0000 18.0198 0.0000
# 6 0.0000 0.0000 0.0000 0.0000 0.0000 30.0234
#
#
#
# Elastic Compliance Matrix: (Units=1/GPa)
#
#
# Indices 1 2 3 4 5 6 
#
# 1 0.045448 -0.004199 -0.012222 0.000000 0.000000 0.000000
# 2 -0.004199 0.025349 -0.019572 0.000000 0.000000 0.000000
# 3 -0.012222 -0.019572 0.029963 0.000000 0.000000 0.000000
# 4 0.000000 0.000000 0.000000 0.057006 0.000000 0.000000
# 5 0.000000 0.000000 0.000000 0.000000 0.055494 0.000000
# 6 0.000000 0.000000 0.000000 0.000000 0.000000 0.033307
#
#
# Mechanical properties :
#
#
# Convention : Reuss Voigt Hill
#
# Bulk Modulus (GPa) = 34.75177 63.02644 48.88911
# Shear Modulus (GPa) = 15.23712 19.45475 17.34593
#
# Velocity S-wave (km/s) = 3.01325 3.40484 3.21502
# Velocity P-wave (km/s) = 5.72840 7.28109 6.55091
#
# Compressibility (1/GPa) = 0.02877551
#
# Stress axis : x y z
#
# Youngs Moduli (GPa) = 22.00298 39.44861 33.37412
#
# Poissons Ratio (x) = 0.16565 0.40789
# Poissons Ratio (y) = 0.09240 0.65319
# Poissons Ratio (z) = 0.26892 0.77208
#
# Static dielectric constant tensor:
#      x y z
#    x 1.568530 0.000000 0.000000 
#    y 0.000000 1.559050 0.000000 
#    z 0.000000 0.000000 1.569730 
# 
# From -- ./inp_files/20494.got.cif
#   From: 2010.05.17/outbox.cif.g08.bks.cpg/sg59_11_cif.got.tgz:20494.got - 2010.06.03 14:40:33.
