data_PCOD9448677
_publ_section_title
;
Structure prediction by ZEFSAII (Michael W. Deem and Ramdas Pophale) SiO2 
 PCOD9448677
Probable space group: P M M N
;
_chemical_formula_sum "Si O2"
_cell_formula_units_Z 56
_cell_length_a 20.829094
_cell_length_b 7.767885
_cell_length_c 17.522240
_cell_angle_alpha 90.000000
_cell_angle_beta 90.000000
_cell_angle_gamma 90.000000
_cell_volume 2835.063507
_symmetry_space_group_name_H-M "P M M N"
_symmetry_group_IT_number 59
_space_group.IT_coordinate_system_code '2'
_symmetry_cell_setting 'orthorhombic'
loop_
_space_group_symop_operation_xyz
x,y,z
1/2-x,1/2-y,z
1/2+x,-y,-z
-x,1/2+y,-z
-x,-y,-z
1/2+x,1/2+y,-z
1/2-x,y,z
x,1/2-y,z
loop_
_atom_site_type_symbol
_atom_site_label
_atom_site_fract_x
_atom_site_fract_y
_atom_site_fract_z
Si Si1 0.041896 0.451697 0.884033
Si Si2 0.678065 0.039472 0.382672
Si Si3 0.677884 0.042222 0.559196
Si Si4 0.678192 0.543257 0.823026
Si Si5 0.583325 0.954439 0.692863
Si Si6 0.408771 0.955476 0.042261
Si Si7 0.058754 0.548515 0.714290
O O1 0.034356 0.250000 0.868329
O O2 0.063963 0.535321 0.805587
O O3 0.972686 0.521159 0.913136
O O4 0.088232 0.475724 0.956405
O O5 0.750000 0.983394 0.360120
O O6 0.678907 0.250000 0.380633
O O7 0.667709 0.990658 0.471209
O O8 0.620458 0.975637 0.329474
O O9 0.750000 0.984848 0.582611
O O10 0.677579 0.250000 0.561513
O O11 0.623207 0.978883 0.615758
O O12 0.750000 0.476329 0.810386
O O13 0.680373 0.750000 0.814260
O O14 0.627009 0.473721 0.761675
O O15 0.651827 0.504044 0.907001
O O16 0.576891 0.750000 0.707052
O O17 0.511120 0.026375 0.692370
O O18 0.413905 0.750000 0.037741
O O19 0.057247 0.750000 0.693028
#
# Coordination Sequence:
#
# PCOD9448677 Si02
#       7
#     8   8   8   8   8   8   8
#     4  10  20  34  54  78 105 134 168 213 263 310
#     4   8  16  33  55  77 101 133 174 218 264 311
#     4   9  18  33  52  73 101 139 179 216 257 309
#     4  10  20  34  51  73 107 145 174 211 265 316
#     4  10  20  32  49  76 108 138 174 215 262 316
#     4  10  20  34  54  77 101 134 176 216 254 304
#     4  10  19  33  55  79 104 136 175 218 263 314
#
# _framework density 19.752645000000001
#
# number of rings (size 3 to 8) (size 9 to 14) (size 15 to 20)
#    0.000    2.429    1.429    2.143    0.000    4.000 
#    0.000    1.429    0.000    3.857    0.000    0.000 
#    0.000    0.000    0.000    0.000    0.000    0.000 
#
# Total GULP energy -312481.957008 kJ/mol
# GULP energy per Si atom -5580.034947 kJ/mol
# Density = 1.970769 g / cm^3
# Si number density = 19.752645 Si / 1000 Ang^3
#
#
#
# Elastic Constant Matrix: (Units=GPa)
#
#
# Indices 1 2 3 4 5 6 
#
# 1 168.0009 5.0755 95.8463 0.0000 0.0000 0.0000
# 2 5.0755 24.8677 -12.2133 0.0000 0.0000 0.0000
# 3 95.8463 -12.2133 104.4358 0.0000 0.0000 0.0000
# 4 0.0000 0.0000 0.0000 23.1281 0.0000 0.0000
# 5 0.0000 0.0000 0.0000 0.0000 17.6075 0.0000
# 6 0.0000 0.0000 0.0000 0.0000 0.0000 9.0329
#
#
#
# Elastic Compliance Matrix: (Units=1/GPa)
#
#
# Indices 1 2 3 4 5 6 
#
# 1 0.014551 -0.010109 -0.014536 0.000000 0.000000 0.000000
# 2 -0.010109 0.049686 0.015088 0.000000 0.000000 0.000000
# 3 -0.014536 0.015088 0.024681 0.000000 0.000000 0.000000
# 4 0.000000 0.000000 0.000000 0.043237 0.000000 0.000000
# 5 0.000000 0.000000 0.000000 0.000000 0.056794 0.000000
# 6 0.000000 0.000000 0.000000 0.000000 0.000000 0.110707
#
#
# Mechanical properties :
#
#
# Convention : Reuss Voigt Hill
#
# Bulk Modulus (GPa) = 14.32594 52.74682 33.53638
# Shear Modulus (GPa) = 14.61827 23.86011 19.23919
#
# Velocity S-wave (km/s) = 2.72337 3.47932 3.12429
# Velocity P-wave (km/s) = 4.14215 6.55000 5.47996
#
# Compressibility (1/GPa) = 0.06980344
#
# Stress axis : x y z
#
# Youngs Moduli (GPa) = 68.72437 20.12625 40.51778
#
# Poissons Ratio (x) = 0.20346 0.58898
# Poissons Ratio (y) = 0.69474 -0.61134
# Poissons Ratio (z) = 0.99900 -0.30367
#
# Static dielectric constant tensor:
#      x y z
#    x 1.709980 0.000000 0.000000 
#    y 0.000000 1.719300 0.000000 
#    z 0.000000 0.000000 1.668210 
# 
# From -- ./inp_files/20986.got.cif
#   From: 2010.05.17/outbox.cif.g08.bks.cpg/sg59_11_cif.got.tgz:20986.got - 2010.06.03 14:40:33.
