data_PCOD9448750
_publ_section_title
;
Structure prediction by ZEFSAII (Michael W. Deem and Ramdas Pophale) SiO2 
 PCOD9448750
Probable space group: P M M N
;
_chemical_formula_sum "Si O2"
_cell_formula_units_Z 40
_cell_length_a 8.013507
_cell_length_b 8.028844
_cell_length_c 30.413195
_cell_angle_alpha 90.000000
_cell_angle_beta 90.000000
_cell_angle_gamma 90.000000
_cell_volume 1956.760563
_symmetry_space_group_name_H-M "P M M N"
_symmetry_group_IT_number 59
_space_group.IT_coordinate_system_code '2'
_symmetry_cell_setting 'orthorhombic'
loop_
_space_group_symop_operation_xyz
x,y,z
1/2-x,1/2-y,z
1/2+x,-y,-z
-x,1/2+y,-z
-x,-y,-z
1/2+x,1/2+y,-z
1/2-x,y,z
x,1/2-y,z
loop_
_atom_site_type_symbol
_atom_site_label
_atom_site_fract_x
_atom_site_fract_y
_atom_site_fract_z
Si Si1 0.050730 0.438523 0.452134
Si Si2 0.559806 0.048967 0.951307
Si Si3 0.947062 0.447345 0.359238
Si Si4 0.750000 0.948151 0.208684
Si Si5 0.932947 0.951247 0.733958
Si Si6 0.250000 0.454262 0.891562
O O1 0.250000 0.439062 0.449610
O O2 0.985083 0.250000 0.450832
O O3 0.000000 0.500000 0.500000
O O4 0.986851 0.522169 0.407153
O O5 0.750000 0.988961 0.943462
O O6 0.563707 0.250000 0.949076
O O7 0.417348 0.991636 0.917258
O O8 0.500000 0.000000 0.000000
O O9 0.750000 0.457300 0.351454
O O10 0.994139 0.250000 0.361582
O O11 0.036754 0.514815 0.315904
O O12 0.750000 0.750000 0.206238
O O13 0.750000 0.012510 0.158738
O O14 0.585333 0.999944 0.235181
O O15 0.750000 0.005749 0.749569
O O16 0.933970 0.750000 0.731798
O O17 0.250000 0.250000 0.891949
#
# Coordination Sequence:
#
# PCOD9448750 Si02
#       6
#     8   8   8   4   8   4
#     4  10  20  33  50  75 105 137 175 219 270 330
#     4  10  19  33  56  83 110 145 188 232 277 327
#     4   9  16  30  55  81 103 134 179 227 276 333
#     4  11  23  39  59  85 119 157 195 239 290 347
#     4  10  20  37  62  87 112 146 192 244 292 341
#     4   9  20  37  55  79 115 155 191 227 278 343
#
# _framework density 20.441949999999999
#
# number of rings (size 3 to 8) (size 9 to 14) (size 15 to 20)
#    0.000    2.200    2.000    1.500    0.000    4.800 
#    0.000    5.000    0.000    2.400    0.000    0.000 
#    0.000    0.000    0.000    0.000    0.000    0.000 
#
# Total GULP energy -223149.117314 kJ/mol
# GULP energy per Si atom -5578.727933 kJ/mol
# Density = 2.039542 g / cm^3
# Si number density = 20.441950 Si / 1000 Ang^3
#
#
#
# Elastic Constant Matrix: (Units=GPa)
#
#
# Indices 1 2 3 4 5 6 
#
# 1 158.5856 14.6777 109.1708 0.0000 0.0000 0.0000
# 2 14.6777 13.0222 12.4422 0.0000 0.0000 0.0000
# 3 109.1708 12.4422 184.2439 0.0000 0.0000 0.0000
# 4 0.0000 0.0000 0.0000 24.2477 0.0000 0.0000
# 5 0.0000 0.0000 0.0000 0.0000 29.1243 0.0000
# 6 0.0000 0.0000 0.0000 0.0000 0.0000 12.3308
#
#
#
# Elastic Compliance Matrix: (Units=1/GPa)
#
#
# Indices 1 2 3 4 5 6 
#
# 1 0.011171 -0.006699 -0.006167 0.000000 0.000000 0.000000
# 2 -0.006699 0.086106 -0.001845 0.000000 0.000000 0.000000
# 3 -0.006167 -0.001845 0.009206 0.000000 0.000000 0.000000
# 4 0.000000 0.000000 0.000000 0.041241 0.000000 0.000000
# 5 0.000000 0.000000 0.000000 0.000000 0.034336 0.000000
# 6 0.000000 0.000000 0.000000 0.000000 0.000000 0.081098
#
#
# Mechanical properties :
#
#
# Convention : Reuss Voigt Hill
#
# Bulk Modulus (GPa) = 12.97677 69.82589 41.40133
# Shear Modulus (GPa) = 15.71006 27.77794 21.74400
#
# Velocity S-wave (km/s) = 2.77523 3.69028 3.26497
# Velocity P-wave (km/s) = 4.07812 7.23809 5.87456
#
# Compressibility (1/GPa) = 0.07706077
#
# Stress axis : x y z
#
# Youngs Moduli (GPa) = 89.51737 11.61358 108.62171
#
# Poissons Ratio (x) = 0.07780 0.66985
# Poissons Ratio (y) = 0.59968 0.20046
# Poissons Ratio (z) = 0.55204 0.02143
#
# Static dielectric constant tensor:
#      x y z
#    x 1.710330 0.000000 0.000000 
#    y 0.000000 1.765690 0.000000 
#    z 0.000000 0.000000 1.740750 
# 
# From -- ./inp_files/32430.got.cif
#   From: 2010.05.17/outbox.cif.g08.bks.cpg/sg59_17_cif.got.tgz:32430.got - 2010.06.03 14:40:33.
