data_PCOD9448631
_publ_section_title
;
Structure prediction by ZEFSAII (Michael W. Deem and Ramdas Pophale) SiO2 
 PCOD9448631
Probable space group: P M M N
;
_chemical_formula_sum "Si O2"
_cell_formula_units_Z 64
_cell_length_a 27.614973
_cell_length_b 9.125681
_cell_length_c 13.594991
_cell_angle_alpha 90.000000
_cell_angle_beta 90.000000
_cell_angle_gamma 90.000000
_cell_volume 3426.011613
_symmetry_space_group_name_H-M "P M M N"
_symmetry_group_IT_number 59
_space_group.IT_coordinate_system_code '2'
_symmetry_cell_setting 'orthorhombic'
loop_
_space_group_symop_operation_xyz
x,y,z
1/2-x,1/2-y,z
1/2+x,-y,-z
-x,1/2+y,-z
-x,-y,-z
1/2+x,1/2+y,-z
1/2-x,y,z
x,1/2-y,z
loop_
_atom_site_type_symbol
_atom_site_label
_atom_site_fract_x
_atom_site_fract_y
_atom_site_fract_z
Si Si1 0.373473 0.572424 0.366909
Si Si2 0.807376 0.424698 0.047198
Si Si3 0.693407 0.425804 0.446178
Si Si4 0.023532 0.078417 0.407179
Si Si5 0.156317 0.422143 0.753434
Si Si6 0.866622 0.071864 0.854611
Si Si7 0.458319 0.411888 0.730862
Si Si8 0.472698 0.586584 0.082973
O O1 0.378766 0.750000 0.367578
O O2 0.339117 0.532315 0.458980
O O3 0.425989 0.499952 0.380763
O O4 0.354293 0.528903 0.257869
O O5 0.750000 0.445921 0.037651
O O6 0.816622 0.250000 0.057831
O O7 0.825452 0.503873 0.145950
O O8 0.833477 0.475323 0.946288
O O9 0.750000 0.457202 0.464845
O O10 0.688331 0.250000 0.433449
O O11 0.677146 0.503099 0.345218
O O12 0.031259 0.250000 0.421064
O O13 0.000000 0.000000 0.500000
O O14 0.983029 0.043882 0.326198
O O15 0.169023 0.250000 0.753716
O O16 0.098108 0.434415 0.749088
O O17 0.865345 0.250000 0.853611
O O18 0.921725 0.024751 0.878506
O O19 0.463980 0.250000 0.680964
O O20 0.489401 0.403129 0.829154
O O21 0.461517 0.750000 0.045783
O O22 0.500000 0.500000 0.000000
#
# Coordination Sequence:
#
# PCOD9448631 Si02
#       8
#     8   8   8   8   8   8   8   8
#     4  10  20  39  63  86 120 158 195 242 297 353
#     4  10  21  37  59  87 118 154 198 247 296 351
#     4  10  22  39  61  88 115 150 197 247 297 352
#     4  12  24  37  57  85 117 153 194 237 286 349
#     4  11  23  38  59  86 117 154 197 247 300 357
#     4   9  18  35  59  84 115 154 191 234 288 344
#     4  10  21  38  57  81 114 151 192 234 286 345
#     4  10  19  33  54  79 112 149 186 230 279 334
#
# _framework density 18.680613000000001
#
# number of rings (size 3 to 8) (size 9 to 14) (size 15 to 20)
#    0.000    1.750    1.250    3.375    0.000    6.500 
#    0.000    3.125    0.000    0.000    0.000    1.750 
#    0.000    0.000    0.000    0.000    0.000    0.000 
#
# Total GULP energy -357028.156418 kJ/mol
# GULP energy per Si atom -5578.564944 kJ/mol
# Density = 1.863810 g / cm^3
# Si number density = 18.680613 Si / 1000 Ang^3
#
#
#
# Elastic Constant Matrix: (Units=GPa)
#
#
# Indices 1 2 3 4 5 6 
#
# 1 99.8292 41.1921 68.2773 0.0000 0.0000 0.0000
# 2 41.1921 51.3005 53.0289 0.0000 0.0000 0.0000
# 3 68.2773 53.0289 170.8830 0.0000 0.0000 0.0000
# 4 0.0000 0.0000 0.0000 19.0961 0.0000 0.0000
# 5 0.0000 0.0000 0.0000 0.0000 32.8262 0.0000
# 6 0.0000 0.0000 0.0000 0.0000 0.0000 482.2914
#
#
#
# Elastic Compliance Matrix: (Units=1/GPa)
#
#
# Indices 1 2 3 4 5 6 
#
# 1 0.016376 -0.009402 -0.003626 0.000000 0.000000 0.000000
# 2 -0.009402 0.034096 -0.006824 0.000000 0.000000 0.000000
# 3 -0.003626 -0.006824 0.009418 0.000000 0.000000 0.000000
# 4 0.000000 0.000000 0.000000 0.052367 0.000000 0.000000
# 5 0.000000 0.000000 0.000000 0.000000 0.030463 0.000000
# 6 0.000000 0.000000 0.000000 0.000000 0.000000 0.002073
#
#
# Mechanical properties :
#
#
# Convention : Reuss Voigt Hill
#
# Bulk Modulus (GPa) = 49.53528 71.88993 60.71261
# Shear Modulus (GPa) = 26.14692 117.47704 71.81198
#
# Velocity S-wave (km/s) = 3.74529 7.93874 6.20689
# Velocity P-wave (km/s) = 6.72885 11.07243 9.16178
#
# Compressibility (1/GPa) = 0.02018763
#
# Stress axis : x y z
#
# Youngs Moduli (GPa) = 61.06437 29.32864 106.17502
#
# Poissons Ratio (x) = 0.27573 0.38496
# Poissons Ratio (y) = 0.57410 0.72459
# Poissons Ratio (z) = 0.22140 0.20015
#
# Static dielectric constant tensor:
#      x y z
#    x 1.624590 0.000000 0.000000 
#    y 0.000000 1.676410 0.000000 
#    z 0.000000 0.000000 1.643930 
# 
# From -- ./inp_files/19273.got.cif
#   From: 2010.05.17/outbox.cif.g08.bks.cpg/sg59_10_cif.got.tgz:19273.got - 2010.06.03 14:40:33.
