data_PCOD9448844
_publ_section_title
;
Structure prediction by ZEFSAII (Michael W. Deem and Ramdas Pophale) SiO2 
 PCOD9448844
Probable space group: P M M N
;
_chemical_formula_sum "Si O2"
_cell_formula_units_Z 64
_cell_length_a 8.830720
_cell_length_b 23.662694
_cell_length_c 15.360802
_cell_angle_alpha 90.000000
_cell_angle_beta 90.000000
_cell_angle_gamma 90.000000
_cell_volume 3209.772067
_symmetry_space_group_name_H-M "P M M N"
_symmetry_group_IT_number 59
_space_group.IT_coordinate_system_code '2'
_symmetry_cell_setting 'orthorhombic'
loop_
_space_group_symop_operation_xyz
x,y,z
1/2-x,1/2-y,z
1/2+x,-y,-z
-x,1/2+y,-z
-x,-y,-z
1/2+x,1/2+y,-z
1/2-x,y,z
x,1/2-y,z
loop_
_atom_site_type_symbol
_atom_site_label
_atom_site_fract_x
_atom_site_fract_y
_atom_site_fract_z
Si Si1 0.933228 0.863911 0.078739
Si Si2 0.430215 0.813701 0.538899
Si Si3 0.430873 0.814086 0.247401
Si Si4 0.568439 0.606816 0.394721
Si Si5 0.424642 0.009639 0.866959
Si Si6 0.569495 0.869203 0.696884
Si Si7 0.073951 0.513142 0.661070
Si Si8 0.568413 0.609023 0.892300
O O1 0.750000 0.858701 0.086391
O O2 0.974631 0.928670 0.103008
O O3 0.011364 0.824719 0.149642
O O4 0.978628 0.856623 0.977973
O O5 0.250000 0.820424 0.533242
O O6 0.468832 0.750000 0.510913
O O7 0.509519 0.859107 0.477330
O O8 0.486346 0.824293 0.636675
O O9 0.250000 0.820259 0.251691
O O10 0.469692 0.750000 0.274595
O O11 0.506256 0.859768 0.310807
O O12 0.750000 0.606863 0.391196
O O13 0.520491 0.541097 0.393167
O O14 0.250000 0.002489 0.894203
O O15 0.429469 0.006881 0.762014
O O16 0.517320 0.956102 0.900617
O O17 0.750000 0.861397 0.693866
O O18 0.516761 0.869382 0.797674
O O19 0.525733 0.930773 0.658374
O O20 0.250000 0.526681 0.639955
O O21 0.750000 0.609569 0.890679
#
# Coordination Sequence:
#
# PCOD9448844 Si02
#       8
#     8   8   8   8   8   8   8   8
#     4  10  19  34  54  79 112 151 194 237 282 336
#     4  11  25  44  64  86 112 147 194 244 293 346
#     4  11  24  39  55  80 116 155 196 243 290 343
#     4  11  22  39  64  91 118 150 188 233 289 352
#     4   9  16  29  50  79 115 151 187 226 272 335
#     4  10  21  38  60  88 119 153 194 240 291 346
#     4   9  18  34  56  86 122 155 186 226 281 346
#     4   9  19  33  53  83 116 147 188 238 286 337
#
# _framework density 19.939111
#
# number of rings (size 3 to 8) (size 9 to 14) (size 15 to 20)
#    0.000    2.000    1.250    2.250    0.000    6.500 
#    0.000    0.625    0.000    3.750    0.000    0.000 
#    0.000    0.000    0.000    0.000    0.000    0.000 
#
# Total GULP energy -357459.570002 kJ/mol
# GULP energy per Si atom -5585.305781 kJ/mol
# Density = 1.989373 g / cm^3
# Si number density = 19.939111 Si / 1000 Ang^3
#
#
#
# Elastic Constant Matrix: (Units=GPa)
#
#
# Indices 1 2 3 4 5 6 
#
# 1 16.4049 5.4959 12.6432 0.0000 0.0000 0.0000
# 2 5.4959 24.6301 21.5370 0.0000 0.0000 0.0000
# 3 12.6432 21.5370 66.1910 0.0000 0.0000 0.0000
# 4 0.0000 0.0000 0.0000 18.8950 0.0000 0.0000
# 5 0.0000 0.0000 0.0000 0.0000 22.3318 0.0000
# 6 0.0000 0.0000 0.0000 0.0000 0.0000 27.2535
#
#
#
# Elastic Compliance Matrix: (Units=1/GPa)
#
#
# Indices 1 2 3 4 5 6 
#
# 1 0.072038 -0.005650 -0.011922 0.000000 0.000000 0.000000
# 2 -0.005650 0.057189 -0.017529 0.000000 0.000000 0.000000
# 3 -0.011922 -0.017529 0.023088 0.000000 0.000000 0.000000
# 4 0.000000 0.000000 0.000000 0.052924 0.000000 0.000000
# 5 0.000000 0.000000 0.000000 0.000000 0.044779 0.000000
# 6 0.000000 0.000000 0.000000 0.000000 0.000000 0.036693
#
#
# Mechanical properties :
#
#
# Convention : Reuss Voigt Hill
#
# Bulk Modulus (GPa) = 12.17806 20.73091 16.45448
# Shear Modulus (GPa) = 13.01123 18.19938 15.60530
#
# Velocity S-wave (km/s) = 2.55727 3.02445 2.80062
# Velocity P-wave (km/s) = 3.85233 4.75564 4.32761
#
# Compressibility (1/GPa) = 0.08211488
#
# Stress axis : x y z
#
# Youngs Moduli (GPa) = 13.88156 17.48590 43.31166
#
# Poissons Ratio (x) = 0.09879 0.51635
# Poissons Ratio (y) = 0.07843 0.75920
# Poissons Ratio (z) = 0.16549 0.30651
#
# Static dielectric constant tensor:
#      x y z
#    x 1.667800 0.000000 0.000000 
#    y 0.000000 1.687110 0.000000 
#    z 0.000000 0.000000 1.746750 
# 
# From -- ./inp_files/21448.got.cif
#   From: 2010.05.17/outbox.cif.g08.bks.cpg/sg59_11_cif.got.tgz:21448.got - 2010.06.03 14:40:33.
