data_PCOD9448352
_publ_section_title
;
Structure prediction by ZEFSAII (Michael W. Deem and Ramdas Pophale) SiO2 
 PCOD9448352
Probable space group: P M M N
;
_chemical_formula_sum "Si O2"
_cell_formula_units_Z 56
_cell_length_a 9.482900
_cell_length_b 19.329761
_cell_length_c 16.238597
_cell_angle_alpha 90.000000
_cell_angle_beta 90.000000
_cell_angle_gamma 90.000000
_cell_volume 2976.570402
_symmetry_space_group_name_H-M "P M M N"
_symmetry_group_IT_number 59
_space_group.IT_coordinate_system_code '2'
_symmetry_cell_setting 'orthorhombic'
loop_
_space_group_symop_operation_xyz
x,y,z
1/2-x,1/2-y,z
1/2+x,-y,-z
-x,1/2+y,-z
-x,-y,-z
1/2+x,1/2+y,-z
1/2-x,y,z
x,1/2-y,z
loop_
_atom_site_type_symbol
_atom_site_label
_atom_site_fract_x
_atom_site_fract_y
_atom_site_fract_z
Si Si1 0.415670 0.832273 0.589912
Si Si2 0.585493 0.093612 0.587415
Si Si3 0.081163 0.049125 0.322764
Si Si4 0.593149 0.329565 0.874054
Si Si5 0.081142 0.486139 0.135995
Si Si6 0.410396 0.333461 0.723123
Si Si7 0.584094 0.904156 0.019079
O O1 0.250000 0.833062 0.612619
O O2 0.455771 0.750000 0.582224
O O3 0.426892 0.875520 0.504180
O O4 0.505589 0.879587 0.652108
O O5 0.750000 0.104722 0.612802
O O6 0.477401 0.138106 0.640565
O O7 0.554356 0.013281 0.611108
O O8 0.250000 0.059550 0.321300
O O9 0.036977 0.024652 0.230550
O O10 0.750000 0.356835 0.888592
O O11 0.608258 0.250000 0.853048
O O12 0.512968 0.359729 0.795150
O O13 0.491811 0.335316 0.951926
O O14 0.250000 0.499199 0.137025
O O15 0.997795 0.542048 0.079870
O O16 0.061965 0.419714 0.076705
O O17 0.250000 0.356889 0.736341
O O18 0.408551 0.250000 0.721925
O O19 0.750000 0.906326 0.036324
#
# Coordination Sequence:
#
# PCOD9448352 Si02
#       7
#     8   8   8   8   8   8   8
#     4  10  22  39  57  79 110 147 184 223 270 323
#     4  10  20  35  57  83 111 143 178 220 274 331
#     4  10  21  37  58  83 108 139 181 226 270 319
#     4  10  20  33  49  70 101 142 182 220 266 320
#     4   9  19  35  54  79 110 139 172 217 269 323
#     4  10  20  32  49  78 113 146 183 226 272 326
#     4  10  19  32  53  79 106 138 175 219 269 318
#
# _framework density 18.813599
#
# number of rings (size 3 to 8) (size 9 to 14) (size 15 to 20)
#    0.000    2.143    0.000    3.000    0.000    6.000 
#    0.000    0.714    0.000    4.286    0.000    0.000 
#    0.000    0.000    0.000    0.000    0.000    0.000 
#
# Total GULP energy -311736.873094 kJ/mol
# GULP energy per Si atom -5566.729877 kJ/mol
# Density = 1.877078 g / cm^3
# Si number density = 18.813599 Si / 1000 Ang^3
#
#
#
# Elastic Constant Matrix: (Units=GPa)
#
#
# Indices 1 2 3 4 5 6 
#
# 1 61.5930 34.1305 32.4116 0.0000 0.0000 0.0000
# 2 34.1305 79.3924 52.2811 0.0000 0.0000 0.0000
# 3 32.4116 52.2811 80.2946 0.0000 0.0000 0.0000
# 4 0.0000 0.0000 0.0000 28.6009 0.0000 0.0000
# 5 0.0000 0.0000 0.0000 0.0000 23.2795 0.0000
# 6 0.0000 0.0000 0.0000 0.0000 0.0000 30.7468
#
#
#
# Elastic Compliance Matrix: (Units=1/GPa)
#
#
# Indices 1 2 3 4 5 6 
#
# 1 0.022337 -0.006416 -0.004839 0.000000 0.000000 0.000000
# 2 -0.006416 0.023893 -0.012967 0.000000 0.000000 0.000000
# 3 -0.004839 -0.012967 0.022851 0.000000 0.000000 0.000000
# 4 0.000000 0.000000 0.000000 0.034964 0.000000 0.000000
# 5 0.000000 0.000000 0.000000 0.000000 0.042956 0.000000
# 6 0.000000 0.000000 0.000000 0.000000 0.000000 0.032524
#
#
# Mechanical properties :
#
#
# Convention : Reuss Voigt Hill
#
# Bulk Modulus (GPa) = 48.45837 50.99179 49.72508
# Shear Modulus (GPa) = 21.29033 23.35590 22.32312
#
# Velocity S-wave (km/s) = 3.36764 3.52723 3.44836
# Velocity P-wave (km/s) = 6.39800 6.61445 6.50712
#
# Compressibility (1/GPa) = 0.02063627
#
# Stress axis : x y z
#
# Youngs Moduli (GPa) = 44.76797 41.85318 43.76258
#
# Poissons Ratio (x) = 0.26854 0.21177
# Poissons Ratio (y) = 0.28724 0.56748
# Poissons Ratio (z) = 0.21663 0.54272
#
# Static dielectric constant tensor:
#      x y z
#    x 1.650340 0.000000 0.000000 
#    y 0.000000 1.771890 0.000000 
#    z 0.000000 0.000000 1.675200 
# 
# From -- ./inp_files/21009.got.cif
#   From: 2010.05.17/outbox.cif.g08.bks.cpg/sg59_11_cif.got.tgz:21009.got - 2010.06.03 14:40:33.
