data_PCOD9448579
_publ_section_title
;
Structure prediction by ZEFSAII (Michael W. Deem and Ramdas Pophale) SiO2 
 PCOD9448579
Probable space group: P M M N
;
_chemical_formula_sum "Si O2"
_cell_formula_units_Z 64
_cell_length_a 18.565998
_cell_length_b 8.196240
_cell_length_c 21.506350
_cell_angle_alpha 90.000000
_cell_angle_beta 90.000000
_cell_angle_gamma 90.000000
_cell_volume 3272.650860
_symmetry_space_group_name_H-M "P M M N"
_symmetry_group_IT_number 59
_space_group.IT_coordinate_system_code '2'
_symmetry_cell_setting 'orthorhombic'
loop_
_space_group_symop_operation_xyz
x,y,z
1/2-x,1/2-y,z
1/2+x,-y,-z
-x,1/2+y,-z
-x,-y,-z
1/2+x,1/2+y,-z
1/2-x,y,z
x,1/2-y,z
loop_
_atom_site_type_symbol
_atom_site_label
_atom_site_fract_x
_atom_site_fract_y
_atom_site_fract_z
Si Si1 0.419018 0.446340 0.742805
Si Si2 0.582531 0.554837 0.502266
Si Si3 0.333103 0.050327 0.620915
Si Si4 0.166998 0.944515 0.863515
Si Si5 0.833365 0.944590 0.003607
Si Si6 0.416100 0.550053 0.252319
Si Si7 0.333178 0.553533 0.129206
Si Si8 0.667775 0.053091 0.624223
O O1 0.421271 0.250000 0.738744
O O2 0.374576 0.505135 0.682808
O O3 0.378979 0.491467 0.806199
O O4 0.501385 0.504808 0.742614
O O5 0.500000 0.500000 0.500000
O O6 0.584232 0.750000 0.501525
O O7 0.625458 0.496386 0.441096
O O8 0.621824 0.495850 0.564419
O O9 0.250000 0.998174 0.620912
O O10 0.333330 0.250000 0.621147
O O11 0.250000 0.006959 0.859078
O O12 0.169227 0.750000 0.860676
O O13 0.136156 0.994624 0.930928
O O14 0.750000 0.005314 0.003220
O O15 0.833138 0.750000 0.004276
O O16 0.864178 0.002734 0.937853
O O17 0.416024 0.750000 0.252089
O O18 0.379014 0.496661 0.188146
O O19 0.370412 0.497452 0.312250
O O20 0.250000 0.494713 0.133996
O O21 0.331232 0.750000 0.130944
O O22 0.750000 0.993395 0.619730
O O23 0.669830 0.250000 0.626498
#
# Coordination Sequence:
#
# PCOD9448579 Si02
#       8
#     8   8   8   8   8   8   8   8
#     4  10  19  33  54  76 100 133 174 216 257 307
#     4  11  22  37  57  81 112 147 183 224 272 325
#     4   9  18  33  54  78 103 135 175 217 262 314
#     4  10  20  34  52  75 103 133 167 211 263 317
#     4   9  17  30  50  76 103 131 168 214 260 308
#     4   9  18  33  53  78 108 142 178 215 260 316
#     4   9  16  29  51  76 102 135 174 214 257 306
#     4  10  20  36  59  85 112 144 184 226 267 317
#
# _framework density 19.556014000000001
#
# number of rings (size 3 to 8) (size 9 to 14) (size 15 to 20)
#    0.000    2.375    0.000    3.000    0.000    7.000 
#    0.000    5.000    0.000    4.500    0.000    0.000 
#    0.000    0.000    0.000    0.000    0.000    0.000 
#
# Total GULP energy -357246.406110 kJ/mol
# GULP energy per Si atom -5581.975095 kJ/mol
# Density = 1.951150 g / cm^3
# Si number density = 19.556014 Si / 1000 Ang^3
#
#
#
# Elastic Constant Matrix: (Units=GPa)
#
#
# Indices 1 2 3 4 5 6 
#
# 1 142.5285 9.4017 96.5480 0.0000 0.0000 0.0000
# 2 9.4017 8.9997 8.5289 0.0000 0.0000 0.0000
# 3 96.5480 8.5289 204.2735 0.0000 0.0000 0.0000
# 4 0.0000 0.0000 0.0000 28.1376 0.0000 0.0000
# 5 0.0000 0.0000 0.0000 0.0000 -25.7275 0.0000
# 6 0.0000 0.0000 0.0000 0.0000 0.0000 15.2898
#
#
#
# Elastic Compliance Matrix: (Units=1/GPa)
#
#
# Indices 1 2 3 4 5 6 
#
# 1 0.010688 -0.006641 -0.004775 0.000000 0.000000 0.000000
# 2 -0.006641 0.119819 -0.001864 0.000000 0.000000 0.000000
# 3 -0.004775 -0.001864 0.007230 0.000000 0.000000 0.000000
# 4 0.000000 0.000000 0.000000 0.035540 0.000000 0.000000
# 5 0.000000 0.000000 0.000000 0.000000 -0.038869 0.000000
# 6 0.000000 0.000000 0.000000 0.000000 0.000000 0.065403
#
#
# Mechanical properties :
#
#
# Convention : Reuss Voigt Hill
#
# Bulk Modulus (GPa) = 8.99458 64.97321 36.98390
# Shear Modulus (GPa) = 18.98044 19.62819 19.30431
#
# Velocity S-wave (km/s) = 3.11877 3.17154 3.14527
# Velocity P-wave (km/s) = 4.19266 6.83432 5.66949
#
# Compressibility (1/GPa) = 0.11117802
#
# Stress axis : x y z
#
# Youngs Moduli (GPa) = 93.55904 8.34594 138.31561
#
# Poissons Ratio (x) = 0.05543 0.66039
# Poissons Ratio (y) = 0.62134 0.25780
# Poissons Ratio (z) = 0.44670 0.01556
#
# Static dielectric constant tensor:
#      x y z
#    x 1.664370 0.000000 0.000000 
#    y 0.000000 1.690380 0.000000 
#    z 0.000000 0.000000 1.674600 
# 
# From -- ./inp_files/28297.got.cif
#   From: 2010.05.17/outbox.cif.g08.bks.cpg/sg59_15_cif.got.tgz:28297.got - 2010.06.03 14:40:33.
