data_PCOD9448682
_publ_section_title
;
Structure prediction by ZEFSAII (Michael W. Deem and Ramdas Pophale) SiO2 
 PCOD9448682
Probable space group: P M M N
;
_chemical_formula_sum "Si O2"
_cell_formula_units_Z 64
_cell_length_a 19.315700
_cell_length_b 7.463507
_cell_length_c 20.801080
_cell_angle_alpha 90.000000
_cell_angle_beta 90.000000
_cell_angle_gamma 90.000000
_cell_volume 2998.743229
_symmetry_space_group_name_H-M "P M M N"
_symmetry_group_IT_number 59
_space_group.IT_coordinate_system_code '2'
_symmetry_cell_setting 'orthorhombic'
loop_
_space_group_symop_operation_xyz
x,y,z
1/2-x,1/2-y,z
1/2+x,-y,-z
-x,1/2+y,-z
-x,-y,-z
1/2+x,1/2+y,-z
1/2-x,y,z
x,1/2-y,z
loop_
_atom_site_type_symbol
_atom_site_label
_atom_site_fract_x
_atom_site_fract_y
_atom_site_fract_z
Si Si1 0.095873 0.539264 0.281605
Si Si2 0.671741 0.034741 0.086711
Si Si3 0.171166 0.466869 0.415800
Si Si4 0.925632 0.963563 0.469884
Si Si5 0.422831 0.535118 0.027669
Si Si6 0.168636 0.969198 0.150249
Si Si7 0.828214 0.537402 0.228804
Si Si8 0.945001 0.970615 0.324551
O O1 0.087112 0.750000 0.268514
O O2 0.136635 0.519568 0.348504
O O3 0.138585 0.470743 0.219803
O O4 0.018710 0.467896 0.296119
O O5 0.750000 0.966359 0.083706
O O6 0.674004 0.250000 0.081488
O O7 0.643940 0.991018 0.157043
O O8 0.626808 0.965964 0.028643
O O9 0.250000 0.527370 0.417551
O O10 0.169988 0.250000 0.417468
O O11 0.129714 0.532788 0.478448
O O12 0.914390 0.750000 0.465328
O O13 0.929580 0.030990 0.397083
O O14 0.000000 0.000000 0.500000
O O15 0.418743 0.750000 0.031396
O O16 0.386972 0.474167 0.094918
O O17 0.500000 0.500000 0.000000
O O18 0.250000 0.023842 0.140470
O O19 0.170472 0.750000 0.149546
O O20 0.750000 0.463266 0.232394
O O21 0.823081 0.750000 0.239129
O O22 0.882358 0.468391 0.279931
O O23 0.947223 0.750000 0.325266
#
# Coordination Sequence:
#
# PCOD9448682 Si02
#       8
#     8   8   8   8   8   8   8   8
#     4  10  19  33  55  80 103 134 175 217 255 299
#     4   9  18  34  54  74 100 135 171 205 246 299
#     4  10  21  35  52  77 107 137 169 209 260 313
#     4  10  19  34  53  73 100 135 172 209 251 302
#     4  10  21  35  53  77 104 134 168 212 256 302
#     4   9  18  33  54  78 102 134 176 215 253 300
#     4   9  18  32  52  78 105 134 169 209 253 301
#     4   9  18  31  51  77 105 133 168 214 257 297
#
# _framework density 21.342275999999998
#
# number of rings (size 3 to 8) (size 9 to 14) (size 15 to 20)
#    0.000    2.500    1.250    0.750    1.750    3.250 
#    0.000    4.375    0.000    1.875    0.000    1.750 
#    0.000    0.000    0.000    0.000    0.000    0.000 
#
# Total GULP energy -356998.779278 kJ/mol
# GULP energy per Si atom -5578.105926 kJ/mol
# Density = 2.129370 g / cm^3
# Si number density = 21.342276 Si / 1000 Ang^3
#
#
#
# Elastic Constant Matrix: (Units=GPa)
#
#
# Indices 1 2 3 4 5 6 
#
# 1 130.8137 2.3259 115.4302 0.0000 0.0000 0.0000
# 2 2.3259 60.6029 2.7991 0.0000 0.0000 0.0000
# 3 115.4302 2.7991 201.2916 0.0000 0.0000 0.0000
# 4 0.0000 0.0000 0.0000 15.2741 0.0000 0.0000
# 5 0.0000 0.0000 0.0000 0.0000 -50.2254 0.0000
# 6 0.0000 0.0000 0.0000 0.0000 0.0000 10.5980
#
#
#
# Elastic Compliance Matrix: (Units=1/GPa)
#
#
# Indices 1 2 3 4 5 6 
#
# 1 0.015477 -0.000184 -0.008873 0.000000 0.000000 0.000000
# 2 -0.000184 0.016514 -0.000124 0.000000 0.000000 0.000000
# 3 -0.008873 -0.000124 0.010058 0.000000 0.000000 0.000000
# 4 0.000000 0.000000 0.000000 0.065470 0.000000 0.000000
# 5 0.000000 0.000000 0.000000 0.000000 -0.019910 0.000000
# 6 0.000000 0.000000 0.000000 0.000000 0.000000 0.094358
#
#
# Mechanical properties :
#
#
# Convention : Reuss Voigt Hill
#
# Bulk Modulus (GPa) = 42.21809 70.42431 56.32120
# Shear Modulus (GPa) = 24.01266 13.27286 18.64276
#
# Velocity S-wave (km/s) = 3.35792 2.49651 2.95873
# Velocity P-wave (km/s) = 5.90411 6.43267 6.17405
#
# Compressibility (1/GPa) = 0.02368653
#
# Stress axis : x y z
#
# Youngs Moduli (GPa) = 64.61189 60.55597 99.42652
#
# Poissons Ratio (x) = 0.01115 0.88218
# Poissons Ratio (y) = 0.01190 0.01233
# Poissons Ratio (z) = 0.57328 0.00751
#
# Static dielectric constant tensor:
#      x y z
#    x 1.753760 0.000000 0.000000 
#    y 0.000000 1.786390 0.000000 
#    z 0.000000 0.000000 1.763280 
# 
# From -- ./inp_files/30756.got.cif
#   From: 2010.05.17/outbox.cif.g08.bks.cpg/sg59_16_cif.got.tgz:30756.got - 2010.06.03 14:40:33.
