data_PCOD9448435
_publ_section_title
;
Structure prediction by ZEFSAII (Michael W. Deem and Ramdas Pophale) SiO2 
 PCOD9448435
Probable space group: P M M N
;
_chemical_formula_sum "Si O2"
_cell_formula_units_Z 48
_cell_length_a 7.772678
_cell_length_b 19.471996
_cell_length_c 14.032865
_cell_angle_alpha 90.000000
_cell_angle_beta 90.000000
_cell_angle_gamma 90.000000
_cell_volume 2123.867872
_symmetry_space_group_name_H-M "P M M N"
_symmetry_group_IT_number 59
_space_group.IT_coordinate_system_code '2'
_symmetry_cell_setting 'orthorhombic'
loop_
_space_group_symop_operation_xyz
x,y,z
1/2-x,1/2-y,z
1/2+x,-y,-z
-x,1/2+y,-z
-x,-y,-z
1/2+x,1/2+y,-z
1/2-x,y,z
x,1/2-y,z
loop_
_atom_site_type_symbol
_atom_site_label
_atom_site_fract_x
_atom_site_fract_y
_atom_site_fract_z
Si Si1 0.456079 0.952701 0.302746
Si Si2 0.542364 0.090886 0.385816
Si Si3 0.042444 0.829777 0.801108
Si Si4 0.960875 0.171268 0.575068
Si Si5 0.951681 0.828830 0.016281
Si Si6 0.057760 0.965936 0.098175
O O1 0.250000 0.946046 0.291961
O O2 0.518888 0.879372 0.340580
O O3 0.531729 0.975970 0.200414
O O4 0.488734 0.011808 0.379985
O O5 0.750000 0.093267 0.385994
O O6 0.480509 0.125817 0.287574
O O7 0.484631 0.134710 0.476582
O O8 0.250000 0.835008 0.806334
O O9 0.998768 0.750000 0.784192
O O10 0.972903 0.848544 0.905004
O O11 0.750000 0.172070 0.574996
O O12 0.017821 0.250000 0.582047
O O13 0.750000 0.831885 0.039971
O O14 0.011810 0.750000 0.026108
O O15 0.049258 0.884385 0.078875
O O16 0.250000 0.991670 0.109657
O O17 0.000000 0.000000 0.000000
#
# Coordination Sequence:
#
# PCOD9448435 Si02
#       6
#     8   8   8   8   8   8
#     4  10  22  37  55  80 108 140 178 222 270 320
#     4  10  19  32  55  83 109 140 175 215 265 319
#     4   9  17  30  50  78 109 141 181 225 267 317
#     4   9  18  35  58  82 108 139 177 218 259 310
#     4  10  21  36  54  78 109 145 184 228 280 333
#     4  11  23  38  57  81 109 145 189 233 278 328
#
# _framework density 22.600275
#
# number of rings (size 3 to 8) (size 9 to 14) (size 15 to 20)
#    0.000    2.167    0.000    3.000    0.000    8.333 
#    0.000    1.667    0.000    3.000    0.000    0.000 
#    0.000    0.000    0.000    0.000    0.000    0.000 
#
# Total GULP energy -268150.023707 kJ/mol
# GULP energy per Si atom -5586.458827 kJ/mol
# Density = 2.254884 g / cm^3
# Si number density = 22.600275 Si / 1000 Ang^3
#
#
#
# Elastic Constant Matrix: (Units=GPa)
#
#
# Indices 1 2 3 4 5 6 
#
# 1 24.2648 3.2866 8.0715 0.0000 0.0000 0.0000
# 2 3.2866 128.7850 56.3675 0.0000 0.0000 0.0000
# 3 8.0715 56.3675 93.8583 0.0000 0.0000 0.0000
# 4 0.0000 0.0000 0.0000 38.3073 0.0000 0.0000
# 5 0.0000 0.0000 0.0000 0.0000 9.6493 0.0000
# 6 0.0000 0.0000 0.0000 0.0000 0.0000 23.4529
#
#
#
# Elastic Compliance Matrix: (Units=1/GPa)
#
#
# Indices 1 2 3 4 5 6 
#
# 1 0.042472 0.000698 -0.004072 0.000000 0.000000 0.000000
# 2 0.000698 0.010545 -0.006393 0.000000 0.000000 0.000000
# 3 -0.004072 -0.006393 0.014844 0.000000 0.000000 0.000000
# 4 0.000000 0.000000 0.000000 0.026105 0.000000 0.000000
# 5 0.000000 0.000000 0.000000 0.000000 0.103634 0.000000
# 6 0.000000 0.000000 0.000000 0.000000 0.000000 0.042639
#
#
# Mechanical properties :
#
#
# Convention : Reuss Voigt Hill
#
# Bulk Modulus (GPa) = 20.69201 42.48438 31.58820
# Shear Modulus (GPa) = 18.12376 26.22740 22.17558
#
# Velocity S-wave (km/s) = 2.83490 3.41029 3.13582
# Velocity P-wave (km/s) = 4.45994 5.86053 5.20754
#
# Compressibility (1/GPa) = 0.04832783
#
# Stress axis : x y z
#
# Youngs Moduli (GPa) = 23.54498 94.82955 67.36745
#
# Poissons Ratio (x) = -0.06622 0.27431
# Poissons Ratio (y) = -0.01644 0.43069
# Poissons Ratio (z) = 0.09587 0.60625
#
# Static dielectric constant tensor:
#      x y z
#    x 1.819130 0.000000 0.000000 
#    y 0.000000 1.831820 0.000000 
#    z 0.000000 0.000000 1.859540 
# 
# From -- ./inp_files/20429.got.cif
#   From: 2010.05.17/outbox.cif.g08.bks.cpg/sg59_11_cif.got.tgz:20429.got - 2010.06.03 14:40:33.
