data_PCOD9448781
_publ_section_title
;
Structure prediction by ZEFSAII (Michael W. Deem and Ramdas Pophale) SiO2 
 PCOD9448781
Probable space group: P M M N
;
_chemical_formula_sum "Si O2"
_cell_formula_units_Z 64
_cell_length_a 8.857838
_cell_length_b 29.709114
_cell_length_c 12.782035
_cell_angle_alpha 90.000000
_cell_angle_beta 90.000000
_cell_angle_gamma 90.000000
_cell_volume 3363.701400
_symmetry_space_group_name_H-M "P M M N"
_symmetry_group_IT_number 59
_space_group.IT_coordinate_system_code '2'
_symmetry_cell_setting 'orthorhombic'
loop_
_space_group_symop_operation_xyz
x,y,z
1/2-x,1/2-y,z
1/2+x,-y,-z
-x,1/2+y,-z
-x,-y,-z
1/2+x,1/2+y,-z
1/2-x,y,z
x,1/2-y,z
loop_
_atom_site_type_symbol
_atom_site_label
_atom_site_fract_x
_atom_site_fract_y
_atom_site_fract_z
Si Si1 0.925827 0.822485 0.857983
Si Si2 0.069442 0.439991 0.654817
Si Si3 0.567993 0.699177 0.620646
Si Si4 0.569229 0.039185 0.277914
Si Si5 0.074893 0.426444 0.075883
Si Si6 0.930917 0.201623 0.927347
Si Si7 0.930909 0.109143 0.455003
Si Si8 0.568436 0.397448 0.862776
O O1 0.750000 0.809396 0.870209
O O2 0.975106 0.808341 0.742474
O O3 0.935057 0.876223 0.874288
O O4 0.020855 0.801584 0.951698
O O5 0.250000 0.435229 0.650211
O O6 0.033133 0.493017 0.662390
O O7 0.995862 0.416257 0.555355
O O8 0.006034 0.418077 0.760519
O O9 0.750000 0.694819 0.615307
O O10 0.527187 0.750000 0.589321
O O11 0.493050 0.659545 0.554977
O O12 0.750000 0.041390 0.263017
O O13 0.492266 0.041472 0.164736
O O14 0.523080 0.080804 0.351675
O O15 0.250000 0.436616 0.055284
O O16 0.985161 0.423411 0.967260
O O17 0.750000 0.201250 0.920781
O O18 0.985542 0.250000 0.884842
O O19 0.982662 0.154895 0.875468
O O20 0.750000 0.109457 0.459659
O O21 0.750000 0.398913 0.856038
#
# Coordination Sequence:
#
# PCOD9448781 Si02
#       8
#     8   8   8   8   8   8   8   8
#     4   9  17  30  50  80 116 151 184 224 274 331
#     4  11  24  42  62  83 111 150 198 244 291 348
#     4  10  20  35  56  84 119 156 191 230 282 341
#     4  10  22  39  61  89 117 148 188 239 295 351
#     4  10  19  33  58  88 119 153 188 229 283 342
#     4   9  18  32  52  79 110 146 187 231 281 335
#     4  11  23  40  62  87 117 150 191 241 294 345
#     4  10  21  38  58  82 117 154 192 239 290 344
#
# _framework density 19.02666
#
# number of rings (size 3 to 8) (size 9 to 14) (size 15 to 20)
#    0.000    2.000    1.250    2.250    0.000    4.500 
#    0.000    0.625    0.000    2.250    0.000    0.000 
#    0.000    0.000    0.000    0.000    0.000    0.000 
#
# Total GULP energy -357386.976723 kJ/mol
# GULP energy per Si atom -5584.171511 kJ/mol
# Density = 1.898335 g / cm^3
# Si number density = 19.026660 Si / 1000 Ang^3
#
#
#
# Elastic Constant Matrix: (Units=GPa)
#
#
# Indices 1 2 3 4 5 6 
#
# 1 29.9559 28.8338 19.3962 0.0000 0.0000 0.0000
# 2 28.8338 76.4213 22.8579 0.0000 0.0000 0.0000
# 3 19.3962 22.8579 63.5125 0.0000 0.0000 0.0000
# 4 0.0000 0.0000 0.0000 33.4331 0.0000 0.0000
# 5 0.0000 0.0000 0.0000 0.0000 32.0844 0.0000
# 6 0.0000 0.0000 0.0000 0.0000 0.0000 17.1445
#
#
#
# Elastic Compliance Matrix: (Units=1/GPa)
#
#
# Indices 1 2 3 4 5 6 
#
# 1 0.058722 -0.018817 -0.011161 0.000000 0.000000 0.000000
# 2 -0.018817 0.020694 -0.001701 0.000000 0.000000 0.000000
# 3 -0.011161 -0.001701 0.019765 0.000000 0.000000 0.000000
# 4 0.000000 0.000000 0.000000 0.029910 0.000000 0.000000
# 5 0.000000 0.000000 0.000000 0.000000 0.031168 0.000000
# 6 0.000000 0.000000 0.000000 0.000000 0.000000 0.058328
#
#
# Mechanical properties :
#
#
# Convention : Reuss Voigt Hill
#
# Bulk Modulus (GPa) = 27.91529 34.67395 31.29462
# Shear Modulus (GPa) = 17.01338 23.11918 20.06628
#
# Velocity S-wave (km/s) = 2.99354 3.48960 3.25105
# Velocity P-wave (km/s) = 5.16255 5.87366 5.52955
#
# Compressibility (1/GPa) = 0.03582267
#
# Stress axis : x y z
#
# Youngs Moduli (GPa) = 17.02952 48.32324 50.59321
#
# Poissons Ratio (x) = 0.90932 0.56466
# Poissons Ratio (y) = 0.32045 0.08606
# Poissons Ratio (z) = 0.19006 0.08220
#
# Static dielectric constant tensor:
#      x y z
#    x 1.639110 0.000000 0.000000 
#    y 0.000000 1.699620 0.000000 
#    z 0.000000 0.000000 1.619160 
# 
# From -- ./inp_files/14870.got.cif
#   From: 2010.05.17/outbox.cif.g08.bks.cpg/sg59_8_cif.got.tgz:14870.got - 2010.06.03 14:40:33.
