data_PCOD9448698
_publ_section_title
;
Structure prediction by ZEFSAII (Michael W. Deem and Ramdas Pophale) SiO2 
 PCOD9448698
Probable space group: P M M N
;
_chemical_formula_sum "Si O2"
_cell_formula_units_Z 64
_cell_length_a 15.715946
_cell_length_b 13.895453
_cell_length_c 16.425718
_cell_angle_alpha 90.000000
_cell_angle_beta 90.000000
_cell_angle_gamma 90.000000
_cell_volume 3587.051401
_symmetry_space_group_name_H-M "P M M N"
_symmetry_group_IT_number 59
_space_group.IT_coordinate_system_code '2'
_symmetry_cell_setting 'orthorhombic'
loop_
_space_group_symop_operation_xyz
x,y,z
1/2-x,1/2-y,z
1/2+x,-y,-z
-x,1/2+y,-z
-x,-y,-z
1/2+x,1/2+y,-z
1/2-x,y,z
x,1/2-y,z
loop_
_atom_site_type_symbol
_atom_site_label
_atom_site_fract_x
_atom_site_fract_y
_atom_site_fract_z
Si Si1 0.851159 0.144688 0.745375
Si Si2 0.506998 0.363965 0.325075
Si Si3 0.851487 0.640677 0.315432
Si Si4 0.571374 0.002219 0.183969
Si Si5 0.345034 0.860050 0.933903
Si Si6 0.648945 0.520464 0.616478
Si Si7 0.149931 0.531871 0.569061
Si Si8 0.540302 0.359831 0.908656
O O1 0.750000 0.142214 0.756339
O O2 0.874744 0.250000 0.711551
O O3 0.894872 0.135634 0.832571
O O4 0.872924 0.060746 0.683176
O O5 0.511160 0.250000 0.311315
O O6 0.517848 0.425003 0.241286
O O7 0.417688 0.394534 0.366595
O O8 0.584690 0.399240 0.383411
O O9 0.750000 0.643917 0.302084
O O10 0.883138 0.750000 0.321473
O O11 0.893433 0.580820 0.242799
O O12 0.865318 0.575304 0.394956
O O13 0.640944 0.067657 0.139958
O O14 0.523562 0.945013 0.112632
O O15 0.250000 0.870382 0.967676
O O16 0.354763 0.750000 0.904747
O O17 0.411378 0.874433 0.006742
O O18 0.750000 0.545808 0.623421
O O19 0.636468 0.474807 0.527264
O O20 0.250000 0.556156 0.584677
O O21 0.504424 0.250000 0.908896
#
# Coordination Sequence:
#
# PCOD9448698 Si02
#       8
#     8   8   8   8   8   8   8   8
#     4   9  17  31  53  80 107 136 173 220 272 322
#     4  11  23  37  54  79 112 151 190 227 270 327
#     4   9  18  33  53  77 105 138 178 224 272 326
#     4  11  20  35  53  79 109 142 177 220 273 328
#     4  10  21  36  55  79 106 139 179 222 270 326
#     4  10  20  37  57  80 111 147 185 229 276 329
#     4   9  20  37  57  80 109 143 186 235 283 326
#     4  10  19  33  55  81 107 135 172 221 273 324
#
# _framework density 17.841951000000002
#
# number of rings (size 3 to 8) (size 9 to 14) (size 15 to 20)
#    0.000    2.125    1.250    2.250    0.000    3.500 
#    0.000    2.500    0.000    0.000    0.000    0.000 
#    0.000    0.000    0.000    0.000    0.000    0.000 
#
# Total GULP energy -356816.776170 kJ/mol
# GULP energy per Si atom -5575.262128 kJ/mol
# Density = 1.780134 g / cm^3
# Si number density = 17.841951 Si / 1000 Ang^3
#
#
#
# Elastic Constant Matrix: (Units=GPa)
#
#
# Indices 1 2 3 4 5 6 
#
# 1 45.7393 37.0850 11.0522 0.0000 0.0000 0.0000
# 2 37.0850 101.2994 13.9810 0.0000 0.0000 0.0000
# 3 11.0522 13.9810 28.3293 0.0000 0.0000 0.0000
# 4 0.0000 0.0000 0.0000 17.4603 0.0000 0.0000
# 5 0.0000 0.0000 0.0000 0.0000 27.2460 0.0000
# 6 0.0000 0.0000 0.0000 0.0000 0.0000 22.3941
#
#
#
# Elastic Compliance Matrix: (Units=1/GPa)
#
#
# Indices 1 2 3 4 5 6 
#
# 1 0.032437 -0.010869 -0.007291 0.000000 0.000000 0.000000
# 2 -0.010869 0.014235 -0.002785 0.000000 0.000000 0.000000
# 3 -0.007291 -0.002785 0.039518 0.000000 0.000000 0.000000
# 4 0.000000 0.000000 0.000000 0.057273 0.000000 0.000000
# 5 0.000000 0.000000 0.000000 0.000000 0.036703 0.000000
# 6 0.000000 0.000000 0.000000 0.000000 0.000000 0.044655
#
#
# Mechanical properties :
#
#
# Convention : Reuss Voigt Hill
#
# Bulk Modulus (GPa) = 22.57287 33.28937 27.93112
# Shear Modulus (GPa) = 17.76349 20.97007 19.36678
#
# Velocity S-wave (km/s) = 3.15874 3.43202 3.29821
# Velocity P-wave (km/s) = 5.09731 5.86544 5.49482
#
# Compressibility (1/GPa) = 0.04430096
#
# Stress axis : x y z
#
# Youngs Moduli (GPa) = 30.82898 70.24907 25.30493
#
# Poissons Ratio (x) = 0.76352 0.18449
# Poissons Ratio (y) = 0.33507 0.07047
# Poissons Ratio (z) = 0.22477 0.19564
#
# Static dielectric constant tensor:
#      x y z
#    x 1.632760 0.000000 0.000000 
#    y 0.000000 1.609580 0.000000 
#    z 0.000000 0.000000 1.587560 
# 
# From -- ./inp_files/22732.got.cif
#   From: 2010.05.17/outbox.cif.g08.bks.cpg/sg59_12_cif.got.tgz:22732.got - 2010.06.03 14:40:33.
