data_PCOD9448655
_publ_section_title
;
Structure prediction by ZEFSAII (Michael W. Deem and Ramdas Pophale) SiO2 
 PCOD9448655
Probable space group: P M M N
;
_chemical_formula_sum "Si O2"
_cell_formula_units_Z 56
_cell_length_a 8.747816
_cell_length_b 19.998220
_cell_length_c 18.040924
_cell_angle_alpha 90.000000
_cell_angle_beta 90.000000
_cell_angle_gamma 90.000000
_cell_volume 3156.092755
_symmetry_space_group_name_H-M "P M M N"
_symmetry_group_IT_number 59
_space_group.IT_coordinate_system_code '2'
_symmetry_cell_setting 'orthorhombic'
loop_
_space_group_symop_operation_xyz
x,y,z
1/2-x,1/2-y,z
1/2+x,-y,-z
-x,1/2+y,-z
-x,-y,-z
1/2+x,1/2+y,-z
1/2-x,y,z
x,1/2-y,z
loop_
_atom_site_type_symbol
_atom_site_label
_atom_site_fract_x
_atom_site_fract_y
_atom_site_fract_z
Si Si1 0.565557 0.927681 0.644410
Si Si2 0.066622 0.066750 0.037034
Si Si3 0.436449 0.174833 0.917138
Si Si4 0.072285 0.555044 0.803640
Si Si5 0.565290 0.672356 0.515569
Si Si6 0.929059 0.602017 0.230186
Si Si7 0.931803 0.420495 0.613149
O O1 0.750000 0.929154 0.648410
O O2 0.500980 0.919772 0.727077
O O3 0.518778 0.867931 0.589796
O O4 0.516851 0.001069 0.612867
O O5 0.250000 0.062625 0.036532
O O6 0.009898 0.075659 0.120823
O O7 0.016279 0.126779 0.983511
O O8 0.000000 0.000000 0.000000
O O9 0.250000 0.173397 0.915561
O O10 0.487386 0.250000 0.929003
O O11 0.485068 0.147763 0.836932
O O12 0.250000 0.573580 0.806715
O O13 0.062931 0.474276 0.798423
O O14 0.750000 0.673025 0.513612
O O15 0.513744 0.750000 0.513043
O O16 0.507374 0.626869 0.447856
O O17 0.750000 0.616691 0.245984
O O18 0.023178 0.606033 0.305526
O O19 0.750000 0.419739 0.603028
#
# Coordination Sequence:
#
# PCOD9448655 Si02
#       7
#     8   8   8   8   8   8   8
#     4   9  19  36  56  80 107 137 176 223 270 312
#     4  11  20  33  55  81 107 138 179 223 266 312
#     4   9  18  33  52  75 104 139 179 219 260 310
#     4  10  19  33  54  82 107 135 176 219 267 317
#     4  10  21  37  56  77 104 142 185 222 261 316
#     4   9  17  32  52  76 104 135 174 215 258 314
#     4  10  20  33  53  81 110 137 171 218 271 320
#
# _framework density 17.743459000000001
#
# number of rings (size 3 to 8) (size 9 to 14) (size 15 to 20)
#    0.000    2.286    1.429    1.714    0.000    2.571 
#    0.000    2.143    0.000    7.714    0.000    0.000 
#    0.000    0.000    0.000    0.000    0.000    0.000 
#
# Total GULP energy -312393.687920 kJ/mol
# GULP energy per Si atom -5578.458713 kJ/mol
# Density = 1.770307 g / cm^3
# Si number density = 17.743459 Si / 1000 Ang^3
#
#
#
# Elastic Constant Matrix: (Units=GPa)
#
#
# Indices 1 2 3 4 5 6 
#
# 1 25.2536 27.7741 28.1677 0.0000 0.0000 0.0000
# 2 27.7741 104.3085 79.2084 0.0000 0.0000 0.0000
# 3 28.1677 79.2084 131.9862 0.0000 0.0000 0.0000
# 4 0.0000 0.0000 0.0000 22.3038 0.0000 0.0000
# 5 0.0000 0.0000 0.0000 0.0000 30.5880 0.0000
# 6 0.0000 0.0000 0.0000 0.0000 0.0000 19.1003
#
#
#
# Elastic Compliance Matrix: (Units=1/GPa)
#
#
# Indices 1 2 3 4 5 6 
#
# 1 0.058272 -0.011157 -0.005741 0.000000 0.000000 0.000000
# 2 -0.011157 0.019750 -0.009471 0.000000 0.000000 0.000000
# 3 -0.005741 -0.009471 0.014486 0.000000 0.000000 0.000000
# 4 0.000000 0.000000 0.000000 0.044835 0.000000 0.000000
# 5 0.000000 0.000000 0.000000 0.000000 0.032693 0.000000
# 6 0.000000 0.000000 0.000000 0.000000 0.000000 0.052355
#
#
# Mechanical properties :
#
#
# Convention : Reuss Voigt Hill
#
# Bulk Modulus (GPa) = 25.14469 59.09430 42.11949
# Shear Modulus (GPa) = 17.33794 22.82493 20.08144
#
# Velocity S-wave (km/s) = 3.12932 3.59051 3.36782
# Velocity P-wave (km/s) = 5.22101 7.11099 6.23799
#
# Compressibility (1/GPa) = 0.03976984
#
# Stress axis : x y z
#
# Youngs Moduli (GPa) = 17.16101 50.63299 69.03343
#
# Poissons Ratio (x) = 0.56490 0.39629
# Poissons Ratio (y) = 0.19146 0.65385
# Poissons Ratio (z) = 0.09851 0.47957
#
# Static dielectric constant tensor:
#      x y z
#    x 1.606210 0.000000 0.000000 
#    y 0.000000 1.600680 0.000000 
#    z 0.000000 0.000000 1.585820 
# 
# From -- ./inp_files/20909.got.cif
#   From: 2010.05.17/outbox.cif.g08.bks.cpg/sg59_11_cif.got.tgz:20909.got - 2010.06.03 14:40:33.
