data_PCOD9448835
_publ_section_title
;
Structure prediction by ZEFSAII (Michael W. Deem and Ramdas Pophale) SiO2 
 PCOD9448835
Probable space group: P M M N
;
_chemical_formula_sum "Si O2"
_cell_formula_units_Z 56
_cell_length_a 21.537222
_cell_length_b 9.180816
_cell_length_c 17.024023
_cell_angle_alpha 90.000000
_cell_angle_beta 90.000000
_cell_angle_gamma 90.000000
_cell_volume 3366.147680
_symmetry_space_group_name_H-M "P M M N"
_symmetry_group_IT_number 59
_space_group.IT_coordinate_system_code '2'
_symmetry_cell_setting 'orthorhombic'
loop_
_space_group_symop_operation_xyz
x,y,z
1/2-x,1/2-y,z
1/2+x,-y,-z
-x,1/2+y,-z
-x,-y,-z
1/2+x,1/2+y,-z
1/2-x,y,z
x,1/2-y,z
loop_
_atom_site_type_symbol
_atom_site_label
_atom_site_fract_x
_atom_site_fract_y
_atom_site_fract_z
Si Si1 0.176454 0.584220 0.637345
Si Si2 0.560168 0.425423 0.959188
Si Si3 0.090422 0.077740 0.533535
Si Si4 0.678293 0.575164 0.039078
Si Si5 0.127549 0.420817 0.789235
Si Si6 0.019044 0.578726 0.214348
Si Si7 0.977439 0.922961 0.623635
O O1 0.250000 0.582603 0.643671
O O2 0.154698 0.750000 0.627781
O O3 0.153760 0.489543 0.564122
O O4 0.148863 0.516529 0.716547
O O5 0.557145 0.250000 0.970796
O O6 0.554859 0.454876 0.865907
O O7 0.500000 0.500000 0.000000
O O8 0.624211 0.490677 0.992874
O O9 0.087774 0.250000 0.546982
O O10 0.074802 0.049644 0.442601
O O11 0.037837 0.001992 0.587445
O O12 0.750000 0.536898 0.020085
O O13 0.670828 0.750000 0.027230
O O14 0.665014 0.547399 0.131379
O O15 0.136660 0.250000 0.769965
O O16 0.054269 0.443773 0.802928
O O17 0.027126 0.750000 0.232402
O O18 0.036279 0.486517 0.290828
O O19 0.987909 0.750000 0.627926
#
# Coordination Sequence:
#
# PCOD9448835 Si02
#       7
#     8   8   8   8   8   8   8
#     4  11  23  35  49  75 109 142 178 218 259 307
#     4  11  22  37  57  81 111 145 185 230 276 327
#     4  10  20  34  52  75 103 137 174 209 254 313
#     4  10  21  38  58  80 110 147 186 228 275 329
#     4  10  19  34  54  77 108 146 182 213 261 324
#     4  10  20  34  54  80 110 142 177 219 268 322
#     4  10  20  33  53  79 104 132 169 216 263 305
#
# _framework density 16.636227000000002
#
# number of rings (size 3 to 8) (size 9 to 14) (size 15 to 20)
#    0.000    1.714    2.857    2.143    0.000    5.429 
#    0.000    0.000    0.000    0.857    0.000    0.000 
#    0.000    0.000    0.000    0.000    0.000    0.000 
#
# Total GULP energy -312546.545553 kJ/mol
# GULP energy per Si atom -5581.188313 kJ/mol
# Density = 1.659836 g / cm^3
# Si number density = 16.636227 Si / 1000 Ang^3
#
#
#
# Elastic Constant Matrix: (Units=GPa)
#
#
# Indices 1 2 3 4 5 6 
#
# 1 84.0168 49.2832 50.1348 0.0000 0.0000 0.0000
# 2 49.2832 75.9450 66.6883 0.0000 0.0000 0.0000
# 3 50.1348 66.6883 111.0874 0.0000 0.0000 0.0000
# 4 0.0000 0.0000 0.0000 32.3116 0.0000 0.0000
# 5 0.0000 0.0000 0.0000 0.0000 18.8867 0.0000
# 6 0.0000 0.0000 0.0000 0.0000 0.0000 26.3530
#
#
#
# Elastic Compliance Matrix: (Units=1/GPa)
#
#
# Indices 1 2 3 4 5 6 
#
# 1 0.019554 -0.010447 -0.002553 0.000000 0.000000 0.000000
# 2 -0.010447 0.033429 -0.015353 0.000000 0.000000 0.000000
# 3 -0.002553 -0.015353 0.019371 0.000000 0.000000 0.000000
# 4 0.000000 0.000000 0.000000 0.030949 0.000000 0.000000
# 5 0.000000 0.000000 0.000000 0.000000 0.052947 0.000000
# 6 0.000000 0.000000 0.000000 0.000000 0.000000 0.037946
#
#
# Mechanical properties :
#
#
# Convention : Reuss Voigt Hill
#
# Bulk Modulus (GPa) = 63.91114 67.02910 65.47012
# Shear Modulus (GPa) = 19.52215 22.50646 21.01430
#
# Velocity S-wave (km/s) = 3.42931 3.68211 3.55796
# Velocity P-wave (km/s) = 7.36074 7.64564 7.50454
#
# Compressibility (1/GPa) = 0.01564672
#
# Stress axis : x y z
#
# Youngs Moduli (GPa) = 51.13982 29.91427 51.62347
#
# Poissons Ratio (x) = 0.31253 0.13181
# Poissons Ratio (y) = 0.53428 0.79258
# Poissons Ratio (z) = 0.13057 0.45928
#
# Static dielectric constant tensor:
#      x y z
#    x 1.558040 0.000000 0.000000 
#    y 0.000000 1.562440 0.000000 
#    z 0.000000 0.000000 1.548170 
# 
# From -- ./inp_files/24301.got.cif
#   From: 2010.05.17/outbox.cif.g08.bks.cpg/sg59_13_cif.got.tgz:24301.got - 2010.06.03 14:40:33.
