data_PCOD9448931
_publ_section_title
;
Structure prediction by ZEFSAII (Michael W. Deem and Ramdas Pophale) SiO2 
 PCOD9448931
Probable space group: P M M N
;
_chemical_formula_sum "Si O2"
_cell_formula_units_Z 56
_cell_length_a 8.351744
_cell_length_b 23.956565
_cell_length_c 13.147547
_cell_angle_alpha 90.000000
_cell_angle_beta 90.000000
_cell_angle_gamma 90.000000
_cell_volume 2630.549345
_symmetry_space_group_name_H-M "P M M N"
_symmetry_group_IT_number 59
_space_group.IT_coordinate_system_code '2'
_symmetry_cell_setting 'orthorhombic'
loop_
_space_group_symop_operation_xyz
x,y,z
1/2-x,1/2-y,z
1/2+x,-y,-z
-x,1/2+y,-z
-x,-y,-z
1/2+x,1/2+y,-z
1/2-x,y,z
x,1/2-y,z
loop_
_atom_site_type_symbol
_atom_site_label
_atom_site_fract_x
_atom_site_fract_y
_atom_site_fract_z
Si Si1 0.056396 0.811002 0.080630
Si Si2 0.059533 0.250000 0.304106
Si Si3 0.942594 0.548652 0.573748
Si Si4 0.444940 0.369617 0.593278
Si Si5 0.446240 0.250000 0.539358
Si Si6 0.441336 0.039312 0.195143
Si Si7 0.559349 0.920048 0.197433
Si Si8 0.940325 0.340484 0.146239
O O1 0.250000 0.814357 0.087036
O O2 0.006185 0.750000 0.121247
O O3 0.984670 0.864666 0.135646
O O4 0.011226 0.814406 0.961756
O O5 0.250000 0.250000 0.310280
O O6 0.000823 0.250000 0.421031
O O7 0.009713 0.304677 0.239653
O O8 0.750000 0.547445 0.578296
O O9 0.991431 0.604780 0.515308
O O10 0.002512 0.542411 0.687875
O O11 0.000000 0.500000 0.500000
O O12 0.250000 0.370332 0.597743
O O13 0.498853 0.305967 0.596064
O O14 0.501139 0.407129 0.687514
O O15 0.250000 0.250000 0.538466
O O16 0.250000 0.043622 0.193617
O O17 0.509910 0.094737 0.144190
O O18 0.488685 0.978019 0.156218
O O19 0.750000 0.926475 0.199769
O O20 0.750000 0.336554 0.154083
#
# Coordination Sequence:
#
# PCOD9448931 Si02
#       8
#     8   4   8   8   4   8   8   8
#     4  10  23  45  67  87 117 159 201 251 312 367
#     4  11  21  37  64  95 126 158 201 251 304 369
#     4  10  19  34  56  83 119 159 200 241 289 351
#     4   9  18  33  54  83 121 158 196 239 291 349
#     4   9  18  33  54  83 122 160 191 239 296 351
#     4  11  23  39  62  93 126 163 204 250 307 365
#     4  11  23  38  61  92 124 161 206 254 302 359
#     4  11  23  42  67  91 121 159 201 254 314 370
#
# _framework density 21.288328
#
# number of rings (size 3 to 8) (size 9 to 14) (size 15 to 20)
#    0.000    1.714    2.143    2.357    1.000    4.857 
#    0.000    0.000    0.000    2.571    0.000    0.000 
#    0.000    0.000    0.000    0.000    0.000    0.000 
#
# Total GULP energy -312825.006038 kJ/mol
# GULP energy per Si atom -5586.160822 kJ/mol
# Density = 2.123988 g / cm^3
# Si number density = 21.288328 Si / 1000 Ang^3
#
#
#
# Elastic Constant Matrix: (Units=GPa)
#
#
# Indices 1 2 3 4 5 6 
#
# 1 13.2802 3.0515 7.2625 0.0000 0.0000 0.0000
# 2 3.0515 144.6285 10.1103 0.0000 0.0000 0.0000
# 3 7.2625 10.1103 31.3636 0.0000 0.0000 0.0000
# 4 0.0000 0.0000 0.0000 35.2855 0.0000 0.0000
# 5 0.0000 0.0000 0.0000 0.0000 16.0557 0.0000
# 6 0.0000 0.0000 0.0000 0.0000 0.0000 28.9575
#
#
#
# Elastic Compliance Matrix: (Units=1/GPa)
#
#
# Indices 1 2 3 4 5 6 
#
# 1 0.086245 -0.000433 -0.019831 0.000000 0.000000 0.000000
# 2 -0.000433 0.007076 -0.002181 0.000000 0.000000 0.000000
# 3 -0.019831 -0.002181 0.037179 0.000000 0.000000 0.000000
# 4 0.000000 0.000000 0.000000 0.028340 0.000000 0.000000
# 5 0.000000 0.000000 0.000000 0.000000 0.062283 0.000000
# 6 0.000000 0.000000 0.000000 0.000000 0.000000 0.034533
#
#
# Mechanical properties :
#
#
# Convention : Reuss Voigt Hill
#
# Bulk Modulus (GPa) = 11.68090 25.56898 18.62494
# Shear Modulus (GPa) = 15.19375 27.31628 21.25501
#
# Velocity S-wave (km/s) = 2.67444 3.58600 3.16323
# Velocity P-wave (km/s) = 3.87759 5.40211 4.70205
#
# Compressibility (1/GPa) = 0.08560982
#
# Stress axis : x y z
#
# Youngs Moduli (GPa) = 11.59491 141.32590 26.89687
#
# Poissons Ratio (x) = 0.06124 0.53339
# Poissons Ratio (y) = 0.00502 0.05865
# Poissons Ratio (z) = 0.22994 0.30818
#
# Static dielectric constant tensor:
#      x y z
#    x 1.727450 0.000000 0.000000 
#    y 0.000000 1.784650 0.000000 
#    z 0.000000 0.000000 1.782620 
# 
# From -- ./inp_files/21157.got.cif
#   From: 2010.05.17/outbox.cif.g08.bks.cpg/sg59_11_cif.got.tgz:21157.got - 2010.06.03 14:40:33.
