data_PCOD9448196
_publ_section_title
;
Structure prediction by ZEFSAII (Michael W. Deem and Ramdas Pophale) SiO2 
 PCOD9448196
Probable space group: P M M N
;
_chemical_formula_sum "Si O2"
_cell_formula_units_Z 56
_cell_length_a 22.261697
_cell_length_b 8.529998
_cell_length_c 17.118071
_cell_angle_alpha 90.000000
_cell_angle_beta 90.000000
_cell_angle_gamma 90.000000
_cell_volume 3250.588691
_symmetry_space_group_name_H-M "P M M N"
_symmetry_group_IT_number 59
_space_group.IT_coordinate_system_code '2'
_symmetry_cell_setting 'orthorhombic'
loop_
_space_group_symop_operation_xyz
x,y,z
1/2-x,1/2-y,z
1/2+x,-y,-z
-x,1/2+y,-z
-x,-y,-z
1/2+x,1/2+y,-z
1/2-x,y,z
x,1/2-y,z
loop_
_atom_site_type_symbol
_atom_site_label
_atom_site_fract_x
_atom_site_fract_y
_atom_site_fract_z
Si Si1 0.682390 0.439115 0.141242
Si Si2 0.124724 0.438653 0.701456
Si Si3 0.025330 0.436224 0.126226
Si Si4 0.013649 0.936918 0.298692
Si Si5 0.817722 0.941201 0.459753
Si Si6 0.559622 0.563134 0.544242
Si Si7 0.911361 0.438864 0.018259
O O1 0.750000 0.498206 0.145349
O O2 0.682678 0.250000 0.142175
O O3 0.646532 0.494667 0.216786
O O4 0.649137 0.486466 0.061912
O O5 0.125893 0.250000 0.705510
O O6 0.166890 0.486830 0.629529
O O7 0.055772 0.485580 0.686961
O O8 0.023660 0.250000 0.137800
O O9 0.029181 0.517050 0.210069
O O10 0.964634 0.482736 0.079169
O O11 0.076750 0.483708 0.064968
O O12 0.017356 0.750000 0.307840
O O13 0.053237 0.016755 0.365324
O O14 0.750000 0.993387 0.481641
O O15 0.817196 0.750000 0.462830
O O16 0.876193 0.992919 0.509389
O O17 0.500000 0.500000 0.500000
O O18 0.558516 0.750000 0.534823
O O19 0.913664 0.250000 0.009191
#
# Coordination Sequence:
#
# PCOD9448196 Si02
#       7
#     8   8   8   8   8   8   8
#     4  10  20  33  49  73 107 142 173 207 255 311
#     4  10  19  32  51  75 105 140 177 210 253 311
#     4  10  19  32  52  76 100 132 168 211 260 303
#     4  11  21  34  53  79 108 139 174 217 265 313
#     4   9  18  34  54  76 104 139 179 219 260 311
#     4  11  21  35  55  80 108 141 178 221 269 317
#     4   9  18  32  49  72 102 135 169 207 251 302
#
# _framework density 17.227649
#
# number of rings (size 3 to 8) (size 9 to 14) (size 15 to 20)
#    0.000    2.000    2.857    1.714    0.000    2.571 
#    0.000    0.000    0.000    3.429    0.000    0.000 
#    0.000    0.000    0.000    0.000    0.000    0.000 
#
# Total GULP energy -312370.178089 kJ/mol
# GULP energy per Si atom -5578.038894 kJ/mol
# Density = 1.718844 g / cm^3
# Si number density = 17.227649 Si / 1000 Ang^3
#
#
#
# Elastic Constant Matrix: (Units=GPa)
#
#
# Indices 1 2 3 4 5 6 
#
# 1 107.1783 17.4766 48.0131 0.0000 0.0000 0.0000
# 2 17.4766 12.6119 12.3937 0.0000 0.0000 0.0000
# 3 48.0131 12.3937 87.7283 0.0000 0.0000 0.0000
# 4 0.0000 0.0000 0.0000 27.8431 0.0000 0.0000
# 5 0.0000 0.0000 0.0000 0.0000 22.8054 0.0000
# 6 0.0000 0.0000 0.0000 0.0000 0.0000 13.1087
#
#
#
# Elastic Compliance Matrix: (Units=1/GPa)
#
#
# Indices 1 2 3 4 5 6 
#
# 1 0.014210 -0.013991 -0.005801 0.000000 0.000000 0.000000
# 2 -0.013991 0.105848 -0.007296 0.000000 0.000000 0.000000
# 3 -0.005801 -0.007296 0.015604 0.000000 0.000000 0.000000
# 4 0.000000 0.000000 0.000000 0.035916 0.000000 0.000000
# 5 0.000000 0.000000 0.000000 0.000000 0.043849 0.000000
# 6 0.000000 0.000000 0.000000 0.000000 0.000000 0.076285
#
#
# Mechanical properties :
#
#
# Convention : Reuss Voigt Hill
#
# Bulk Modulus (GPa) = 12.27195 40.36503 26.31849
# Shear Modulus (GPa) = 13.40301 21.39380 17.39840
#
# Velocity S-wave (km/s) = 2.79228 3.52778 3.18136
# Velocity P-wave (km/s) = 4.18744 6.33047 5.36701
#
# Compressibility (1/GPa) = 0.08148665
#
# Stress axis : x y z
#
# Youngs Moduli (GPa) = 70.37235 9.44749 64.08535
#
# Poissons Ratio (x) = 0.13218 0.37173
# Poissons Ratio (y) = 0.98459 0.46759
# Poissons Ratio (z) = 0.40820 0.06893
#
# Static dielectric constant tensor:
#      x y z
#    x 1.602580 0.000000 0.000000 
#    y 0.000000 1.607340 0.000000 
#    z 0.000000 0.000000 1.567150 
# 
# From -- ./inp_files/20914.got.cif
#   From: 2010.05.17/outbox.cif.g08.bks.cpg/sg59_11_cif.got.tgz:20914.got - 2010.06.03 14:40:33.
