data_PCOD9448565
_publ_section_title
;
Structure prediction by ZEFSAII (Michael W. Deem and Ramdas Pophale) SiO2 
 PCOD9448565
Probable space group: P M M N
;
_chemical_formula_sum "Si O2"
_cell_formula_units_Z 48
_cell_length_a 32.752079
_cell_length_b 7.912295
_cell_length_c 9.596352
_cell_angle_alpha 90.000000
_cell_angle_beta 90.000000
_cell_angle_gamma 90.000000
_cell_volume 2486.838107
_symmetry_space_group_name_H-M "P M M N"
_symmetry_group_IT_number 59
_space_group.IT_coordinate_system_code '2'
_symmetry_cell_setting 'orthorhombic'
loop_
_space_group_symop_operation_xyz
x,y,z
1/2-x,1/2-y,z
1/2+x,-y,-z
-x,1/2+y,-z
-x,-y,-z
1/2+x,1/2+y,-z
1/2-x,y,z
x,1/2-y,z
loop_
_atom_site_type_symbol
_atom_site_label
_atom_site_fract_x
_atom_site_fract_y
_atom_site_fract_z
Si Si1 0.799050 0.750000 0.970959
Si Si2 0.586427 0.949158 0.684213
Si Si3 0.701009 0.061258 0.475386
Si Si4 0.299973 0.250000 0.707947
Si Si5 0.671236 0.441237 0.786408
Si Si6 0.996077 0.047063 0.839017
Si Si7 0.458032 0.047058 0.579187
O O1 0.750000 0.750000 0.965029
O O2 0.812197 0.750000 0.131756
O O3 0.815054 0.583072 0.893940
O O4 0.596975 0.750000 0.678527
O O5 0.577121 0.013582 0.526541
O O6 0.623077 0.044942 0.757833
O O7 0.544988 0.970823 0.772308
O O8 0.750000 0.064956 0.461082
O O9 0.685358 0.250000 0.444614
O O10 0.691199 0.021935 0.635747
O O11 0.685395 0.915684 0.374014
O O12 0.250000 0.250000 0.704206
O O13 0.682518 0.250000 0.827732
O O14 0.993208 0.250000 0.827786
O O15 0.033756 0.991290 0.738053
O O16 0.000000 0.000000 0.000000
O O17 0.454164 0.250000 0.580252
O O18 0.500000 0.000000 0.500000
#
# Coordination Sequence:
#
# PCOD9448565 Si02
#       7
#     4   8   8   4   8   8   8
#     4  11  23  39  59  87 121 161 203 243 301 369
#     4  10  19  35  56  79 109 147 188 240 293 343
#     4   9  18  34  57  83 110 144 191 241 287 342
#     4   9  19  35  57  81 109 147 187 233 287 349
#     4  11  22  37  59  88 118 153 197 248 305 348
#     4  10  19  33  53  80 110 148 190 232 282 344
#     4   8  16  30  51  75 100 132 177 223 271 327
#
# _framework density 19.301618000000001
#
# number of rings (size 3 to 8) (size 9 to 14) (size 15 to 20)
#    0.000    2.333    0.833    2.000    0.000    3.667 
#    0.000    3.333    0.000    2.000    0.000    0.000 
#    0.000    0.000    0.000    0.000    0.000    0.000 
#
# Total GULP energy -267695.206158 kJ/mol
# GULP energy per Si atom -5576.983462 kJ/mol
# Density = 1.925769 g / cm^3
# Si number density = 19.301618 Si / 1000 Ang^3
#
#
#
# Elastic Constant Matrix: (Units=GPa)
#
#
# Indices 1 2 3 4 5 6 
#
# 1 13.8466 2.6636 -1.2144 0.0000 0.0000 0.0000
# 2 2.6636 107.8866 67.7556 0.0000 0.0000 0.0000
# 3 -1.2144 67.7556 127.7363 0.0000 0.0000 0.0000
# 4 0.0000 0.0000 0.0000 -65.3034 0.0000 0.0000
# 5 0.0000 0.0000 0.0000 0.0000 -70.4672 0.0000
# 6 0.0000 0.0000 0.0000 0.0000 0.0000 13.3354
#
#
#
# Elastic Compliance Matrix: (Units=1/GPa)
#
#
# Indices 1 2 3 4 5 6 
#
# 1 0.073084 -0.003360 0.002477 0.000000 0.000000 0.000000
# 2 -0.003360 0.014054 -0.007486 0.000000 0.000000 0.000000
# 3 0.002477 -0.007486 0.011823 0.000000 0.000000 0.000000
# 4 0.000000 0.000000 0.000000 -0.015313 0.000000 0.000000
# 5 0.000000 0.000000 0.000000 0.000000 -0.014191 0.000000
# 6 0.000000 0.000000 0.000000 0.000000 0.000000 0.074988
#
#
# Mechanical properties :
#
#
# Convention : Reuss Voigt Hill
#
# Bulk Modulus (GPa) = 12.16225 43.09767 27.62996
# Shear Modulus (GPa) = 26.51245 -12.46940 7.02152
#
# Velocity S-wave (km/s) = 3.71021 -2.54447 1.90937
# Velocity P-wave (km/s) = 4.96680 3.70737 4.38256
#
# Compressibility (1/GPa) = 0.08222161
#
# Stress axis : x y z
#
# Youngs Moduli (GPa) = 13.68297 71.15591 84.57910
#
# Poissons Ratio (x) = 0.23909 -0.20951
# Poissons Ratio (y) = 0.04598 0.63320
# Poissons Ratio (z) = -0.03389 0.53271
#
# Static dielectric constant tensor:
#      x y z
#    x 1.673890 0.000000 0.000000 
#    y 0.000000 1.695580 0.000000 
#    z 0.000000 0.000000 1.666740 
# 
# From -- ./inp_files/13038.got.cif
#   From: 2010.05.17/outbox.cif.g08.bks.cpg/sg59_7_cif.got.tgz:13038.got - 2010.06.03 14:40:33.
