data_PCOD9448305
_publ_section_title
;
Structure prediction by ZEFSAII (Michael W. Deem and Ramdas Pophale) SiO2 
 PCOD9448305
Probable space group: P M M N
;
_chemical_formula_sum "Si O2"
_cell_formula_units_Z 64
_cell_length_a 22.939620
_cell_length_b 8.705941
_cell_length_c 17.061012
_cell_angle_alpha 90.000000
_cell_angle_beta 90.000000
_cell_angle_gamma 90.000000
_cell_volume 3407.271397
_symmetry_space_group_name_H-M "P M M N"
_symmetry_group_IT_number 59
_space_group.IT_coordinate_system_code '2'
_symmetry_cell_setting 'orthorhombic'
loop_
_space_group_symop_operation_xyz
x,y,z
1/2-x,1/2-y,z
1/2+x,-y,-z
-x,1/2+y,-z
-x,-y,-z
1/2+x,1/2+y,-z
1/2-x,y,z
x,1/2-y,z
loop_
_atom_site_type_symbol
_atom_site_label
_atom_site_fract_x
_atom_site_fract_y
_atom_site_fract_z
Si Si1 0.576618 0.427432 0.025248
Si Si2 0.992415 0.434093 0.689187
Si Si3 0.181677 0.079152 0.203911
Si Si4 0.443602 0.933116 0.548712
Si Si5 0.638352 0.425164 0.651621
Si Si6 0.316883 0.431375 0.496148
Si Si7 0.317390 0.076274 0.018250
Si Si8 0.986450 0.067999 0.867917
O O1 0.559091 0.250000 0.032817
O O2 0.547922 0.525848 0.093503
O O3 0.644968 0.451569 0.025529
O O4 0.555685 0.486631 0.938933
O O5 0.004220 0.250000 0.690789
O O6 0.040750 0.519230 0.638014
O O7 0.930423 0.454327 0.645736
O O8 0.984329 0.490685 0.778957
O O9 0.250000 0.080759 0.223026
O O10 0.157460 0.250000 0.220551
O O11 0.177906 0.051430 0.111658
O O12 0.152459 0.953329 0.257694
O O13 0.443927 0.750000 0.537874
O O14 0.500000 0.000000 0.500000
O O15 0.377694 0.993401 0.528725
O O16 0.650820 0.250000 0.629344
O O17 0.675500 0.535414 0.596635
O O18 0.250000 0.482964 0.518630
O O19 0.319826 0.250000 0.511975
O O20 0.250000 0.070237 0.997808
O O21 0.338995 0.250000 0.002394
O O22 0.976782 0.250000 0.862369
#
# Coordination Sequence:
#
# PCOD9448305 Si02
#       8
#     8   8   8   8   8   8   8   8
#     4  10  19  32  52  79 110 141 180 230 282 331
#     4  10  21  37  57  82 113 149 189 234 283 338
#     4   9  18  31  45  65  99 142 185 228 273 329
#     4  12  24  40  63  89 118 153 194 241 292 343
#     4  11  21  32  51  79 112 147 183 228 278 334
#     4  11  24  41  61  85 115 153 195 237 287 348
#     4   9  18  32  49  69  97 139 185 224 271 333
#     4   9  19  35  54  78 110 148 184 224 277 336
#
# _framework density 18.783359000000001
#
# number of rings (size 3 to 8) (size 9 to 14) (size 15 to 20)
#    0.000    1.875    1.250    4.125    0.000    6.000 
#    0.000    1.250    0.000    0.750    0.000    5.250 
#    0.000    0.000    0.000    0.000    0.000    0.000 
#
# Total GULP energy -356585.243390 kJ/mol
# GULP energy per Si atom -5571.644428 kJ/mol
# Density = 1.874061 g / cm^3
# Si number density = 18.783359 Si / 1000 Ang^3
#
#
#
# Elastic Constant Matrix: (Units=GPa)
#
#
# Indices 1 2 3 4 5 6 
#
# 1 86.4321 29.6809 23.4378 0.0000 0.0000 0.0000
# 2 29.6809 26.6153 8.7049 0.0000 0.0000 0.0000
# 3 23.4378 8.7049 54.3192 0.0000 0.0000 0.0000
# 4 0.0000 0.0000 0.0000 13.5921 0.0000 0.0000
# 5 0.0000 0.0000 0.0000 0.0000 24.9108 0.0000
# 6 0.0000 0.0000 0.0000 0.0000 0.0000 26.2293
#
#
#
# Elastic Compliance Matrix: (Units=1/GPa)
#
#
# Indices 1 2 3 4 5 6 
#
# 1 0.020133 -0.020695 -0.005370 0.000000 0.000000 0.000000
# 2 -0.020695 0.060924 -0.000834 0.000000 0.000000 0.000000
# 3 -0.005370 -0.000834 0.020861 0.000000 0.000000 0.000000
# 4 0.000000 0.000000 0.000000 0.073572 0.000000 0.000000
# 5 0.000000 0.000000 0.000000 0.000000 0.040143 0.000000
# 6 0.000000 0.000000 0.000000 0.000000 0.000000 0.038125
#
#
# Mechanical properties :
#
#
# Convention : Reuss Voigt Hill
#
# Bulk Modulus (GPa) = 20.78201 32.33487 26.55844
# Shear Modulus (GPa) = 15.45133 19.98263 17.71698
#
# Velocity S-wave (km/s) = 2.87123 3.26521 3.07453
# Velocity P-wave (km/s) = 4.69893 5.60958 5.17433
#
# Compressibility (1/GPa) = 0.04811854
#
# Stress axis : x y z
#
# Youngs Moduli (GPa) = 49.67003 16.41390 47.93728
#
# Poissons Ratio (x) = 0.33969 0.25745
# Poissons Ratio (y) = 1.02794 0.03996
# Poissons Ratio (z) = 0.26675 0.01368
#
# Static dielectric constant tensor:
#      x y z
#    x 1.697550 0.000000 0.000000 
#    y 0.000000 1.673790 0.000000 
#    z 0.000000 0.000000 1.673820 
# 
# From -- ./inp_files/28241.got.cif
#   From: 2010.05.17/outbox.cif.g08.bks.cpg/sg59_15_cif.got.tgz:28241.got - 2010.06.03 14:40:33.
