data_PCOD9448653
_publ_section_title
;
Structure prediction by ZEFSAII (Michael W. Deem and Ramdas Pophale) SiO2 
 PCOD9448653
Probable space group: P M M N
;
_chemical_formula_sum "Si O2"
_cell_formula_units_Z 64
_cell_length_a 19.598003
_cell_length_b 20.584052
_cell_length_c 9.488335
_cell_angle_alpha 90.000000
_cell_angle_beta 90.000000
_cell_angle_gamma 90.000000
_cell_volume 3827.654237
_symmetry_space_group_name_H-M "P M M N"
_symmetry_group_IT_number 59
_space_group.IT_coordinate_system_code '2'
_symmetry_cell_setting 'orthorhombic'
loop_
_space_group_symop_operation_xyz
x,y,z
1/2-x,1/2-y,z
1/2+x,-y,-z
-x,1/2+y,-z
-x,-y,-z
1/2+x,1/2+y,-z
1/2-x,y,z
x,1/2-y,z
loop_
_atom_site_type_symbol
_atom_site_label
_atom_site_fract_x
_atom_site_fract_y
_atom_site_fract_z
Si Si1 0.671491 0.370079 0.074587
Si Si2 0.969135 0.567439 0.634486
Si Si3 0.537813 0.177274 0.554656
Si Si4 0.041677 0.433072 0.036360
Si Si5 0.451535 0.673023 0.116735
Si Si6 0.170944 0.643234 0.600814
Si Si7 0.671313 0.525767 0.123757
Si Si8 0.887389 0.499206 0.413240
O O1 0.750000 0.355114 0.040468
O O2 0.657181 0.344283 0.232964
O O3 0.665053 0.448130 0.092932
O O4 0.620418 0.343436 0.958009
O O5 0.957038 0.580129 0.797506
O O6 0.903736 0.535679 0.558221
O O7 0.993815 0.627991 0.539512
O O8 0.035815 0.520584 0.634210
O O9 0.509232 0.250000 0.549625
O O10 0.544882 0.156662 0.717323
O O11 0.613951 0.177801 0.490735
O O12 0.117513 0.440675 0.977289
O O13 0.000000 0.500000 0.000000
O O14 0.004524 0.373351 0.961453
O O15 0.464515 0.750000 0.101459
O O16 0.250000 0.658458 0.572547
O O17 0.156290 0.566669 0.572241
O O18 0.750000 0.543704 0.104826
O O19 0.647631 0.537001 0.285158
#
# Coordination Sequence:
#
# PCOD9448653 Si02
#       8
#     8   8   8   8   8   8   8   8
#     4   9  18  33  52  78 110 149 186 224 272 328
#     4  10  20  31  53  79 102 139 177 227 270 318
#     4  10  22  36  50  72 106 144 184 224 267 322
#     4  12  21  35  58  85 109 143 182 234 279 328
#     4  11  23  37  54  78 109 147 188 231 278 332
#     4   9  18  31  49  72 103 143 185 219 259 315
#     4  10  19  33  54  81 116 148 181 225 278 334
#     4   9  16  30  50  75 104 138 177 220 271 316
#
# _framework density 16.720424000000001
#
# number of rings (size 3 to 8) (size 9 to 14) (size 15 to 20)
#    0.000    2.000    2.500    3.375    3.500    3.000 
#    0.000    5.000    0.000    0.375    0.000    0.000 
#    0.000    3.500    0.000    0.000    0.000    0.000 
#
# Total GULP energy -356910.805049 kJ/mol
# GULP energy per Si atom -5576.731329 kJ/mol
# Density = 1.668237 g / cm^3
# Si number density = 16.720424 Si / 1000 Ang^3
#
#
#
# Elastic Constant Matrix: (Units=GPa)
#
#
# Indices 1 2 3 4 5 6 
#
# 1 84.9622 33.8719 58.6520 0.0000 0.0000 0.0000
# 2 33.8719 51.1609 58.1333 0.0000 0.0000 0.0000
# 3 58.6520 58.1333 147.8436 0.0000 0.0000 0.0000
# 4 0.0000 0.0000 0.0000 20.6687 0.0000 0.0000
# 5 0.0000 0.0000 0.0000 0.0000 28.9169 0.0000
# 6 0.0000 0.0000 0.0000 0.0000 0.0000 11.7826
#
#
#
# Elastic Compliance Matrix: (Units=1/GPa)
#
#
# Indices 1 2 3 4 5 6 
#
# 1 0.017371 -0.006635 -0.004283 0.000000 0.000000 0.000000
# 2 -0.006635 0.037867 -0.012257 0.000000 0.000000 0.000000
# 3 -0.004283 -0.012257 0.013283 0.000000 0.000000 0.000000
# 4 0.000000 0.000000 0.000000 0.048382 0.000000 0.000000
# 5 0.000000 0.000000 0.000000 0.000000 0.034582 0.000000
# 6 0.000000 0.000000 0.000000 0.000000 0.000000 0.084871
#
#
# Mechanical properties :
#
#
# Convention : Reuss Voigt Hill
#
# Bulk Modulus (GPa) = 45.10360 65.03124 55.06742
# Shear Modulus (GPa) = 17.23568 21.16094 19.19831
#
# Velocity S-wave (km/s) = 3.21412 3.56135 3.39218
# Velocity P-wave (km/s) = 6.38810 7.47587 6.95329
#
# Compressibility (1/GPa) = 0.02217118
#
# Stress axis : x y z
#
# Youngs Moduli (GPa) = 57.56557 26.40852 75.28610
#
# Poissons Ratio (x) = 0.17521 0.32243
# Poissons Ratio (y) = 0.38192 0.92281
# Poissons Ratio (z) = 0.24654 0.32370
#
# Static dielectric constant tensor:
#      x y z
#    x 1.543790 0.000000 0.000000 
#    y 0.000000 1.595040 0.000000 
#    z 0.000000 0.000000 1.575640 
# 
# From -- ./inp_files/11731.got.cif
#   From: 2010.05.17/outbox.cif.g08.bks.cpg/sg59_6_cif.got.tgz:11731.got - 2010.06.03 14:40:33.
