data_PCOD9448321
_publ_section_title
;
Structure prediction by ZEFSAII (Michael W. Deem and Ramdas Pophale) SiO2 
 PCOD9448321
Probable space group: P M M N
;
_chemical_formula_sum "Si O2"
_cell_formula_units_Z 64
_cell_length_a 8.721643
_cell_length_b 18.156620
_cell_length_c 22.883629
_cell_angle_alpha 90.000000
_cell_angle_beta 90.000000
_cell_angle_gamma 90.000000
_cell_volume 3623.749833
_symmetry_space_group_name_H-M "P M M N"
_symmetry_group_IT_number 59
_space_group.IT_coordinate_system_code '2'
_symmetry_cell_setting 'orthorhombic'
loop_
_space_group_symop_operation_xyz
x,y,z
1/2-x,1/2-y,z
1/2+x,-y,-z
-x,1/2+y,-z
-x,-y,-z
1/2+x,1/2+y,-z
1/2-x,y,z
x,1/2-y,z
loop_
_atom_site_type_symbol
_atom_site_label
_atom_site_fract_x
_atom_site_fract_y
_atom_site_fract_z
Si Si1 0.934429 0.832350 0.704700
Si Si2 0.068288 0.027015 0.609915
Si Si3 0.933232 0.030129 0.861418
Si Si4 0.567968 0.015865 0.257868
Si Si5 0.068349 0.376780 0.427694
Si Si6 0.436409 0.667071 0.057794
Si Si7 0.433808 0.936558 0.957869
Si Si8 0.068271 0.832881 0.451178
O O1 0.750000 0.839060 0.710176
O O2 0.979821 0.750000 0.722971
O O3 0.970313 0.842847 0.635678
O O4 0.012028 0.899527 0.738426
O O5 0.250000 0.014306 0.602363
O O6 0.020954 0.105343 0.584719
O O7 0.031861 0.018698 0.678676
O O8 0.976714 0.962588 0.576866
O O9 0.750000 0.028130 0.864904
O O10 0.985914 0.104339 0.895725
O O11 0.987740 0.026003 0.795113
O O12 0.998677 0.958663 0.895476
O O13 0.750000 0.013811 0.249601
O O14 0.250000 0.368259 0.437157
O O15 0.978519 0.341456 0.481136
O O16 0.250000 0.668287 0.060524
O O17 0.491698 0.750000 0.068820
O O18 0.476043 0.637863 0.992615
O O19 0.250000 0.940967 0.955588
O O20 0.500000 0.000000 0.000000
O O21 0.250000 0.844572 0.445120
O O22 0.030999 0.750000 0.431918
#
# Coordination Sequence:
#
# PCOD9448321 Si02
#       8
#     8   8   8   8   8   8   8   8
#     4   9  18  33  53  77 103 130 163 206 255 306
#     4  10  21  37  55  74  99 133 172 214 260 309
#     4  10  19  32  53  76 101 136 173 211 253 300
#     4  10  21  36  54  75 100 134 175 214 251 299
#     4  10  19  33  55  79 103 131 164 204 256 318
#     4   8  15  29  50  77 104 130 165 208 252 295
#     4   9  16  28  49  74 101 131 162 200 245 296
#     4  11  23  36  51  74 103 133 168 212 260 311
#
# _framework density 17.661263999999999
#
# number of rings (size 3 to 8) (size 9 to 14) (size 15 to 20)
#    0.000    2.375    0.000    3.750    0.000    3.750 
#    0.000    1.250    0.000   18.000    0.000    0.000 
#    0.000    0.000    0.000    0.000    0.000    0.000 
#
# Total GULP energy -356934.942820 kJ/mol
# GULP energy per Si atom -5577.108482 kJ/mol
# Density = 1.762107 g / cm^3
# Si number density = 17.661264 Si / 1000 Ang^3
#
#
#
# Elastic Constant Matrix: (Units=GPa)
#
#
# Indices 1 2 3 4 5 6 
#
# 1 25.5434 13.5153 13.3809 0.0000 0.0000 0.0000
# 2 13.5153 94.4240 27.0879 0.0000 0.0000 0.0000
# 3 13.3809 27.0879 46.3074 0.0000 0.0000 0.0000
# 4 0.0000 0.0000 0.0000 17.0842 0.0000 0.0000
# 5 0.0000 0.0000 0.0000 0.0000 30.3462 0.0000
# 6 0.0000 0.0000 0.0000 0.0000 0.0000 20.8762
#
#
#
# Elastic Compliance Matrix: (Units=1/GPa)
#
#
# Indices 1 2 3 4 5 6 
#
# 1 0.047025 -0.003404 -0.011597 0.000000 0.000000 0.000000
# 2 -0.003404 0.012972 -0.006605 0.000000 0.000000 0.000000
# 3 -0.011597 -0.006605 0.028809 0.000000 0.000000 0.000000
# 4 0.000000 0.000000 0.000000 0.058533 0.000000 0.000000
# 5 0.000000 0.000000 0.000000 0.000000 0.032953 0.000000
# 6 0.000000 0.000000 0.000000 0.000000 0.000000 0.047901
#
#
# Mechanical properties :
#
#
# Convention : Reuss Voigt Hill
#
# Bulk Modulus (GPa) = 21.93205 30.47145 26.20175
# Shear Modulus (GPa) = 17.44559 21.14739 19.29649
#
# Velocity S-wave (km/s) = 3.14632 3.46408 3.30902
# Velocity P-wave (km/s) = 5.06401 5.76980 5.42839
#
# Compressibility (1/GPa) = 0.04559538
#
# Stress axis : x y z
#
# Youngs Moduli (GPa) = 21.26515 77.08618 34.71084
#
# Poissons Ratio (x) = 0.26240 0.40255
# Poissons Ratio (y) = 0.07239 0.22926
# Poissons Ratio (z) = 0.24662 0.50914
#
# Static dielectric constant tensor:
#      x y z
#    x 1.589890 0.000000 0.000000 
#    y 0.000000 1.607490 0.000000 
#    z 0.000000 0.000000 1.574200 
# 
# From -- ./inp_files/29482.got.cif
#   From: 2010.05.17/outbox.cif.g08.bks.cpg/sg59_15_cif.got.tgz:29482.got - 2010.06.03 14:40:33.
