data_PCOD9448685
_publ_section_title
;
Structure prediction by ZEFSAII (Michael W. Deem and Ramdas Pophale) SiO2 
 PCOD9448685
Probable space group: P M M N
;
_chemical_formula_sum "Si O2"
_cell_formula_units_Z 64
_cell_length_a 8.685183
_cell_length_b 16.228324
_cell_length_c 23.656495
_cell_angle_alpha 90.000000
_cell_angle_beta 90.000000
_cell_angle_gamma 90.000000
_cell_volume 3334.287486
_symmetry_space_group_name_H-M "P M M N"
_symmetry_group_IT_number 59
_space_group.IT_coordinate_system_code '2'
_symmetry_cell_setting 'orthorhombic'
loop_
_space_group_symop_operation_xyz
x,y,z
1/2-x,1/2-y,z
1/2+x,-y,-z
-x,1/2+y,-z
-x,-y,-z
1/2+x,1/2+y,-z
1/2-x,y,z
x,1/2-y,z
loop_
_atom_site_type_symbol
_atom_site_label
_atom_site_fract_x
_atom_site_fract_y
_atom_site_fract_z
Si Si1 0.428144 0.924185 0.581108
Si Si2 0.564133 0.157672 0.079577
Si Si3 0.435563 0.156532 0.953320
Si Si4 0.565886 0.489853 0.743974
Si Si5 0.075717 0.345007 0.523780
Si Si6 0.436056 0.486113 0.866273
Si Si7 0.067022 0.841128 0.697098
Si Si8 0.430087 0.913965 0.371533
O O1 0.250000 0.950823 0.585502
O O2 0.465798 0.893122 0.518921
O O3 0.451060 0.855481 0.629680
O O4 0.539693 0.998224 0.598242
O O5 0.750000 0.157517 0.080507
O O6 0.513551 0.250000 0.098331
O O7 0.512102 0.078066 0.115043
O O8 0.508521 0.146344 0.015191
O O9 0.250000 0.151907 0.958839
O O10 0.473289 0.250000 0.933566
O O11 0.484924 0.083910 0.911101
O O12 0.750000 0.488268 0.745538
O O13 0.497479 0.467050 0.804208
O O14 0.511883 0.582089 0.727607
O O15 0.516255 0.429640 0.692638
O O16 0.250000 0.376067 0.517406
O O17 0.071912 0.250000 0.507077
O O18 0.023283 0.353152 0.588458
O O19 0.250000 0.486384 0.865212
O O20 0.250000 0.845347 0.709255
O O21 0.011206 0.750000 0.712965
O O22 0.250000 0.893262 0.371672
#
# Coordination Sequence:
#
# PCOD9448685 Si02
#       8
#     8   8   8   8   8   8   8   8
#     4  10  19  33  55  80 105 133 167 206 252 311
#     4   9  18  32  51  78 110 141 172 206 249 304
#     4   9  18  33  53  78 106 136 173 216 262 310
#     4  10  22  37  53  75 101 133 176 220 259 302
#     4  11  23  36  52  77 105 131 164 209 260 313
#     4  10  20  34  53  76 105 141 176 214 260 310
#     4   9  18  33  53  76 103 137 173 208 252 308
#     4  10  21  38  56  73  99 135 172 212 259 308
#
# _framework density 19.194507000000002
#
# number of rings (size 3 to 8) (size 9 to 14) (size 15 to 20)
#    0.000    2.250    0.000    2.625    0.000    5.250 
#    0.000    1.875    0.000    2.250    0.000    0.000 
#    0.000    0.000    0.000    0.000    0.000    0.000 
#
# Total GULP energy -357070.359403 kJ/mol
# GULP energy per Si atom -5579.224366 kJ/mol
# Density = 1.915082 g / cm^3
# Si number density = 19.194507 Si / 1000 Ang^3
#
#
#
# Elastic Constant Matrix: (Units=GPa)
#
#
# Indices 1 2 3 4 5 6 
#
# 1 13.1756 -1.2991 3.9581 0.0000 0.0000 0.0000
# 2 -1.2991 36.4428 13.8693 0.0000 0.0000 0.0000
# 3 3.9581 13.8693 74.9237 0.0000 0.0000 0.0000
# 4 0.0000 0.0000 0.0000 10.4667 0.0000 0.0000
# 5 0.0000 0.0000 0.0000 0.0000 30.4605 0.0000
# 6 0.0000 0.0000 0.0000 0.0000 0.0000 16.7381
#
#
#
# Elastic Compliance Matrix: (Units=1/GPa)
#
#
# Indices 1 2 3 4 5 6 
#
# 1 0.077854 0.004669 -0.004977 0.000000 0.000000 0.000000
# 2 0.004669 0.029800 -0.005763 0.000000 0.000000 0.000000
# 3 -0.004977 -0.005763 0.014677 0.000000 0.000000 0.000000
# 4 0.000000 0.000000 0.000000 0.095541 0.000000 0.000000
# 5 0.000000 0.000000 0.000000 0.000000 0.032829 0.000000
# 6 0.000000 0.000000 0.000000 0.000000 0.000000 0.059744
#
#
# Mechanical properties :
#
#
# Convention : Reuss Voigt Hill
#
# Bulk Modulus (GPa) = 9.07534 17.51097 13.29315
# Shear Modulus (GPa) = 13.91534 18.73399 16.32466
#
# Velocity S-wave (km/s) = 2.69544 3.12750 2.91947
# Velocity P-wave (km/s) = 3.79810 4.71003 4.27843
#
# Compressibility (1/GPa) = 0.11018875
#
# Stress axis : x y z
#
# Youngs Moduli (GPa) = 12.84460 33.55706 68.13542
#
# Poissons Ratio (x) = -0.15669 0.33913
# Poissons Ratio (y) = -0.05998 0.39267
# Poissons Ratio (z) = 0.06393 0.19339
#
# Static dielectric constant tensor:
#      x y z
#    x 1.647250 0.000000 0.000000 
#    y 0.000000 1.690800 0.000000 
#    z 0.000000 0.000000 1.656240 
# 
# From -- ./inp_files/29564.got.cif
#   From: 2010.05.17/outbox.cif.g08.bks.cpg/sg59_15_cif.got.tgz:29564.got - 2010.06.03 14:40:33.
