data_PCOD9448902
_publ_section_title
;
Structure prediction by ZEFSAII (Michael W. Deem and Ramdas Pophale) SiO2 
 PCOD9448902
Probable space group: P M M N
;
_chemical_formula_sum "Si O2"
_cell_formula_units_Z 56
_cell_length_a 7.868580
_cell_length_b 22.931904
_cell_length_c 15.426921
_cell_angle_alpha 90.000000
_cell_angle_beta 90.000000
_cell_angle_gamma 90.000000
_cell_volume 2783.657092
_symmetry_space_group_name_H-M "P M M N"
_symmetry_group_IT_number 59
_space_group.IT_coordinate_system_code '2'
_symmetry_cell_setting 'orthorhombic'
loop_
_space_group_symop_operation_xyz
x,y,z
1/2-x,1/2-y,z
1/2+x,-y,-z
-x,1/2+y,-z
-x,-y,-z
1/2+x,1/2+y,-z
1/2-x,y,z
x,1/2-y,z
loop_
_atom_site_type_symbol
_atom_site_label
_atom_site_fract_x
_atom_site_fract_y
_atom_site_fract_z
Si Si1 0.044360 0.944901 0.605961
Si Si2 0.945244 0.654448 0.111287
Si Si3 0.041321 0.314624 0.699429
Si Si4 0.055772 0.972806 0.091444
Si Si5 0.044110 0.184528 0.079774
Si Si6 0.049215 0.920596 0.795192
Si Si7 0.951471 0.577340 0.414946
O O1 0.250000 0.945559 0.600600
O O2 0.994045 0.914416 0.695545
O O3 0.980126 0.916171 0.517613
O O4 0.982771 0.012486 0.608243
O O5 0.750000 0.675073 0.109789
O O6 0.018918 0.677324 0.201353
O O7 0.949556 0.584326 0.113870
O O8 0.019232 0.672870 0.018426
O O9 0.250000 0.316795 0.700345
O O10 0.993539 0.250000 0.668107
O O11 0.980768 0.368662 0.640928
O O12 0.250000 0.953602 0.084411
O O13 0.037908 0.023578 0.161510
O O14 0.000000 0.000000 0.000000
O O15 0.250000 0.180408 0.077978
O O16 0.996666 0.250000 0.105781
O O17 0.982572 0.135455 0.145590
O O18 0.250000 0.933157 0.795272
O O19 0.750000 0.575292 0.398457
#
# Coordination Sequence:
#
# PCOD9448902 Si02
#       7
#     8   8   8   8   8   8   8
#     4   9  19  35  55  79 106 138 176 221 277 333
#     4  10  19  34  56  80 110 146 183 223 269 326
#     4   9  17  31  54  83 112 144 182 222 270 329
#     4  12  23  35  53  80 112 144 179 225 274 322
#     4  10  21  36  54  77 107 145 187 227 266 315
#     4  11  22  37  57  80 109 145 182 224 273 325
#     4   9  17  32  55  81 107 136 174 222 270 324
#
# _framework density 20.117419000000002
#
# number of rings (size 3 to 8) (size 9 to 14) (size 15 to 20)
#    0.000    2.000    1.429    3.000    0.000    5.429 
#    0.000    4.286    0.000    5.143    0.000    0.000 
#    0.000    0.000    0.000    0.000    0.000    0.000 
#
# Total GULP energy -312696.563368 kJ/mol
# GULP energy per Si atom -5583.867203 kJ/mol
# Density = 2.007163 g / cm^3
# Si number density = 20.117419 Si / 1000 Ang^3
#
#
#
# Elastic Constant Matrix: (Units=GPa)
#
#
# Indices 1 2 3 4 5 6 
#
# 1 32.4016 -4.1525 -1.5907 0.0000 0.0000 0.0000
# 2 -4.1525 92.8210 46.6874 0.0000 0.0000 0.0000
# 3 -1.5907 46.6874 127.3502 0.0000 0.0000 0.0000
# 4 0.0000 0.0000 0.0000 16.5642 0.0000 0.0000
# 5 0.0000 0.0000 0.0000 0.0000 21.6022 0.0000
# 6 0.0000 0.0000 0.0000 0.0000 0.0000 15.6191
#
#
#
# Elastic Compliance Matrix: (Units=1/GPa)
#
#
# Indices 1 2 3 4 5 6 
#
# 1 0.031043 0.001464 -0.000149 0.000000 0.000000 0.000000
# 2 0.001464 0.013278 -0.004850 0.000000 0.000000 0.000000
# 3 -0.000149 -0.004850 0.009628 0.000000 0.000000 0.000000
# 4 0.000000 0.000000 0.000000 0.060371 0.000000 0.000000
# 5 0.000000 0.000000 0.000000 0.000000 0.046291 0.000000
# 6 0.000000 0.000000 0.000000 0.000000 0.000000 0.064024
#
#
# Mechanical properties :
#
#
# Convention : Reuss Voigt Hill
#
# Bulk Modulus (GPa) = 21.33109 37.16234 29.24671
# Shear Modulus (GPa) = 20.21569 24.86568 22.54068
#
# Velocity S-wave (km/s) = 3.17343 3.51953 3.35095
# Velocity P-wave (km/s) = 4.90447 5.91853 5.43520
#
# Compressibility (1/GPa) = 0.04687993
#
# Stress axis : x y z
#
# Youngs Moduli (GPa) = 32.21346 75.31173 103.85959
#
# Poissons Ratio (x) = -0.11023 0.01546
# Poissons Ratio (y) = -0.04715 0.50367
# Poissons Ratio (z) = 0.00479 0.36523
#
# Static dielectric constant tensor:
#      x y z
#    x 1.750010 0.000000 0.000000 
#    y 0.000000 1.861720 0.000000 
#    z 0.000000 0.000000 1.705650 
# 
# From -- ./inp_files/20897.got.cif
#   From: 2010.05.17/outbox.cif.g08.bks.cpg/sg59_11_cif.got.tgz:20897.got - 2010.06.03 14:40:33.
