data_PCOD9448788
_publ_section_title
;
Structure prediction by ZEFSAII (Michael W. Deem and Ramdas Pophale) SiO2 
 PCOD9448788
Probable space group: P M M N
;
_chemical_formula_sum "Si O2"
_cell_formula_units_Z 64
_cell_length_a 26.120150
_cell_length_b 16.749276
_cell_length_c 9.632156
_cell_angle_alpha 90.000000
_cell_angle_beta 90.000000
_cell_angle_gamma 90.000000
_cell_volume 4214.006619
_symmetry_space_group_name_H-M "P M M N"
_symmetry_group_IT_number 59
_space_group.IT_coordinate_system_code '2'
_symmetry_cell_setting 'orthorhombic'
loop_
_space_group_symop_operation_xyz
x,y,z
1/2-x,1/2-y,z
1/2+x,-y,-z
-x,1/2+y,-z
-x,-y,-z
1/2+x,1/2+y,-z
1/2-x,y,z
x,1/2-y,z
loop_
_atom_site_type_symbol
_atom_site_label
_atom_site_fract_x
_atom_site_fract_y
_atom_site_fract_z
Si Si1 0.529604 0.430673 0.679004
Si Si2 0.607900 0.572176 0.049096
Si Si3 0.455277 0.560489 0.823136
Si Si4 0.189314 0.154625 0.451868
Si Si5 0.998745 0.343740 0.396666
Si Si6 0.899869 0.571686 0.716153
Si Si7 0.810863 0.842636 0.224528
Si Si8 0.995819 0.658308 0.070946
O O1 0.489236 0.493651 0.744694
O O2 0.510175 0.395182 0.535047
O O3 0.580949 0.483555 0.668940
O O4 0.529014 0.360429 0.792384
O O5 0.592511 0.486821 0.114879
O O6 0.659641 0.602881 0.116656
O O7 0.563238 0.634402 0.094673
O O8 0.607018 0.570056 0.882362
O O9 0.453857 0.630927 0.710729
O O10 0.485088 0.597697 0.953166
O O11 0.250000 0.138291 0.430153
O O12 0.181982 0.250000 0.428072
O O13 0.151081 0.103880 0.357359
O O14 0.176862 0.139010 0.614255
O O15 0.998894 0.250000 0.424857
O O16 0.053010 0.369747 0.327710
O O17 0.750000 0.849753 0.209884
O O18 0.824609 0.750000 0.200516
O O19 0.000040 0.750000 0.028280
#
# Coordination Sequence:
#
# PCOD9448788 Si02
#       8
#     8   8   8   8   8   8   8   8
#     4  10  20  34  45  69 100 133 165 205 244 286
#     4  11  20  32  50  72  97 132 169 196 242 293
#     4  10  19  34  47  68 100 133 163 201 244 284
#     4   9  20  36  51  70  97 128 164 205 244 283
#     4  11  22  32  47  73 101 132 170 206 240 288
#     4  11  20  33  49  70  99 133 166 201 242 288
#     4   9  20  36  51  71  98 127 164 207 244 285
#     4  11  19  31  49  70 101 135 167 199 237 291
#
# _framework density 15.187447000000001
#
# number of rings (size 3 to 8) (size 9 to 14) (size 15 to 20)
#    0.000    1.750    3.750    4.500    5.250    2.000 
#    0.000    1.250    0.000    0.000    0.000    0.000 
#    0.000    6.000    0.000    0.000    0.000    0.000 
#
# Total GULP energy -356647.769320 kJ/mol
# GULP energy per Si atom -5572.621396 kJ/mol
# Density = 1.515288 g / cm^3
# Si number density = 15.187447 Si / 1000 Ang^3
#
#
#
# Elastic Constant Matrix: (Units=GPa)
#
#
# Indices 1 2 3 4 5 6 
#
# 1 43.8694 24.5966 37.4028 0.0000 0.0000 0.0000
# 2 24.5966 63.6438 28.6066 0.0000 0.0000 0.0000
# 3 37.4028 28.6066 93.8490 0.0000 0.0000 0.0000
# 4 0.0000 0.0000 0.0000 25.5658 0.0000 0.0000
# 5 0.0000 0.0000 0.0000 0.0000 27.8803 0.0000
# 6 0.0000 0.0000 0.0000 0.0000 0.0000 26.3056
#
#
#
# Elastic Compliance Matrix: (Units=1/GPa)
#
#
# Indices 1 2 3 4 5 6 
#
# 1 0.038771 -0.009315 -0.012613 0.000000 0.000000 0.000000
# 2 -0.009315 0.020445 -0.002520 0.000000 0.000000 0.000000
# 3 -0.012613 -0.002520 0.016450 0.000000 0.000000 0.000000
# 4 0.000000 0.000000 0.000000 0.039115 0.000000 0.000000
# 5 0.000000 0.000000 0.000000 0.000000 0.035868 0.000000
# 6 0.000000 0.000000 0.000000 0.000000 0.000000 0.038015
#
#
# Mechanical properties :
#
#
# Convention : Reuss Voigt Hill
#
# Bulk Modulus (GPa) = 37.35250 42.50826 39.93038
# Shear Modulus (GPa) = 20.28555 23.33407 21.80981
#
# Velocity S-wave (km/s) = 3.65866 3.92395 3.79363
# Velocity P-wave (km/s) = 6.51885 6.96991 6.74815
#
# Compressibility (1/GPa) = 0.02677197
#
# Stress axis : x y z
#
# Youngs Moduli (GPa) = 25.79254 48.91200 60.79012
#
# Poissons Ratio (x) = 0.45561 0.76672
# Poissons Ratio (y) = 0.24025 0.15316
# Poissons Ratio (z) = 0.32531 0.12324
#
# Static dielectric constant tensor:
#      x y z
#    x 1.493390 0.000000 0.000000 
#    y 0.000000 1.522910 0.000000 
#    z 0.000000 0.000000 1.537630 
# 
# From -- ./inp_files/12703.got.cif
#   From: 2010.05.17/outbox.cif.g08.bks.cpg/sg59_7_cif.got.tgz:12703.got - 2010.06.03 14:40:33.
