data_PCOD9448836
_publ_section_title
;
Structure prediction by ZEFSAII (Michael W. Deem and Ramdas Pophale) SiO2 
 PCOD9448836
Probable space group: P M M N
;
_chemical_formula_sum "Si O2"
_cell_formula_units_Z 56
_cell_length_a 20.712503
_cell_length_b 9.097015
_cell_length_c 15.660320
_cell_angle_alpha 90.000000
_cell_angle_beta 90.000000
_cell_angle_gamma 90.000000
_cell_volume 2950.748040
_symmetry_space_group_name_H-M "P M M N"
_symmetry_group_IT_number 59
_space_group.IT_coordinate_system_code '2'
_symmetry_cell_setting 'orthorhombic'
loop_
_space_group_symop_operation_xyz
x,y,z
1/2-x,1/2-y,z
1/2+x,-y,-z
-x,1/2+y,-z
-x,-y,-z
1/2+x,1/2+y,-z
1/2-x,y,z
x,1/2-y,z
loop_
_atom_site_type_symbol
_atom_site_label
_atom_site_fract_x
_atom_site_fract_y
_atom_site_fract_z
Si Si1 0.177205 0.575902 0.991710
Si Si2 0.001752 0.081373 0.243586
Si Si3 0.147460 0.585187 0.795980
Si Si4 0.325981 0.090450 0.630328
Si Si5 0.175785 0.574733 0.462454
Si Si6 0.534669 0.427364 0.582940
Si Si7 0.052429 0.073523 0.063536
O O1 0.250000 0.544746 0.020799
O O2 0.163819 0.750000 0.005464
O O3 0.122615 0.478181 0.034026
O O4 0.173001 0.552622 0.889717
O O5 0.019647 0.250000 0.266019
O O6 0.929809 0.085973 0.205021
O O7 0.043079 0.028541 0.162597
O O8 0.003662 0.984921 0.328901
O O9 0.169614 0.750000 0.771555
O O10 0.165866 0.469765 0.724573
O O11 0.250000 0.106271 0.617510
O O12 0.357529 0.250000 0.617823
O O13 0.344251 0.974942 0.557931
O O14 0.250000 0.521208 0.442507
O O15 0.179425 0.750000 0.458820
O O16 0.111423 0.530198 0.410802
O O17 0.500000 0.500000 0.500000
O O18 0.530573 0.250000 0.575731
O O19 0.044667 0.250000 0.059320
O O20 0.000000 0.000000 0.000000
#
# Coordination Sequence:
#
# PCOD9448836 Si02
#       7
#     8   8   8   8   8   8   8
#     4  10  21  38  60  87 120 157 199 248 302 358
#     4  10  22  39  59  84 114 152 196 242 293 355
#     4  10  19  34  54  77 109 150 192 231 284 353
#     4  10  20  31  46  75 111 143 182 233 288 346
#     4   9  19  37  57  75 102 147 196 237 285 345
#     4  11  23  38  59  88 120 153 193 247 300 352
#     4  11  22  40  64  88 119 157 201 249 299 358
#
# _framework density 18.978238999999999
#
# number of rings (size 3 to 8) (size 9 to 14) (size 15 to 20)
#    0.000    1.857    1.429    2.571    0.000    8.571 
#    0.000    0.714    0.000    2.571    0.000    0.000 
#    0.000    0.000    0.000    0.000    0.000    0.000 
#
# Total GULP energy -312218.046036 kJ/mol
# GULP energy per Si atom -5575.322251 kJ/mol
# Density = 1.893504 g / cm^3
# Si number density = 18.978239 Si / 1000 Ang^3
#
#
#
# Elastic Constant Matrix: (Units=GPa)
#
#
# Indices 1 2 3 4 5 6 
#
# 1 93.4771 27.1436 26.9704 0.0000 0.0000 0.0000
# 2 27.1436 22.2586 23.8512 0.0000 0.0000 0.0000
# 3 26.9704 23.8512 72.2578 0.0000 0.0000 0.0000
# 4 0.0000 0.0000 0.0000 20.7841 0.0000 0.0000
# 5 0.0000 0.0000 0.0000 0.0000 29.4815 0.0000
# 6 0.0000 0.0000 0.0000 0.0000 0.0000 22.8803
#
#
#
# Elastic Compliance Matrix: (Units=1/GPa)
#
#
# Indices 1 2 3 4 5 6 
#
# 1 0.016589 -0.021035 0.000751 0.000000 0.000000 0.000000
# 2 -0.021035 0.096187 -0.023898 0.000000 0.000000 0.000000
# 3 0.000751 -0.023898 0.021447 0.000000 0.000000 0.000000
# 4 0.000000 0.000000 0.000000 0.048114 0.000000 0.000000
# 5 0.000000 0.000000 0.000000 0.000000 0.033920 0.000000
# 6 0.000000 0.000000 0.000000 0.000000 0.000000 0.043706
#
#
# Mechanical properties :
#
#
# Convention : Reuss Voigt Hill
#
# Bulk Modulus (GPa) = 21.80597 38.21377 30.00987
# Shear Modulus (GPa) = 13.75090 21.96440 17.85765
#
# Velocity S-wave (km/s) = 2.69469 3.40567 3.07083
# Velocity P-wave (km/s) = 4.60399 5.97027 5.33108
#
# Compressibility (1/GPa) = 0.04585900
#
# Stress axis : x y z
#
# Youngs Moduli (GPa) = 60.28048 10.39645 46.62581
#
# Poissons Ratio (x) = 0.21869 -0.03504
# Poissons Ratio (y) = 1.26801 1.11428
# Poissons Ratio (z) = -0.04530 0.24846
#
# Static dielectric constant tensor:
#      x y z
#    x 1.728050 0.000000 0.000000 
#    y 0.000000 1.675280 0.000000 
#    z 0.000000 0.000000 1.636500 
# 
# From -- ./inp_files/20970.got.cif
#   From: 2010.05.17/outbox.cif.g08.bks.cpg/sg59_11_cif.got.tgz:20970.got - 2010.06.03 14:40:33.
