data_PCOD9448280
_publ_section_title
;
Structure prediction by ZEFSAII (Michael W. Deem and Ramdas Pophale) SiO2 
 PCOD9448280
Probable space group: P M M N
;
_chemical_formula_sum "Si O2"
_cell_formula_units_Z 64
_cell_length_a 19.222664
_cell_length_b 17.772522
_cell_length_c 9.844846
_cell_angle_alpha 90.000000
_cell_angle_beta 90.000000
_cell_angle_gamma 90.000000
_cell_volume 3363.346118
_symmetry_space_group_name_H-M "P M M N"
_symmetry_group_IT_number 59
_space_group.IT_coordinate_system_code '2'
_symmetry_cell_setting 'orthorhombic'
loop_
_space_group_symop_operation_xyz
x,y,z
1/2-x,1/2-y,z
1/2+x,-y,-z
-x,1/2+y,-z
-x,-y,-z
1/2+x,1/2+y,-z
1/2-x,y,z
x,1/2-y,z
loop_
_atom_site_type_symbol
_atom_site_label
_atom_site_fract_x
_atom_site_fract_y
_atom_site_fract_z
Si Si1 0.531840 0.160369 0.779157
Si Si2 0.420630 0.161354 0.210873
Si Si3 0.388012 0.096510 0.724121
Si Si4 0.170195 0.531959 0.926950
Si Si5 0.331026 0.417150 0.425372
Si Si6 0.674225 0.835803 0.039117
Si Si7 0.329300 0.562926 0.241429
Si Si8 0.526319 0.082733 0.057553
O O1 0.530759 0.250000 0.753387
O O2 0.469566 0.114311 0.705526
O O3 0.607541 0.122801 0.752715
O O4 0.513294 0.141963 0.936455
O O5 0.437449 0.250000 0.203490
O O6 0.377393 0.142433 0.344118
O O7 0.486194 0.106957 0.192185
O O8 0.375338 0.136221 0.079621
O O9 0.353004 0.080517 0.581573
O O10 0.356116 0.165108 0.809642
O O11 0.363381 0.033714 0.834358
O O12 0.250000 0.547724 0.886478
O O13 0.108083 0.591230 0.911404
O O14 0.169778 0.524988 0.091173
O O15 0.250000 0.397230 0.412843
O O16 0.340607 0.497628 0.351703
O O17 0.750000 0.874216 0.037629
O O18 0.682958 0.750000 0.998020
O O19 0.250000 0.593456 0.258212
O O20 0.500000 0.000000 0.000000
#
# Coordination Sequence:
#
# PCOD9448280 Si02
#       8
#     8   8   8   8   8   8   8   8
#     4  11  22  37  61  93 125 156 199 252 303 360
#     4  11  22  37  57  83 117 157 198 241 296 357
#     4  12  22  35  58  85 121 153 195 244 300 345
#     4  10  20  36  61  87 114 149 192 243 297 356
#     4  11  24  39  58  86 123 161 203 250 297 352
#     4  10  19  32  52  77 107 148 193 231 281 350
#     4   9  21  41  63  89 119 157 202 251 301 353
#     4  11  19  36  61  89 117 150 196 250 298 348
#
# _framework density 19.028669000000001
#
# number of rings (size 3 to 8) (size 9 to 14) (size 15 to 20)
#    0.000    1.375    2.500    4.500    0.000    3.500 
#    0.000    0.000    0.000    1.125    0.000    0.000 
#    0.000    4.750    0.000    0.000    0.000    0.000 
#
# Total GULP energy -356336.871874 kJ/mol
# GULP energy per Si atom -5567.763623 kJ/mol
# Density = 1.898536 g / cm^3
# Si number density = 19.028669 Si / 1000 Ang^3
#
#
#
# Elastic Constant Matrix: (Units=GPa)
#
#
# Indices 1 2 3 4 5 6 
#
# 1 121.4906 26.1827 11.2724 0.0000 0.0000 0.0000
# 2 26.1827 48.5678 11.3496 0.0000 0.0000 0.0000
# 3 11.2724 11.3496 71.2593 0.0000 0.0000 0.0000
# 4 0.0000 0.0000 0.0000 3.9599 0.0000 0.0000
# 5 0.0000 0.0000 0.0000 0.0000 28.5584 0.0000
# 6 0.0000 0.0000 0.0000 0.0000 0.0000 20.6657
#
#
#
# Elastic Compliance Matrix: (Units=1/GPa)
#
#
# Indices 1 2 3 4 5 6 
#
# 1 0.009347 -0.004875 -0.000702 0.000000 0.000000 0.000000
# 2 -0.004875 0.023928 -0.003040 0.000000 0.000000 0.000000
# 3 -0.000702 -0.003040 0.014629 0.000000 0.000000 0.000000
# 4 0.000000 0.000000 0.000000 0.252534 0.000000 0.000000
# 5 0.000000 0.000000 0.000000 0.000000 0.035016 0.000000
# 6 0.000000 0.000000 0.000000 0.000000 0.000000 0.048389
#
#
# Mechanical properties :
#
#
# Convention : Reuss Voigt Hill
#
# Bulk Modulus (GPa) = 32.60542 37.65857 35.13199
# Shear Modulus (GPa) = 12.15660 23.47099 17.81379
#
# Velocity S-wave (km/s) = 2.53030 3.51587 3.06299
# Velocity P-wave (km/s) = 5.07037 6.02621 5.56883
#
# Compressibility (1/GPa) = 0.03066975
#
# Stress axis : x y z
#
# Youngs Moduli (GPa) = 106.98837 41.79185 68.35969
#
# Poissons Ratio (x) = 0.20372 0.04800
# Poissons Ratio (y) = 0.52154 0.20781
# Poissons Ratio (z) = 0.07512 0.12704
#
# Static dielectric constant tensor:
#      x y z
#    x 1.819790 0.000000 0.000000 
#    y 0.000000 1.783750 0.000000 
#    z 0.000000 0.000000 1.631860 
# 
# From -- ./inp_files/11629.got.cif
#   From: 2010.05.17/outbox.cif.g08.bks.cpg/sg59_6_cif.got.tgz:11629.got - 2010.06.03 14:40:33.
