data_PCOD9448717
_publ_section_title
;
Structure prediction by ZEFSAII (Michael W. Deem and Ramdas Pophale) SiO2 
 PCOD9448717
Probable space group: P M M N
;
_chemical_formula_sum "Si O2"
_cell_formula_units_Z 64
_cell_length_a 8.669241
_cell_length_b 19.576936
_cell_length_c 19.703157
_cell_angle_alpha 90.000000
_cell_angle_beta 90.000000
_cell_angle_gamma 90.000000
_cell_volume 3343.964169
_symmetry_space_group_name_H-M "P M M N"
_symmetry_group_IT_number 59
_space_group.IT_coordinate_system_code '2'
_symmetry_cell_setting 'orthorhombic'
loop_
_space_group_symop_operation_xyz
x,y,z
1/2-x,1/2-y,z
1/2+x,-y,-z
-x,1/2+y,-z
-x,-y,-z
1/2+x,1/2+y,-z
1/2-x,y,z
x,1/2-y,z
loop_
_atom_site_type_symbol
_atom_site_label
_atom_site_fract_x
_atom_site_fract_y
_atom_site_fract_z
Si Si1 0.934042 0.953141 0.710173
Si Si2 0.929708 0.167730 0.664841
Si Si3 0.434152 0.573841 0.076998
Si Si4 0.562429 0.173220 0.513769
Si Si5 0.068750 0.418491 0.783261
Si Si6 0.935922 0.586479 0.933303
Si Si7 0.561809 0.828647 0.800469
Si Si8 0.434609 0.542990 0.562868
O O1 0.750000 0.952373 0.705397
O O2 0.986370 0.879682 0.739734
O O3 0.001744 0.972538 0.637080
O O4 0.984220 0.011272 0.762892
O O5 0.750000 0.146312 0.672278
O O6 0.933644 0.250000 0.667593
O O7 0.984958 0.148695 0.588999
O O8 0.027274 0.134174 0.723807
O O9 0.250000 0.577723 0.079430
O O10 0.506246 0.605920 0.144259
O O11 0.479401 0.493065 0.078592
O O12 0.494974 0.604449 0.006545
O O13 0.750000 0.175426 0.516647
O O14 0.506481 0.250000 0.502595
O O15 0.519311 0.120643 0.455931
O O16 0.250000 0.430277 0.786593
O O17 0.750000 0.588954 0.936937
O O18 0.985075 0.635001 0.871281
O O19 0.750000 0.828044 0.800286
O O20 0.510063 0.750000 0.794898
O O21 0.500000 0.500000 0.500000
O O22 0.250000 0.536847 0.563189
#
# Coordination Sequence:
#
# PCOD9448717 Si02
#       8
#     8   8   8   8   8   8   8   8
#     4  11  22  38  57  81 114 151 192 236 286 344
#     4   9  18  35  59  83 108 143 184 227 283 346
#     4  10  19  33  55  82 110 145 184 228 280 334
#     4   8  16  33  56  78 102 138 181 221 270 335
#     4  12  23  35  55  83 114 149 190 236 281 333
#     4   9  17  33  55  82 109 141 185 232 280 333
#     4   9  18  35  59  84 113 151 194 240 292 345
#     4  11  22  36  56  84 114 147 184 233 288 340
#
# _framework density 19.138961999999999
#
# number of rings (size 3 to 8) (size 9 to 14) (size 15 to 20)
#    0.000    2.125    1.250    3.750    0.000    2.250 
#    0.000    1.250    0.000    7.875    0.000    0.000 
#    0.000    0.000    0.000    0.000    0.000    0.000 
#
# Total GULP energy -357212.095763 kJ/mol
# GULP energy per Si atom -5581.438996 kJ/mol
# Density = 1.909540 g / cm^3
# Si number density = 19.138962 Si / 1000 Ang^3
#
#
#
# Elastic Constant Matrix: (Units=GPa)
#
#
# Indices 1 2 3 4 5 6 
#
# 1 35.9706 9.0025 21.3190 0.0000 0.0000 0.0000
# 2 9.0025 43.8314 17.4776 0.0000 0.0000 0.0000
# 3 21.3190 17.4776 106.8561 0.0000 0.0000 0.0000
# 4 0.0000 0.0000 0.0000 27.8461 0.0000 0.0000
# 5 0.0000 0.0000 0.0000 0.0000 23.4179 0.0000
# 6 0.0000 0.0000 0.0000 0.0000 0.0000 14.2231
#
#
#
# Elastic Compliance Matrix: (Units=1/GPa)
#
#
# Indices 1 2 3 4 5 6 
#
# 1 0.032284 -0.004346 -0.005730 0.000000 0.000000 0.000000
# 2 -0.004346 0.024992 -0.003221 0.000000 0.000000 0.000000
# 3 -0.005730 -0.003221 0.011028 0.000000 0.000000 0.000000
# 4 0.000000 0.000000 0.000000 0.035912 0.000000 0.000000
# 5 0.000000 0.000000 0.000000 0.000000 0.042702 0.000000
# 6 0.000000 0.000000 0.000000 0.000000 0.000000 0.070308
#
#
# Mechanical properties :
#
#
# Convention : Reuss Voigt Hill
#
# Bulk Modulus (GPa) = 23.97468 31.36180 27.66824
# Shear Modulus (GPa) = 19.40063 22.35468 20.87765
#
# Velocity S-wave (km/s) = 3.18728 3.42134 3.30638
# Velocity P-wave (km/s) = 5.10870 5.65945 5.39111
#
# Compressibility (1/GPa) = 0.04171067
#
# Stress axis : x y z
#
# Youngs Moduli (GPa) = 30.97475 40.01359 90.67497
#
# Poissons Ratio (x) = 0.17390 0.51959
# Poissons Ratio (y) = 0.13461 0.29203
# Poissons Ratio (z) = 0.17749 0.12887
#
# Static dielectric constant tensor:
#      x y z
#    x 1.594470 0.000000 0.000000 
#    y 0.000000 1.683320 0.000000 
#    z 0.000000 0.000000 1.655450 
# 
# From -- ./inp_files/26294.got.cif
#   From: 2010.05.17/outbox.cif.g08.bks.cpg/sg59_14_cif.got.tgz:26294.got - 2010.06.03 14:40:33.
