data_PCOD9448838
_publ_section_title
;
Structure prediction by ZEFSAII (Michael W. Deem and Ramdas Pophale) SiO2 
 PCOD9448838
Probable space group: P M M N
;
_chemical_formula_sum "Si O2"
_cell_formula_units_Z 64
_cell_length_a 20.693905
_cell_length_b 8.507774
_cell_length_c 20.596734
_cell_angle_alpha 90.000000
_cell_angle_beta 90.000000
_cell_angle_gamma 90.000000
_cell_volume 3626.241770
_symmetry_space_group_name_H-M "P M M N"
_symmetry_group_IT_number 59
_space_group.IT_coordinate_system_code '2'
_symmetry_cell_setting 'orthorhombic'
loop_
_space_group_symop_operation_xyz
x,y,z
1/2-x,1/2-y,z
1/2+x,-y,-z
-x,1/2+y,-z
-x,-y,-z
1/2+x,1/2+y,-z
1/2-x,y,z
x,1/2-y,z
loop_
_atom_site_type_symbol
_atom_site_label
_atom_site_fract_x
_atom_site_fract_y
_atom_site_fract_z
Si Si1 0.937022 0.061288 0.311673
Si Si2 0.933294 0.438411 0.030594
Si Si3 0.455845 0.438193 0.829704
Si Si4 0.919879 0.061143 0.662605
Si Si5 0.823895 0.561751 0.553482
Si Si6 0.604399 0.059517 0.806093
Si Si7 0.177575 0.942252 0.068452
Si Si8 0.323555 0.939958 0.591553
O O1 0.939173 0.250000 0.311595
O O2 0.878168 0.008751 0.357671
O O3 0.928297 0.002444 0.237919
O O4 0.006264 0.998970 0.337066
O O5 0.935163 0.250000 0.029682
O O6 0.926300 0.496067 0.104288
O O7 0.874519 0.492021 0.984867
O O8 0.000000 0.500000 0.000000
O O9 0.451972 0.250000 0.829543
O O10 0.532050 0.482213 0.828991
O O11 0.921814 0.250000 0.662320
O O12 0.889350 0.007107 0.731706
O O13 0.876176 0.002922 0.603732
O O14 0.750000 0.511322 0.569918
O O15 0.825817 0.750000 0.554424
O O16 0.837136 0.503183 0.480514
O O17 0.607496 0.250000 0.805125
O O18 0.654537 0.004876 0.860130
O O19 0.250000 0.993999 0.054155
O O20 0.177088 0.750000 0.068921
O O21 0.250000 0.987935 0.609135
O O22 0.324800 0.750000 0.589233
#
# Coordination Sequence:
#
# PCOD9448838 Si02
#       8
#     8   8   8   8   8   8   8   8
#     4  10  20  35  56  83 111 138 172 223 278 323
#     4  11  20  32  54  80 103 137 179 219 268 317
#     4  10  19  34  54  78 106 137 177 220 259 316
#     4  10  20  33  53  80 111 145 180 219 265 323
#     4  10  21  36  54  77 107 143 184 229 274 322
#     4   8  15  29  48  73 100 129 170 213 255 305
#     4   9  17  30  49  75 105 134 172 221 264 308
#     4   9  19  37  59  80 104 138 182 227 272 329
#
# _framework density 17.649125999999999
#
# number of rings (size 3 to 8) (size 9 to 14) (size 15 to 20)
#    0.000    2.375    1.250    2.625    0.000    2.750 
#    0.000    1.875    0.000    5.250    0.000    0.000 
#    0.000    0.000    0.000    0.000    0.000    0.000 
#
# Total GULP energy -356979.126632 kJ/mol
# GULP energy per Si atom -5577.798854 kJ/mol
# Density = 1.760896 g / cm^3
# Si number density = 17.649126 Si / 1000 Ang^3
#
#
#
# Elastic Constant Matrix: (Units=GPa)
#
#
# Indices 1 2 3 4 5 6 
#
# 1 141.0482 30.3348 117.5759 0.0000 0.0000 0.0000
# 2 30.3348 33.5432 33.7355 0.0000 0.0000 0.0000
# 3 117.5759 33.7355 158.6282 0.0000 0.0000 0.0000
# 4 0.0000 0.0000 0.0000 27.0726 0.0000 0.0000
# 5 0.0000 0.0000 0.0000 0.0000 31.4454 0.0000
# 6 0.0000 0.0000 0.0000 0.0000 0.0000 17.8064
#
#
#
# Elastic Compliance Matrix: (Units=1/GPa)
#
#
# Indices 1 2 3 4 5 6 
#
# 1 0.018931 -0.003827 -0.013218 0.000000 0.000000 0.000000
# 2 -0.003827 0.038697 -0.005394 0.000000 0.000000 0.000000
# 3 -0.013218 -0.005394 0.017248 0.000000 0.000000 0.000000
# 4 0.000000 0.000000 0.000000 0.036938 0.000000 0.000000
# 5 0.000000 0.000000 0.000000 0.000000 0.031801 0.000000
# 6 0.000000 0.000000 0.000000 0.000000 0.000000 0.056160
#
#
# Mechanical properties :
#
#
# Convention : Reuss Voigt Hill
#
# Bulk Modulus (GPa) = 33.33266 77.39024 55.36145
# Shear Modulus (GPa) = 19.63466 25.36977 22.50221
#
# Velocity S-wave (km/s) = 3.33904 3.79549 3.57455
# Velocity P-wave (km/s) = 5.81316 7.94683 6.96222
#
# Compressibility (1/GPa) = 0.03000060
#
# Stress axis : x y z
#
# Youngs Moduli (GPa) = 52.82309 25.84157 57.97656
#
# Poissons Ratio (x) = 0.09888 0.76634
# Poissons Ratio (y) = 0.20213 0.31270
# Poissons Ratio (z) = 0.69822 0.13938
#
# Static dielectric constant tensor:
#      x y z
#    x 1.590200 0.000000 0.000000 
#    y 0.000000 1.606190 0.000000 
#    z 0.000000 0.000000 1.592540 
# 
# From -- ./inp_files/28184.got.cif
#   From: 2010.05.17/outbox.cif.g08.bks.cpg/sg59_15_cif.got.tgz:28184.got - 2010.06.03 14:40:33.
