data_PCOD9448055
_publ_section_title
;
Structure prediction by ZEFSAII (Michael W. Deem and Ramdas Pophale) SiO2 
 PCOD9448055
Probable space group: P M M N
;
_chemical_formula_sum "Si O2"
_cell_formula_units_Z 64
_cell_length_a 9.585282
_cell_length_b 19.196508
_cell_length_c 19.415219
_cell_angle_alpha 90.000000
_cell_angle_beta 90.000000
_cell_angle_gamma 90.000000
_cell_volume 3572.476842
_symmetry_space_group_name_H-M "P M M N"
_symmetry_group_IT_number 59
_space_group.IT_coordinate_system_code '2'
_symmetry_cell_setting 'orthorhombic'
loop_
_space_group_symop_operation_xyz
x,y,z
1/2-x,1/2-y,z
1/2+x,-y,-z
-x,1/2+y,-z
-x,-y,-z
1/2+x,1/2+y,-z
1/2-x,y,z
x,1/2-y,z
loop_
_atom_site_type_symbol
_atom_site_label
_atom_site_fract_x
_atom_site_fract_y
_atom_site_fract_z
Si Si1 0.084586 0.943795 0.714761
Si Si2 0.088591 0.166323 0.654303
Si Si3 0.412895 0.577368 0.074172
Si Si4 0.586685 0.170574 0.522377
Si Si5 0.084825 0.412768 0.791868
Si Si6 0.912553 0.590216 0.940169
Si Si7 0.582979 0.832036 0.797425
Si Si8 0.414157 0.537948 0.559768
O O1 0.250000 0.927581 0.710578
O O2 0.041932 0.971100 0.638882
O O3 0.998874 0.877820 0.741420
O O4 0.066739 0.007157 0.768231
O O5 0.250000 0.145688 0.643915
O O6 0.081162 0.250000 0.659069
O O7 0.042602 0.132924 0.725877
O O8 0.000331 0.144942 0.588018
O O9 0.250000 0.595431 0.075190
O O10 0.494453 0.602800 0.141363
O O11 0.423356 0.492660 0.074738
O O12 0.488248 0.603586 0.005052
O O13 0.750000 0.170006 0.541167
O O14 0.545374 0.250000 0.507059
O O15 0.569916 0.119633 0.458398
O O16 0.250000 0.401477 0.805006
O O17 0.750000 0.604219 0.957563
O O18 0.948851 0.634678 0.872517
O O19 0.750000 0.839471 0.787360
O O20 0.548831 0.750000 0.795282
O O21 0.500000 0.500000 0.500000
O O22 0.250000 0.519500 0.553820
#
# Coordination Sequence:
#
# PCOD9448055 Si02
#       8
#     8   8   8   8   8   8   8   8
#     4  10  21  35  53  78 108 141 181 221 266 320
#     4   9  18  33  53  76 102 134 173 215 260 313
#     4  10  19  31  53  80 103 133 172 214 258 306
#     4   9  18  33  52  73  99 134 174 214 261 317
#     4  10  19  32  51  76 106 139 173 215 262 312
#     4   9  18  34  53  76 104 134 170 214 261 309
#     4  10  21  38  58  80 109 144 182 224 270 319
#     4  10  21  36  54  79 108 140 176 222 273 319
#
# _framework density 17.914740999999999
#
# number of rings (size 3 to 8) (size 9 to 14) (size 15 to 20)
#    0.000    2.375    1.250    1.125    0.000    4.250 
#    0.000    1.875    0.000    5.250    0.000    0.000 
#    0.000    0.000    0.000    0.000    0.000    0.000 
#
# Total GULP energy -357001.293228 kJ/mol
# GULP energy per Si atom -5578.145207 kJ/mol
# Density = 1.787397 g / cm^3
# Si number density = 17.914741 Si / 1000 Ang^3
#
#
#
# Elastic Constant Matrix: (Units=GPa)
#
#
# Indices 1 2 3 4 5 6 
#
# 1 43.5471 14.8519 46.0185 0.0000 0.0000 0.0000
# 2 14.8519 39.3939 14.9130 0.0000 0.0000 0.0000
# 3 46.0185 14.9130 93.8141 0.0000 0.0000 0.0000
# 4 0.0000 0.0000 0.0000 28.7202 0.0000 0.0000
# 5 0.0000 0.0000 0.0000 0.0000 32.7997 0.0000
# 6 0.0000 0.0000 0.0000 0.0000 0.0000 21.8457
#
#
#
# Elastic Compliance Matrix: (Units=1/GPa)
#
#
# Indices 1 2 3 4 5 6 
#
# 1 0.051442 -0.010472 -0.023569 0.000000 0.000000 0.000000
# 2 -0.010472 0.029142 0.000504 0.000000 0.000000 0.000000
# 3 -0.023569 0.000504 0.022140 0.000000 0.000000 0.000000
# 4 0.000000 0.000000 0.000000 0.034819 0.000000 0.000000
# 5 0.000000 0.000000 0.000000 0.000000 0.030488 0.000000
# 6 0.000000 0.000000 0.000000 0.000000 0.000000 0.045776
#
#
# Mechanical properties :
#
#
# Convention : Reuss Voigt Hill
#
# Bulk Modulus (GPa) = 28.04983 36.48021 32.26502
# Shear Modulus (GPa) = 17.07866 23.40456 20.24161
#
# Velocity S-wave (km/s) = 3.09095 3.61839 3.36502
# Velocity P-wave (km/s) = 5.33198 6.15341 5.75737
#
# Compressibility (1/GPa) = 0.03565084
#
# Stress axis : x y z
#
# Youngs Moduli (GPa) = 19.43949 34.31504 45.16613
#
# Poissons Ratio (x) = 0.35934 1.06452
# Poissons Ratio (y) = 0.20357 -0.02278
# Poissons Ratio (z) = 0.45817 -0.01730
#
# Static dielectric constant tensor:
#      x y z
#    x 1.604920 0.000000 0.000000 
#    y 0.000000 1.626120 0.000000 
#    z 0.000000 0.000000 1.590340 
# 
# From -- ./inp_files/26297.got.cif
#   From: 2010.05.17/outbox.cif.g08.bks.cpg/sg59_14_cif.got.tgz:26297.got - 2010.06.03 14:40:33.
