data_PCOD9448961
_publ_section_title
;
Structure prediction by ZEFSAII (Michael W. Deem and Ramdas Pophale) SiO2 
 PCOD9448961
Probable space group: P M M N
;
_chemical_formula_sum "Si O2"
_cell_formula_units_Z 48
_cell_length_a 8.787289
_cell_length_b 16.176292
_cell_length_c 17.295830
_cell_angle_alpha 90.000000
_cell_angle_beta 90.000000
_cell_angle_gamma 90.000000
_cell_volume 2458.528775
_symmetry_space_group_name_H-M "P M M N"
_symmetry_group_IT_number 59
_space_group.IT_coordinate_system_code '2'
_symmetry_cell_setting 'orthorhombic'
loop_
_space_group_symop_operation_xyz
x,y,z
1/2-x,1/2-y,z
1/2+x,-y,-z
-x,1/2+y,-z
-x,-y,-z
1/2+x,1/2+y,-z
1/2-x,y,z
x,1/2-y,z
loop_
_atom_site_type_symbol
_atom_site_label
_atom_site_fract_x
_atom_site_fract_y
_atom_site_fract_z
Si Si1 0.929341 0.611847 0.330727
Si Si2 0.432780 0.343803 0.496247
Si Si3 0.431149 0.658137 0.172032
Si Si4 0.067145 0.499862 0.914333
Si Si5 0.064297 0.657344 0.812042
Si Si6 0.428183 0.582490 0.652757
O O1 0.750000 0.634625 0.323665
O O2 0.982840 0.634956 0.416795
O O3 0.940546 0.512969 0.323217
O O4 0.022456 0.652216 0.261890
O O5 0.250000 0.348566 0.497213
O O6 0.478900 0.250000 0.477711
O O7 0.492461 0.401695 0.428562
O O8 0.250000 0.648988 0.163641
O O9 0.474164 0.750000 0.143125
O O10 0.512669 0.582759 0.129080
O O11 0.250000 0.500640 0.916849
O O12 0.016767 0.582363 0.867713
O O13 0.000000 0.500000 0.000000
O O14 0.250000 0.655852 0.810989
O O15 0.017216 0.750000 0.835082
O O16 0.013502 0.637008 0.724404
O O17 0.250000 0.601275 0.642037
#
# Coordination Sequence:
#
# PCOD9448961 Si02
#       6
#     8   8   8   8   8   8
#     4  10  20  37  59  83 114 156 203 248 301 359
#     4  10  21  34  49  77 117 157 197 245 301 354
#     4  11  24  41  63  92 124 160 204 253 305 359
#     4  11  23  42  66  93 125 160 198 244 301 365
#     4   9  18  35  60  88 118 153 193 240 295 353
#     4  10  19  34  57  83 111 151 202 246 292 353
#
# _framework density 19.523872000000001
#
# number of rings (size 3 to 8) (size 9 to 14) (size 15 to 20)
#    0.000    1.833    1.667    2.500    0.000    5.000 
#    0.000    1.667    0.000    2.500    0.000    0.000 
#    0.000    0.000    0.000    0.000    0.000    0.000 
#
# Total GULP energy -268072.211463 kJ/mol
# GULP energy per Si atom -5584.837739 kJ/mol
# Density = 1.947943 g / cm^3
# Si number density = 19.523872 Si / 1000 Ang^3
#
#
#
# Elastic Constant Matrix: (Units=GPa)
#
#
# Indices 1 2 3 4 5 6 
#
# 1 26.7359 33.9454 22.5743 0.0000 0.0000 0.0000
# 2 33.9454 113.5240 53.2098 0.0000 0.0000 0.0000
# 3 22.5743 53.2098 113.0660 0.0000 0.0000 0.0000
# 4 0.0000 0.0000 0.0000 8.4685 0.0000 0.0000
# 5 0.0000 0.0000 0.0000 0.0000 34.6555 0.0000
# 6 0.0000 0.0000 0.0000 0.0000 0.0000 19.6152
#
#
#
# Elastic Compliance Matrix: (Units=1/GPa)
#
#
# Indices 1 2 3 4 5 6 
#
# 1 0.062182 -0.016389 -0.004702 0.000000 0.000000 0.000000
# 2 -0.016389 0.015621 -0.004079 0.000000 0.000000 0.000000
# 3 -0.004702 -0.004079 0.011703 0.000000 0.000000 0.000000
# 4 0.000000 0.000000 0.000000 0.118084 0.000000 0.000000
# 5 0.000000 0.000000 0.000000 0.000000 0.028855 0.000000
# 6 0.000000 0.000000 0.000000 0.000000 0.000000 0.050981
#
#
# Mechanical properties :
#
#
# Convention : Reuss Voigt Hill
#
# Bulk Modulus (GPa) = 25.53318 52.53165 39.03242
# Shear Modulus (GPa) = 14.25219 22.12094 18.18656
#
# Velocity S-wave (km/s) = 2.70476 3.36969 3.05537
# Velocity P-wave (km/s) = 4.78128 6.48880 5.69935
#
# Compressibility (1/GPa) = 0.03916472
#
# Stress axis : x y z
#
# Youngs Moduli (GPa) = 16.08186 64.01470 85.44871
#
# Poissons Ratio (x) = 1.04916 0.40178
# Poissons Ratio (y) = 0.26357 0.34857
# Poissons Ratio (z) = 0.07562 0.26114
#
# Static dielectric constant tensor:
#      x y z
#    x 1.615050 0.000000 0.000000 
#    y 0.000000 1.705250 0.000000 
#    z 0.000000 0.000000 1.667700 
# 
# From -- ./inp_files/25486.got.cif
#   From: 2010.05.17/outbox.cif.g08.bks.cpg/sg59_13_cif.got.tgz:25486.got - 2010.06.03 14:40:33.
