data_PCOD9448216
_publ_section_title
;
Structure prediction by ZEFSAII (Michael W. Deem and Ramdas Pophale) SiO2 
 PCOD9448216
Probable space group: P M M N
;
_chemical_formula_sum "Si O2"
_cell_formula_units_Z 64
_cell_length_a 8.760860
_cell_length_b 20.382307
_cell_length_c 20.276625
_cell_angle_alpha 90.000000
_cell_angle_beta 90.000000
_cell_angle_gamma 90.000000
_cell_volume 3620.726731
_symmetry_space_group_name_H-M "P M M N"
_symmetry_group_IT_number 59
_space_group.IT_coordinate_system_code '2'
_symmetry_cell_setting 'orthorhombic'
loop_
_space_group_symop_operation_xyz
x,y,z
1/2-x,1/2-y,z
1/2+x,-y,-z
-x,1/2+y,-z
-x,-y,-z
1/2+x,1/2+y,-z
1/2-x,y,z
x,1/2-y,z
loop_
_atom_site_type_symbol
_atom_site_label
_atom_site_fract_x
_atom_site_fract_y
_atom_site_fract_z
Si Si1 0.934545 0.082687 0.852203
Si Si2 0.932454 0.612676 0.386913
Si Si3 0.933025 0.825233 0.035625
Si Si4 0.932644 0.174453 0.110203
Si Si5 0.433480 0.069449 0.474950
Si Si6 0.567285 0.463541 0.342259
Si Si7 0.933377 0.940598 0.802268
Si Si8 0.566705 0.322235 0.735835
O O1 0.750000 0.085762 0.856207
O O2 0.985748 0.122549 0.787030
O O3 0.978085 0.006937 0.841995
O O4 0.002698 0.121100 0.914128
O O5 0.750000 0.619148 0.382017
O O6 0.973597 0.617375 0.464227
O O7 0.971941 0.539223 0.360881
O O8 0.010447 0.662323 0.337275
O O9 0.750000 0.828690 0.033866
O O10 0.976471 0.750000 0.055095
O O11 0.998842 0.836522 0.962615
O O12 0.750000 0.167524 0.107543
O O13 0.968264 0.250000 0.128608
O O14 0.001923 0.122549 0.160673
O O15 0.250000 0.065291 0.471057
O O16 0.502334 0.079742 0.402704
O O17 0.500000 0.000000 0.500000
O O18 0.750000 0.458347 0.340315
O O19 0.496850 0.446358 0.271854
O O20 0.750000 0.938345 0.799948
O O21 0.750000 0.323474 0.736180
O O22 0.515166 0.250000 0.757261
#
# Coordination Sequence:
#
# PCOD9448216 Si02
#       8
#     8   8   8   8   8   8   8   8
#     4  10  21  36  54  79 111 147 185 225 273 325
#     4   9  18  31  48  72 103 138 178 224 269 315
#     4  10  21  37  58  83 110 144 187 231 271 318
#     4  10  22  41  63  84 108 141 178 220 274 335
#     4   9  17  29  47  73 102 135 176 221 270 322
#     4  10  19  32  51  78 109 141 176 220 273 325
#     4  11  22  36  58  85 113 146 180 225 276 324
#     4  10  20  33  50  73 105 147 190 228 268 321
#
# _framework density 17.676010000000002
#
# number of rings (size 3 to 8) (size 9 to 14) (size 15 to 20)
#    0.000    2.125    1.250    3.000    0.000    6.750 
#    0.000    0.000    0.000    0.750    0.000    3.500 
#    0.000    0.000    0.000    0.000    0.000    0.000 
#
# Total GULP energy -357026.215500 kJ/mol
# GULP energy per Si atom -5578.534617 kJ/mol
# Density = 1.763578 g / cm^3
# Si number density = 17.676010 Si / 1000 Ang^3
#
#
#
# Elastic Constant Matrix: (Units=GPa)
#
#
# Indices 1 2 3 4 5 6 
#
# 1 41.0811 39.6023 44.7605 0.0000 0.0000 0.0000
# 2 39.6023 93.0619 72.7712 0.0000 0.0000 0.0000
# 3 44.7605 72.7712 131.8036 0.0000 0.0000 0.0000
# 4 0.0000 0.0000 0.0000 18.8354 0.0000 0.0000
# 5 0.0000 0.0000 0.0000 0.0000 35.2456 0.0000
# 6 0.0000 0.0000 0.0000 0.0000 0.0000 23.3738
#
#
#
# Elastic Compliance Matrix: (Units=1/GPa)
#
#
# Indices 1 2 3 4 5 6 
#
# 1 0.046108 -0.012981 -0.008491 0.000000 0.000000 0.000000
# 2 -0.012981 0.022564 -0.008050 0.000000 0.000000 0.000000
# 3 -0.008491 -0.008050 0.014915 0.000000 0.000000 0.000000
# 4 0.000000 0.000000 0.000000 0.053092 0.000000 0.000000
# 5 0.000000 0.000000 0.000000 0.000000 0.028372 0.000000
# 6 0.000000 0.000000 0.000000 0.000000 0.000000 0.042783
#
#
# Mechanical properties :
#
#
# Convention : Reuss Voigt Hill
#
# Bulk Modulus (GPa) = 40.74498 64.46829 52.60664
# Shear Modulus (GPa) = 18.17793 22.74513 20.46153
#
# Velocity S-wave (km/s) = 3.21034 3.59106 3.40603
# Velocity P-wave (km/s) = 6.06982 7.33114 6.73010
#
# Compressibility (1/GPa) = 0.02454290
#
# Stress axis : x y z
#
# Youngs Moduli (GPa) = 21.68839 44.31764 67.04699
#
# Poissons Ratio (x) = 0.57531 0.56928
# Poissons Ratio (y) = 0.28155 0.53971
# Poissons Ratio (z) = 0.18415 0.35674
#
# Static dielectric constant tensor:
#      x y z
#    x 1.589980 0.000000 0.000000 
#    y 0.000000 1.600610 0.000000 
#    z 0.000000 0.000000 1.602750 
# 
# From -- ./inp_files/26322.got.cif
#   From: 2010.05.17/outbox.cif.g08.bks.cpg/sg59_14_cif.got.tgz:26322.got - 2010.06.03 14:40:33.
