data_PCOD9448827
_publ_section_title
;
Structure prediction by ZEFSAII (Michael W. Deem and Ramdas Pophale) SiO2 
 PCOD9448827
Probable space group: P M M N
;
_chemical_formula_sum "Si O2"
_cell_formula_units_Z 48
_cell_length_a 7.574687
_cell_length_b 9.764073
_cell_length_c 29.831314
_cell_angle_alpha 90.000000
_cell_angle_beta 90.000000
_cell_angle_gamma 90.000000
_cell_volume 2206.317922
_symmetry_space_group_name_H-M "P M M N"
_symmetry_group_IT_number 59
_space_group.IT_coordinate_system_code '2'
_symmetry_cell_setting 'orthorhombic'
loop_
_space_group_symop_operation_xyz
x,y,z
1/2-x,1/2-y,z
1/2+x,-y,-z
-x,1/2+y,-z
-x,-y,-z
1/2+x,1/2+y,-z
1/2-x,y,z
x,1/2-y,z
loop_
_atom_site_type_symbol
_atom_site_label
_atom_site_fract_x
_atom_site_fract_y
_atom_site_fract_z
Si Si1 0.540404 0.406787 0.129836
Si Si2 0.039401 0.250000 0.462901
Si Si3 0.959716 0.091753 0.956373
Si Si4 0.465734 0.598536 0.707623
Si Si5 0.533791 0.592401 0.212296
Si Si6 0.532066 0.750000 0.434557
Si Si7 0.958801 0.023673 0.390926
O O1 0.750000 0.393342 0.136884
O O2 0.471383 0.250000 0.125284
O O3 0.517458 0.501711 0.086206
O O4 0.471952 0.493772 0.172119
O O5 0.250000 0.250000 0.465027
O O6 0.973413 0.250000 0.513757
O O7 0.981662 0.377036 0.432907
O O8 0.750000 0.103683 0.953727
O O9 0.029684 0.250000 0.957719
O O10 0.000000 0.000000 0.000000
O O11 0.250000 0.598724 0.707565
O O12 0.519840 0.750000 0.723433
O O13 0.520088 0.478622 0.741130
O O14 0.527905 0.577209 0.656538
O O15 0.750000 0.594427 0.211319
O O16 0.476278 0.750000 0.207703
O O17 0.750000 0.750000 0.435448
O O18 0.469166 0.619444 0.407413
O O19 0.750000 0.007476 0.383624
#
# Coordination Sequence:
#
# PCOD9448827 Si02
#       7
#     8   4   8   8   8   4   8
#     4  10  20  35  56  83 116 151 186 225 271 327
#     4  11  21  35  51  73 103 139 177 217 264 325
#     4  11  24  40  59  85 116 151 193 238 281 326
#     4   9  16  27  46  73 102 132 169 216 268 319
#     4   9  17  28  47  78 112 141 172 219 276 324
#     4   9  20  33  51  77 105 133 173 223 270 319
#     4  10  19  34  54  77 103 135 174 221 271 320
#
# _framework density 21.755706
#
# number of rings (size 3 to 8) (size 9 to 14) (size 15 to 20)
#    0.000    2.167    0.833    2.750    1.167    6.333 
#    0.000    1.250    0.000    1.000    0.000    0.000 
#    0.000    0.000    0.000    0.000    0.000    0.000 
#
# Total GULP energy -267979.284088 kJ/mol
# GULP energy per Si atom -5582.901752 kJ/mol
# Density = 2.170619 g / cm^3
# Si number density = 21.755706 Si / 1000 Ang^3
#
#
#
# Elastic Constant Matrix: (Units=GPa)
#
#
# Indices 1 2 3 4 5 6 
#
# 1 40.1144 12.8609 11.2254 0.0000 0.0000 0.0000
# 2 12.8609 221.8046 70.1900 0.0000 0.0000 0.0000
# 3 11.2254 70.1900 116.5332 0.0000 0.0000 0.0000
# 4 0.0000 0.0000 0.0000 37.4832 0.0000 0.0000
# 5 0.0000 0.0000 0.0000 0.0000 12.3982 0.0000
# 6 0.0000 0.0000 0.0000 0.0000 0.0000 10.4310
#
#
#
# Elastic Compliance Matrix: (Units=1/GPa)
#
#
# Indices 1 2 3 4 5 6 
#
# 1 0.025756 -0.000875 -0.001954 0.000000 0.000000 0.000000
# 2 -0.000875 0.005600 -0.003289 0.000000 0.000000 0.000000
# 3 -0.001954 -0.003289 0.010750 0.000000 0.000000 0.000000
# 4 0.000000 0.000000 0.000000 0.026679 0.000000 0.000000
# 5 0.000000 0.000000 0.000000 0.000000 0.080657 0.000000
# 6 0.000000 0.000000 0.000000 0.000000 0.000000 0.095868
#
#
# Mechanical properties :
#
#
# Convention : Reuss Voigt Hill
#
# Bulk Modulus (GPa) = 33.47740 63.00055 48.23897
# Shear Modulus (GPa) = 18.69141 31.00752 24.84946
#
# Velocity S-wave (km/s) = 2.93431 3.77936 3.38332
# Velocity P-wave (km/s) = 5.18666 6.93295 6.12239
#
# Compressibility (1/GPa) = 0.02987090
#
# Stress axis : x y z
#
# Youngs Moduli (GPa) = 38.82580 178.57475 93.02104
#
# Poissons Ratio (x) = 0.15627 0.18176
# Poissons Ratio (y) = 0.03398 0.30591
# Poissons Ratio (z) = 0.07586 0.58726
#
# Static dielectric constant tensor:
#      x y z
#    x 1.836290 0.000000 0.000000 
#    y 0.000000 1.673490 0.000000 
#    z 0.000000 0.000000 2.411740 
# 
# From -- ./inp_files/33058.got.cif
#   From: 2010.05.17/outbox.cif.g08.bks.cpg/sg59_17_cif.got.tgz:33058.got - 2010.06.03 14:40:33.
