data_PCOD9448829
_publ_section_title
;
Structure prediction by ZEFSAII (Michael W. Deem and Ramdas Pophale) SiO2 
 PCOD9448829
Probable space group: P M M N
;
_chemical_formula_sum "Si O2"
_cell_formula_units_Z 48
_cell_length_a 15.936091
_cell_length_b 7.558714
_cell_length_c 18.502907
_cell_angle_alpha 90.000000
_cell_angle_beta 90.000000
_cell_angle_gamma 90.000000
_cell_volume 2228.792718
_symmetry_space_group_name_H-M "P M M N"
_symmetry_group_IT_number 59
_space_group.IT_coordinate_system_code '2'
_symmetry_cell_setting 'orthorhombic'
loop_
_space_group_symop_operation_xyz
x,y,z
1/2-x,1/2-y,z
1/2+x,-y,-z
-x,1/2+y,-z
-x,-y,-z
1/2+x,1/2+y,-z
1/2-x,y,z
x,1/2-y,z
loop_
_atom_site_type_symbol
_atom_site_label
_atom_site_fract_x
_atom_site_fract_y
_atom_site_fract_z
Si Si1 0.918281 0.532557 0.793512
Si Si2 0.250000 0.467109 0.953926
Si Si3 0.750000 0.960686 0.713919
Si Si4 0.420749 0.540314 0.704540
Si Si5 0.413729 0.038213 0.040987
Si Si6 0.250000 0.461231 0.788145
Si Si7 0.413673 0.962513 0.541000
Si Si8 0.250000 0.536671 0.455723
O O1 0.919258 0.750000 0.794003
O O2 0.834823 0.473329 0.751648
O O3 0.916667 0.473189 0.876622
O O4 0.001466 0.471266 0.751604
O O5 0.250000 0.250000 0.953295
O O6 0.250000 0.526673 0.870778
O O7 0.166641 0.526347 0.996048
O O8 0.750000 0.750000 0.725211
O O9 0.750000 0.992309 0.628600
O O10 0.435583 0.750000 0.697360
O O11 0.333399 0.516603 0.745853
O O12 0.416265 0.468161 0.623069
O O13 0.404792 0.250000 0.045083
O O14 0.500000 0.000000 0.000000
O O15 0.250000 0.250000 0.790945
O O16 0.404508 0.750000 0.545048
O O17 0.333606 0.029119 0.496045
O O18 0.500000 0.000000 0.500000
O O19 0.250000 0.750000 0.460330
#
# Coordination Sequence:
#
# PCOD9448829 Si02
#       8
#     8   4   4   8   8   4   8   4
#     4   9  18  32  55  82 104 131 174 218 257 304
#     4   9  19  34  52  74 106 141 170 208 266 317
#     4  10  19  35  58  81 103 134 176 218 254 304
#     4  10  20  36  55  77 106 140 173 213 263 311
#     4  10  19  34  54  77 105 138 173 213 259 310
#     4  11  22  35  52  77 104 137 180 220 256 305
#     4  10  21  37  57  79 107 140 175 214 261 312
#     4  10  21  36  52  76 109 142 170 208 266 320
#
# _framework density 21.536322999999999
#
# number of rings (size 3 to 8) (size 9 to 14) (size 15 to 20)
#    0.000    2.167    0.000    3.250    0.000    6.000 
#    0.000    3.750    0.000    0.000    0.000    0.000 
#    0.000    0.000    0.000    0.000    0.000    0.000 
#
# Total GULP energy -268329.886372 kJ/mol
# GULP energy per Si atom -5590.205966 kJ/mol
# Density = 2.148731 g / cm^3
# Si number density = 21.536323 Si / 1000 Ang^3
#
#
#
# Elastic Constant Matrix: (Units=GPa)
#
#
# Indices 1 2 3 4 5 6 
#
# 1 246.3829 -9.7614 157.1130 0.0000 0.0000 0.0000
# 2 -9.7614 44.7575 -2.6102 0.0000 0.0000 0.0000
# 3 157.1130 -2.6102 264.5297 0.0000 0.0000 0.0000
# 4 0.0000 0.0000 0.0000 6.8573 0.0000 0.0000
# 5 0.0000 0.0000 0.0000 0.0000 56.2670 0.0000
# 6 0.0000 0.0000 0.0000 0.0000 0.0000 1.6019
#
#
#
# Elastic Compliance Matrix: (Units=1/GPa)
#
#
# Indices 1 2 3 4 5 6 
#
# 1 0.006598 0.001211 -0.003907 0.000000 0.000000 0.000000
# 2 0.001211 0.022578 -0.000497 0.000000 0.000000 0.000000
# 3 -0.003907 -0.000497 0.006096 0.000000 0.000000 0.000000
# 4 0.000000 0.000000 0.000000 0.145829 0.000000 0.000000
# 5 0.000000 0.000000 0.000000 0.000000 0.017772 0.000000
# 6 0.000000 0.000000 0.000000 0.000000 0.000000 0.624258
#
#
# Mechanical properties :
#
#
# Convention : Reuss Voigt Hill
#
# Bulk Modulus (GPa) = 34.61751 93.90588 64.26169
# Shear Modulus (GPa) = 5.95845 40.34049 23.14947
#
# Velocity S-wave (km/s) = 1.66514 4.33267 3.28213
# Velocity P-wave (km/s) = 4.45038 8.29021 6.65332
#
# Compressibility (1/GPa) = 0.02888712
#
# Stress axis : x y z
#
# Youngs Moduli (GPa) = 151.56102 44.29131 164.04772
#
# Poissons Ratio (x) = -0.05364 0.64091
# Poissons Ratio (y) = -0.18356 0.08146
# Poissons Ratio (z) = 0.59212 0.02199
#
# Static dielectric constant tensor:
#      x y z
#    x 1.703860 0.000000 0.000000 
#    y 0.000000 1.829890 0.000000 
#    z 0.000000 0.000000 1.745530 
# 
# From -- ./inp_files/27498.got.cif
#   From: 2010.05.17/outbox.cif.g08.bks.cpg/sg59_14_cif.got.tgz:27498.got - 2010.06.03 14:40:33.
