data_PCOD9448195
_publ_section_title
;
Structure prediction by ZEFSAII (Michael W. Deem and Ramdas Pophale) SiO2 
 PCOD9448195
Probable space group: P M M N
;
_chemical_formula_sum "Si O2"
_cell_formula_units_Z 56
_cell_length_a 9.191421
_cell_length_b 21.810265
_cell_length_c 17.056468
_cell_angle_alpha 90.000000
_cell_angle_beta 90.000000
_cell_angle_gamma 90.000000
_cell_volume 3419.264561
_symmetry_space_group_name_H-M "P M M N"
_symmetry_group_IT_number 59
_space_group.IT_coordinate_system_code '2'
_symmetry_cell_setting 'orthorhombic'
loop_
_space_group_symop_operation_xyz
x,y,z
1/2-x,1/2-y,z
1/2+x,-y,-z
-x,1/2+y,-z
-x,-y,-z
1/2+x,1/2+y,-z
1/2-x,y,z
x,1/2-y,z
loop_
_atom_site_type_symbol
_atom_site_label
_atom_site_fract_x
_atom_site_fract_y
_atom_site_fract_z
Si Si1 0.082929 0.177106 0.130548
Si Si2 0.074715 0.819089 0.544654
Si Si3 0.576207 0.868223 0.697594
Si Si4 0.074516 0.556891 0.454910
Si Si5 0.077387 0.470360 0.878833
Si Si6 0.578279 0.407727 0.018034
Si Si7 0.423177 0.988062 0.285618
O O1 0.250000 0.155027 0.119555
O O2 0.083193 0.250000 0.131289
O O3 0.033435 0.153746 0.215745
O O4 0.984348 0.150839 0.062050
O O5 0.250000 0.820447 0.549911
O O6 0.032912 0.750000 0.518585
O O7 0.031454 0.877000 0.490330
O O8 0.006637 0.832683 0.629538
O O9 0.750000 0.858337 0.689223
O O10 0.547225 0.940837 0.692925
O O11 0.250000 0.550398 0.462806
O O12 0.039728 0.550968 0.362723
O O13 0.000000 0.500000 0.500000
O O14 0.250000 0.461156 0.874926
O O15 0.049985 0.535770 0.921714
O O16 0.008297 0.471002 0.792866
O O17 0.003264 0.422013 0.937243
O O18 0.750000 0.404388 0.004748
O O19 0.250000 0.983077 0.270567
#
# Coordination Sequence:
#
# PCOD9448195 Si02
#       7
#     8   8   8   8   8   8   8
#     4  10  20  33  49  71 103 140 171 204 250 306
#     4  10  21  35  51  73 104 140 176 216 262 315
#     4  10  19  32  51  75 105 139 175 210 255 311
#     4  10  20  34  52  75 103 136 175 218 265 313
#     4  10  20  33  52  76 101 131 166 208 258 306
#     4  10  20  33  51  74 101 132 168 208 249 299
#     4  10  19  32  52  76 103 134 170 216 263 308
#
# _framework density 16.377790000000001
#
# number of rings (size 3 to 8) (size 9 to 14) (size 15 to 20)
#    0.000    2.000    2.857    1.286    0.000    4.000 
#    0.000    0.000    0.000    0.857    0.000    2.000 
#    0.000    0.000    0.000    0.000    0.000    0.000 
#
# Total GULP energy -312418.378011 kJ/mol
# GULP energy per Si atom -5578.899607 kJ/mol
# Density = 1.634051 g / cm^3
# Si number density = 16.377790 Si / 1000 Ang^3
#
#
#
# Elastic Constant Matrix: (Units=GPa)
#
#
# Indices 1 2 3 4 5 6 
#
# 1 24.5664 28.5044 44.0008 0.0000 0.0000 0.0000
# 2 28.5044 89.8190 52.3777 0.0000 0.0000 0.0000
# 3 44.0008 52.3777 112.4847 0.0000 0.0000 0.0000
# 4 0.0000 0.0000 0.0000 19.9547 0.0000 0.0000
# 5 0.0000 0.0000 0.0000 0.0000 31.1376 0.0000
# 6 0.0000 0.0000 0.0000 0.0000 0.0000 20.8923
#
#
#
# Elastic Compliance Matrix: (Units=1/GPa)
#
#
# Indices 1 2 3 4 5 6 
#
# 1 0.156922 -0.019224 -0.052432 0.000000 0.000000 0.000000
# 2 -0.019224 0.017639 -0.000693 0.000000 0.000000 0.000000
# 3 -0.052432 -0.000693 0.029723 0.000000 0.000000 0.000000
# 4 0.000000 0.000000 0.000000 0.050114 0.000000 0.000000
# 5 0.000000 0.000000 0.000000 0.000000 0.032116 0.000000
# 6 0.000000 0.000000 0.000000 0.000000 0.000000 0.047865
#
#
# Mechanical properties :
#
#
# Convention : Reuss Voigt Hill
#
# Bulk Modulus (GPa) = 16.78281 52.95955 34.87118
# Shear Modulus (GPa) = 10.02128 21.19605 15.60866
#
# Velocity S-wave (km/s) = 2.47631 3.60139 3.09048
# Velocity P-wave (km/s) = 4.29484 7.04981 5.83719
#
# Compressibility (1/GPa) = 0.05958476
#
# Stress axis : x y z
#
# Youngs Moduli (GPa) = 6.37258 56.69330 33.64429
#
# Poissons Ratio (x) = 1.08990 1.76403
# Poissons Ratio (y) = 0.12251 0.02333
# Poissons Ratio (z) = 0.33413 0.03931
#
# Static dielectric constant tensor:
#      x y z
#    x 1.567870 0.000000 0.000000 
#    y 0.000000 1.553070 0.000000 
#    z 0.000000 0.000000 1.527250 
# 
# From -- ./inp_files/20924.got.cif
#   From: 2010.05.17/outbox.cif.g08.bks.cpg/sg59_11_cif.got.tgz:20924.got - 2010.06.03 14:40:33.
