data_PCOD9448883
_publ_section_title
;
Structure prediction by ZEFSAII (Michael W. Deem and Ramdas Pophale) SiO2 
 PCOD9448883
Probable space group: P M M N
;
_chemical_formula_sum "Si O2"
_cell_formula_units_Z 48
_cell_length_a 8.493534
_cell_length_b 32.295286
_cell_length_c 9.277277
_cell_angle_alpha 90.000000
_cell_angle_beta 90.000000
_cell_angle_gamma 90.000000
_cell_volume 2544.767376
_symmetry_space_group_name_H-M "P M M N"
_symmetry_group_IT_number 59
_space_group.IT_coordinate_system_code '2'
_symmetry_cell_setting 'orthorhombic'
loop_
_space_group_symop_operation_xyz
x,y,z
1/2-x,1/2-y,z
1/2+x,-y,-z
-x,1/2+y,-z
-x,-y,-z
1/2+x,1/2+y,-z
1/2-x,y,z
x,1/2-y,z
loop_
_atom_site_type_symbol
_atom_site_label
_atom_site_fract_x
_atom_site_fract_y
_atom_site_fract_z
Si Si1 0.939089 0.250000 0.829048
Si Si2 0.438997 0.998180 0.835385
Si Si3 0.058597 0.411210 0.832863
Si Si4 0.941877 0.250000 0.161004
Si Si5 0.561498 0.910699 0.831137
Si Si6 0.439060 0.330284 0.661588
Si Si7 0.438725 0.668878 0.663232
O O1 0.750000 0.250000 0.827004
O O2 0.999140 0.209263 0.748220
O O3 0.993545 0.250000 0.995203
O O4 0.250000 0.995644 0.834622
O O5 0.508004 0.955717 0.773936
O O6 0.487267 0.043223 0.774708
O O7 0.500000 0.000000 0.000000
O O8 0.250000 0.410646 0.833855
O O9 0.004278 0.372532 0.738920
O O10 0.009326 0.407130 0.000642
O O11 0.750000 0.250000 0.160550
O O12 0.993028 0.291295 0.244461
O O13 0.750000 0.908957 0.828680
O O14 0.493032 0.873037 0.740607
O O15 0.250000 0.330019 0.664815
O O16 0.495529 0.328740 0.497656
O O17 0.250000 0.669863 0.657394
#
# Coordination Sequence:
#
# PCOD9448883 Si02
#       7
#     4   8   8   4   8   8   8
#     4  11  22  39  60  84 108 137 176 221 266 318
#     4   9  16  30  52  80 110 143 181 229 280 328
#     4   8  17  33  55  80 109 141 182 230 275 321
#     4   9  21  39  60  82 108 139 178 223 270 320
#     4  10  19  34  55  82 111 144 185 232 277 327
#     4  11  22  38  57  81 111 146 180 219 269 324
#     4  11  22  38  57  81 112 148 183 224 274 328
#
# _framework density 18.862234000000001
#
# number of rings (size 3 to 8) (size 9 to 14) (size 15 to 20)
#    0.000    2.167    0.000    4.750    0.000    0.667 
#    0.000   13.750    0.000    0.000    0.000    0.000 
#    0.000    0.000    0.000    0.000    0.000    0.000 
#
# Total GULP energy -267900.534859 kJ/mol
# GULP energy per Si atom -5581.261143 kJ/mol
# Density = 1.881930 g / cm^3
# Si number density = 18.862234 Si / 1000 Ang^3
#
#
#
# Elastic Constant Matrix: (Units=GPa)
#
#
# Indices 1 2 3 4 5 6 
#
# 1 52.1600 36.8936 27.4856 0.0000 0.0000 0.0000
# 2 36.8936 224.8090 104.1889 0.0000 0.0000 0.0000
# 3 27.4856 104.1889 130.3847 0.0000 0.0000 0.0000
# 4 0.0000 0.0000 0.0000 -19.6538 0.0000 0.0000
# 5 0.0000 0.0000 0.0000 0.0000 25.3527 0.0000
# 6 0.0000 0.0000 0.0000 0.0000 0.0000 26.1739
#
#
#
# Elastic Compliance Matrix: (Units=1/GPa)
#
#
# Indices 1 2 3 4 5 6 
#
# 1 0.022326 -0.002355 -0.002825 0.000000 0.000000 0.000000
# 2 -0.002355 0.007313 -0.005347 0.000000 0.000000 0.000000
# 3 -0.002825 -0.005347 0.012538 0.000000 0.000000 0.000000
# 4 0.000000 0.000000 0.000000 -0.050881 0.000000 0.000000
# 5 0.000000 0.000000 0.000000 0.000000 0.039444 0.000000
# 6 0.000000 0.000000 0.000000 0.000000 0.000000 0.038206
#
#
# Mechanical properties :
#
#
# Convention : Reuss Voigt Hill
#
# Bulk Modulus (GPa) = 47.34119 82.72109 65.03114
# Shear Modulus (GPa) = 51.52513 22.29359 36.90936
#
# Velocity S-wave (km/s) = 5.23219 3.44163 4.42836
# Velocity P-wave (km/s) = 7.85201 7.72941 7.79095
#
# Compressibility (1/GPa) = 0.02112325
#
# Stress axis : x y z
#
# Youngs Moduli (GPa) = 44.79122 136.74520 79.75773
#
# Poissons Ratio (x) = 0.32201 0.22529
# Poissons Ratio (y) = 0.10547 0.42648
# Poissons Ratio (z) = 0.12652 0.73121
#
# Static dielectric constant tensor:
#      x y z
#    x 1.642610 0.000000 0.000000 
#    y 0.000000 1.665880 0.000000 
#    z 0.000000 0.000000 1.615190 
# 
# From -- ./inp_files/6372.got.cif
#   From: 2010.05.17/outbox.cif.g08.bks.cpg/sg59_4_cif.got.tgz:6372.got - 2010.06.03 14:40:33.
