data_PCOD9448421
_publ_section_title
;
Structure prediction by ZEFSAII (Michael W. Deem and Ramdas Pophale) SiO2 
 PCOD9448421
Probable space group: P M M N
;
_chemical_formula_sum "Si O2"
_cell_formula_units_Z 64
_cell_length_a 8.585283
_cell_length_b 29.597459
_cell_length_c 12.681727
_cell_angle_alpha 90.000000
_cell_angle_beta 90.000000
_cell_angle_gamma 90.000000
_cell_volume 3222.459316
_symmetry_space_group_name_H-M "P M M N"
_symmetry_group_IT_number 59
_space_group.IT_coordinate_system_code '2'
_symmetry_cell_setting 'orthorhombic'
loop_
_space_group_symop_operation_xyz
x,y,z
1/2-x,1/2-y,z
1/2+x,-y,-z
-x,1/2+y,-z
-x,-y,-z
1/2+x,1/2+y,-z
1/2-x,y,z
x,1/2-y,z
loop_
_atom_site_type_symbol
_atom_site_label
_atom_site_fract_x
_atom_site_fract_y
_atom_site_fract_z
Si Si1 0.937933 0.662700 0.488071
Si Si2 0.065666 0.935121 0.513973
Si Si3 0.061234 0.201100 0.292848
Si Si4 0.565671 0.003494 0.678928
Si Si5 0.433620 0.802855 0.036668
Si Si6 0.434388 0.973774 0.898166
Si Si7 0.435082 0.372450 0.129582
Si Si8 0.071182 0.304046 0.741027
O O1 0.750000 0.656411 0.488112
O O2 0.973137 0.696578 0.583457
O O3 0.983356 0.677863 0.371334
O O4 0.023233 0.616657 0.514451
O O5 0.250000 0.943398 0.527136
O O6 0.975626 0.960035 0.607773
O O7 0.018729 0.956058 0.400259
O O8 0.250000 0.201192 0.281476
O O9 0.004188 0.250000 0.252383
O O10 0.006150 0.156686 0.230464
O O11 0.750000 0.005892 0.697116
O O12 0.483207 0.999537 0.790903
O O13 0.250000 0.806074 0.013929
O O14 0.481761 0.750000 0.021533
O O15 0.466919 0.814963 0.158386
O O16 0.526511 0.838026 0.965234
O O17 0.250000 0.972790 0.906686
O O18 0.493184 0.921904 0.887411
O O19 0.500000 0.000000 0.000000
O O20 0.250000 0.378922 0.139719
O O21 0.250000 0.319296 0.760011
O O22 0.074738 0.250000 0.732137
#
# Coordination Sequence:
#
# PCOD9448421 Si02
#       8
#     8   8   8   8   8   8   8   8
#     4  10  19  32  54  83 115 149 187 233 284 342
#     4  10  21  36  58  86 115 150 190 237 290 343
#     4   9  18  33  56  87 120 154 192 235 284 341
#     4  10  21  40  62  84 113 149 192 238 287 346
#     4  10  21  37  57  82 115 155 199 249 302 354
#     4  12  26  44  65  89 120 156 196 246 305 367
#     4  11  22  38  62  89 117 153 198 246 298 359
#     4   9  18  33  53  77 107 146 191 236 283 340
#
# _framework density 19.860609
#
# number of rings (size 3 to 8) (size 9 to 14) (size 15 to 20)
#    0.000    1.875    0.000    4.125    0.000    6.750 
#    0.000    3.125    0.000    2.625    0.000    0.000 
#    0.000    0.000    0.000    0.000    0.000    0.000 
#
# Total GULP energy -357328.910391 kJ/mol
# GULP energy per Si atom -5583.264225 kJ/mol
# Density = 1.981541 g / cm^3
# Si number density = 19.860609 Si / 1000 Ang^3
#
#
#
# Elastic Constant Matrix: (Units=GPa)
#
#
# Indices 1 2 3 4 5 6 
#
# 1 46.5309 17.4001 25.1881 0.0000 0.0000 0.0000
# 2 17.4001 59.2692 23.7812 0.0000 0.0000 0.0000
# 3 25.1881 23.7812 103.1710 0.0000 0.0000 0.0000
# 4 0.0000 0.0000 0.0000 118.9630 0.0000 0.0000
# 5 0.0000 0.0000 0.0000 0.0000 11.8181 0.0000
# 6 0.0000 0.0000 0.0000 0.0000 0.0000 20.1908
#
#
#
# Elastic Compliance Matrix: (Units=1/GPa)
#
#
# Indices 1 2 3 4 5 6 
#
# 1 0.026398 -0.005690 -0.005133 0.000000 0.000000 0.000000
# 2 -0.005690 0.019818 -0.003179 0.000000 0.000000 0.000000
# 3 -0.005133 -0.003179 0.011679 0.000000 0.000000 0.000000
# 4 0.000000 0.000000 0.000000 0.008406 0.000000 0.000000
# 5 0.000000 0.000000 0.000000 0.000000 0.084616 0.000000
# 6 0.000000 0.000000 0.000000 0.000000 0.000000 0.049527
#
#
# Mechanical properties :
#
#
# Convention : Reuss Voigt Hill
#
# Bulk Modulus (GPa) = 33.45603 37.96775 35.71189
# Shear Modulus (GPa) = 20.97216 39.70117 30.33667
#
# Velocity S-wave (km/s) = 3.25309 4.47586 3.91254
# Velocity P-wave (km/s) = 5.56706 6.77272 6.19927
#
# Compressibility (1/GPa) = 0.02988998
#
# Stress axis : x y z
#
# Youngs Moduli (GPa) = 37.88229 50.45867 85.62682
#
# Poissons Ratio (x) = 0.28712 0.43953
# Poissons Ratio (y) = 0.21556 0.27220
# Poissons Ratio (z) = 0.19445 0.16041
#
# Static dielectric constant tensor:
#      x y z
#    x 1.689830 0.000000 0.000000 
#    y 0.000000 1.692170 0.000000 
#    z 0.000000 0.000000 1.711660 
# 
# From -- ./inp_files/14990.got.cif
#   From: 2010.05.17/outbox.cif.g08.bks.cpg/sg59_8_cif.got.tgz:14990.got - 2010.06.03 14:40:33.
