data_PCOD9448977
_publ_section_title
;
Structure prediction by ZEFSAII (Michael W. Deem and Ramdas Pophale) SiO2 
 PCOD9448977
Probable space group: P M M N
;
_chemical_formula_sum "Si O2"
_cell_formula_units_Z 64
_cell_length_a 7.857715
_cell_length_b 21.840614
_cell_length_c 15.771024
_cell_angle_alpha 90.000000
_cell_angle_beta 90.000000
_cell_angle_gamma 90.000000
_cell_volume 2706.580876
_symmetry_space_group_name_H-M "P M M N"
_symmetry_group_IT_number 59
_space_group.IT_coordinate_system_code '2'
_symmetry_cell_setting 'orthorhombic'
loop_
_space_group_symop_operation_xyz
x,y,z
1/2-x,1/2-y,z
1/2+x,-y,-z
-x,1/2+y,-z
-x,-y,-z
1/2+x,1/2+y,-z
1/2-x,y,z
x,1/2-y,z
loop_
_atom_site_type_symbol
_atom_site_label
_atom_site_fract_x
_atom_site_fract_y
_atom_site_fract_z
Si Si1 0.550856 0.314382 0.031259
Si Si2 0.448189 0.913414 0.090374
Si Si3 0.541059 0.871018 0.422315
Si Si4 0.050872 0.995925 0.622615
Si Si5 0.556513 0.657454 0.787264
Si Si6 0.948048 0.642536 0.603197
Si Si7 0.456470 0.179454 0.761287
Si Si8 0.940211 0.473489 0.186103
O O1 0.750000 0.314337 0.007892
O O2 0.474170 0.250000 0.000450
O O3 0.536988 0.316043 0.132018
O O4 0.477828 0.375119 0.988359
O O5 0.250000 0.926981 0.076694
O O6 0.468625 0.866985 0.169814
O O7 0.532743 0.977472 0.113394
O O8 0.750000 0.871924 0.423886
O O9 0.485092 0.942291 0.420126
O O10 0.482236 0.840861 0.510573
O O11 0.492247 0.838872 0.334679
O O12 0.250000 0.987243 0.600598
O O13 0.045222 0.007929 0.723752
O O14 0.958912 0.931780 0.606909
O O15 0.750000 0.679907 0.787258
O O16 0.479032 0.665343 0.693059
O O17 0.559105 0.584695 0.805830
O O18 0.750000 0.660435 0.604615
O O19 0.250000 0.174413 0.765694
O O20 0.503492 0.250000 0.778072
O O21 0.750000 0.447520 0.179992
#
# Coordination Sequence:
#
# PCOD9448977 Si02
#       8
#     8   8   8   8   8   8   8   8
#     4  10  23  43  63  81 104 142 189 231 280 340
#     4  11  22  37  59  85 113 141 178 232 287 335
#     4   9  16  30  49  74 107 143 181 220 262 316
#     4   9  16  28  48  74 108 143 179 217 257 314
#     4  10  21  37  57  86 118 146 184 234 283 327
#     4   9  18  31  50  76 110 142 177 223 270 317
#     4  10  20  35  55  78 108 148 189 224 268 334
#     4  10  19  34  57  85 118 153 185 219 269 337
#
# _framework density 23.646070000000002
#
# number of rings (size 3 to 8) (size 9 to 14) (size 15 to 20)
#    0.000    2.250    1.250    1.875    0.000    3.500 
#    0.000    1.250    0.000    2.250    0.000    0.000 
#    0.000    0.000    0.000    0.000    0.000    0.000 
#
# Total GULP energy -357437.910832 kJ/mol
# GULP energy per Si atom -5584.967357 kJ/mol
# Density = 2.359225 g / cm^3
# Si number density = 23.646070 Si / 1000 Ang^3
#
#
#
# Elastic Constant Matrix: (Units=GPa)
#
#
# Indices 1 2 3 4 5 6 
#
# 1 38.8230 1.3448 0.4296 0.0000 0.0000 0.0000
# 2 1.3448 54.8105 14.1804 0.0000 0.0000 0.0000
# 3 0.4296 14.1804 111.7745 0.0000 0.0000 0.0000
# 4 0.0000 0.0000 0.0000 -1.1526 0.0000 0.0000
# 5 0.0000 0.0000 0.0000 0.0000 14.3871 0.0000
# 6 0.0000 0.0000 0.0000 0.0000 0.0000 -26.0967
#
#
#
# Elastic Compliance Matrix: (Units=1/GPa)
#
#
# Indices 1 2 3 4 5 6 
#
# 1 0.025780 -0.000627 -0.000019 0.000000 0.000000 0.000000
# 2 -0.000627 0.018879 -0.002393 0.000000 0.000000 0.000000
# 3 -0.000019 -0.002393 0.009250 0.000000 0.000000 0.000000
# 4 0.000000 0.000000 0.000000 -0.867573 0.000000 0.000000
# 5 0.000000 0.000000 0.000000 0.000000 0.069507 0.000000
# 6 0.000000 0.000000 0.000000 0.000000 0.000000 -0.038319
#
#
# Mechanical properties :
#
#
# Convention : Reuss Voigt Hill
#
# Bulk Modulus (GPa) = 20.90744 26.36864 23.63804
# Shear Modulus (GPa) = -6.57503 10.05776 1.74137
#
# Velocity S-wave (km/s) = -1.66932 2.06463 0.85909
# Velocity P-wave (km/s) = 2.26837 4.10599 3.31698
#
# Compressibility (1/GPa) = 0.04782986
#
# Stress axis : x y z
#
# Youngs Moduli (GPa) = 38.78991 52.96863 108.10563
#
# Poissons Ratio (x) = 0.03324 0.00211
# Poissons Ratio (y) = 0.02434 0.25867
# Poissons Ratio (z) = 0.00076 0.12674
#
# Static dielectric constant tensor:
#      x y z
#    x 1.812760 0.000000 0.000000 
#    y 0.000000 1.656460 0.000000 
#    z 0.000000 0.000000 1.943610 
# 
# From -- ./inp_files/21563.got.cif
#   From: 2010.05.17/outbox.cif.g08.bks.cpg/sg59_11_cif.got.tgz:21563.got - 2010.06.03 14:40:33.
