data_PCOD9448756
_publ_section_title
;
Structure prediction by ZEFSAII (Michael W. Deem and Ramdas Pophale) SiO2 
 PCOD9448756
Probable space group: P M M N
;
_chemical_formula_sum "Si O2"
_cell_formula_units_Z 64
_cell_length_a 13.342930
_cell_length_b 17.590943
_cell_length_c 13.311146
_cell_angle_alpha 90.000000
_cell_angle_beta 90.000000
_cell_angle_gamma 90.000000
_cell_volume 3124.321921
_symmetry_space_group_name_H-M "P M M N"
_symmetry_group_IT_number 59
_space_group.IT_coordinate_system_code '2'
_symmetry_cell_setting 'orthorhombic'
loop_
_space_group_symop_operation_xyz
x,y,z
1/2-x,1/2-y,z
1/2+x,-y,-z
-x,1/2+y,-z
-x,-y,-z
1/2+x,1/2+y,-z
1/2-x,y,z
x,1/2-y,z
loop_
_atom_site_type_symbol
_atom_site_label
_atom_site_fract_x
_atom_site_fract_y
_atom_site_fract_z
Si Si1 0.132667 0.837945 0.300743
Si Si2 0.519065 0.410266 0.886370
Si Si3 0.133029 0.390454 0.354633
Si Si4 0.498779 0.163093 0.183837
Si Si5 0.634872 0.839572 0.411756
Si Si6 0.529733 0.456074 0.601379
Si Si7 0.139271 0.161781 0.009679
Si Si8 0.868428 0.049142 0.091276
O O1 0.250000 0.839871 0.282123
O O2 0.101782 0.750000 0.305901
O O3 0.077821 0.882411 0.210662
O O4 0.107063 0.885656 0.401227
O O5 0.440202 0.346173 0.921230
O O6 0.442568 0.480765 0.877383
O O7 0.595880 0.427458 0.978240
O O8 0.250000 0.387464 0.322604
O O9 0.057379 0.341106 0.288919
O O10 0.130763 0.360034 0.469157
O O11 0.087958 0.475720 0.342514
O O12 0.518602 0.250000 0.156358
O O13 0.599237 0.116117 0.167140
O O14 0.417080 0.127427 0.105932
O O15 0.750000 0.846351 0.378476
O O16 0.606482 0.750000 0.397794
O O17 0.568016 0.907275 0.363786
O O18 0.500000 0.500000 0.500000
O O19 0.250000 0.129489 0.991532
O O20 0.151587 0.250000 0.032190
O O21 0.750000 0.034465 0.094637
#
# Coordination Sequence:
#
# PCOD9448756 Si02
#       8
#     8   8   8   8   8   8   8   8
#     4  11  23  39  62  90 118 149 189 238 288 339
#     4  10  20  36  57  83 114 150 196 242 281 328
#     4  10  19  33  56  84 112 142 182 233 282 328
#     4  10  20  33  52  80 111 146 190 235 278 325
#     4   9  18  34  57  82 107 138 177 224 280 340
#     4  10  21  37  57  82 111 142 175 221 283 349
#     4   9  17  30  50  78 114 152 186 224 273 326
#     4  10  21  36  55  79 112 157 200 238 283 332
#
# _framework density 20.484444
#
# number of rings (size 3 to 8) (size 9 to 14) (size 15 to 20)
#    0.000    2.125    0.000    3.375    0.000    2.500 
#    0.000    6.875    0.000    4.500    0.000    0.000 
#    0.000    0.000    0.000    0.000    0.000    0.000 
#
# Total GULP energy -356356.397321 kJ/mol
# GULP energy per Si atom -5568.068708 kJ/mol
# Density = 2.043782 g / cm^3
# Si number density = 20.484444 Si / 1000 Ang^3
#
#
#
# Elastic Constant Matrix: (Units=GPa)
#
#
# Indices 1 2 3 4 5 6 
#
# 1 134.8313 46.0663 22.2814 0.0000 0.0000 0.0000
# 2 46.0663 108.6678 11.2785 0.0000 0.0000 0.0000
# 3 22.2814 11.2785 37.2011 0.0000 0.0000 0.0000
# 4 0.0000 0.0000 0.0000 15.7004 0.0000 0.0000
# 5 0.0000 0.0000 0.0000 0.0000 22.3982 0.0000
# 6 0.0000 0.0000 0.0000 0.0000 0.0000 29.8780
#
#
#
# Elastic Compliance Matrix: (Units=1/GPa)
#
#
# Indices 1 2 3 4 5 6 
#
# 1 0.009363 -0.003497 -0.004548 0.000000 0.000000 0.000000
# 2 -0.003497 0.010808 -0.001182 0.000000 0.000000 0.000000
# 3 -0.004548 -0.001182 0.029963 0.000000 0.000000 0.000000
# 4 0.000000 0.000000 0.000000 0.063693 0.000000 0.000000
# 5 0.000000 0.000000 0.000000 0.000000 0.044646 0.000000
# 6 0.000000 0.000000 0.000000 0.000000 0.000000 0.033469
#
#
# Mechanical properties :
#
#
# Convention : Reuss Voigt Hill
#
# Bulk Modulus (GPa) = 31.56567 48.88360 40.22464
# Shear Modulus (GPa) = 22.62898 27.00028 24.81463
#
# Velocity S-wave (km/s) = 3.32730 3.63449 3.48428
# Velocity P-wave (km/s) = 5.49584 6.44424 5.98884
#
# Compressibility (1/GPa) = 0.03167999
#
# Stress axis : x y z
#
# Youngs Moduli (GPa) = 106.80306 92.52797 33.37446
#
# Poissons Ratio (x) = 0.32359 0.15178
# Poissons Ratio (y) = 0.37351 0.03945
# Poissons Ratio (z) = 0.48570 0.10937
#
# Static dielectric constant tensor:
#      x y z
#    x 1.763140 0.000000 0.000000 
#    y 0.000000 1.782520 0.000000 
#    z 0.000000 0.000000 1.811430 
# 
# From -- ./inp_files/22722.got.cif
#   From: 2010.05.17/outbox.cif.g08.bks.cpg/sg59_12_cif.got.tgz:22722.got - 2010.06.03 14:40:33.
