data_PCOD9448034
_publ_section_title
;
Structure prediction by ZEFSAII (Michael W. Deem and Ramdas Pophale) SiO2 
 PCOD9448034
Probable space group: P M M N
;
_chemical_formula_sum "Si O2"
_cell_formula_units_Z 58
_cell_length_a 28.303752
_cell_length_b 7.512847
_cell_length_c 14.321931
_cell_angle_alpha 90.000000
_cell_angle_beta 90.000000
_cell_angle_gamma 90.000000
_cell_volume 3045.440590
_symmetry_space_group_name_H-M "P M M N"
_symmetry_group_IT_number 59
_space_group.IT_coordinate_system_code '2'
_symmetry_cell_setting 'orthorhombic'
loop_
_space_group_symop_operation_xyz
x,y,z
1/2-x,1/2-y,z
1/2+x,-y,-z
-x,1/2+y,-z
-x,-y,-z
1/2+x,1/2+y,-z
1/2-x,y,z
x,1/2-y,z
loop_
_atom_site_type_symbol
_atom_site_label
_atom_site_fract_x
_atom_site_fract_y
_atom_site_fract_z
Si Si1 0.391753 0.956167 0.210716
Si Si2 0.484178 0.461979 0.105203
Si Si3 0.825755 0.033819 0.118092
Si Si4 0.053760 0.040031 0.588594
Si Si5 0.696761 0.466401 0.902122
Si Si6 0.947726 0.457033 0.614768
Si Si7 0.750000 0.750000 0.182367
Si Si8 0.423713 0.537658 0.790473
O O1 0.380582 0.750000 0.231722
O O2 0.344193 0.033759 0.166445
O O3 0.414619 0.035794 0.304893
O O4 0.433709 0.961256 0.134441
O O5 0.480135 0.250000 0.117028
O O6 0.526177 0.532737 0.171802
O O7 0.500000 0.500000 0.000000
O O8 0.818981 0.250000 0.130840
O O9 0.879328 0.987371 0.146414
O O10 0.790900 0.908288 0.175692
O O11 0.815619 0.991817 0.009460
O O12 0.049549 0.250000 0.573667
O O13 0.000800 0.965297 0.608346
O O14 0.071879 0.966000 0.490368
O O15 0.082934 0.008590 0.682161
O O16 0.750000 0.527502 0.881441
O O17 0.696786 0.250000 0.897494
O O18 0.954162 0.250000 0.640210
O O19 0.427010 0.750000 0.796862
#
# Coordination Sequence:
#
# PCOD9448034 Si02
#       8
#     8   8   8   8   8   8   2   8
#     4  10  19  34  54  77 105 139 183 227 273 327
#     4  11  22  35  49  72 109 148 177 212 265 331
#     4  10  21  38  57  82 115 147 186 237 282 327
#     4  10  19  31  52  77 108 139 179 225 269 330
#     4   9  17  34  56  76 104 142 181 227 279 325
#     4   9  18  32  50  76 105 142 180 225 275 330
#     4  12  22  36  60  86 108 146 198 240 274 330
#     4  10  21  36  54  77 109 146 179 219 277 335
#
# _framework density 19.044861999999998
#
# number of rings (size 3 to 8) (size 9 to 14) (size 15 to 20)
#    0.000    2.069    2.069    1.862    0.966    3.862 
#    3.724    0.000    0.000    0.000    1.793    0.000 
#    0.000    0.000    0.000    0.000    0.000    0.000 
#
# Total GULP energy -323050.995573 kJ/mol
# GULP energy per Si atom -5569.844751 kJ/mol
# Density = 1.900152 g / cm^3
# Si number density = 19.044862 Si / 1000 Ang^3
#
#
#
# Elastic Constant Matrix: (Units=GPa)
#
#
# Indices 1 2 3 4 5 6 
#
# 1 120.9437 10.1109 51.3822 0.0000 0.0000 0.0000
# 2 10.1109 60.6932 -12.0504 0.0000 0.0000 0.0000
# 3 51.3822 -12.0504 99.6706 0.0000 0.0000 0.0000
# 4 0.0000 0.0000 0.0000 11.6472 0.0000 0.0000
# 5 0.0000 0.0000 0.0000 0.0000 8.2138 0.0000
# 6 0.0000 0.0000 0.0000 0.0000 0.0000 23.9383
#
#
#
# Elastic Compliance Matrix: (Units=1/GPa)
#
#
# Indices 1 2 3 4 5 6 
#
# 1 0.011116 -0.003063 -0.006101 0.000000 0.000000 0.000000
# 2 -0.003063 0.017726 0.003722 0.000000 0.000000 0.000000
# 3 -0.006101 0.003722 0.013628 0.000000 0.000000 0.000000
# 4 0.000000 0.000000 0.000000 0.085857 0.000000 0.000000
# 5 0.000000 0.000000 0.000000 0.000000 0.121746 0.000000
# 6 0.000000 0.000000 0.000000 0.000000 0.000000 0.041774
#
#
# Mechanical properties :
#
#
# Convention : Reuss Voigt Hill
#
# Bulk Modulus (GPa) = 31.65944 42.24368 36.95156
# Shear Modulus (GPa) = 15.96115 24.21752 20.08934
#
# Velocity S-wave (km/s) = 2.89810 3.56982 3.25136
# Velocity P-wave (km/s) = 5.27810 6.26265 5.79134
#
# Compressibility (1/GPa) = 0.03158615
#
# Stress axis : x y z
#
# Youngs Moduli (GPa) = 89.95709 56.41547 73.37672
#
# Poissons Ratio (x) = 0.17281 0.44768
# Poissons Ratio (y) = 0.27556 -0.27312
# Poissons Ratio (z) = 0.54884 -0.20999
#
# Static dielectric constant tensor:
#      x y z
#    x 1.679280 0.000000 0.000000 
#    y 0.000000 1.721060 0.000000 
#    z 0.000000 0.000000 1.682920 
# 
# From -- ./inp_files/24889.got.cif
#   From: 2010.05.17/outbox.cif.g08.bks.cpg/sg59_13_cif.got.tgz:24889.got - 2010.06.03 14:40:33.
