data_PCOD9448843
_publ_section_title
;
Structure prediction by ZEFSAII (Michael W. Deem and Ramdas Pophale) SiO2 
 PCOD9448843
Probable space group: P M M N
;
_chemical_formula_sum "Si O2"
_cell_formula_units_Z 64
_cell_length_a 27.605309
_cell_length_b 9.206169
_cell_length_c 13.570567
_cell_angle_alpha 90.000000
_cell_angle_beta 90.000000
_cell_angle_gamma 90.000000
_cell_volume 3448.812226
_symmetry_space_group_name_H-M "P M M N"
_symmetry_group_IT_number 59
_space_group.IT_coordinate_system_code '2'
_symmetry_cell_setting 'orthorhombic'
loop_
_space_group_symop_operation_xyz
x,y,z
1/2-x,1/2-y,z
1/2+x,-y,-z
-x,1/2+y,-z
-x,-y,-z
1/2+x,1/2+y,-z
1/2-x,y,z
x,1/2-y,z
loop_
_atom_site_type_symbol
_atom_site_label
_atom_site_fract_x
_atom_site_fract_y
_atom_site_fract_z
Si Si1 0.546048 0.089213 0.236668
Si Si2 0.981384 0.079725 0.904292
Si Si3 0.840535 0.422833 0.260091
Si Si4 0.870895 0.426192 0.856067
Si Si5 0.307559 0.578475 0.524427
Si Si6 0.526806 0.911029 0.582548
Si Si7 0.805763 0.073353 0.044694
Si Si8 0.366398 0.074373 0.350330
O O1 0.544444 0.250000 0.186361
O O2 0.601619 0.060556 0.261222
O O3 0.512121 0.099284 0.331006
O O4 0.521496 0.963818 0.174673
O O5 0.979124 0.250000 0.920452
O O6 0.927286 0.033050 0.873036
O O7 0.000000 0.000000 0.000000
O O8 0.829126 0.250000 0.259683
O O9 0.819808 0.476265 0.364574
O O10 0.821354 0.478920 0.154281
O O11 0.867729 0.250000 0.845506
O O12 0.853985 0.502610 0.755215
O O13 0.840360 0.469368 0.953597
O O14 0.250000 0.571249 0.510828
O O15 0.322188 0.750000 0.518221
O O16 0.334165 0.488693 0.439114
O O17 0.537434 0.750000 0.543398
O O18 0.577863 0.967710 0.623521
O O19 0.500000 0.000000 0.500000
O O20 0.750000 0.032612 0.026174
O O21 0.808312 0.250000 0.047509
O O22 0.363251 0.250000 0.343941
#
# Coordination Sequence:
#
# PCOD9448843 Si02
#       8
#     8   8   8   8   8   8   8   8
#     4  10  19  34  54  79 112 147 183 223 279 344
#     4  11  22  35  54  80 112 149 190 236 283 342
#     4   9  17  32  57  87 118 147 182 237 295 348
#     4  10  21  37  57  83 115 154 196 241 288 343
#     4  10  21  38  62  89 115 151 199 245 293 350
#     4  10  21  35  54  80 112 150 189 232 283 343
#     4   9  17  31  54  84 113 141 182 239 297 344
#     4  11  23  39  58  83 118 157 195 242 297 349
#
# _framework density 18.557113999999999
#
# number of rings (size 3 to 8) (size 9 to 14) (size 15 to 20)
#    0.000    2.000    1.250    2.625    0.000    7.250 
#    0.000    1.875    0.000    0.750    0.000    0.000 
#    0.000    0.000    0.000    0.000    0.000    0.000 
#
# Total GULP energy -356813.451939 kJ/mol
# GULP energy per Si atom -5575.210187 kJ/mol
# Density = 1.851488 g / cm^3
# Si number density = 18.557114 Si / 1000 Ang^3
#
#
#
# Elastic Constant Matrix: (Units=GPa)
#
#
# Indices 1 2 3 4 5 6 
#
# 1 69.4059 23.0460 42.8023 0.0000 0.0000 0.0000
# 2 23.0460 27.9927 42.1004 0.0000 0.0000 0.0000
# 3 42.8023 42.1004 145.8671 0.0000 0.0000 0.0000
# 4 0.0000 0.0000 0.0000 26.1765 0.0000 0.0000
# 5 0.0000 0.0000 0.0000 0.0000 29.9628 0.0000
# 6 0.0000 0.0000 0.0000 0.0000 0.0000 21.1194
#
#
#
# Elastic Compliance Matrix: (Units=1/GPa)
#
#
# Indices 1 2 3 4 5 6 
#
# 1 0.020149 -0.013600 -0.001987 0.000000 0.000000 0.000000
# 2 -0.013600 0.072304 -0.016878 0.000000 0.000000 0.000000
# 3 -0.001987 -0.016878 0.012310 0.000000 0.000000 0.000000
# 4 0.000000 0.000000 0.000000 0.038202 0.000000 0.000000
# 5 0.000000 0.000000 0.000000 0.000000 0.033375 0.000000
# 6 0.000000 0.000000 0.000000 0.000000 0.000000 0.047350
#
#
# Mechanical properties :
#
#
# Convention : Reuss Voigt Hill
#
# Bulk Modulus (GPa) = 25.10449 51.01813 38.06131
# Shear Modulus (GPa) = 16.56188 24.47288 20.51738
#
# Velocity S-wave (km/s) = 2.99068 3.63545 3.32872
# Velocity P-wave (km/s) = 5.04809 6.72117 5.94379
#
# Compressibility (1/GPa) = 0.03983352
#
# Stress axis : x y z
#
# Youngs Moduli (GPa) = 49.62954 13.83046 81.23455
#
# Poissons Ratio (x) = 0.18809 0.16144
# Poissons Ratio (y) = 0.67495 1.37107
# Poissons Ratio (z) = 0.09863 0.23343
#
# Static dielectric constant tensor:
#      x y z
#    x 1.635960 0.000000 0.000000 
#    y 0.000000 1.660660 0.000000 
#    z 0.000000 0.000000 1.635190 
# 
# From -- ./inp_files/19295.got.cif
#   From: 2010.05.17/outbox.cif.g08.bks.cpg/sg59_10_cif.got.tgz:19295.got - 2010.06.03 14:40:33.
