data_PCOD9448184
_publ_section_title
;
Structure prediction by ZEFSAII (Michael W. Deem and Ramdas Pophale) SiO2 
 PCOD9448184
Probable space group: P M M N
;
_chemical_formula_sum "Si O2"
_cell_formula_units_Z 64
_cell_length_a 7.591488
_cell_length_b 22.631939
_cell_length_c 17.084212
_cell_angle_alpha 90.000000
_cell_angle_beta 90.000000
_cell_angle_gamma 90.000000
_cell_volume 2935.240058
_symmetry_space_group_name_H-M "P M M N"
_symmetry_group_IT_number 59
_space_group.IT_coordinate_system_code '2'
_symmetry_cell_setting 'orthorhombic'
loop_
_space_group_symop_operation_xyz
x,y,z
1/2-x,1/2-y,z
1/2+x,-y,-z
-x,1/2+y,-z
-x,-y,-z
1/2+x,1/2+y,-z
1/2-x,y,z
x,1/2-y,z
loop_
_atom_site_type_symbol
_atom_site_label
_atom_site_fract_x
_atom_site_fract_y
_atom_site_fract_z
Si Si1 0.451674 0.871155 0.769364
Si Si2 0.543004 0.316979 0.804622
Si Si3 0.962419 0.061139 0.087820
Si Si4 0.464241 0.814525 0.619180
Si Si5 0.538197 0.426784 0.909403
Si Si6 0.955588 0.888726 0.343389
Si Si7 0.537328 0.517469 0.665479
Si Si8 0.547033 0.577044 0.511375
O O1 0.250000 0.853348 0.784695
O O2 0.533113 0.890695 0.851090
O O3 0.526822 0.824297 0.708412
O O4 0.456250 0.931233 0.717794
O O5 0.750000 0.313072 0.823245
O O6 0.470263 0.250000 0.813855
O O7 0.470425 0.371185 0.858338
O O8 0.529038 0.339820 0.715027
O O9 0.750000 0.065450 0.086590
O O10 0.026189 0.072722 0.999666
O O11 0.002088 0.994413 0.116162
O O12 0.250000 0.820489 0.619071
O O13 0.510215 0.750000 0.590429
O O14 0.540827 0.864757 0.565129
O O15 0.750000 0.421618 0.909913
O O16 0.750000 0.874996 0.353260
O O17 0.036645 0.901656 0.429465
O O18 0.979706 0.953455 0.305609
O O19 0.750000 0.521931 0.668077
O O20 0.479340 0.528467 0.574512
O O21 0.750000 0.562150 0.496082
#
# Coordination Sequence:
#
# PCOD9448184 Si02
#       8
#     8   8   8   8   8   8   8   8
#     4   9  17  30  48  72 102 131 160 197 241 291
#     4  10  22  39  55  72  99 136 176 214 251 295
#     4   9  17  30  51  78 103 127 158 197 244 296
#     4   9  18  32  49  69  95 128 163 199 241 288
#     4   9  18  33  52  74 100 129 161 200 245 291
#     4  11  22  35  52  74  99 128 165 208 252 297
#     4  10  19  32  51  75 103 132 162 199 248 302
#     4   9  20  35  50  71  98 129 165 206 251 297
#
# _framework density 21.804006999999999
#
# number of rings (size 3 to 8) (size 9 to 14) (size 15 to 20)
#    0.000    2.500    0.000    1.875    0.000    5.500 
#    0.000    3.125    0.000    3.750    0.000    0.000 
#    0.000    5.000    0.000    0.000    0.000    0.000 
#
# Total GULP energy -356793.361182 kJ/mol
# GULP energy per Si atom -5574.896268 kJ/mol
# Density = 2.175438 g / cm^3
# Si number density = 21.804007 Si / 1000 Ang^3
#
#
#
# Elastic Constant Matrix: (Units=GPa)
#
#
# Indices 1 2 3 4 5 6 
#
# 1 61.4227 9.5661 2.6955 0.0000 0.0000 0.0000
# 2 9.5661 107.2701 27.5362 0.0000 0.0000 0.0000
# 3 2.6955 27.5362 87.6256 0.0000 0.0000 0.0000
# 4 0.0000 0.0000 0.0000 21.5187 0.0000 0.0000
# 5 0.0000 0.0000 0.0000 0.0000 7.7594 0.0000
# 6 0.0000 0.0000 0.0000 0.0000 0.0000 14.8832
#
#
#
# Elastic Compliance Matrix: (Units=1/GPa)
#
#
# Indices 1 2 3 4 5 6 
#
# 1 0.016510 -0.001460 -0.000049 0.000000 0.000000 0.000000
# 2 -0.001460 0.010269 -0.003182 0.000000 0.000000 0.000000
# 3 -0.000049 -0.003182 0.012414 0.000000 0.000000 0.000000
# 4 0.000000 0.000000 0.000000 0.046471 0.000000 0.000000
# 5 0.000000 0.000000 0.000000 0.000000 0.128877 0.000000
# 6 0.000000 0.000000 0.000000 0.000000 0.000000 0.067190
#
#
# Mechanical properties :
#
#
# Convention : Reuss Voigt Hill
#
# Bulk Modulus (GPa) = 33.54472 37.32378 35.43425
# Shear Modulus (GPa) = 16.60853 23.26695 19.93774
#
# Velocity S-wave (km/s) = 2.76292 3.27019 3.02720
# Velocity P-wave (km/s) = 5.05929 5.60481 5.33902
#
# Compressibility (1/GPa) = 0.02981095
#
# Stress axis : x y z
#
# Youngs Moduli (GPa) = 60.56895 97.37762 80.55613
#
# Poissons Ratio (x) = 0.14214 0.00396
# Poissons Ratio (y) = 0.08841 0.25635
# Poissons Ratio (z) = 0.00298 0.30988
#
# Static dielectric constant tensor:
#      x y z
#    x 1.834790 0.000000 0.000000 
#    y 0.000000 1.797660 0.000000 
#    z 0.000000 0.000000 1.865370 
# 
# From -- ./inp_files/26305.got.cif
#   From: 2010.05.17/outbox.cif.g08.bks.cpg/sg59_14_cif.got.tgz:26305.got - 2010.06.03 14:40:33.
