data_PCOD9448256
_publ_section_title
;
Structure prediction by ZEFSAII (Michael W. Deem and Ramdas Pophale) SiO2 
 PCOD9448256
Probable space group: P M M N
;
_chemical_formula_sum "Si O2"
_cell_formula_units_Z 64
_cell_length_a 18.159949
_cell_length_b 8.714120
_cell_length_c 22.969440
_cell_angle_alpha 90.000000
_cell_angle_beta 90.000000
_cell_angle_gamma 90.000000
_cell_volume 3634.867362
_symmetry_space_group_name_H-M "P M M N"
_symmetry_group_IT_number 59
_space_group.IT_coordinate_system_code '2'
_symmetry_cell_setting 'orthorhombic'
loop_
_space_group_symop_operation_xyz
x,y,z
1/2-x,1/2-y,z
1/2+x,-y,-z
-x,1/2+y,-z
-x,-y,-z
1/2+x,1/2+y,-z
1/2-x,y,z
x,1/2-y,z
loop_
_atom_site_type_symbol
_atom_site_label
_atom_site_fract_x
_atom_site_fract_y
_atom_site_fract_z
Si Si1 0.027175 0.932167 0.609849
Si Si2 0.123076 0.932039 0.427783
Si Si3 0.333879 0.564146 0.939734
Si Si4 0.167139 0.068075 0.548604
Si Si5 0.035656 0.433870 0.859640
Si Si6 0.516007 0.567505 0.741147
Si Si7 0.065063 0.565364 0.040027
Si Si8 0.832182 0.434718 0.703920
O O1 0.014670 0.750000 0.603058
O O2 0.018765 0.971126 0.678150
O O3 0.105443 0.978994 0.584512
O O4 0.962682 0.022536 0.576503
O O5 0.131509 0.750000 0.436693
O O6 0.156891 0.971862 0.364687
O O7 0.158591 0.020810 0.481212
O O8 0.250000 0.514108 0.929209
O O9 0.335947 0.750000 0.936090
O O10 0.393550 0.499436 0.894077
O O11 0.361474 0.519567 0.005091
O O12 0.250000 0.030968 0.567846
O O13 0.155404 0.250000 0.554440
O O14 0.040390 0.250000 0.860198
O O15 0.027194 0.493190 0.794475
O O16 0.961325 0.481136 0.895609
O O17 0.515172 0.750000 0.747504
O O18 0.600207 0.509029 0.738028
O O19 0.063527 0.750000 0.039143
O O20 0.000000 0.500000 0.000000
O O21 0.750000 0.481331 0.722173
O O22 0.837868 0.250000 0.708938
#
# Coordination Sequence:
#
# PCOD9448256 Si02
#       8
#     8   8   8   8   8   8   8   8
#     4  10  21  37  55  74  98 131 171 213 256 303
#     4  10  19  33  55  79 103 131 164 203 251 310
#     4   9  17  31  52  77 105 135 168 209 254 298
#     4  11  23  36  51  74 103 132 164 207 259 311
#     4  10  19  32  52  76 103 136 174 213 251 297
#     4  10  21  36  54  75 100 135 177 215 253 299
#     4   8  15  28  47  72  99 128 161 196 240 291
#     4   9  18  33  53  77 103 131 165 207 255 304
#
# _framework density 17.607244999999999
#
# number of rings (size 3 to 8) (size 9 to 14) (size 15 to 20)
#    0.000    2.375    0.000    2.625    0.000    4.500 
#    0.000    1.250    0.000    3.000    0.000    0.000 
#    0.000    0.000    0.000    0.000    0.000    0.000 
#
# Total GULP energy -356840.710312 kJ/mol
# GULP energy per Si atom -5575.636099 kJ/mol
# Density = 1.756717 g / cm^3
# Si number density = 17.607245 Si / 1000 Ang^3
#
#
#
# Elastic Constant Matrix: (Units=GPa)
#
#
# Indices 1 2 3 4 5 6 
#
# 1 98.4714 16.2948 30.3746 0.0000 0.0000 0.0000
# 2 16.2948 14.8893 11.8687 0.0000 0.0000 0.0000
# 3 30.3746 11.8687 49.7939 0.0000 0.0000 0.0000
# 4 0.0000 0.0000 0.0000 22.2890 0.0000 0.0000
# 5 0.0000 0.0000 0.0000 0.0000 18.9804 0.0000
# 6 0.0000 0.0000 0.0000 0.0000 0.0000 24.6451
#
#
#
# Elastic Compliance Matrix: (Units=1/GPa)
#
#
# Indices 1 2 3 4 5 6 
#
# 1 0.013672 -0.010265 -0.005893 0.000000 0.000000 0.000000
# 2 -0.010265 0.090623 -0.015339 0.000000 0.000000 0.000000
# 3 -0.005893 -0.015339 0.027334 0.000000 0.000000 0.000000
# 4 0.000000 0.000000 0.000000 0.044865 0.000000 0.000000
# 5 0.000000 0.000000 0.000000 0.000000 0.052686 0.000000
# 6 0.000000 0.000000 0.000000 0.000000 0.000000 0.040576
#
#
# Mechanical properties :
#
#
# Convention : Reuss Voigt Hill
#
# Bulk Modulus (GPa) = 14.56988 31.13674 22.85331
# Shear Modulus (GPa) = 14.05968 20.15733 17.10851
#
# Velocity S-wave (km/s) = 2.82887 3.38721 3.12055
# Velocity P-wave (km/s) = 4.35464 5.74630 5.09818
#
# Compressibility (1/GPa) = 0.06863473
#
# Stress axis : x y z
#
# Youngs Moduli (GPa) = 73.14438 11.03476 36.58481
#
# Poissons Ratio (x) = 0.11327 0.21560
# Poissons Ratio (y) = 0.75079 0.56117
# Poissons Ratio (z) = 0.43105 0.16926
#
# Static dielectric constant tensor:
#      x y z
#    x 1.600870 0.000000 0.000000 
#    y 0.000000 1.591100 0.000000 
#    z 0.000000 0.000000 1.597780 
# 
# From -- ./inp_files/29392.got.cif
#   From: 2010.05.17/outbox.cif.g08.bks.cpg/sg59_15_cif.got.tgz:29392.got - 2010.06.03 14:40:33.
