data_PCOD9448220
_publ_section_title
;
Structure prediction by ZEFSAII (Michael W. Deem and Ramdas Pophale) SiO2 
 PCOD9448220
Probable space group: P M M N
;
_chemical_formula_sum "Si O2"
_cell_formula_units_Z 64
_cell_length_a 8.816809
_cell_length_b 24.048217
_cell_length_c 15.424758
_cell_angle_alpha 90.000000
_cell_angle_beta 90.000000
_cell_angle_gamma 90.000000
_cell_volume 3270.488858
_symmetry_space_group_name_H-M "P M M N"
_symmetry_group_IT_number 59
_space_group.IT_coordinate_system_code '2'
_symmetry_cell_setting 'orthorhombic'
loop_
_space_group_symop_operation_xyz
x,y,z
1/2-x,1/2-y,z
1/2+x,-y,-z
-x,1/2+y,-z
-x,-y,-z
1/2+x,1/2+y,-z
1/2-x,y,z
x,1/2-y,z
loop_
_atom_site_type_symbol
_atom_site_label
_atom_site_fract_x
_atom_site_fract_y
_atom_site_fract_z
Si Si1 0.066547 0.104711 0.895262
Si Si2 0.432549 0.312239 0.046968
Si Si3 0.568583 0.103522 0.394770
Si Si4 0.573600 0.484478 0.631656
Si Si5 0.574590 0.506512 0.837363
Si Si6 0.934535 0.687739 0.257364
Si Si7 0.068879 0.370153 0.567837
Si Si8 0.430787 0.876242 0.802144
O O1 0.250000 0.100193 0.894032
O O2 0.018110 0.140696 0.810945
O O3 0.019675 0.141312 0.977715
O O4 0.996885 0.043549 0.891632
O O5 0.250000 0.313479 0.049522
O O6 0.478693 0.250000 0.020574
O O7 0.496805 0.328373 0.140161
O O8 0.750000 0.099582 0.398258
O O9 0.497976 0.041769 0.402154
O O10 0.506985 0.139010 0.474826
O O11 0.524390 0.125205 0.299244
O O12 0.750000 0.480294 0.605543
O O13 0.566949 0.488018 0.736220
O O14 0.482492 0.431193 0.599639
O O15 0.750000 0.515434 0.860821
O O16 0.487505 0.564786 0.840321
O O17 0.750000 0.687908 0.254636
O O18 0.985472 0.750000 0.234503
O O19 0.978545 0.671129 0.354865
O O20 0.250000 0.368222 0.559358
O O21 0.250000 0.873841 0.806758
#
# Coordination Sequence:
#
# PCOD9448220 Si02
#       8
#     8   8   8   8   8   8   8   8
#     4  10  19  35  60  87 116 148 185 229 280 342
#     4  10  22  40  63  89 114 145 188 237 287 337
#     4  10  21  36  54  77 108 144 186 231 279 332
#     4  10  19  32  51  78 113 148 183 225 273 329
#     4  10  20  34  56  86 120 153 186 230 284 341
#     4   9  18  33  54  80 111 148 189 230 272 329
#     4  11  20  31  52  80 110 146 187 229 275 327
#     4  10  22  40  61  83 112 151 193 239 288 341
#
# _framework density 19.568940999999999
#
# number of rings (size 3 to 8) (size 9 to 14) (size 15 to 20)
#    0.000    2.000    1.250    2.625    0.000    5.250 
#    0.000    0.625    0.000    6.375    0.000    0.000 
#    0.000    0.000    0.000    0.000    0.000    0.000 
#
# Total GULP energy -357504.022965 kJ/mol
# GULP energy per Si atom -5586.000359 kJ/mol
# Density = 1.952440 g / cm^3
# Si number density = 19.568941 Si / 1000 Ang^3
#
#
#
# Elastic Constant Matrix: (Units=GPa)
#
#
# Indices 1 2 3 4 5 6 
#
# 1 15.8037 0.0041 9.4876 0.0000 0.0000 0.0000
# 2 0.0041 17.2351 16.2096 0.0000 0.0000 0.0000
# 3 9.4876 16.2096 58.5988 0.0000 0.0000 0.0000
# 4 0.0000 0.0000 0.0000 21.6955 0.0000 0.0000
# 5 0.0000 0.0000 0.0000 0.0000 26.9202 0.0000
# 6 0.0000 0.0000 0.0000 0.0000 0.0000 21.3482
#
#
#
# Elastic Compliance Matrix: (Units=1/GPa)
#
#
# Indices 1 2 3 4 5 6 
#
# 1 0.072838 0.014968 -0.015934 0.000000 0.000000 0.000000
# 2 0.014968 0.081500 -0.024968 0.000000 0.000000 0.000000
# 3 -0.015934 -0.024968 0.026552 0.000000 0.000000 0.000000
# 4 0.000000 0.000000 0.000000 0.046092 0.000000 0.000000
# 5 0.000000 0.000000 0.000000 0.000000 0.037147 0.000000
# 6 0.000000 0.000000 0.000000 0.000000 0.000000 0.046842
#
#
# Mechanical properties :
#
#
# Convention : Reuss Voigt Hill
#
# Bulk Modulus (GPa) = 7.75055 15.89335 11.82195
# Shear Modulus (GPa) = 12.31996 18.38855 15.35425
#
# Velocity S-wave (km/s) = 2.51184 3.06875 2.80415
# Velocity P-wave (km/s) = 3.51876 4.54924 4.06677
#
# Compressibility (1/GPa) = 0.12902312
#
# Stress axis : x y z
#
# Youngs Moduli (GPa) = 13.72909 12.26993 37.66254
#
# Poissons Ratio (x) = -0.18366 0.60010
# Poissons Ratio (y) = -0.20550 0.94036
# Poissons Ratio (z) = 0.21875 0.30636
#
# Static dielectric constant tensor:
#      x y z
#    x 1.656350 0.000000 0.000000 
#    y 0.000000 1.653170 0.000000 
#    z 0.000000 0.000000 1.720140 
# 
# From -- ./inp_files/26254.got.cif
#   From: 2010.05.17/outbox.cif.g08.bks.cpg/sg59_14_cif.got.tgz:26254.got - 2010.06.03 14:40:33.
