data_PCOD9448800
_publ_section_title
;
Structure prediction by ZEFSAII (Michael W. Deem and Ramdas Pophale) SiO2 
 PCOD9448800
Probable space group: P M M N
;
_chemical_formula_sum "Si O2"
_cell_formula_units_Z 40
_cell_length_a 7.473102
_cell_length_b 10.407357
_cell_length_c 24.742590
_cell_angle_alpha 90.000000
_cell_angle_beta 90.000000
_cell_angle_gamma 90.000000
_cell_volume 1924.360886
_symmetry_space_group_name_H-M "P M M N"
_symmetry_group_IT_number 59
_space_group.IT_coordinate_system_code '2'
_symmetry_cell_setting 'orthorhombic'
loop_
_space_group_symop_operation_xyz
x,y,z
1/2-x,1/2-y,z
1/2+x,-y,-z
-x,1/2+y,-z
-x,-y,-z
1/2+x,1/2+y,-z
1/2-x,y,z
x,1/2-y,z
loop_
_atom_site_type_symbol
_atom_site_label
_atom_site_fract_x
_atom_site_fract_y
_atom_site_fract_z
Si Si1 0.036148 0.606636 0.544560
Si Si2 0.468229 0.603116 0.666860
Si Si3 0.530749 0.603054 0.244583
Si Si4 0.529864 0.250000 0.072881
Si Si5 0.963835 0.250000 0.948764
Si Si6 0.539477 0.510819 0.127545
O O1 0.250000 0.614910 0.548585
O O2 0.969734 0.750000 0.530005
O O3 0.972697 0.575143 0.605340
O O4 0.000000 0.500000 0.500000
O O5 0.250000 0.601360 0.667486
O O6 0.521067 0.750000 0.680191
O O7 0.527626 0.497335 0.709762
O O8 0.750000 0.603484 0.244321
O O9 0.475306 0.750000 0.254461
O O10 0.468536 0.557102 0.185404
O O11 0.750000 0.250000 0.072166
O O12 0.468108 0.378191 0.103376
O O13 0.471634 0.250000 0.010448
O O14 0.750000 0.250000 0.950096
O O15 0.020979 0.375718 0.915850
O O16 0.750000 0.488759 0.136335
#
# Coordination Sequence:
#
# PCOD9448800 Si02
#       6
#     8   8   8   4   4   8
#     4   9  18  32  49  73 104 135 168 204 243 291
#     4   8  15  27  44  69 100 127 154 199 252 292
#     4   9  16  26  44  71  97 121 154 199 250 296
#     4   9  20  33  51  77 101 127 166 207 248 298
#     4  11  21  35  51  71 101 137 168 199 244 302
#     4  10  19  34  53  76 101 127 163 210 253 292
#
# _framework density 20.786121000000001
#
# number of rings (size 3 to 8) (size 9 to 14) (size 15 to 20)
#    0.000    2.800    1.000    2.100    1.400    1.200 
#    0.000    3.500    0.000    1.200    0.000    0.000 
#    0.000    0.000    0.000    0.000    0.000    0.000 
#
# Total GULP energy -223288.315936 kJ/mol
# GULP energy per Si atom -5582.207898 kJ/mol
# Density = 2.073881 g / cm^3
# Si number density = 20.786121 Si / 1000 Ang^3
#
#
#
# Elastic Constant Matrix: (Units=GPa)
#
#
# Indices 1 2 3 4 5 6 
#
# 1 53.3697 -1.8243 6.8485 0.0000 0.0000 0.0000
# 2 -1.8243 233.4463 160.4299 0.0000 0.0000 0.0000
# 3 6.8485 160.4299 191.4977 0.0000 0.0000 0.0000
# 4 0.0000 0.0000 0.0000 50.1334 0.0000 0.0000
# 5 0.0000 0.0000 0.0000 0.0000 13.3229 0.0000
# 6 0.0000 0.0000 0.0000 0.0000 0.0000 16.9739
#
#
#
# Elastic Compliance Matrix: (Units=1/GPa)
#
#
# Indices 1 2 3 4 5 6 
#
# 1 0.019030 0.001453 -0.001898 0.000000 0.000000 0.000000
# 2 0.001453 0.010207 -0.008603 0.000000 0.000000 0.000000
# 3 -0.001898 -0.008603 0.012497 0.000000 0.000000 0.000000
# 4 0.000000 0.000000 0.000000 0.019947 0.000000 0.000000
# 5 0.000000 0.000000 0.000000 0.000000 0.075059 0.000000
# 6 0.000000 0.000000 0.000000 0.000000 0.000000 0.058914
#
#
# Mechanical properties :
#
#
# Convention : Reuss Voigt Hill
#
# Bulk Modulus (GPa) = 42.30328 89.91353 66.10841
# Shear Modulus (GPa) = 22.56002 36.94334 29.75168
#
# Velocity S-wave (km/s) = 3.29802 4.22039 3.78739
# Velocity P-wave (km/s) = 5.90750 8.19142 7.14135
#
# Compressibility (1/GPa) = 0.02363883
#
# Stress axis : x y z
#
# Youngs Moduli (GPa) = 52.54747 97.96756 80.01606
#
# Poissons Ratio (x) = -0.14234 0.15185
# Poissons Ratio (y) = -0.07635 0.68841
# Poissons Ratio (z) = 0.09972 0.84285
#
# Static dielectric constant tensor:
#      x y z
#    x 1.816650 0.000000 0.000000 
#    y 0.000000 1.713250 0.000000 
#    z 0.000000 0.000000 1.712250 
# 
# From -- ./inp_files/32444.got.cif
#   From: 2010.05.17/outbox.cif.g08.bks.cpg/sg59_17_cif.got.tgz:32444.got - 2010.06.03 14:40:33.
