data_PCOD9448989
_publ_section_title
;
Structure prediction by ZEFSAII (Michael W. Deem and Ramdas Pophale) SiO2 
 PCOD9448989
Probable space group: P M M N
;
_chemical_formula_sum "Si O2"
_cell_formula_units_Z 56
_cell_length_a 17.285785
_cell_length_b 14.286543
_cell_length_c 10.976476
_cell_angle_alpha 90.000000
_cell_angle_beta 90.000000
_cell_angle_gamma 90.000000
_cell_volume 2710.685869
_symmetry_space_group_name_H-M "P M M N"
_symmetry_group_IT_number 59
_space_group.IT_coordinate_system_code '2'
_symmetry_cell_setting 'orthorhombic'
loop_
_space_group_symop_operation_xyz
x,y,z
1/2-x,1/2-y,z
1/2+x,-y,-z
-x,1/2+y,-z
-x,-y,-z
1/2+x,1/2+y,-z
1/2-x,y,z
x,1/2-y,z
loop_
_atom_site_type_symbol
_atom_site_label
_atom_site_fract_x
_atom_site_fract_y
_atom_site_fract_z
Si Si1 0.332986 0.968315 0.945434
Si Si2 0.384919 0.147407 0.064759
Si Si3 0.540814 0.142665 0.911064
Si Si4 0.881990 0.149038 0.436914
Si Si5 0.485813 0.567197 0.355139
Si Si6 0.464981 0.146207 0.327071
Si Si7 0.164709 0.037130 0.666907
O O1 0.250000 0.919196 0.954836
O O2 0.340659 0.005445 0.807865
O O3 0.402094 0.905005 0.993037
O O4 0.333830 0.059249 0.032231
O O5 0.348159 0.250000 0.051553
O O6 0.422054 0.141843 0.198643
O O7 0.456104 0.141529 0.970348
O O8 0.563016 0.250000 0.889105
O O9 0.538194 0.089018 0.783236
O O10 0.843477 0.250000 0.446630
O O11 0.938428 0.132566 0.552614
O O12 0.833498 0.056791 0.414711
O O13 0.941815 0.152070 0.322708
O O14 0.459402 0.459272 0.382162
O O15 0.579661 0.581184 0.361024
O O16 0.442150 0.250000 0.381253
O O17 0.250000 0.084985 0.651643
#
# Coordination Sequence:
#
# PCOD9448989 Si02
#       7
#     8   8   8   8   8   8   8
#     4  11  22  37  57  85 124 158 188 241 304 358
#     4  10  19  34  58  84 112 151 195 240 287 346
#     4  11  21  34  57  85 114 155 201 240 287 350
#     4  10  21  36  57  87 115 151 201 245 289 347
#     4  11  19  36  61  81 119 156 198 250 290 348
#     4   9  17  30  54  83 109 142 193 246 285 326
#     4  10  21  36  59  87 117 152 190 242 304 350
#
# _framework density 20.658978999999999
#
# number of rings (size 3 to 8) (size 9 to 14) (size 15 to 20)
#    0.000    1.714    2.857    4.286    0.000    2.571 
#    0.000    2.143    0.000    3.429    0.000    2.000 
#    0.000    0.000    0.000    0.000    0.000    0.000 
#
# Total GULP energy -311801.129355 kJ/mol
# GULP energy per Si atom -5567.877310 kJ/mol
# Density = 2.061196 g / cm^3
# Si number density = 20.658979 Si / 1000 Ang^3
#
#
#
# Elastic Constant Matrix: (Units=GPa)
#
#
# Indices 1 2 3 4 5 6 
#
# 1 84.6863 6.6022 28.8332 0.0000 0.0000 0.0000
# 2 6.6022 77.7922 -6.6127 0.0000 0.0000 0.0000
# 3 28.8332 -6.6127 58.1283 0.0000 0.0000 0.0000
# 4 0.0000 0.0000 0.0000 20.4962 0.0000 0.0000
# 5 0.0000 0.0000 0.0000 0.0000 -3.1685 0.0000
# 6 0.0000 0.0000 0.0000 0.0000 0.0000 1.8981
#
#
#
# Elastic Compliance Matrix: (Units=1/GPa)
#
#
# Indices 1 2 3 4 5 6 
#
# 1 0.014468 -0.001856 -0.007388 0.000000 0.000000 0.000000
# 2 -0.001856 0.013218 0.002424 0.000000 0.000000 0.000000
# 3 -0.007388 0.002424 0.021144 0.000000 0.000000 0.000000
# 4 0.000000 0.000000 0.000000 0.048789 0.000000 0.000000
# 5 0.000000 0.000000 0.000000 0.000000 -0.315607 0.000000
# 6 0.000000 0.000000 0.000000 0.000000 0.000000 0.526850
#
#
# Mechanical properties :
#
#
# Convention : Reuss Voigt Hill
#
# Bulk Modulus (GPa) = 28.41595 30.91691 29.66643
# Shear Modulus (GPa) = 14.95966 16.63076 15.79521
#
# Velocity S-wave (km/s) = 2.69387 2.84035 2.76808
# Velocity P-wave (km/s) = 4.84361 5.07491 4.96061
#
# Compressibility (1/GPa) = 0.03519151
#
# Stress axis : x y z
#
# Youngs Moduli (GPa) = 69.11654 75.65245 47.29545
#
# Poissons Ratio (x) = 0.14041 0.34941
# Poissons Ratio (y) = 0.12827 -0.11466
# Poissons Ratio (z) = 0.51062 -0.18341
#
# Static dielectric constant tensor:
#      x y z
#    x 1.739150 0.000000 0.000000 
#    y 0.000000 1.810820 0.000000 
#    z 0.000000 0.000000 1.736000 
# 
# From -- ./inp_files/16942.got.cif
#   From: 2010.05.17/outbox.cif.g08.bks.cpg/sg59_9_cif.got.tgz:16942.got - 2010.06.03 14:40:33.
