data_PCOD9448706
_publ_section_title
;
Structure prediction by ZEFSAII (Michael W. Deem and Ramdas Pophale) SiO2 
 PCOD9448706
Probable space group: P M M N
;
_chemical_formula_sum "Si O2"
_cell_formula_units_Z 40
_cell_length_a 18.636002
_cell_length_b 8.595910
_cell_length_c 14.046328
_cell_angle_alpha 90.000000
_cell_angle_beta 90.000000
_cell_angle_gamma 90.000000
_cell_volume 2250.128983
_symmetry_space_group_name_H-M "P M M N"
_symmetry_group_IT_number 59
_space_group.IT_coordinate_system_code '2'
_symmetry_cell_setting 'orthorhombic'
loop_
_space_group_symop_operation_xyz
x,y,z
1/2-x,1/2-y,z
1/2+x,-y,-z
-x,1/2+y,-z
-x,-y,-z
1/2+x,1/2+y,-z
1/2-x,y,z
x,1/2-y,z
loop_
_atom_site_type_symbol
_atom_site_label
_atom_site_fract_x
_atom_site_fract_y
_atom_site_fract_z
Si Si1 0.170340 0.561363 0.195136
Si Si2 0.955781 0.064535 0.292026
Si Si3 0.833471 0.936573 0.415949
Si Si4 0.094848 0.563165 0.392410
Si Si5 0.975197 0.062813 0.898842
O O1 0.250000 0.502267 0.174317
O O2 0.172340 0.750000 0.190791
O O3 0.145618 0.522717 0.302376
O O4 0.106302 0.511133 0.125863
O O5 0.957636 0.250000 0.290312
O O6 0.879599 0.004865 0.329340
O O7 0.016952 0.003408 0.365101
O O8 0.976885 0.998469 0.188700
O O9 0.750000 0.983989 0.414213
O O10 0.836987 0.750000 0.413553
O O11 0.871242 0.996393 0.512162
O O12 0.089721 0.750000 0.398951
O O13 0.977242 0.250000 0.898087
O O14 0.000000 0.000000 0.000000
#
# Coordination Sequence:
#
# PCOD9448706 Si02
#       5
#     8   8   8   8   8
#     4   8  15  29  51  79 106 132 168 216 265 312
#     4  11  22  37  57  79 106 141 182 225 269 321
#     4  11  23  37  53  77 111 147 183 225 270 316
#     4  10  19  33  55  81 110 143 179 219 266 323
#     4  10  20  36  58  81 106 138 177 223 275 328
#
# _framework density 17.776758000000001
#
# number of rings (size 3 to 8) (size 9 to 14) (size 15 to 20)
#    0.000    2.000    0.000    6.000    0.000    2.400 
#    0.000    1.000    0.000   15.600    0.000    0.000 
#    0.000    0.000    0.000    0.000    0.000    0.000 
#
# Total GULP energy -223366.325270 kJ/mol
# GULP energy per Si atom -5584.158132 kJ/mol
# Density = 1.773630 g / cm^3
# Si number density = 17.776758 Si / 1000 Ang^3
#
#
#
# Elastic Constant Matrix: (Units=GPa)
#
#
# Indices 1 2 3 4 5 6 
#
# 1 130.3738 48.0932 91.0178 0.0000 0.0000 0.0000
# 2 48.0932 82.6828 42.1953 0.0000 0.0000 0.0000
# 3 91.0178 42.1953 120.3488 0.0000 0.0000 0.0000
# 4 0.0000 0.0000 0.0000 32.7575 0.0000 0.0000
# 5 0.0000 0.0000 0.0000 0.0000 14.1156 0.0000
# 6 0.0000 0.0000 0.0000 0.0000 0.0000 20.6835
#
#
#
# Elastic Compliance Matrix: (Units=1/GPa)
#
#
# Indices 1 2 3 4 5 6 
#
# 1 0.017337 -0.004132 -0.011663 0.000000 0.000000 0.000000
# 2 -0.004132 0.015715 -0.002385 0.000000 0.000000 0.000000
# 3 -0.011663 -0.002385 0.017965 0.000000 0.000000 0.000000
# 4 0.000000 0.000000 0.000000 0.030527 0.000000 0.000000
# 5 0.000000 0.000000 0.000000 0.000000 0.070844 0.000000
# 6 0.000000 0.000000 0.000000 0.000000 0.000000 0.048348
#
#
# Mechanical properties :
#
#
# Convention : Reuss Voigt Hill
#
# Bulk Modulus (GPa) = 68.22186 77.33534 72.77860
# Shear Modulus (GPa) = 20.66282 23.65125 22.15703
#
# Velocity S-wave (km/s) = 3.41302 3.65150 3.53428
# Velocity P-wave (km/s) = 7.34792 7.83429 7.59500
#
# Compressibility (1/GPa) = 0.01465806
#
# Stress axis : x y z
#
# Youngs Moduli (GPa) = 57.68163 63.63382 55.66250
#
# Poissons Ratio (x) = 0.26295 0.64917
# Poissons Ratio (y) = 0.23836 0.13273
# Poissons Ratio (z) = 0.67271 0.15174
#
# Static dielectric constant tensor:
#      x y z
#    x 1.620650 0.000000 0.000000 
#    y 0.000000 1.599080 0.000000 
#    z 0.000000 0.000000 1.575820 
# 
# From -- ./inp_files/20107.got.cif
#   From: 2010.05.17/outbox.cif.g08.bks.cpg/sg59_11_cif.got.tgz:20107.got - 2010.06.03 14:40:33.
