data_PCOD9448691
_publ_section_title
;
Structure prediction by ZEFSAII (Michael W. Deem and Ramdas Pophale) SiO2 
 PCOD9448691
Probable space group: P M M N
;
_chemical_formula_sum "Si O2"
_cell_formula_units_Z 56
_cell_length_a 7.675360
_cell_length_b 19.507034
_cell_length_c 17.207927
_cell_angle_alpha 90.000000
_cell_angle_beta 90.000000
_cell_angle_gamma 90.000000
_cell_volume 2576.431204
_symmetry_space_group_name_H-M "P M M N"
_symmetry_group_IT_number 59
_space_group.IT_coordinate_system_code '2'
_symmetry_cell_setting 'orthorhombic'
loop_
_space_group_symop_operation_xyz
x,y,z
1/2-x,1/2-y,z
1/2+x,-y,-z
-x,1/2+y,-z
-x,-y,-z
1/2+x,1/2+y,-z
1/2-x,y,z
x,1/2-y,z
loop_
_atom_site_type_symbol
_atom_site_label
_atom_site_fract_x
_atom_site_fract_y
_atom_site_fract_z
Si Si1 0.959241 0.580598 0.007783
Si Si2 0.539019 0.579295 0.178817
Si Si3 0.963883 0.670930 0.861581
Si Si4 0.460718 0.171092 0.678099
Si Si5 0.556796 0.539363 0.577304
Si Si6 0.542880 0.560157 0.744406
Si Si7 0.545097 0.171123 0.503380
O O1 0.750000 0.586736 0.007055
O O2 0.021098 0.602311 0.093702
O O3 0.023003 0.627583 0.937027
O O4 0.000000 0.500000 0.000000
O O5 0.750000 0.581318 0.179228
O O6 0.476730 0.625276 0.250671
O O7 0.483138 0.501741 0.195703
O O8 0.750000 0.670203 0.861689
O O9 0.018199 0.750000 0.863391
O O10 0.023012 0.629197 0.785142
O O11 0.250000 0.169493 0.677348
O O12 0.516183 0.250000 0.687890
O O13 0.520472 0.148231 0.592859
O O14 0.500000 0.500000 0.500000
O O15 0.750000 0.512744 0.590395
O O16 0.465006 0.536971 0.661235
O O17 0.551071 0.618928 0.552631
O O18 0.750000 0.570376 0.732738
O O19 0.750000 0.168674 0.485374
O O20 0.484855 0.250000 0.498357
#
# Coordination Sequence:
#
# PCOD9448691 Si02
#       7
#     8   8   8   8   8   8   8
#     4  10  19  33  55  80 107 142 178 216 265 321
#     4  10  20  32  52  81 109 139 176 217 267 322
#     4   9  18  34  56  81 108 139 179 224 265 311
#     4   9  18  33  52  76 108 142 178 223 272 322
#     4  11  23  37  56  82 111 144 187 235 284 335
#     4  10  21  36  55  79 105 140 181 223 272 325
#     4  10  21  37  56  78 107 144 185 227 276 335
#
# _framework density 21.735493999999999
#
# number of rings (size 3 to 8) (size 9 to 14) (size 15 to 20)
#    0.000    2.143    1.429    1.714    0.000    6.000 
#    0.000    4.286    0.000    1.714    0.000    2.000 
#    0.000    0.000    0.000    0.000    0.000    0.000 
#
# Total GULP energy -312645.713745 kJ/mol
# GULP energy per Si atom -5582.959174 kJ/mol
# Density = 2.168602 g / cm^3
# Si number density = 21.735494 Si / 1000 Ang^3
#
#
#
# Elastic Constant Matrix: (Units=GPa)
#
#
# Indices 1 2 3 4 5 6 
#
# 1 33.9811 1.7971 7.5408 0.0000 0.0000 0.0000
# 2 1.7971 86.1240 42.5717 0.0000 0.0000 0.0000
# 3 7.5408 42.5717 126.7032 0.0000 0.0000 0.0000
# 4 0.0000 0.0000 0.0000 41.0909 0.0000 0.0000
# 5 0.0000 0.0000 0.0000 0.0000 11.4729 0.0000
# 6 0.0000 0.0000 0.0000 0.0000 0.0000 19.4869
#
#
#
# Elastic Compliance Matrix: (Units=1/GPa)
#
#
# Indices 1 2 3 4 5 6 
#
# 1 0.029829 0.000306 -0.001878 0.000000 0.000000 0.000000
# 2 0.000306 0.013927 -0.004698 0.000000 0.000000 0.000000
# 3 -0.001878 -0.004698 0.009583 0.000000 0.000000 0.000000
# 4 0.000000 0.000000 0.000000 0.024336 0.000000 0.000000
# 5 0.000000 0.000000 0.000000 0.000000 0.087162 0.000000
# 6 0.000000 0.000000 0.000000 0.000000 0.000000 0.051316
#
#
# Mechanical properties :
#
#
# Convention : Reuss Voigt Hill
#
# Bulk Modulus (GPa) = 24.51060 38.95862 31.73461
# Shear Modulus (GPa) = 20.63629 27.40340 24.01984
#
# Velocity S-wave (km/s) = 3.08462 3.55458 3.32791
# Velocity P-wave (km/s) = 4.89773 5.89997 5.42206
#
# Compressibility (1/GPa) = 0.04079868
#
# Stress axis : x y z
#
# Youngs Moduli (GPa) = 33.52480 71.80390 104.35596
#
# Poissons Ratio (x) = -0.02197 0.19599
# Poissons Ratio (y) = -0.01026 0.49022
# Poissons Ratio (z) = 0.06296 0.33730
#
# Static dielectric constant tensor:
#      x y z
#    x 1.722830 0.000000 0.000000 
#    y 0.000000 1.775170 0.000000 
#    z 0.000000 0.000000 1.817780 
# 
# From -- ./inp_files/20946.got.cif
#   From: 2010.05.17/outbox.cif.g08.bks.cpg/sg59_11_cif.got.tgz:20946.got - 2010.06.03 14:40:33.
