data_PCOD9448358
_publ_section_title
;
Structure prediction by ZEFSAII (Michael W. Deem and Ramdas Pophale) SiO2 
 PCOD9448358
Probable space group: P M M N
;
_chemical_formula_sum "Si O2"
_cell_formula_units_Z 64
_cell_length_a 21.054891
_cell_length_b 17.554341
_cell_length_c 9.784823
_cell_angle_alpha 90.000000
_cell_angle_beta 90.000000
_cell_angle_gamma 90.000000
_cell_volume 3616.516925
_symmetry_space_group_name_H-M "P M M N"
_symmetry_group_IT_number 59
_space_group.IT_coordinate_system_code '2'
_symmetry_cell_setting 'orthorhombic'
loop_
_space_group_symop_operation_xyz
x,y,z
1/2-x,1/2-y,z
1/2+x,-y,-z
-x,1/2+y,-z
-x,-y,-z
1/2+x,1/2+y,-z
1/2-x,y,z
x,1/2-y,z
loop_
_atom_site_type_symbol
_atom_site_label
_atom_site_fract_x
_atom_site_fract_y
_atom_site_fract_z
Si Si1 0.545233 0.842081 0.254371
Si Si2 0.679767 0.563460 0.985840
Si Si3 0.569308 0.342942 0.552188
Si Si4 0.463707 0.422207 0.039249
Si Si5 0.317338 0.341291 0.746628
Si Si6 0.822741 0.158028 0.756563
Si Si7 0.060365 0.659502 0.760446
Si Si8 0.322877 0.607856 0.938784
O O1 0.543248 0.750000 0.246458
O O2 0.490306 0.867188 0.356355
O O3 0.614632 0.866515 0.309458
O O4 0.536464 0.874334 0.102166
O O5 0.750000 0.563116 0.914530
O O6 0.681584 0.631051 0.096363
O O7 0.677045 0.483629 0.068013
O O8 0.610393 0.567886 0.916124
O O9 0.570103 0.250000 0.549799
O O10 0.631749 0.367479 0.634979
O O11 0.564577 0.367819 0.395963
O O12 0.505053 0.381193 0.154551
O O13 0.500000 0.500000 0.000000
O O14 0.250000 0.369171 0.686974
O O15 0.316837 0.250000 0.740622
O O16 0.750000 0.134519 0.734310
O O17 0.824888 0.250000 0.763019
O O18 0.842491 0.128226 0.905685
O O19 0.049084 0.750000 0.761398
O O20 0.126970 0.642719 0.835588
O O21 0.250000 0.634840 0.919560
#
# Coordination Sequence:
#
# PCOD9448358 Si02
#       8
#     8   8   8   8   8   8   8   8
#     4   9  17  31  52  74  99 134 171 210 258 311
#     4   9  18  32  51  75 107 136 167 212 266 312
#     4   9  19  33  49  71 103 139 173 212 262 309
#     4  11  20  33  54  78 105 134 175 219 261 312
#     4   8  14  26  48  76  99 123 165 218 264 307
#     4   9  17  30  49  72  98 135 182 219 250 303
#     4  11  22  35  52  78 109 139 173 219 265 311
#     4  10  19  32  53  79 108 142 176 217 264 310
#
# _framework density 17.696584000000001
#
# number of rings (size 3 to 8) (size 9 to 14) (size 15 to 20)
#    0.000    2.500    1.250    1.500    0.000    2.750 
#    0.000    1.875    0.000    0.750    0.000    1.750 
#    0.000    0.000    0.000    0.000    0.000    0.000 
#
# Total GULP energy -356317.473274 kJ/mol
# GULP energy per Si atom -5567.460520 kJ/mol
# Density = 1.765631 g / cm^3
# Si number density = 17.696584 Si / 1000 Ang^3
#
#
#
# Elastic Constant Matrix: (Units=GPa)
#
#
# Indices 1 2 3 4 5 6 
#
# 1 145.9717 15.7471 77.9961 0.0000 0.0000 0.0000
# 2 15.7471 9.6060 14.5179 0.0000 0.0000 0.0000
# 3 77.9961 14.5179 105.7204 0.0000 0.0000 0.0000
# 4 0.0000 0.0000 0.0000 -11.1053 0.0000 0.0000
# 5 0.0000 0.0000 0.0000 0.0000 1.6753 0.0000
# 6 0.0000 0.0000 0.0000 0.0000 0.0000 18.1852
#
#
#
# Elastic Compliance Matrix: (Units=1/GPa)
#
#
# Indices 1 2 3 4 5 6 
#
# 1 0.011751 -0.007775 -0.007602 0.000000 0.000000 0.000000
# 2 -0.007775 0.136509 -0.013010 0.000000 0.000000 0.000000
# 3 -0.007602 -0.013010 0.016854 0.000000 0.000000 0.000000
# 4 0.000000 0.000000 0.000000 -0.090047 0.000000 0.000000
# 5 0.000000 0.000000 0.000000 0.000000 0.596915 0.000000
# 6 0.000000 0.000000 0.000000 0.000000 0.000000 0.054990
#
#
# Mechanical properties :
#
#
# Convention : Reuss Voigt Hill
#
# Bulk Modulus (GPa) = 9.23014 53.09117 31.16065
# Shear Modulus (GPa) = 6.09861 11.95351 9.02606
#
# Velocity S-wave (km/s) = 1.85841 2.60180 2.26087
# Velocity P-wave (km/s) = 3.13560 6.25234 4.94590
#
# Compressibility (1/GPa) = 0.10834075
#
# Stress axis : x y z
#
# Youngs Moduli (GPa) = 85.09725 7.32552 59.33343
#
# Poissons Ratio (x) = 0.05695 0.45105
# Poissons Ratio (y) = 0.66161 0.77193
# Poissons Ratio (z) = 0.64690 0.09531
#
# Static dielectric constant tensor:
#      x y z
#    x 1.669830 0.000000 0.000000 
#    y 0.000000 1.609080 0.000000 
#    z 0.000000 0.000000 1.565980 
# 
# From -- ./inp_files/11620.got.cif
#   From: 2010.05.17/outbox.cif.g08.bks.cpg/sg59_6_cif.got.tgz:11620.got - 2010.06.03 14:40:33.
