data_PCOD9448559
_publ_section_title
;
Structure prediction by ZEFSAII (Michael W. Deem and Ramdas Pophale) SiO2 
 PCOD9448559
Probable space group: P M M N
;
_chemical_formula_sum "Si O2"
_cell_formula_units_Z 56
_cell_length_a 7.520616
_cell_length_b 22.363133
_cell_length_c 15.319204
_cell_angle_alpha 90.000000
_cell_angle_beta 90.000000
_cell_angle_gamma 90.000000
_cell_volume 2576.453214
_symmetry_space_group_name_H-M "P M M N"
_symmetry_group_IT_number 59
_space_group.IT_coordinate_system_code '2'
_symmetry_cell_setting 'orthorhombic'
loop_
_space_group_symop_operation_xyz
x,y,z
1/2-x,1/2-y,z
1/2+x,-y,-z
-x,1/2+y,-z
-x,-y,-z
1/2+x,1/2+y,-z
1/2-x,y,z
x,1/2-y,z
loop_
_atom_site_type_symbol
_atom_site_label
_atom_site_fract_x
_atom_site_fract_y
_atom_site_fract_z
Si Si1 0.537593 0.566520 0.967590
Si Si2 0.966618 0.878258 0.145528
Si Si3 0.454102 0.878383 0.467053
Si Si4 0.539502 0.461839 0.688074
Si Si5 0.547055 0.750000 0.398465
Si Si6 0.535973 0.583400 0.770652
Si Si7 0.546317 0.750000 0.191450
Si Si8 0.962683 0.181101 0.363013
O O1 0.750000 0.575225 0.963062
O O2 0.468551 0.577500 0.870038
O O3 0.500000 0.500000 0.000000
O O4 0.471233 0.604839 0.049065
O O5 0.750000 0.878812 0.147111
O O6 0.035161 0.812256 0.164574
O O7 0.019187 0.922699 0.223674
O O8 0.250000 0.897301 0.481245
O O9 0.532748 0.924823 0.395985
O O10 0.457091 0.811633 0.426320
O O11 0.536237 0.863489 0.561619
O O12 0.750000 0.467860 0.672276
O O13 0.467996 0.527743 0.711622
O O14 0.750000 0.750000 0.432397
O O15 0.554620 0.750000 0.295118
O O16 0.750000 0.577210 0.773679
O O17 0.494491 0.646861 0.727159
O O18 0.750000 0.750000 0.157168
O O19 0.750000 0.184677 0.376768
O O20 0.028294 0.250000 0.367436
#
# Coordination Sequence:
#
# PCOD9448559 Si02
#       8
#     8   8   8   8   4   8   4   8
#     4  10  20  35  58  83 109 146 186 227 279 334
#     4  10  19  33  53  79 111 148 184 224 277 334
#     4  10  20  36  57  81 111 149 185 224 277 336
#     4  10  20  34  56  84 116 146 177 226 281 331
#     4  11  19  29  51  82 111 144 184 229 269 319
#     4  10  22  39  56  84 116 143 184 236 282 329
#     4   9  18  31  47  76 115 142 176 229 273 325
#     4  10  22  41  61  80 106 147 194 232 272 331
#
# _framework density 21.735305
#
# number of rings (size 3 to 8) (size 9 to 14) (size 15 to 20)
#    0.000    2.000    3.571    0.214    0.000    2.571 
#    1.286    0.357    0.000    0.000    0.000    0.000 
#    0.000    0.000    0.000    0.000    0.000    0.000 
#
# Total GULP energy -312403.718093 kJ/mol
# GULP energy per Si atom -5578.637823 kJ/mol
# Density = 2.168583 g / cm^3
# Si number density = 21.735305 Si / 1000 Ang^3
#
#
#
# Elastic Constant Matrix: (Units=GPa)
#
#
# Indices 1 2 3 4 5 6 
#
# 1 57.8097 -5.7404 0.5899 0.0000 0.0000 0.0000
# 2 -5.7404 86.4045 54.8921 0.0000 0.0000 0.0000
# 3 0.5899 54.8921 149.9974 0.0000 0.0000 0.0000
# 4 0.0000 0.0000 0.0000 22.3321 0.0000 0.0000
# 5 0.0000 0.0000 0.0000 0.0000 9.3865 0.0000
# 6 0.0000 0.0000 0.0000 0.0000 0.0000 3.5631
#
#
#
# Elastic Compliance Matrix: (Units=1/GPa)
#
#
# Indices 1 2 3 4 5 6 
#
# 1 0.017460 0.001568 -0.000643 0.000000 0.000000 0.000000
# 2 0.001568 0.015220 -0.005576 0.000000 0.000000 0.000000
# 3 -0.000643 -0.005576 0.008710 0.000000 0.000000 0.000000
# 4 0.000000 0.000000 0.000000 0.044779 0.000000 0.000000
# 5 0.000000 0.000000 0.000000 0.000000 0.106536 0.000000
# 6 0.000000 0.000000 0.000000 0.000000 0.000000 0.280657
#
#
# Mechanical properties :
#
#
# Convention : Reuss Voigt Hill
#
# Bulk Modulus (GPa) = 31.16273 43.74390 37.45332
# Shear Modulus (GPa) = 10.13461 23.35434 16.74448
#
# Velocity S-wave (km/s) = 2.16168 3.28150 2.77859
# Velocity P-wave (km/s) = 4.53861 5.87597 5.25005
#
# Compressibility (1/GPa) = 0.03208961
#
# Stress axis : x y z
#
# Youngs Moduli (GPa) = 57.27243 65.70285 114.81234
#
# Poissons Ratio (x) = -0.10304 0.07377
# Poissons Ratio (y) = -0.08982 0.64019
# Poissons Ratio (z) = 0.03680 0.36636
#
# Static dielectric constant tensor:
#      x y z
#    x 1.852180 0.000000 0.000000 
#    y 0.000000 1.761210 0.000000 
#    z 0.000000 0.000000 1.823830 
# 
# From -- ./inp_files/21214.got.cif
#   From: 2010.05.17/outbox.cif.g08.bks.cpg/sg59_11_cif.got.tgz:21214.got - 2010.06.03 14:40:33.
