data_PCOD9448033
_publ_section_title
;
Structure prediction by ZEFSAII (Michael W. Deem and Ramdas Pophale) SiO2 
 PCOD9448033
Probable space group: P M M N
;
_chemical_formula_sum "Si O2"
_cell_formula_units_Z 64
_cell_length_a 29.487461
_cell_length_b 8.983344
_cell_length_c 12.782428
_cell_angle_alpha 90.000000
_cell_angle_beta 90.000000
_cell_angle_gamma 90.000000
_cell_volume 3386.014122
_symmetry_space_group_name_H-M "P M M N"
_symmetry_group_IT_number 59
_space_group.IT_coordinate_system_code '2'
_symmetry_cell_setting 'orthorhombic'
loop_
_space_group_symop_operation_xyz
x,y,z
1/2-x,1/2-y,z
1/2+x,-y,-z
-x,1/2+y,-z
-x,-y,-z
1/2+x,1/2+y,-z
1/2-x,y,z
x,1/2-y,z
loop_
_atom_site_type_symbol
_atom_site_label
_atom_site_fract_x
_atom_site_fract_y
_atom_site_fract_z
Si Si1 0.601108 0.072040 0.630677
Si Si2 0.071985 0.077306 0.581845
Si Si3 0.200971 0.571655 0.436655
Si Si4 0.698231 0.427641 0.127525
Si Si5 0.676847 0.922740 0.347889
Si Si6 0.541736 0.426761 0.216214
Si Si7 0.109623 0.428171 0.947304
Si Si8 0.060299 0.427216 0.163902
O O1 0.597371 0.250000 0.623336
O O2 0.654654 0.030236 0.622408
O O3 0.575879 0.999082 0.531154
O O4 0.581161 0.013511 0.738513
O O5 0.058863 0.250000 0.571835
O O6 0.122900 0.070656 0.630241
O O7 0.041566 0.992937 0.666742
O O8 0.250000 0.536088 0.387031
O O9 0.199143 0.750000 0.452079
O O10 0.198616 0.493076 0.548976
O O11 0.750000 0.461914 0.096832
O O12 0.692118 0.250000 0.125315
O O13 0.690179 0.486817 0.245239
O O14 0.660024 0.506105 0.058139
O O15 0.689474 0.750000 0.335046
O O16 0.549617 0.250000 0.221294
O O17 0.580699 0.502975 0.147540
O O18 0.493445 0.456032 0.162034
O O19 0.110959 0.250000 0.935399
O O20 0.084617 0.466345 0.055521
O O21 0.066240 0.250000 0.180830
#
# Coordination Sequence:
#
# PCOD9448033 Si02
#       8
#     8   8   8   8   8   8   8   8
#     4  10  21  37  59  85 115 155 199 242 292 348
#     4  10  20  35  57  86 122 157 188 233 290 346
#     4   9  18  33  53  79 112 149 191 238 287 341
#     4  11  23  37  56  84 118 155 193 236 288 345
#     4  10  19  31  51  82 118 152 187 231 283 342
#     4  11  22  38  63  91 118 150 191 240 295 355
#     4  11  23  41  63  87 118 153 193 243 295 347
#     4  10  24  43  61  84 115 153 196 243 295 350
#
# _framework density 18.901278999999999
#
# number of rings (size 3 to 8) (size 9 to 14) (size 15 to 20)
#    0.000    1.750    1.250    3.000    0.000    6.750 
#    0.000    0.625    0.000    2.250    0.000    0.000 
#    0.000    0.000    0.000    0.000    0.000    0.000 
#
# Total GULP energy -357573.051058 kJ/mol
# GULP energy per Si atom -5587.078923 kJ/mol
# Density = 1.885826 g / cm^3
# Si number density = 18.901279 Si / 1000 Ang^3
#
#
#
# Elastic Constant Matrix: (Units=GPa)
#
#
# Indices 1 2 3 4 5 6 
#
# 1 65.5136 38.7509 29.9417 0.0000 0.0000 0.0000
# 2 38.7509 52.3113 37.0987 0.0000 0.0000 0.0000
# 3 29.9417 37.0987 82.9887 0.0000 0.0000 0.0000
# 4 0.0000 0.0000 0.0000 25.9139 0.0000 0.0000
# 5 0.0000 0.0000 0.0000 0.0000 -45.1112 0.0000
# 6 0.0000 0.0000 0.0000 0.0000 0.0000 26.7291
#
#
#
# Elastic Compliance Matrix: (Units=1/GPa)
#
#
# Indices 1 2 3 4 5 6 
#
# 1 0.027247 -0.019345 -0.001183 0.000000 0.000000 0.000000
# 2 -0.019345 0.041725 -0.011673 0.000000 0.000000 0.000000
# 3 -0.001183 -0.011673 0.017695 0.000000 0.000000 0.000000
# 4 0.000000 0.000000 0.000000 0.038589 0.000000 0.000000
# 5 0.000000 0.000000 0.000000 0.000000 -0.022167 0.000000
# 6 0.000000 0.000000 0.000000 0.000000 0.000000 0.037412
#
#
# Mechanical properties :
#
#
# Convention : Reuss Voigt Hill
#
# Bulk Modulus (GPa) = 44.91272 45.82181 45.36726
# Shear Modulus (GPa) = 23.54886 7.84117 15.69502
#
# Velocity S-wave (km/s) = 3.53354 2.03899 2.88474
# Velocity P-wave (km/s) = 6.36091 5.46248 5.92874
#
# Compressibility (1/GPa) = 0.02226541
#
# Stress axis : x y z
#
# Youngs Moduli (GPa) = 36.70111 23.96638 56.51427
#
# Poissons Ratio (x) = 0.46364 0.06683
# Poissons Ratio (y) = 0.70999 0.65968
# Poissons Ratio (z) = 0.04340 0.27976
#
# Static dielectric constant tensor:
#      x y z
#    x 1.692990 0.000000 0.000000 
#    y 0.000000 1.631160 0.000000 
#    z 0.000000 0.000000 1.610180 
# 
# From -- ./inp_files/19234.got.cif
#   From: 2010.05.17/outbox.cif.g08.bks.cpg/sg59_10_cif.got.tgz:19234.got - 2010.06.03 14:40:33.
