data_PCOD9448471
_publ_section_title
;
Structure prediction by ZEFSAII (Michael W. Deem and Ramdas Pophale) SiO2 
 PCOD9448471
Probable space group: P M M N
;
_chemical_formula_sum "Si O2"
_cell_formula_units_Z 56
_cell_length_a 8.892067
_cell_length_b 25.660858
_cell_length_c 15.567188
_cell_angle_alpha 90.000000
_cell_angle_beta 90.000000
_cell_angle_gamma 90.000000
_cell_volume 3552.090892
_symmetry_space_group_name_H-M "P M M N"
_symmetry_group_IT_number 59
_space_group.IT_coordinate_system_code '2'
_symmetry_cell_setting 'orthorhombic'
loop_
_space_group_symop_operation_xyz
x,y,z
1/2-x,1/2-y,z
1/2+x,-y,-z
-x,1/2+y,-z
-x,-y,-z
1/2+x,1/2+y,-z
1/2-x,y,z
x,1/2-y,z
loop_
_atom_site_type_symbol
_atom_site_label
_atom_site_fract_x
_atom_site_fract_y
_atom_site_fract_z
Si Si1 0.421637 0.750000 0.607406
Si Si2 0.076868 0.562637 0.910279
Si Si3 0.428556 0.564347 0.267083
Si Si4 0.076975 0.750000 0.398756
Si Si5 0.429579 0.140735 0.595290
Si Si6 0.423143 0.064083 0.913098
Si Si7 0.428573 0.440372 0.269950
Si Si8 0.932002 0.363422 0.406217
O O1 0.250000 0.750000 0.639416
O O2 0.418845 0.750000 0.503185
O O3 0.486642 0.693357 0.629061
O O4 0.250000 0.579542 0.905200
O O5 0.076602 0.499301 0.914274
O O6 0.987975 0.576351 0.823882
O O7 0.999327 0.581285 0.997989
O O8 0.250000 0.573024 0.274029
O O9 0.515007 0.597277 0.338355
O O10 0.486213 0.579243 0.172062
O O11 0.456852 0.502436 0.278459
O O12 0.250000 0.750000 0.369084
O O13 0.992371 0.802974 0.374727
O O14 0.250000 0.142028 0.589099
O O15 0.500310 0.130015 0.501328
O O16 0.250000 0.080989 0.907940
O O17 0.250000 0.432136 0.276147
O O18 0.513523 0.408356 0.343100
O O19 0.750000 0.362056 0.412366
#
# Coordination Sequence:
#
# PCOD9448471 Si02
#       8
#     4   8   8   4   8   8   8   8
#     4   7  14  29  49  69  86 111 150 193 233 275
#     4   9  16  27  44  65  90 122 156 190 233 281
#     4  10  20  33  47  66  96 131 162 193 234 285
#     4   9  17  33  53  71  92 119 154 195 239 281
#     4  11  21  33  50  72  96 123 159 200 238 277
#     4   9  16  27  44  66  91 119 154 196 235 273
#     4  10  20  32  46  68  97 127 161 198 235 280
#     4  10  19  33  51  69  93 125 159 196 240 286
#
# _framework density 15.765362
#
# number of rings (size 3 to 8) (size 9 to 14) (size 15 to 20)
#    0.000    2.429    0.000    4.500    0.000    5.714 
#    0.000    1.071    0.000    0.000    0.000    1.000 
#    0.000    1.143    0.000    0.000    0.000    0.000 
#
# Total GULP energy -312084.779672 kJ/mol
# GULP energy per Si atom -5572.942494 kJ/mol
# Density = 1.572948 g / cm^3
# Si number density = 15.765362 Si / 1000 Ang^3
#
#
#
# Elastic Constant Matrix: (Units=GPa)
#
#
# Indices 1 2 3 4 5 6 
#
# 1 117.9421 51.1746 59.3403 0.0000 0.0000 0.0000
# 2 51.1746 55.6961 50.3819 0.0000 0.0000 0.0000
# 3 59.3403 50.3819 105.5740 0.0000 0.0000 0.0000
# 4 0.0000 0.0000 0.0000 -2.7348 0.0000 0.0000
# 5 0.0000 0.0000 0.0000 0.0000 30.6895 0.0000
# 6 0.0000 0.0000 0.0000 0.0000 0.0000 19.8658
#
#
#
# Elastic Compliance Matrix: (Units=1/GPa)
#
#
# Indices 1 2 3 4 5 6 
#
# 1 0.014688 -0.010606 -0.003194 0.000000 0.000000 0.000000
# 2 -0.010606 0.039251 -0.012770 0.000000 0.000000 0.000000
# 3 -0.003194 -0.012770 0.017362 0.000000 0.000000 0.000000
# 4 0.000000 0.000000 0.000000 -0.365651 0.000000 0.000000
# 5 0.000000 0.000000 0.000000 0.000000 0.032584 0.000000
# 6 0.000000 0.000000 0.000000 0.000000 0.000000 0.050338
#
#
# Mechanical properties :
#
#
# Convention : Reuss Voigt Hill
#
# Bulk Modulus (GPa) = 55.06623 66.77842 60.92232
# Shear Modulus (GPa) = -32.84396 17.45177 -7.69610
#
# Velocity S-wave (km/s) = -4.56927 3.33072 -2.21184
# Velocity P-wave (km/s) = 2.67709 7.56580 5.67486
#
# Compressibility (1/GPa) = 0.01815995
#
# Stress axis : x y z
#
# Youngs Moduli (GPa) = 68.08416 25.47699 57.59855
#
# Poissons Ratio (x) = 0.27021 0.18398
# Poissons Ratio (y) = 0.72209 0.73554
# Poissons Ratio (z) = 0.21748 0.32534
#
# Static dielectric constant tensor:
#      x y z
#    x 1.531570 0.000000 0.000000 
#    y 0.000000 1.527060 0.000000 
#    z 0.000000 0.000000 1.505560 
# 
# From -- ./inp_files/21204.got.cif
#   From: 2010.05.17/outbox.cif.g08.bks.cpg/sg59_11_cif.got.tgz:21204.got - 2010.06.03 14:40:33.
