data_PCOD9448451
_publ_section_title
;
Structure prediction by ZEFSAII (Michael W. Deem and Ramdas Pophale) SiO2 
 PCOD9448451
Probable space group: P M M N
;
_chemical_formula_sum "Si O2"
_cell_formula_units_Z 48
_cell_length_a 17.724387
_cell_length_b 15.414246
_cell_length_c 9.324983
_cell_angle_alpha 90.000000
_cell_angle_beta 90.000000
_cell_angle_gamma 90.000000
_cell_volume 2547.660528
_symmetry_space_group_name_H-M "P M M N"
_symmetry_group_IT_number 59
_space_group.IT_coordinate_system_code '2'
_symmetry_cell_setting 'orthorhombic'
loop_
_space_group_symop_operation_xyz
x,y,z
1/2-x,1/2-y,z
1/2+x,-y,-z
-x,1/2+y,-z
-x,-y,-z
1/2+x,1/2+y,-z
1/2-x,y,z
x,1/2-y,z
loop_
_atom_site_type_symbol
_atom_site_label
_atom_site_fract_x
_atom_site_fract_y
_atom_site_fract_z
Si Si1 0.750000 0.850764 0.815939
Si Si2 0.048472 0.158464 0.859028
Si Si3 0.880617 0.526947 0.935259
Si Si4 0.492324 0.571234 0.708313
Si Si5 0.397679 0.845858 0.956048
Si Si6 0.750000 0.849577 0.472080
Si Si7 0.417723 0.407848 0.566721
O O1 0.750000 0.750000 0.865841
O O2 0.679648 0.908289 0.867303
O O3 0.750000 0.847882 0.644287
O O4 0.086462 0.250000 0.899585
O O5 0.045560 0.151102 0.689297
O O6 0.091682 0.076455 0.922560
O O7 0.967579 0.159412 0.933457
O O8 0.950978 0.525417 0.823236
O O9 0.854745 0.431203 0.984791
O O10 0.437883 0.631429 0.803961
O O11 0.442137 0.504054 0.616750
O O12 0.547490 0.613072 0.589017
O O13 0.361483 0.750000 0.951137
O O14 0.750000 0.750000 0.419027
O O15 0.671971 0.894655 0.427839
#
# Coordination Sequence:
#
# PCOD9448451 Si02
#       7
#     4   8   8   8   8   4   8
#     4  11  24  39  60  87 120 164 193 225 310 385
#     4  10  19  32  56  86 117 151 195 243 291 347
#     4  11  19  40  57  83 119 156 198 252 290 354
#     4  10  20  36  61  83 118 162 202 242 295 353
#     4  10  20  36  59  85 110 150 201 253 298 340
#     4  11  24  37  53  89 130 158 188 235 297 373
#     4  11  20  36  57  85 123 164 196 238 301 355
#
# _framework density 18.840814000000002
#
# number of rings (size 3 to 8) (size 9 to 14) (size 15 to 20)
#    0.000    1.500    5.000    2.000    0.000    2.667 
#    0.000    2.083    0.000    0.000    0.000    0.000 
#    0.000    0.000    0.000    0.000    0.000    0.000 
#
# Total GULP energy -267396.242644 kJ/mol
# GULP energy per Si atom -5570.755055 kJ/mol
# Density = 1.879793 g / cm^3
# Si number density = 18.840814 Si / 1000 Ang^3
#
#
#
# Elastic Constant Matrix: (Units=GPa)
#
#
# Indices 1 2 3 4 5 6 
#
# 1 65.2118 30.4901 13.1541 0.0000 0.0000 0.0000
# 2 30.4901 136.1706 22.0241 0.0000 0.0000 0.0000
# 3 13.1541 22.0241 101.0226 0.0000 0.0000 0.0000
# 4 0.0000 0.0000 0.0000 6.3805 0.0000 0.0000
# 5 0.0000 0.0000 0.0000 0.0000 19.7050 0.0000
# 6 0.0000 0.0000 0.0000 0.0000 0.0000 6.1825
#
#
#
# Elastic Compliance Matrix: (Units=1/GPa)
#
#
# Indices 1 2 3 4 5 6 
#
# 1 0.017334 -0.003645 -0.001462 0.000000 0.000000 0.000000
# 2 -0.003645 0.008378 -0.001352 0.000000 0.000000 0.000000
# 3 -0.001462 -0.001352 0.010384 0.000000 0.000000 0.000000
# 4 0.000000 0.000000 0.000000 0.156728 0.000000 0.000000
# 5 0.000000 0.000000 0.000000 0.000000 0.050748 0.000000
# 6 0.000000 0.000000 0.000000 0.000000 0.000000 0.161748
#
#
# Mechanical properties :
#
#
# Convention : Reuss Voigt Hill
#
# Bulk Modulus (GPa) = 43.14457 48.19349 45.66903
# Shear Modulus (GPa) = 11.73806 22.23604 16.98705
#
# Velocity S-wave (km/s) = 2.49873 3.43914 3.00594
# Velocity P-wave (km/s) = 5.59233 6.43468 6.02823
#
# Compressibility (1/GPa) = 0.02317789
#
# Stress axis : x y z
#
# Youngs Moduli (GPa) = 57.69098 119.35331 96.30238
#
# Poissons Ratio (x) = 0.43500 0.14084
# Poissons Ratio (y) = 0.21026 0.13020
# Poissons Ratio (z) = 0.08437 0.16137
#
# Static dielectric constant tensor:
#      x y z
#    x 1.666000 0.000000 0.000000 
#    y 0.000000 1.726670 0.000000 
#    z 0.000000 0.000000 1.658910 
# 
# From -- ./inp_files/10272.got.cif
#   From: 2010.05.17/outbox.cif.g08.bks.cpg/sg59_6_cif.got.tgz:10272.got - 2010.06.03 14:40:33.
