data_PCOD9448748
_publ_section_title
;
Structure prediction by ZEFSAII (Michael W. Deem and Ramdas Pophale) SiO2 
 PCOD9448748
Probable space group: P M M N
;
_chemical_formula_sum "Si O2"
_cell_formula_units_Z 48
_cell_length_a 7.797400
_cell_length_b 19.700789
_cell_length_c 15.552221
_cell_angle_alpha 90.000000
_cell_angle_beta 90.000000
_cell_angle_gamma 90.000000
_cell_volume 2389.053374
_symmetry_space_group_name_H-M "P M M N"
_symmetry_group_IT_number 59
_space_group.IT_coordinate_system_code '2'
_symmetry_cell_setting 'orthorhombic'
loop_
_space_group_symop_operation_xyz
x,y,z
1/2-x,1/2-y,z
1/2+x,-y,-z
-x,1/2+y,-z
-x,-y,-z
1/2+x,1/2+y,-z
1/2-x,y,z
x,1/2-y,z
loop_
_atom_site_type_symbol
_atom_site_label
_atom_site_fract_x
_atom_site_fract_y
_atom_site_fract_z
Si Si1 0.954819 0.075733 0.531078
Si Si2 0.546545 0.173803 0.876793
Si Si3 0.451223 0.425165 0.727393
Si Si4 0.956714 0.076604 0.026969
Si Si5 0.959984 0.171991 0.376699
Si Si6 0.960042 0.075737 0.221494
O O1 0.750000 0.080616 0.534601
O O2 0.016624 0.129879 0.460486
O O3 0.022466 0.087430 0.626745
O O4 0.000000 0.000000 0.500000
O O5 0.750000 0.179382 0.891804
O O6 0.475320 0.250000 0.872408
O O7 0.525720 0.132257 0.788853
O O8 0.475707 0.128663 0.955372
O O9 0.250000 0.426591 0.745812
O O10 0.518795 0.500340 0.750995
O O11 0.750000 0.081433 0.028195
O O12 0.016452 0.089984 0.124199
O O13 0.000000 0.000000 0.000000
O O14 0.750000 0.171867 0.377106
O O15 0.015769 0.250000 0.377159
O O16 0.014389 0.130786 0.291859
O O17 0.750000 0.075336 0.222633
#
# Coordination Sequence:
#
# PCOD9448748 Si02
#       6
#     8   8   8   8   8   8
#     4  11  21  35  57  86 115 150 191 234 282 339
#     4  10  22  38  55  82 118 151 187 233 286 343
#     4  11  21  36  58  84 111 146 193 239 283 337
#     4  10  19  33  56  83 110 143 182 229 277 330
#     4   9  18  33  54  81 111 141 177 225 279 330
#     4   9  17  31  53  82 110 137 180 231 276 329
#
# _framework density 20.091639000000001
#
# number of rings (size 3 to 8) (size 9 to 14) (size 15 to 20)
#    0.000    2.000    3.333    1.000    0.000    1.667 
#    0.000    5.000    0.000    1.500    0.000    0.000 
#    0.000    0.000    0.000    0.000    0.000    0.000 
#
# Total GULP energy -268077.669712 kJ/mol
# GULP energy per Si atom -5584.951452 kJ/mol
# Density = 2.004591 g / cm^3
# Si number density = 20.091639 Si / 1000 Ang^3
#
#
#
# Elastic Constant Matrix: (Units=GPa)
#
#
# Indices 1 2 3 4 5 6 
#
# 1 24.6958 1.0498 -9.2180 0.0000 0.0000 0.0000
# 2 1.0498 204.9092 112.8243 0.0000 0.0000 0.0000
# 3 -9.2180 112.8243 192.1269 0.0000 0.0000 0.0000
# 4 0.0000 0.0000 0.0000 31.8635 0.0000 0.0000
# 5 0.0000 0.0000 0.0000 0.0000 15.1849 0.0000
# 6 0.0000 0.0000 0.0000 0.0000 0.0000 19.6913
#
#
#
# Elastic Compliance Matrix: (Units=1/GPa)
#
#
# Indices 1 2 3 4 5 6 
#
# 1 0.041750 -0.001946 0.003146 0.000000 0.000000 0.000000
# 2 -0.001946 0.007303 -0.004382 0.000000 0.000000 0.000000
# 3 0.003146 -0.004382 0.007929 0.000000 0.000000 0.000000
# 4 0.000000 0.000000 0.000000 0.031384 0.000000 0.000000
# 5 0.000000 0.000000 0.000000 0.000000 0.065855 0.000000
# 6 0.000000 0.000000 0.000000 0.000000 0.000000 0.050784
#
#
# Mechanical properties :
#
#
# Convention : Reuss Voigt Hill
#
# Bulk Modulus (GPa) = 19.75599 70.11601 44.93600
# Shear Modulus (GPa) = 21.90667 34.48632 28.19649
#
# Velocity S-wave (km/s) = 3.30561 4.14750 3.75025
# Velocity P-wave (km/s) = 4.94203 7.60983 6.41612
#
# Compressibility (1/GPa) = 0.05061757
#
# Stress axis : x y z
#
# Youngs Moduli (GPa) = 23.95225 136.93217 126.11849
#
# Poissons Ratio (x) = 0.26648 -0.39676
# Poissons Ratio (y) = 0.04661 0.55264
# Poissons Ratio (z) = -0.07535 0.60002
#
# Static dielectric constant tensor:
#      x y z
#    x 1.758260 0.000000 0.000000 
#    y 0.000000 1.685180 0.000000 
#    z 0.000000 0.000000 1.677790 
# 
# From -- ./inp_files/20318.got.cif
#   From: 2010.05.17/outbox.cif.g08.bks.cpg/sg59_11_cif.got.tgz:20318.got - 2010.06.03 14:40:33.
