data_PCOD9448594
_publ_section_title
;
Structure prediction by ZEFSAII (Michael W. Deem and Ramdas Pophale) SiO2 
 PCOD9448594
Probable space group: P M M N
;
_chemical_formula_sum "Si O2"
_cell_formula_units_Z 64
_cell_length_a 18.489485
_cell_length_b 14.921583
_cell_length_c 11.533388
_cell_angle_alpha 90.000000
_cell_angle_beta 90.000000
_cell_angle_gamma 90.000000
_cell_volume 3181.973923
_symmetry_space_group_name_H-M "P M M N"
_symmetry_group_IT_number 59
_space_group.IT_coordinate_system_code '2'
_symmetry_cell_setting 'orthorhombic'
loop_
_space_group_symop_operation_xyz
x,y,z
1/2-x,1/2-y,z
1/2+x,-y,-z
-x,1/2+y,-z
-x,-y,-z
1/2+x,1/2+y,-z
1/2-x,y,z
x,1/2-y,z
loop_
_atom_site_type_symbol
_atom_site_label
_atom_site_fract_x
_atom_site_fract_y
_atom_site_fract_z
Si Si1 0.052368 0.919194 0.455332
Si Si2 0.583477 0.146136 0.796904
Si Si3 0.526545 0.140225 0.161404
Si Si4 0.164041 0.354997 0.758264
Si Si5 0.054267 0.348979 0.390594
Si Si6 0.167838 0.640343 0.976678
Si Si7 0.664267 0.536091 0.473324
Si Si8 0.061431 0.353603 0.949893
O O1 0.071289 0.907764 0.321118
O O2 0.001262 0.841752 0.501941
O O3 0.127517 0.938713 0.520606
O O4 0.000000 0.000000 0.500000
O O5 0.601138 0.250000 0.766977
O O6 0.641200 0.114085 0.893636
O O7 0.507863 0.146869 0.865830
O O8 0.527621 0.250000 0.157082
O O9 0.495990 0.114815 0.286224
O O10 0.605971 0.112646 0.116088
O O11 0.467722 0.105262 0.068320
O O12 0.250000 0.356118 0.770731
O O13 0.142023 0.250000 0.740594
O O14 0.145393 0.413313 0.646076
O O15 0.126197 0.391127 0.873896
O O16 0.080191 0.250000 0.358044
O O17 0.122859 0.408501 0.426065
O O18 0.250000 0.611204 0.952140
O O19 0.167214 0.750000 0.976933
O O20 0.750000 0.534902 0.486966
O O21 0.080947 0.250000 0.976351
#
# Coordination Sequence:
#
# PCOD9448594 Si02
#       8
#     8   8   8   8   8   8   8   8
#     4  10  20  32  48  70  98 133 166 200 248 300
#     4   9  16  27  47  72  92 116 158 207 248 289
#     4   8  15  27  45  72 102 128 157 195 242 298
#     4   9  16  27  47  72  92 117 163 216 256 290
#     4  10  19  33  54  77 101 131 169 207 243 295
#     4   8  14  26  46  71  96 122 156 203 255 298
#     4  10  21  35  50  70 100 137 172 209 255 303
#     4   8  13  24  43  68  96 120 148 198 254 291
#
# _framework density 20.113299999999999
#
# number of rings (size 3 to 8) (size 9 to 14) (size 15 to 20)
#    0.000    3.000    0.000    3.750    0.000    2.250 
#    0.000    1.250    0.000   22.875    0.000    0.000 
#    0.000    0.000    0.000    0.000    0.000    0.000 
#
# Total GULP energy -356341.454822 kJ/mol
# GULP energy per Si atom -5567.835232 kJ/mol
# Density = 2.006752 g / cm^3
# Si number density = 20.113300 Si / 1000 Ang^3
#
#
#
# Elastic Constant Matrix: (Units=GPa)
#
#
# Indices 1 2 3 4 5 6 
#
# 1 75.1428 -0.3299 34.4295 0.0000 0.0000 0.0000
# 2 -0.3299 30.2196 -17.9991 0.0000 0.0000 0.0000
# 3 34.4295 -17.9991 49.5449 0.0000 0.0000 0.0000
# 4 0.0000 0.0000 0.0000 257.4017 0.0000 0.0000
# 5 0.0000 0.0000 0.0000 0.0000 25.3613 0.0000
# 6 0.0000 0.0000 0.0000 0.0000 0.0000 12.0754
#
#
#
# Elastic Compliance Matrix: (Units=1/GPa)
#
#
# Indices 1 2 3 4 5 6 
#
# 1 0.022245 -0.011439 -0.019614 0.000000 0.000000 0.000000
# 2 -0.011439 0.048111 0.025428 0.000000 0.000000 0.000000
# 3 -0.019614 0.025428 0.043051 0.000000 0.000000 0.000000
# 4 0.000000 0.000000 0.000000 0.003885 0.000000 0.000000
# 5 0.000000 0.000000 0.000000 0.000000 0.039430 0.000000
# 6 0.000000 0.000000 0.000000 0.000000 0.000000 0.082813
#
#
# Mechanical properties :
#
#
# Convention : Reuss Voigt Hill
#
# Bulk Modulus (GPa) = 9.78897 20.78984 15.28940
# Shear Modulus (GPa) = 17.55380 68.22148 42.88764
#
# Velocity S-wave (km/s) = 2.95743 5.83029 4.62270
# Velocity P-wave (km/s) = 4.06686 7.46202 6.00921
#
# Compressibility (1/GPa) = 0.10215576
#
# Stress axis : x y z
#
# Youngs Moduli (GPa) = 44.95457 20.78518 23.22805
#
# Poissons Ratio (x) = 0.23777 0.45560
# Poissons Ratio (y) = 0.51426 -0.59064
# Poissons Ratio (z) = 0.88174 -0.52852
#
# Static dielectric constant tensor:
#      x y z
#    x 1.703890 0.000000 0.000000 
#    y 0.000000 1.833900 0.000000 
#    z 0.000000 0.000000 1.732250 
# 
# From -- ./inp_files/17961.got.cif
#   From: 2010.05.17/outbox.cif.g08.bks.cpg/sg59_9_cif.got.tgz:17961.got - 2010.06.03 14:40:33.
