data_PCOD9448619
_publ_section_title
;
Structure prediction by ZEFSAII (Michael W. Deem and Ramdas Pophale) SiO2 
 PCOD9448619
Probable space group: P M M N
;
_chemical_formula_sum "Si O2"
_cell_formula_units_Z 64
_cell_length_a 18.527644
_cell_length_b 7.783466
_cell_length_c 22.350663
_cell_angle_alpha 90.000000
_cell_angle_beta 90.000000
_cell_angle_gamma 90.000000
_cell_volume 3223.173178
_symmetry_space_group_name_H-M "P M M N"
_symmetry_group_IT_number 59
_space_group.IT_coordinate_system_code '2'
_symmetry_cell_setting 'orthorhombic'
loop_
_space_group_symop_operation_xyz
x,y,z
1/2-x,1/2-y,z
1/2+x,-y,-z
-x,1/2+y,-z
-x,-y,-z
1/2+x,1/2+y,-z
1/2-x,y,z
x,1/2-y,z
loop_
_atom_site_type_symbol
_atom_site_label
_atom_site_fract_x
_atom_site_fract_y
_atom_site_fract_z
Si Si1 0.667855 0.456819 0.274318
Si Si2 0.671004 0.451518 0.879836
Si Si3 0.392978 0.449770 0.244101
Si Si4 0.976278 0.043503 0.933562
Si Si5 0.077318 0.960438 0.609801
Si Si6 0.457286 0.044967 0.811214
Si Si7 0.412396 0.457124 0.374947
Si Si8 0.668301 0.456514 0.503964
O O1 0.750000 0.521164 0.272244
O O2 0.670923 0.250000 0.278095
O O3 0.624492 0.516512 0.333188
O O4 0.619420 0.501952 0.217116
O O5 0.750000 0.528300 0.890197
O O6 0.674841 0.250000 0.895030
O O7 0.649538 0.463424 0.810023
O O8 0.603266 0.525421 0.916363
O O9 0.372207 0.250000 0.243088
O O10 0.478126 0.464474 0.228118
O O11 0.383374 0.520441 0.310870
O O12 0.973411 0.250000 0.929821
O O13 0.029257 0.987361 0.879638
O O14 0.000000 0.000000 0.000000
O O15 0.076483 0.750000 0.609937
O O16 0.115655 0.018502 0.548791
O O17 0.994570 0.018295 0.614890
O O18 0.467506 0.250000 0.808476
O O19 0.415602 0.250000 0.370172
O O20 0.363697 0.501825 0.431340
O O21 0.750000 0.521789 0.496984
O O22 0.670952 0.250000 0.498463
#
# Coordination Sequence:
#
# PCOD9448619 Si02
#       8
#     8   8   8   8   8   8   8   8
#     4  10  19  33  56  82 107 138 177 221 268 317
#     4   9  19  36  56  80 112 145 178 220 270 318
#     4  10  19  33  54  79 105 135 177 220 263 318
#     4   9  19  35  56  81 107 143 182 218 261 308
#     4   9  17  34  55  75 100 133 176 219 265 317
#     4  10  20  35  54  78 111 142 172 213 264 316
#     4  10  20  34  53  75 102 135 171 218 268 317
#     4  10  21  35  51  72  99 134 176 220 265 318
#
# _framework density 19.856210000000001
#
# number of rings (size 3 to 8) (size 9 to 14) (size 15 to 20)
#    0.000    2.375    1.250    2.250    0.000    6.250 
#    0.000    3.750    0.000    3.750    0.000    0.000 
#    0.000    0.000    0.000    0.000    0.000    0.000 
#
# Total GULP energy -357198.726663 kJ/mol
# GULP energy per Si atom -5581.230104 kJ/mol
# Density = 1.981102 g / cm^3
# Si number density = 19.856210 Si / 1000 Ang^3
#
#
#
# Elastic Constant Matrix: (Units=GPa)
#
#
# Indices 1 2 3 4 5 6 
#
# 1 69.2560 -3.1486 32.2526 0.0000 0.0000 0.0000
# 2 -3.1486 25.6964 -4.3627 0.0000 0.0000 0.0000
# 3 32.2526 -4.3627 130.8611 0.0000 0.0000 0.0000
# 4 0.0000 0.0000 0.0000 21.5802 0.0000 0.0000
# 5 0.0000 0.0000 0.0000 0.0000 15.4359 0.0000
# 6 0.0000 0.0000 0.0000 0.0000 0.0000 19.2423
#
#
#
# Elastic Compliance Matrix: (Units=1/GPa)
#
#
# Indices 1 2 3 4 5 6 
#
# 1 0.016356 0.001327 -0.003987 0.000000 0.000000 0.000000
# 2 0.001327 0.039245 0.000981 0.000000 0.000000 0.000000
# 3 -0.003987 0.000981 0.008657 0.000000 0.000000 0.000000
# 4 0.000000 0.000000 0.000000 0.046339 0.000000 0.000000
# 5 0.000000 0.000000 0.000000 0.000000 0.064784 0.000000
# 6 0.000000 0.000000 0.000000 0.000000 0.000000 0.051969
#
#
# Mechanical properties :
#
#
# Convention : Reuss Voigt Hill
#
# Bulk Modulus (GPa) = 16.41997 30.58845 23.50421
# Shear Modulus (GPa) = 19.91971 24.65648 22.28810
#
# Velocity S-wave (km/s) = 3.17077 3.52767 3.35397
# Velocity P-wave (km/s) = 4.65751 5.65960 5.18283
#
# Compressibility (1/GPa) = 0.06090146
#
# Stress axis : x y z
#
# Youngs Moduli (GPa) = 61.13861 25.48088 115.51270
#
# Poissons Ratio (x) = -0.03382 0.46055
# Poissons Ratio (y) = -0.08115 -0.11335
# Poissons Ratio (z) = 0.24376 -0.02500
#
# Static dielectric constant tensor:
#      x y z
#    x 1.701260 0.000000 0.000000 
#    y 0.000000 1.743850 0.000000 
#    z 0.000000 0.000000 1.683830 
# 
# From -- ./inp_files/30732.got.cif
#   From: 2010.05.17/outbox.cif.g08.bks.cpg/sg59_16_cif.got.tgz:30732.got - 2010.06.03 14:40:33.
