data_PCOD9448692
_publ_section_title
;
Structure prediction by ZEFSAII (Michael W. Deem and Ramdas Pophale) SiO2 
 PCOD9448692
Probable space group: P M M N
;
_chemical_formula_sum "Si O2"
_cell_formula_units_Z 48
_cell_length_a 8.150574
_cell_length_b 29.051932
_cell_length_c 10.056320
_cell_angle_alpha 90.000000
_cell_angle_beta 90.000000
_cell_angle_gamma 90.000000
_cell_volume 2381.235224
_symmetry_space_group_name_H-M "P M M N"
_symmetry_group_IT_number 59
_space_group.IT_coordinate_system_code '2'
_symmetry_cell_setting 'orthorhombic'
loop_
_space_group_symop_operation_xyz
x,y,z
1/2-x,1/2-y,z
1/2+x,-y,-z
-x,1/2+y,-z
-x,-y,-z
1/2+x,1/2+y,-z
1/2-x,y,z
x,1/2-y,z
loop_
_atom_site_type_symbol
_atom_site_label
_atom_site_fract_x
_atom_site_fract_y
_atom_site_fract_z
Si Si1 0.945499 0.876372 0.763591
Si Si2 0.951277 0.802548 0.980547
Si Si3 0.945060 0.901985 0.481309
Si Si4 0.938160 0.463209 0.893322
Si Si5 0.557617 0.870091 0.200014
Si Si6 0.437946 0.970933 0.685356
O O1 0.750000 0.884250 0.783787
O O2 0.000416 0.835795 0.859087
O O3 0.968604 0.867162 0.605701
O O4 0.034889 0.925449 0.778605
O O5 0.750000 0.802465 0.981005
O O6 0.005308 0.750000 0.968068
O O7 0.008663 0.827451 0.115727
O O8 0.750000 0.909273 0.465335
O O9 0.014752 0.882876 0.344021
O O10 0.014372 0.949447 0.542722
O O11 0.750000 0.451994 0.917515
O O12 0.039243 0.416147 0.887826
O O13 0.958206 0.488759 0.750943
O O14 0.000000 0.500000 0.000000
O O15 0.750000 0.860745 0.221253
O O16 0.250000 0.985341 0.687196
#
# Coordination Sequence:
#
# PCOD9448692 Si02
#       6
#     8   8   8   8   8   8
#     4   8  15  31  52  76 107 139 175 220 271 323
#     4   9  17  31  55  83 107 135 175 226 280 330
#     4   8  17  33  52  77 110 147 180 222 272 320
#     4  12  24  37  54  80 113 148 186 224 270 324
#     4  10  20  35  55  80 112 146 184 228 276 323
#     4  10  19  33  55  80 107 142 185 225 267 319
#
# _framework density 20.157605
#
# number of rings (size 3 to 8) (size 9 to 14) (size 15 to 20)
#    1.000    1.500    0.000    3.500    0.000    2.667 
#    0.000    0.833    0.000    7.000    0.000    0.000 
#    0.000    0.000    0.000    0.000    0.000    0.000 
#
# Total GULP energy -267540.232933 kJ/mol
# GULP energy per Si atom -5573.754853 kJ/mol
# Density = 2.011173 g / cm^3
# Si number density = 20.157605 Si / 1000 Ang^3
#
#
#
# Elastic Constant Matrix: (Units=GPa)
#
#
# Indices 1 2 3 4 5 6 
#
# 1 21.4693 -8.6539 5.0452 0.0000 0.0000 0.0000
# 2 -8.6539 106.1498 39.6702 0.0000 0.0000 0.0000
# 3 5.0452 39.6702 97.6826 0.0000 0.0000 0.0000
# 4 0.0000 0.0000 0.0000 21.5192 0.0000 0.0000
# 5 0.0000 0.0000 0.0000 0.0000 11.7614 0.0000
# 6 0.0000 0.0000 0.0000 0.0000 0.0000 15.3471
#
#
#
# Elastic Compliance Matrix: (Units=1/GPa)
#
#
# Indices 1 2 3 4 5 6 
#
# 1 0.050159 0.005962 -0.005012 0.000000 0.000000 0.000000
# 2 0.005962 0.011815 -0.005106 0.000000 0.000000 0.000000
# 3 -0.005012 -0.005106 0.012570 0.000000 0.000000 0.000000
# 4 0.000000 0.000000 0.000000 0.046470 0.000000 0.000000
# 5 0.000000 0.000000 0.000000 0.000000 0.085024 0.000000
# 6 0.000000 0.000000 0.000000 0.000000 0.000000 0.065159
#
#
# Mechanical properties :
#
#
# Convention : Reuss Voigt Hill
#
# Bulk Modulus (GPa) = 15.09838 33.04719 24.07279
# Shear Modulus (GPa) = 16.57900 22.34154 19.46027
#
# Velocity S-wave (km/s) = 2.87098 3.33279 3.11047
# Velocity P-wave (km/s) = 4.30075 5.58927 4.98681
#
# Compressibility (1/GPa) = 0.06623226
#
# Stress axis : x y z
#
# Youngs Moduli (GPa) = 19.93651 84.63820 79.55591
#
# Poissons Ratio (x) = -0.50464 0.39874
# Poissons Ratio (y) = -0.11887 0.40623
# Poissons Ratio (z) = 0.09992 0.43218
#
# Static dielectric constant tensor:
#      x y z
#    x 1.699750 0.000000 0.000000 
#    y 0.000000 1.693290 0.000000 
#    z 0.000000 0.000000 1.812000 
# 
# From -- ./inp_files/14486.got.cif
#   From: 2010.05.17/outbox.cif.g08.bks.cpg/sg59_8_cif.got.tgz:14486.got - 2010.06.03 14:40:33.
