data_PCOD9448935
_publ_section_title
;
Structure prediction by ZEFSAII (Michael W. Deem and Ramdas Pophale) SiO2 
 PCOD9448935
Probable space group: P M M N
;
_chemical_formula_sum "Si O2"
_cell_formula_units_Z 34
_cell_length_a 23.024904
_cell_length_b 7.538103
_cell_length_c 11.050329
_cell_angle_alpha 90.000000
_cell_angle_beta 90.000000
_cell_angle_gamma 90.000000
_cell_volume 1917.940385
_symmetry_space_group_name_H-M "P M M N"
_symmetry_group_IT_number 59
_space_group.IT_coordinate_system_code '2'
_symmetry_cell_setting 'orthorhombic'
loop_
_space_group_symop_operation_xyz
x,y,z
1/2-x,1/2-y,z
1/2+x,-y,-z
-x,1/2+y,-z
-x,-y,-z
1/2+x,1/2+y,-z
1/2-x,y,z
x,1/2-y,z
loop_
_atom_site_type_symbol
_atom_site_label
_atom_site_fract_x
_atom_site_fract_y
_atom_site_fract_z
Si Si1 0.250000 0.750000 0.434106
Si Si2 0.250000 0.035651 0.227956
Si Si3 0.132798 0.465371 0.088092
Si Si4 0.990863 0.960854 0.857685
Si Si5 0.184071 0.750000 0.670097
Si Si6 0.883146 0.546835 0.190642
O O1 0.250000 0.577062 0.350216
O O2 0.195543 0.750000 0.526495
O O3 0.250000 0.250000 0.246801
O O4 0.307408 0.986928 0.151716
O O5 0.129701 0.250000 0.084680
O O6 0.075205 0.524608 0.161103
O O7 0.129000 0.519717 0.947225
O O8 0.993311 0.750000 0.837772
O O9 0.047019 0.040599 0.793116
O O10 0.000000 0.000000 0.000000
O O11 0.250000 0.750000 0.722052
O O12 0.149659 0.579729 0.717332
O O13 0.863437 0.750000 0.199756
#
# Coordination Sequence:
#
# PCOD9448935 Si02
#       6
#     2   4   8   8   4   8
#     4  10  26  42  54  78 100 142 204 238 270 318
#     4  10  20  39  57  77 107 146 181 234 278 320
#     4   8  17  30  54  87 116 144 175 213 275 340
#     4   9  15  28  48  81 121 149 173 209 261 338
#     4  10  24  39  54  79 106 145 186 235 276 314
#     4  10  19  34  56  85 118 145 174 218 278 346
#
# _framework density 17.727349
#
# number of rings (size 3 to 8) (size 9 to 14) (size 15 to 20)
#    0.353    2.353    1.176    2.118    1.647    2.353 
#    4.235    0.000    0.000    1.412    0.000    0.000 
#    0.000    0.000    0.000    0.000    0.000    0.000 
#
# Total GULP energy -189354.407231 kJ/mol
# GULP energy per Si atom -5569.247272 kJ/mol
# Density = 1.768700 g / cm^3
# Si number density = 17.727349 Si / 1000 Ang^3
#
#
#
# Elastic Constant Matrix: (Units=GPa)
#
#
# Indices 1 2 3 4 5 6 
#
# 1 152.3905 31.0326 53.0739 0.0000 0.0000 0.0000
# 2 31.0326 83.7066 31.1916 0.0000 0.0000 0.0000
# 3 53.0739 31.1916 74.7009 0.0000 0.0000 0.0000
# 4 0.0000 0.0000 0.0000 25.5646 0.0000 0.0000
# 5 0.0000 0.0000 0.0000 0.0000 -3.7895 0.0000
# 6 0.0000 0.0000 0.0000 0.0000 0.0000 17.1463
#
#
#
# Elastic Compliance Matrix: (Units=1/GPa)
#
#
# Indices 1 2 3 4 5 6 
#
# 1 0.008805 -0.001105 -0.005795 0.000000 0.000000 0.000000
# 2 -0.001105 0.014287 -0.005180 0.000000 0.000000 0.000000
# 3 -0.005795 -0.005180 0.019667 0.000000 0.000000 0.000000
# 4 0.000000 0.000000 0.000000 0.039117 0.000000 0.000000
# 5 0.000000 0.000000 0.000000 0.000000 -0.263888 0.000000
# 6 0.000000 0.000000 0.000000 0.000000 0.000000 0.058322
#
#
# Mechanical properties :
#
#
# Convention : Reuss Voigt Hill
#
# Bulk Modulus (GPa) = 53.76733 60.15491 56.96112
# Shear Modulus (GPa) = -53.57223 20.81760 -16.37732
#
# Velocity S-wave (km/s) = -5.50325 3.43055 -3.04278
# Velocity P-wave (km/s) = 3.15990 7.04973 4.45610
#
# Compressibility (1/GPa) = 0.01859866
#
# Stress axis : x y z
#
# Youngs Moduli (GPa) = 113.56876 69.99614 50.84751
#
# Poissons Ratio (x) = 0.07736 0.29464
# Poissons Ratio (y) = 0.12551 0.26340
# Poissons Ratio (z) = 0.65808 0.36259
#
# Static dielectric constant tensor:
#      x y z
#    x 1.648110 0.000000 0.000000 
#    y 0.000000 1.638250 0.000000 
#    z 0.000000 0.000000 1.560640 
# 
# From -- ./inp_files/10977.got.cif
#   From: 2010.05.17/outbox.cif.g08.bks.cpg/sg59_6_cif.got.tgz:10977.got - 2010.06.03 14:40:33.
