data_PCOD9448400
_publ_section_title
;
Structure prediction by ZEFSAII (Michael W. Deem and Ramdas Pophale) SiO2 
 PCOD9448400
Probable space group: P M M N
;
_chemical_formula_sum "Si O2"
_cell_formula_units_Z 64
_cell_length_a 8.242513
_cell_length_b 20.486232
_cell_length_c 20.842984
_cell_angle_alpha 90.000000
_cell_angle_beta 90.000000
_cell_angle_gamma 90.000000
_cell_volume 3519.505292
_symmetry_space_group_name_H-M "P M M N"
_symmetry_group_IT_number 59
_space_group.IT_coordinate_system_code '2'
_symmetry_cell_setting 'orthorhombic'
loop_
_space_group_symop_operation_xyz
x,y,z
1/2-x,1/2-y,z
1/2+x,-y,-z
-x,1/2+y,-z
-x,-y,-z
1/2+x,1/2+y,-z
1/2-x,y,z
x,1/2-y,z
loop_
_atom_site_type_symbol
_atom_site_label
_atom_site_fract_x
_atom_site_fract_y
_atom_site_fract_z
Si Si1 0.053709 0.072464 0.271300
Si Si2 0.057661 0.928255 0.228240
Si Si3 0.946190 0.589460 0.447456
Si Si4 0.553977 0.410646 0.048508
Si Si5 0.054046 0.443600 0.413932
Si Si6 0.945833 0.176059 0.166183
Si Si7 0.945269 0.676403 0.331276
Si Si8 0.943228 0.943198 0.087771
O O1 0.250000 0.072014 0.270126
O O2 0.999249 0.082195 0.344886
O O3 0.995766 0.128195 0.223400
O O4 0.996670 0.000676 0.248128
O O5 0.250000 0.928426 0.237424
O O6 0.987472 0.872619 0.273918
O O7 0.017795 0.918056 0.153682
O O8 0.750000 0.590739 0.447716
O O9 0.001626 0.593313 0.521538
O O10 0.004471 0.644130 0.397935
O O11 0.000157 0.518678 0.421740
O O12 0.750000 0.411011 0.046153
O O13 0.499659 0.356363 0.099097
O O14 0.501010 0.481895 0.074956
O O15 0.490305 0.404369 0.976352
O O16 0.250000 0.442675 0.413803
O O17 0.750000 0.177508 0.164462
O O18 0.005265 0.250000 0.174068
O O19 0.750000 0.679374 0.335013
O O20 0.006724 0.750000 0.321930
O O21 0.750000 0.943989 0.094615
#
# Coordination Sequence:
#
# PCOD9448400 Si02
#       8
#     8   8   8   8   8   8   8   8
#     4  10  20  33  52  79 110 141 178 223 266 314
#     4  11  21  34  54  80 109 142 180 222 268 320
#     4   9  17  30  51  76 103 135 173 218 267 316
#     4   9  18  33  52  77 106 136 172 217 266 315
#     4   9  17  31  50  77 107 134 172 220 266 311
#     4  10  21  37  56  78 107 143 180 218 265 322
#     4  10  21  36  53  76 107 142 181 224 272 326
#     4  10  19  32  54  81 106 135 174 220 267 311
#
# _framework density 18.184373999999998
#
# number of rings (size 3 to 8) (size 9 to 14) (size 15 to 20)
#    0.000    2.250    2.500    0.750    0.000    2.500 
#    0.000    1.250    0.000    4.500    0.000    0.000 
#    0.000    0.000    0.000    0.000    0.000    0.000 
#
# Total GULP energy -357006.130130 kJ/mol
# GULP energy per Si atom -5578.220783 kJ/mol
# Density = 1.814299 g / cm^3
# Si number density = 18.184374 Si / 1000 Ang^3
#
#
#
# Elastic Constant Matrix: (Units=GPa)
#
#
# Indices 1 2 3 4 5 6 
#
# 1 6.5175 12.9305 10.5642 0.0000 0.0000 0.0000
# 2 12.9305 132.3774 92.2372 0.0000 0.0000 0.0000
# 3 10.5642 92.2372 163.4467 0.0000 0.0000 0.0000
# 4 0.0000 0.0000 0.0000 24.0659 0.0000 0.0000
# 5 0.0000 0.0000 0.0000 0.0000 18.6739 0.0000
# 6 0.0000 0.0000 0.0000 0.0000 0.0000 17.6596
#
#
#
# Elastic Compliance Matrix: (Units=1/GPa)
#
#
# Indices 1 2 3 4 5 6 
#
# 1 0.191200 -0.016588 -0.002997 0.000000 0.000000 0.000000
# 2 -0.016588 0.013888 -0.006765 0.000000 0.000000 0.000000
# 3 -0.002997 -0.006765 0.010130 0.000000 0.000000 0.000000
# 4 0.000000 0.000000 0.000000 0.041552 0.000000 0.000000
# 5 0.000000 0.000000 0.000000 0.000000 0.053551 0.000000
# 6 0.000000 0.000000 0.000000 0.000000 0.000000 0.056626
#
#
# Mechanical properties :
#
#
# Convention : Reuss Voigt Hill
#
# Bulk Modulus (GPa) = 6.15317 59.31170 32.73244
# Shear Modulus (GPa) = 10.55249 24.52055 17.53652
#
# Velocity S-wave (km/s) = 2.41157 3.67610 3.10880
# Velocity P-wave (km/s) = 3.33846 7.12081 5.56108
#
# Compressibility (1/GPa) = 0.16251777
#
# Stress axis : x y z
#
# Youngs Moduli (GPa) = 5.23012 72.00226 98.71832
#
# Poissons Ratio (x) = 1.19437 0.29586
# Poissons Ratio (y) = 0.08676 0.66787
# Poissons Ratio (z) = 0.01567 0.48713
#
# Static dielectric constant tensor:
#      x y z
#    x 1.631080 0.000000 0.000000 
#    y 0.000000 1.606440 0.000000 
#    z 0.000000 0.000000 1.632890 
# 
# From -- ./inp_files/29561.got.cif
#   From: 2010.05.17/outbox.cif.g08.bks.cpg/sg59_15_cif.got.tgz:29561.got - 2010.06.03 14:40:33.
