data_PCOD9448585
_publ_section_title
;
Structure prediction by ZEFSAII (Michael W. Deem and Ramdas Pophale) SiO2 
 PCOD9448585
Probable space group: P M M N
;
_chemical_formula_sum "Si O2"
_cell_formula_units_Z 56
_cell_length_a 13.162799
_cell_length_b 29.181332
_cell_length_c 7.376233
_cell_angle_alpha 90.000000
_cell_angle_beta 90.000000
_cell_angle_gamma 90.000000
_cell_volume 2833.270162
_symmetry_space_group_name_H-M "P M M N"
_symmetry_group_IT_number 59
_space_group.IT_coordinate_system_code '2'
_symmetry_cell_setting 'orthorhombic'
loop_
_space_group_symop_operation_xyz
x,y,z
1/2-x,1/2-y,z
1/2+x,-y,-z
-x,1/2+y,-z
-x,-y,-z
1/2+x,1/2+y,-z
1/2-x,y,z
x,1/2-y,z
loop_
_atom_site_type_symbol
_atom_site_label
_atom_site_fract_x
_atom_site_fract_y
_atom_site_fract_z
Si Si1 0.481886 0.950113 0.808898
Si Si2 0.868425 0.101921 0.511631
Si Si3 0.627985 0.800279 0.592301
Si Si4 0.633814 0.873207 0.883324
Si Si5 0.633198 0.197556 0.678745
Si Si6 0.868677 0.031612 0.828710
Si Si7 0.074502 0.301546 0.829348
O O1 0.434676 0.924432 0.636644
O O2 0.561403 0.916030 0.904796
O O3 0.549787 0.994264 0.758982
O O4 0.397578 0.961535 0.960391
O O5 0.750000 0.096517 0.461386
O O6 0.886897 0.156213 0.538985
O O7 0.882153 0.077199 0.706924
O O8 0.750000 0.799391 0.609397
O O9 0.589373 0.750000 0.650367
O O10 0.594662 0.841858 0.717299
O O11 0.602151 0.805994 0.381994
O O12 0.750000 0.887286 0.849900
O O13 0.627986 0.839778 0.054338
O O14 0.750000 0.192190 0.740336
O O15 0.622776 0.250000 0.607190
O O16 0.547742 0.193537 0.833364
O O17 0.750000 0.017786 0.810501
O O18 0.103439 0.250000 0.886700
#
# Coordination Sequence:
#
# PCOD9448585 Si02
#       7
#     8   8   8   8   8   8   8
#     4  11  22  37  58  84 114 146 186 232 284 342
#     4  10  20  37  62  86 112 150 191 231 281 340
#     4   9  18  32  50  74 105 141 182 226 271 326
#     4  11  22  34  51  78 110 142 180 229 282 335
#     4   9  18  33  55  84 115 147 186 232 278 325
#     4  10  22  40  61  85 113 147 188 236 284 332
#     4  10  19  33  54  76 105 149 192 228 274 333
#
# _framework density 19.765146999999999
#
# number of rings (size 3 to 8) (size 9 to 14) (size 15 to 20)
#    0.000    2.000    0.000    3.857    0.000    1.429 
#    0.000    1.429    0.000    8.571    0.000    8.000 
#    0.000    0.000    0.000    0.000    0.000    0.000 
#
# Total GULP energy -312435.505546 kJ/mol
# GULP energy per Si atom -5579.205456 kJ/mol
# Density = 1.972016 g / cm^3
# Si number density = 19.765147 Si / 1000 Ang^3
#
#
#
# Elastic Constant Matrix: (Units=GPa)
#
#
# Indices 1 2 3 4 5 6 
#
# 1 68.2658 24.7907 8.8296 0.0000 0.0000 0.0000
# 2 24.7907 90.6620 18.1020 0.0000 0.0000 0.0000
# 3 8.8296 18.1020 43.9032 0.0000 0.0000 0.0000
# 4 0.0000 0.0000 0.0000 23.5141 0.0000 0.0000
# 5 0.0000 0.0000 0.0000 0.0000 23.8321 0.0000
# 6 0.0000 0.0000 0.0000 0.0000 0.0000 70.6625
#
#
#
# Elastic Compliance Matrix: (Units=1/GPa)
#
#
# Indices 1 2 3 4 5 6 
#
# 1 0.016363 -0.004160 -0.001576 0.000000 0.000000 0.000000
# 2 -0.004160 0.013077 -0.004555 0.000000 0.000000 0.000000
# 3 -0.001576 -0.004555 0.024972 0.000000 0.000000 0.000000
# 4 0.000000 0.000000 0.000000 0.042528 0.000000 0.000000
# 5 0.000000 0.000000 0.000000 0.000000 0.041960 0.000000
# 6 0.000000 0.000000 0.000000 0.000000 0.000000 0.014152
#
#
# Mechanical properties :
#
#
# Convention : Reuss Voigt Hill
#
# Bulk Modulus (GPa) = 29.55866 34.03065 31.79466
# Shear Modulus (GPa) = 27.04011 33.67567 30.35789
#
# Velocity S-wave (km/s) = 3.70276 4.13218 3.92335
# Velocity P-wave (km/s) = 5.76784 6.32625 6.05348
#
# Compressibility (1/GPa) = 0.03383103
#
# Stress axis : x y z
#
# Youngs Moduli (GPa) = 61.11338 76.47051 40.04409
#
# Poissons Ratio (x) = 0.31809 0.06310
# Poissons Ratio (y) = 0.25421 0.18241
# Poissons Ratio (z) = 0.09630 0.34834
#
# Static dielectric constant tensor:
#      x y z
#    x 1.720110 0.000000 0.000000 
#    y 0.000000 1.680150 0.000000 
#    z 0.000000 0.000000 1.666700 
# 
# From -- ./inp_files/2309.got.cif
#   From: 2010.05.17/outbox.cif.g08.bks.cpg/sg59_2_cif.got.tgz:2309.got - 2010.06.03 14:40:33.
