data_PCOD9448440
_publ_section_title
;
Structure prediction by ZEFSAII (Michael W. Deem and Ramdas Pophale) SiO2 
 PCOD9448440
Probable space group: P M M N
;
_chemical_formula_sum "Si O2"
_cell_formula_units_Z 56
_cell_length_a 8.902228
_cell_length_b 15.086956
_cell_length_c 21.926216
_cell_angle_alpha 90.000000
_cell_angle_beta 90.000000
_cell_angle_gamma 90.000000
_cell_volume 2944.855741
_symmetry_space_group_name_H-M "P M M N"
_symmetry_group_IT_number 59
_space_group.IT_coordinate_system_code '2'
_symmetry_cell_setting 'orthorhombic'
loop_
_space_group_symop_operation_xyz
x,y,z
1/2-x,1/2-y,z
1/2+x,-y,-z
-x,1/2+y,-z
-x,-y,-z
1/2+x,1/2+y,-z
1/2-x,y,z
x,1/2-y,z
loop_
_atom_site_type_symbol
_atom_site_label
_atom_site_fract_x
_atom_site_fract_y
_atom_site_fract_z
Si Si1 0.571822 0.585260 0.932972
Si Si2 0.068732 0.853895 0.509079
Si Si3 0.570373 0.002580 0.592987
Si Si4 0.426308 0.106298 0.933441
Si Si5 0.421457 0.649478 0.189741
Si Si6 0.572757 0.850607 0.797853
Si Si7 0.926491 0.508058 0.274927
O O1 0.750000 0.559799 0.935226
O O2 0.469592 0.497802 0.931404
O O3 0.548169 0.637116 0.870379
O O4 0.541800 0.634573 0.996858
O O5 0.250000 0.854816 0.514745
O O6 0.021929 0.750000 0.507645
O O7 0.999109 0.913673 0.563002
O O8 0.029652 0.911622 0.448649
O O9 0.750000 0.994819 0.592388
O O10 0.511476 0.014515 0.661048
O O11 0.250000 0.119758 0.921313
O O12 0.522686 0.148285 0.879858
O O13 0.250000 0.616097 0.192101
O O14 0.425250 0.750000 0.212391
O O15 0.524361 0.587121 0.230282
O O16 0.750000 0.868401 0.787111
O O17 0.540543 0.750000 0.780424
O O18 0.476033 0.919281 0.759971
O O19 0.750000 0.509269 0.285528
#
# Coordination Sequence:
#
# PCOD9448440 Si02
#       7
#     8   8   8   8   8   8   8
#     4   9  18  33  55  81 113 149 188 237 297 360
#     4   9  19  38  64  94 126 157 193 237 281 330
#     4  10  21  38  62  91 123 161 198 234 285 342
#     4  10  19  32  55  85 113 145 187 240 299 359
#     4  11  24  41  60  82 112 153 198 245 300 361
#     4  10  21  38  60  84 112 152 199 244 295 356
#     4  12  25  41  61  86 119 157 199 248 296 343
#
# _framework density 19.016211999999999
#
# number of rings (size 3 to 8) (size 9 to 14) (size 15 to 20)
#    0.000    1.857    1.429    2.571    0.000    4.571 
#    0.000    2.857    0.000    0.000    0.000    0.000 
#    0.000    0.000    0.000    0.000    0.000    0.000 
#
# Total GULP energy -312683.050435 kJ/mol
# GULP energy per Si atom -5583.625901 kJ/mol
# Density = 1.897293 g / cm^3
# Si number density = 19.016212 Si / 1000 Ang^3
#
#
#
# Elastic Constant Matrix: (Units=GPa)
#
#
# Indices 1 2 3 4 5 6 
#
# 1 27.7781 21.6729 12.6864 0.0000 0.0000 0.0000
# 2 21.6729 92.8051 20.1357 0.0000 0.0000 0.0000
# 3 12.6864 20.1357 81.7808 0.0000 0.0000 0.0000
# 4 0.0000 0.0000 0.0000 -98.9786 0.0000 0.0000
# 5 0.0000 0.0000 0.0000 0.0000 23.9620 0.0000
# 6 0.0000 0.0000 0.0000 0.0000 0.0000 2.5575
#
#
#
# Elastic Compliance Matrix: (Units=1/GPa)
#
#
# Indices 1 2 3 4 5 6 
#
# 1 0.045676 -0.009645 -0.004711 0.000000 0.000000 0.000000
# 2 -0.009645 0.013420 -0.001808 0.000000 0.000000 0.000000
# 3 -0.004711 -0.001808 0.013404 0.000000 0.000000 0.000000
# 4 0.000000 0.000000 0.000000 -0.010103 0.000000 0.000000
# 5 0.000000 0.000000 0.000000 0.000000 0.041733 0.000000
# 6 0.000000 0.000000 0.000000 0.000000 0.000000 0.391002
#
#
# Mechanical properties :
#
#
# Convention : Reuss Voigt Hill
#
# Bulk Modulus (GPa) = 24.89269 34.59490 29.74380
# Shear Modulus (GPa) = 9.24471 -4.63388 2.30542
#
# Velocity S-wave (km/s) = 2.20727 -1.56272 1.10226
# Velocity P-wave (km/s) = 4.42885 3.86984 4.15875
#
# Compressibility (1/GPa) = 0.04017244
#
# Stress axis : x y z
#
# Youngs Moduli (GPa) = 21.89332 74.51621 74.60592
#
# Poissons Ratio (x) = 0.71869 0.35146
# Poissons Ratio (y) = 0.21115 0.13489
# Poissons Ratio (z) = 0.10314 0.13473
#
# Static dielectric constant tensor:
#      x y z
#    x 1.641190 0.000000 0.000000 
#    y 0.000000 1.666590 0.000000 
#    z 0.000000 0.000000 1.650670 
# 
# From -- ./inp_files/29032.got.cif
#   From: 2010.05.17/outbox.cif.g08.bks.cpg/sg59_15_cif.got.tgz:29032.got - 2010.06.03 14:40:33.
