data_PCOD9448877
_publ_section_title
;
Structure prediction by ZEFSAII (Michael W. Deem and Ramdas Pophale) SiO2 
 PCOD9448877
Probable space group: P M M N
;
_chemical_formula_sum "Si O2"
_cell_formula_units_Z 48
_cell_length_a 19.094255
_cell_length_b 13.695243
_cell_length_c 10.028640
_cell_angle_alpha 90.000000
_cell_angle_beta 90.000000
_cell_angle_gamma 90.000000
_cell_volume 2622.493995
_symmetry_space_group_name_H-M "P M M N"
_symmetry_group_IT_number 59
_space_group.IT_coordinate_system_code '2'
_symmetry_cell_setting 'orthorhombic'
loop_
_space_group_symop_operation_xyz
x,y,z
1/2-x,1/2-y,z
1/2+x,-y,-z
-x,1/2+y,-z
-x,-y,-z
1/2+x,1/2+y,-z
1/2-x,y,z
x,1/2-y,z
loop_
_atom_site_type_symbol
_atom_site_label
_atom_site_fract_x
_atom_site_fract_y
_atom_site_fract_z
Si Si1 0.960006 0.566276 0.817537
Si Si2 0.030688 0.635004 0.546316
Si Si3 0.910577 0.860609 0.318928
Si Si4 0.830267 0.013140 0.469314
Si Si5 0.481963 0.861638 0.090737
Si Si6 0.327064 0.141851 0.291663
O O1 0.941549 0.452886 0.843970
O O2 0.888733 0.626228 0.810838
O O3 0.999123 0.583150 0.677463
O O4 0.006031 0.608680 0.937949
O O5 0.036150 0.750000 0.573665
O O6 0.107318 0.591371 0.516045
O O7 0.974343 0.624457 0.426293
O O8 0.884412 0.750000 0.337894
O O9 0.853455 0.942671 0.347804
O O10 0.945318 0.866649 0.173508
O O11 0.750000 0.048910 0.456323
O O12 0.833054 0.940437 0.595930
O O13 0.455751 0.750000 0.104964
O O14 0.250000 0.135577 0.231477
O O15 0.334739 0.250000 0.352628
#
# Coordination Sequence:
#
# PCOD9448877 Si02
#       6
#     8   8   8   8   8   8
#     4  11  20  36  59  81 110 144 183 228 271 321
#     4  11  21  35  58  81 105 143 190 229 266 321
#     4  10  19  34  55  81 109 136 176 229 277 321
#     4  11  21  33  51  79 113 143 176 220 274 324
#     4  10  21  34  55  84 112 141 179 227 275 320
#     4  10  20  34  55  83 111 142 182 228 277 328
#
# _framework density 18.303187999999999
#
# number of rings (size 3 to 8) (size 9 to 14) (size 15 to 20)
#    0.000    1.500    3.333    3.500    0.000    1.333 
#    0.000    0.833    0.000    2.500    0.000    0.000 
#    0.000    0.000    0.000    0.000    0.000    0.000 
#
# Total GULP energy -267700.750259 kJ/mol
# GULP energy per Si atom -5577.098964 kJ/mol
# Density = 1.826153 g / cm^3
# Si number density = 18.303188 Si / 1000 Ang^3
#
#
#
# Elastic Constant Matrix: (Units=GPa)
#
#
# Indices 1 2 3 4 5 6 
#
# 1 83.1398 26.7923 -2.5455 0.0000 0.0000 0.0000
# 2 26.7923 114.2812 14.6101 0.0000 0.0000 0.0000
# 3 -2.5455 14.6101 43.4145 0.0000 0.0000 0.0000
# 4 0.0000 0.0000 0.0000 21.4698 0.0000 0.0000
# 5 0.0000 0.0000 0.0000 0.0000 11.0460 0.0000
# 6 0.0000 0.0000 0.0000 0.0000 0.0000 23.9272
#
#
#
# Elastic Compliance Matrix: (Units=1/GPa)
#
#
# Indices 1 2 3 4 5 6 
#
# 1 0.013158 -0.003326 0.001891 0.000000 0.000000 0.000000
# 2 -0.003326 0.009985 -0.003555 0.000000 0.000000 0.000000
# 3 0.001891 -0.003555 0.024341 0.000000 0.000000 0.000000
# 4 0.000000 0.000000 0.000000 0.046577 0.000000 0.000000
# 5 0.000000 0.000000 0.000000 0.000000 0.090530 0.000000
# 6 0.000000 0.000000 0.000000 0.000000 0.000000 0.041793
#
#
# Mechanical properties :
#
#
# Convention : Reuss Voigt Hill
#
# Bulk Modulus (GPa) = 26.66515 35.39438 31.02977
# Shear Modulus (GPa) = 20.09110 24.75384 22.42247
#
# Velocity S-wave (km/s) = 3.31672 3.68153 3.50388
# Velocity P-wave (km/s) = 5.40997 6.11975 5.77577
#
# Compressibility (1/GPa) = 0.03750213
#
# Stress axis : x y z
#
# Youngs Moduli (GPa) = 76.00044 100.15302 41.08288
#
# Poissons Ratio (x) = 0.33316 -0.07768
# Poissons Ratio (y) = 0.25281 0.14606
# Poissons Ratio (z) = -0.14371 0.35606
#
# Static dielectric constant tensor:
#      x y z
#    x 1.629970 0.000000 0.000000 
#    y 0.000000 1.679820 0.000000 
#    z 0.000000 0.000000 1.636970 
# 
# From -- ./inp_files/11288.got.cif
#   From: 2010.05.17/outbox.cif.g08.bks.cpg/sg59_6_cif.got.tgz:11288.got - 2010.06.03 14:40:33.
