data_PCOD9448291
_publ_section_title
;
Structure prediction by ZEFSAII (Michael W. Deem and Ramdas Pophale) SiO2 
 PCOD9448291
Probable space group: P M M N
;
_chemical_formula_sum "Si O2"
_cell_formula_units_Z 56
_cell_length_a 18.808052
_cell_length_b 8.732464
_cell_length_c 19.401007
_cell_angle_alpha 90.000000
_cell_angle_beta 90.000000
_cell_angle_gamma 90.000000
_cell_volume 3186.433748
_symmetry_space_group_name_H-M "P M M N"
_symmetry_group_IT_number 59
_space_group.IT_coordinate_system_code '2'
_symmetry_cell_setting 'orthorhombic'
loop_
_space_group_symop_operation_xyz
x,y,z
1/2-x,1/2-y,z
1/2+x,-y,-z
-x,1/2+y,-z
-x,-y,-z
1/2+x,1/2+y,-z
1/2-x,y,z
x,1/2-y,z
loop_
_atom_site_type_symbol
_atom_site_label
_atom_site_fract_x
_atom_site_fract_y
_atom_site_fract_z
Si Si1 0.918605 0.434600 0.095424
Si Si2 0.479023 0.065379 0.573745
Si Si3 0.174703 0.067729 0.623028
Si Si4 0.569180 0.432782 0.852917
Si Si5 0.333116 0.066161 0.033518
Si Si6 0.133572 0.923915 0.759900
Si Si7 0.031246 0.425330 0.288482
O O1 0.925555 0.250000 0.093037
O O2 0.868143 0.473260 0.160878
O O3 0.996180 0.504315 0.111795
O O4 0.881961 0.497300 0.027119
O O5 0.480756 0.250000 0.573711
O O6 0.398136 0.010652 0.589507
O O7 0.500000 0.000000 0.500000
O O8 0.527333 0.004802 0.636960
O O9 0.250000 0.006184 0.595921
O O10 0.174505 0.250000 0.614223
O O11 0.170223 0.029702 0.704026
O O12 0.568452 0.250000 0.856521
O O13 0.634371 0.501637 0.895773
O O14 0.570341 0.487088 0.773361
O O15 0.250000 0.024881 0.024893
O O16 0.338916 0.250000 0.032689
O O17 0.160736 0.750000 0.754609
O O18 0.050626 0.921399 0.737795
O O19 0.055984 0.250000 0.294247
#
# Coordination Sequence:
#
# PCOD9448291 Si02
#       7
#     8   8   8   8   8   8   8
#     4  10  20  35  54  76 104 137 175 217 261 312
#     4  10  19  32  52  78 107 137 170 210 255 303
#     4   9  18  31  47  69  99 135 170 202 242 297
#     4  11  21  35  57  80 103 133 173 219 264 313
#     4  11  24  39  53  72 101 137 177 222 273 323
#     4   8  16  29  46  70  98 128 160 197 242 293
#     4   9  17  32  53  77 103 129 163 205 249 301
#
# _framework density 17.574506
#
# number of rings (size 3 to 8) (size 9 to 14) (size 15 to 20)
#    0.000    2.286    0.000    4.286    0.000    6.571 
#    0.000    2.857    0.000    0.857    0.000    2.000 
#    0.000    0.000    0.000    0.000    0.000    0.000 
#
# Total GULP energy -312248.619986 kJ/mol
# GULP energy per Si atom -5575.868214 kJ/mol
# Density = 1.753451 g / cm^3
# Si number density = 17.574506 Si / 1000 Ang^3
#
#
#
# Elastic Constant Matrix: (Units=GPa)
#
#
# Indices 1 2 3 4 5 6 
#
# 1 43.9936 21.4965 27.9002 0.0000 0.0000 0.0000
# 2 21.4965 68.4207 35.5045 0.0000 0.0000 0.0000
# 3 27.9002 35.5045 125.8721 0.0000 0.0000 0.0000
# 4 0.0000 0.0000 0.0000 32.3394 0.0000 0.0000
# 5 0.0000 0.0000 0.0000 0.0000 4.6019 0.0000
# 6 0.0000 0.0000 0.0000 0.0000 0.0000 15.5465
#
#
#
# Elastic Compliance Matrix: (Units=1/GPa)
#
#
# Indices 1 2 3 4 5 6 
#
# 1 0.028877 -0.006737 -0.004500 0.000000 0.000000 0.000000
# 2 -0.006737 0.018693 -0.003779 0.000000 0.000000 0.000000
# 3 -0.004500 -0.003779 0.010008 0.000000 0.000000 0.000000
# 4 0.000000 0.000000 0.000000 0.030922 0.000000 0.000000
# 5 0.000000 0.000000 0.000000 0.000000 0.217304 0.000000
# 6 0.000000 0.000000 0.000000 0.000000 0.000000 0.064323
#
#
# Mechanical properties :
#
#
# Convention : Reuss Voigt Hill
#
# Bulk Modulus (GPa) = 36.30532 45.34321 40.82427
# Shear Modulus (GPa) = 12.21472 20.72324 16.46898
#
# Velocity S-wave (km/s) = 2.63919 3.43762 3.06452
# Velocity P-wave (km/s) = 5.47630 6.45081 5.98343
#
# Compressibility (1/GPa) = 0.02754417
#
# Stress axis : x y z
#
# Youngs Moduli (GPa) = 34.63010 53.49487 99.91854
#
# Poissons Ratio (x) = 0.36041 0.44966
# Poissons Ratio (y) = 0.23331 0.37764
# Poissons Ratio (z) = 0.15585 0.20218
#
# Static dielectric constant tensor:
#      x y z
#    x 1.616360 0.000000 0.000000 
#    y 0.000000 1.598200 0.000000 
#    z 0.000000 0.000000 1.590380 
# 
# From -- ./inp_files/28029.got.cif
#   From: 2010.05.17/outbox.cif.g08.bks.cpg/sg59_15_cif.got.tgz:28029.got - 2010.06.03 14:40:33.
