data_PCOD9448645
_publ_section_title
;
Structure prediction by ZEFSAII (Michael W. Deem and Ramdas Pophale) SiO2 
 PCOD9448645
Probable space group: P M M N
;
_chemical_formula_sum "Si O2"
_cell_formula_units_Z 56
_cell_length_a 19.884453
_cell_length_b 7.558607
_cell_length_c 18.379147
_cell_angle_alpha 90.000000
_cell_angle_beta 90.000000
_cell_angle_gamma 90.000000
_cell_volume 2762.363108
_symmetry_space_group_name_H-M "P M M N"
_symmetry_group_IT_number 59
_space_group.IT_coordinate_system_code '2'
_symmetry_cell_setting 'orthorhombic'
loop_
_space_group_symop_operation_xyz
x,y,z
1/2-x,1/2-y,z
1/2+x,-y,-z
-x,1/2+y,-z
-x,-y,-z
1/2+x,1/2+y,-z
1/2-x,y,z
x,1/2-y,z
loop_
_atom_site_type_symbol
_atom_site_label
_atom_site_fract_x
_atom_site_fract_y
_atom_site_fract_z
Si Si1 0.432665 0.961108 0.681153
Si Si2 0.066558 0.457661 0.098385
Si Si3 0.923973 0.962680 0.740839
Si Si4 0.674639 0.962981 0.194218
Si Si5 0.326516 0.962664 0.390886
Si Si6 0.077264 0.537721 0.519640
Si Si7 0.912927 0.965263 0.060760
O O1 0.440826 0.750000 0.673322
O O2 0.505108 0.030560 0.708157
O O3 0.412227 0.030111 0.601649
O O4 0.376296 0.992382 0.741272
O O5 0.083866 0.250000 0.099072
O O6 0.086431 0.531855 0.177061
O O7 0.985910 0.475787 0.089806
O O8 0.095247 0.529873 0.022209
O O9 0.930586 0.750000 0.746888
O O10 0.864883 0.999294 0.684264
O O11 0.750000 0.029680 0.206230
O O12 0.677410 0.750000 0.190535
O O13 0.642844 0.024410 0.117961
O O14 0.250000 0.029299 0.392262
O O15 0.323622 0.750000 0.397598
O O16 0.372373 0.031076 0.457669
O O17 0.085681 0.750000 0.520401
O O18 0.000000 0.500000 0.500000
O O19 0.914169 0.750000 0.059514
#
# Coordination Sequence:
#
# PCOD9448645 Si02
#       7
#     8   8   8   8   8   8   8
#     4  10  20  34  54  80 106 135 174 218 261 312
#     4   9  17  30  50  76 103 130 169 217 257 303
#     4  10  19  33  54  81 109 134 171 219 263 308
#     4  10  21  35  50  73 107 142 177 217 262 313
#     4  10  22  38  55  77 106 140 175 212 259 314
#     4  10  20  35  56  80 105 136 174 215 257 308
#     4   9  17  30  49  73 101 135 172 211 258 305
#
# _framework density 20.272497000000001
#
# number of rings (size 3 to 8) (size 9 to 14) (size 15 to 20)
#    0.000    2.286    2.857    0.000    0.000    2.857 
#    0.000    2.143    0.000    2.571    0.000    0.000 
#    0.000    0.000    0.000    0.000    0.000    0.000 
#
# Total GULP energy -312529.399520 kJ/mol
# GULP energy per Si atom -5580.882134 kJ/mol
# Density = 2.022636 g / cm^3
# Si number density = 20.272497 Si / 1000 Ang^3
#
#
#
# Elastic Constant Matrix: (Units=GPa)
#
#
# Indices 1 2 3 4 5 6 
#
# 1 140.6008 -11.4093 105.8901 0.0000 0.0000 0.0000
# 2 -11.4093 42.5642 5.8694 0.0000 0.0000 0.0000
# 3 105.8901 5.8694 223.5432 0.0000 0.0000 0.0000
# 4 0.0000 0.0000 0.0000 10.3003 0.0000 0.0000
# 5 0.0000 0.0000 0.0000 0.0000 27.1644 0.0000
# 6 0.0000 0.0000 0.0000 0.0000 0.0000 17.2101
#
#
#
# Elastic Compliance Matrix: (Units=1/GPa)
#
#
# Indices 1 2 3 4 5 6 
#
# 1 0.011669 0.003904 -0.005630 0.000000 0.000000 0.000000
# 2 0.003904 0.024886 -0.002503 0.000000 0.000000 0.000000
# 3 -0.005630 -0.002503 0.007206 0.000000 0.000000 0.000000
# 4 0.000000 0.000000 0.000000 0.097084 0.000000 0.000000
# 5 0.000000 0.000000 0.000000 0.000000 0.036813 0.000000
# 6 0.000000 0.000000 0.000000 0.000000 0.000000 0.058106
#
#
# Mechanical properties :
#
#
# Convention : Reuss Voigt Hill
#
# Bulk Modulus (GPa) = 28.32562 67.48984 47.90773
# Shear Modulus (GPa) = 19.53207 31.35882 25.44544
#
# Velocity S-wave (km/s) = 3.10736 3.93729 3.54668
# Velocity P-wave (km/s) = 5.18430 7.35073 6.36043
#
# Compressibility (1/GPa) = 0.03530372
#
# Stress axis : x y z
#
# Youngs Moduli (GPa) = 85.69430 40.18383 138.77167
#
# Poissons Ratio (x) = -0.15689 0.78131
# Poissons Ratio (y) = -0.33458 0.34732
# Poissons Ratio (z) = 0.48247 0.10057
#
# Static dielectric constant tensor:
#      x y z
#    x 1.685860 0.000000 0.000000 
#    y 0.000000 1.896600 0.000000 
#    z 0.000000 0.000000 1.743110 
# 
# From -- ./inp_files/28112.got.cif
#   From: 2010.05.17/outbox.cif.g08.bks.cpg/sg59_15_cif.got.tgz:28112.got - 2010.06.03 14:40:33.
