data_PCOD9448493
_publ_section_title
;
Structure prediction by ZEFSAII (Michael W. Deem and Ramdas Pophale) SiO2 
 PCOD9448493
Probable space group: P M M N
;
_chemical_formula_sum "Si O2"
_cell_formula_units_Z 64
_cell_length_a 7.424718
_cell_length_b 18.513641
_cell_length_c 20.596261
_cell_angle_alpha 90.000000
_cell_angle_beta 90.000000
_cell_angle_gamma 90.000000
_cell_volume 2831.132452
_symmetry_space_group_name_H-M "P M M N"
_symmetry_group_IT_number 59
_space_group.IT_coordinate_system_code '2'
_symmetry_cell_setting 'orthorhombic'
loop_
_space_group_symop_operation_xyz
x,y,z
1/2-x,1/2-y,z
1/2+x,-y,-z
-x,1/2+y,-z
-x,-y,-z
1/2+x,1/2+y,-z
1/2-x,y,z
x,1/2-y,z
loop_
_atom_site_type_symbol
_atom_site_label
_atom_site_fract_x
_atom_site_fract_y
_atom_site_fract_z
Si Si1 0.468172 0.591302 0.553881
Si Si2 0.539741 0.668878 0.894236
Si Si3 0.530693 0.169631 0.857455
Si Si4 0.029064 0.590793 0.267729
Si Si5 0.531789 0.330648 0.319130
Si Si6 0.459832 0.925931 0.412037
Si Si7 0.045876 0.441345 0.208911
Si Si8 0.536334 0.417681 0.979188
O O1 0.250000 0.588615 0.551255
O O2 0.519205 0.649875 0.607293
O O3 0.528041 0.512808 0.579837
O O4 0.535523 0.602745 0.480507
O O5 0.750000 0.674039 0.875348
O O6 0.463915 0.750000 0.888669
O O7 0.459533 0.606881 0.847722
O O8 0.531357 0.637975 0.966576
O O9 0.750000 0.168728 0.857848
O O10 0.473631 0.250000 0.877286
O O11 0.477727 0.151695 0.783767
O O12 0.470055 0.108783 0.908741
O O13 0.250000 0.587811 0.271052
O O14 0.964669 0.595803 0.341940
O O15 0.966886 0.515925 0.234611
O O16 0.750000 0.335326 0.314641
O O17 0.477538 0.250000 0.301075
O O18 0.452099 0.388792 0.270637
O O19 0.250000 0.905065 0.411025
O O20 0.250000 0.459732 0.186935
O O21 0.750000 0.410467 0.978197
O O22 0.500000 0.500000 0.000000
#
# Coordination Sequence:
#
# PCOD9448493 Si02
#       8
#     8   8   8   8   8   8   8   8
#     4   9  17  29  45  67  97 130 165 207 256 305
#     4  10  21  36  54  78 109 142 175 216 267 317
#     4   9  18  33  53  78 107 136 167 209 263 315
#     4   9  16  28  49  75 100 127 165 213 254 297
#     4  10  20  32  45  66 101 139 171 210 262 315
#     4   9  16  28  48  72  95 124 165 211 254 300
#     4  10  19  33  52  74 101 135 174 215 256 304
#     4  11  22  37  58  82 108 140 179 222 266 319
#
# _framework density 22.605795000000001
#
# number of rings (size 3 to 8) (size 9 to 14) (size 15 to 20)
#    0.000    2.375    1.250    1.875    0.000    4.000 
#    0.000    0.625    0.000    4.500    0.000    0.000 
#    0.000    1.000    0.000    0.000    0.000    0.000 
#
# Total GULP energy -357305.233153 kJ/mol
# GULP energy per Si atom -5582.894268 kJ/mol
# Density = 2.255434 g / cm^3
# Si number density = 22.605795 Si / 1000 Ang^3
#
#
#
# Elastic Constant Matrix: (Units=GPa)
#
#
# Indices 1 2 3 4 5 6 
#
# 1 72.8666 -7.1942 -3.2682 0.0000 0.0000 0.0000
# 2 -7.1942 59.5875 18.3122 0.0000 0.0000 0.0000
# 3 -3.2682 18.3122 145.8028 0.0000 0.0000 0.0000
# 4 0.0000 0.0000 0.0000 13.6910 0.0000 0.0000
# 5 0.0000 0.0000 0.0000 0.0000 10.1227 0.0000
# 6 0.0000 0.0000 0.0000 0.0000 0.0000 -20.0694
#
#
#
# Elastic Compliance Matrix: (Units=1/GPa)
#
#
# Indices 1 2 3 4 5 6 
#
# 1 0.013891 0.001645 0.000105 0.000000 0.000000 0.000000
# 2 0.001645 0.017651 -0.002180 0.000000 0.000000 0.000000
# 3 0.000105 -0.002180 0.007135 0.000000 0.000000 0.000000
# 4 0.000000 0.000000 0.000000 0.073041 0.000000 0.000000
# 5 0.000000 0.000000 0.000000 0.000000 0.098788 0.000000
# 6 0.000000 0.000000 0.000000 0.000000 0.000000 -0.049827
#
#
# Mechanical properties :
#
#
# Convention : Reuss Voigt Hill
#
# Bulk Modulus (GPa) = 26.44418 32.66183 29.55301
# Shear Modulus (GPa) = 28.71201 18.77600 23.74401
#
# Velocity S-wave (km/s) = 3.56774 2.88511 3.24443
# Velocity P-wave (km/s) = 5.35677 5.05750 5.20929
#
# Compressibility (1/GPa) = 0.03781550
#
# Stress axis : x y z
#
# Youngs Moduli (GPa) = 71.99007 56.65536 140.15963
#
# Poissons Ratio (x) = -0.09319 -0.01469
# Poissons Ratio (y) = -0.11842 0.30554
# Poissons Ratio (z) = -0.00754 0.12351
#
# Static dielectric constant tensor:
#      x y z
#    x 1.923080 0.000000 0.000000 
#    y 0.000000 1.795220 0.000000 
#    z 0.000000 0.000000 1.845430 
# 
# From -- ./inp_files/29521.got.cif
#   From: 2010.05.17/outbox.cif.g08.bks.cpg/sg59_15_cif.got.tgz:29521.got - 2010.06.03 14:40:33.
