data_PCOD9448274
_publ_section_title
;
Structure prediction by ZEFSAII (Michael W. Deem and Ramdas Pophale) SiO2 
 PCOD9448274
Probable space group: P M M N
;
_chemical_formula_sum "Si O2"
_cell_formula_units_Z 64
_cell_length_a 14.014336
_cell_length_b 13.154629
_cell_length_c 19.987877
_cell_angle_alpha 90.000000
_cell_angle_beta 90.000000
_cell_angle_gamma 90.000000
_cell_volume 3684.832899
_symmetry_space_group_name_H-M "P M M N"
_symmetry_group_IT_number 59
_space_group.IT_coordinate_system_code '2'
_symmetry_cell_setting 'orthorhombic'
loop_
_space_group_symop_operation_xyz
x,y,z
1/2-x,1/2-y,z
1/2+x,-y,-z
-x,1/2+y,-z
-x,-y,-z
1/2+x,1/2+y,-z
1/2-x,y,z
x,1/2-y,z
loop_
_atom_site_type_symbol
_atom_site_label
_atom_site_fract_x
_atom_site_fract_y
_atom_site_fract_z
Si Si1 0.362449 0.369590 0.680398
Si Si2 0.140488 0.054544 0.034113
Si Si3 0.499153 0.046350 0.781665
Si Si4 0.357917 0.554764 0.458069
Si Si5 0.487099 0.630543 0.070694
Si Si6 0.062617 0.365286 0.531269
Si Si7 0.140272 0.130786 0.185757
Si Si8 0.643259 0.137286 0.683173
O O1 0.250000 0.384893 0.670314
O O2 0.376433 0.250000 0.699165
O O3 0.404492 0.443495 0.737090
O O4 0.416047 0.385645 0.609805
O O5 0.250000 0.053096 0.012317
O O6 0.135427 0.110557 0.105897
O O7 0.099946 0.940781 0.046028
O O8 0.072816 0.109524 0.980950
O O9 0.485120 0.087157 0.856389
O O10 0.570197 0.120561 0.741804
O O11 0.557711 0.940442 0.783694
O O12 0.250000 0.589891 0.474804
O O13 0.449871 0.618375 0.482373
O O14 0.377057 0.444052 0.487928
O O15 0.364960 0.559027 0.377570
O O16 0.465139 0.750000 0.073996
O O17 0.090345 0.250000 0.517913
O O18 0.250000 0.103008 0.206196
O O19 0.126567 0.250000 0.199541
O O20 0.750000 0.131953 0.710461
O O21 0.629870 0.250000 0.652909
#
# Coordination Sequence:
#
# PCOD9448274 Si02
#       8
#     8   8   8   8   8   8   8   8
#     4  10  20  34  53  76 105 143 179 212 260 319
#     4   9  19  35  53  75 105 141 178 216 265 319
#     4  11  20  33  52  78 109 139 174 215 259 312
#     4  10  20  33  54  82 106 136 178 219 260 312
#     4  10  20  32  51  80 110 137 173 222 267 309
#     4  10  20  36  56  78 108 142 177 221 267 312
#     4   9  18  34  56  78 102 137 177 215 261 318
#     4  10  19  32  52  77 106 137 167 207 265 325
#
# _framework density 17.368494999999999
#
# number of rings (size 3 to 8) (size 9 to 14) (size 15 to 20)
#    0.000    2.125    1.250    2.625    0.000    3.500 
#    0.000    0.625    0.000    1.125    0.000    0.000 
#    0.000    0.000    0.000    0.000    0.000    0.000 
#
# Total GULP energy -356732.989694 kJ/mol
# GULP energy per Si atom -5573.952964 kJ/mol
# Density = 1.732896 g / cm^3
# Si number density = 17.368495 Si / 1000 Ang^3
#
#
#
# Elastic Constant Matrix: (Units=GPa)
#
#
# Indices 1 2 3 4 5 6 
#
# 1 86.3168 17.0115 14.8831 0.0000 0.0000 0.0000
# 2 17.0115 89.0996 23.8285 0.0000 0.0000 0.0000
# 3 14.8831 23.8285 45.6555 0.0000 0.0000 0.0000
# 4 0.0000 0.0000 0.0000 21.2266 0.0000 0.0000
# 5 0.0000 0.0000 0.0000 0.0000 27.1861 0.0000
# 6 0.0000 0.0000 0.0000 0.0000 0.0000 18.2536
#
#
#
# Elastic Compliance Matrix: (Units=1/GPa)
#
#
# Indices 1 2 3 4 5 6 
#
# 1 0.012445 -0.001501 -0.003274 0.000000 0.000000 0.000000
# 2 -0.001501 0.013225 -0.006413 0.000000 0.000000 0.000000
# 3 -0.003274 -0.006413 0.026318 0.000000 0.000000 0.000000
# 4 0.000000 0.000000 0.000000 0.047111 0.000000 0.000000
# 5 0.000000 0.000000 0.000000 0.000000 0.036783 0.000000
# 6 0.000000 0.000000 0.000000 0.000000 0.000000 0.054784
#
#
# Mechanical properties :
#
#
# Convention : Reuss Voigt Hill
#
# Bulk Modulus (GPa) = 33.76931 36.94646 35.35789
# Shear Modulus (GPa) = 22.43034 24.35651 23.39342
#
# Velocity S-wave (km/s) = 3.59756 3.74884 3.67398
# Velocity P-wave (km/s) = 6.06149 6.32904 6.19671
#
# Compressibility (1/GPa) = 0.02961269
#
# Stress axis : x y z
#
# Youngs Moduli (GPa) = 80.35052 75.61411 37.99741
#
# Poissons Ratio (x) = 0.11347 0.12440
# Poissons Ratio (y) = 0.12058 0.24369
# Poissons Ratio (z) = 0.26306 0.48493
#
# Static dielectric constant tensor:
#      x y z
#    x 1.619600 0.000000 0.000000 
#    y 0.000000 1.586250 0.000000 
#    z 0.000000 0.000000 1.571480 
# 
# From -- ./inp_files/27670.got.cif
#   From: 2010.05.17/outbox.cif.g08.bks.cpg/sg59_14_cif.got.tgz:27670.got - 2010.06.03 14:40:33.
