data_PCOD9448510
_publ_section_title
;
Structure prediction by ZEFSAII (Michael W. Deem and Ramdas Pophale) SiO2 
 PCOD9448510
Probable space group: P M M N
;
_chemical_formula_sum "Si O2"
_cell_formula_units_Z 64
_cell_length_a 12.644392
_cell_length_b 22.587398
_cell_length_c 12.487936
_cell_angle_alpha 90.000000
_cell_angle_beta 90.000000
_cell_angle_gamma 90.000000
_cell_volume 3566.603407
_symmetry_space_group_name_H-M "P M M N"
_symmetry_group_IT_number 59
_space_group.IT_coordinate_system_code '2'
_symmetry_cell_setting 'orthorhombic'
loop_
_space_group_symop_operation_xyz
x,y,z
1/2-x,1/2-y,z
1/2+x,-y,-z
-x,1/2+y,-z
-x,-y,-z
1/2+x,1/2+y,-z
1/2-x,y,z
x,1/2-y,z
loop_
_atom_site_type_symbol
_atom_site_label
_atom_site_fract_x
_atom_site_fract_y
_atom_site_fract_z
Si Si1 0.632214 0.178744 0.864165
Si Si2 0.627509 0.390538 0.220306
Si Si3 0.990101 0.495453 0.836109
Si Si4 0.515478 0.819207 0.931770
Si Si5 0.946540 0.408237 0.456067
Si Si6 0.626141 0.990549 0.614895
Si Si7 0.628813 0.929756 0.008060
Si Si8 0.124114 0.679441 0.374091
O O1 0.750000 0.154278 0.882985
O O2 0.641220 0.250000 0.854410
O O3 0.595564 0.159388 0.746502
O O4 0.559035 0.169669 0.965192
O O5 0.750000 0.384483 0.189875
O O6 0.576532 0.452026 0.178735
O O7 0.554838 0.339414 0.169120
O O8 0.614973 0.392091 0.348091
O O9 0.052208 0.441531 0.890676
O O10 0.932423 0.487037 0.722813
O O11 0.905658 0.520655 0.921477
O O12 0.544557 0.750000 0.927048
O O13 0.608206 0.866489 0.951473
O O14 0.890932 0.461780 0.520691
O O15 0.943018 0.354052 0.537526
O O16 0.061635 0.432154 0.421121
O O17 0.750000 0.980951 0.633885
O O18 0.750000 0.935834 0.039037
O O19 0.250000 0.666283 0.388161
O O20 0.111849 0.750000 0.382613
#
# Coordination Sequence:
#
# PCOD9448510 Si02
#       8
#     8   8   8   8   8   8   8   8
#     4   8  15  29  48  70 100 136 173 217 263 307
#     4  10  19  33  52  76 111 144 173 223 276 320
#     4   9  20  35  55  81 104 138 184 224 274 325
#     4  10  21  34  51  78 110 144 183 217 258 320
#     4  10  21  34  53  81 110 140 184 224 272 326
#     4  10  20  36  57  79 107 143 183 229 275 324
#     4  10  20  36  55  78 111 143 178 224 272 328
#     4   9  17  30  50  75 104 138 175 221 273 319
#
# _framework density 17.944243
#
# number of rings (size 3 to 8) (size 9 to 14) (size 15 to 20)
#    0.000    2.500    0.000    3.000    1.750    1.500 
#    0.000    1.875    0.000    0.375    0.000    0.000 
#    0.000    0.000    0.000    0.000    0.000    0.000 
#
# Total GULP energy -356866.083139 kJ/mol
# GULP energy per Si atom -5576.032549 kJ/mol
# Density = 1.790340 g / cm^3
# Si number density = 17.944243 Si / 1000 Ang^3
#
#
#
# Elastic Constant Matrix: (Units=GPa)
#
#
# Indices 1 2 3 4 5 6 
#
# 1 89.9552 30.0018 30.0602 0.0000 0.0000 0.0000
# 2 30.0018 60.9940 24.3595 0.0000 0.0000 0.0000
# 3 30.0602 24.3595 101.4924 0.0000 0.0000 0.0000
# 4 0.0000 0.0000 0.0000 27.1696 0.0000 0.0000
# 5 0.0000 0.0000 0.0000 0.0000 11.3221 0.0000
# 6 0.0000 0.0000 0.0000 0.0000 0.0000 11.3651
#
#
#
# Elastic Compliance Matrix: (Units=1/GPa)
#
#
# Indices 1 2 3 4 5 6 
#
# 1 0.013959 -0.005768 -0.002750 0.000000 0.000000 0.000000
# 2 -0.005768 0.020517 -0.003216 0.000000 0.000000 0.000000
# 3 -0.002750 -0.003216 0.011439 0.000000 0.000000 0.000000
# 4 0.000000 0.000000 0.000000 0.036806 0.000000 0.000000
# 5 0.000000 0.000000 0.000000 0.000000 0.088323 0.000000
# 6 0.000000 0.000000 0.000000 0.000000 0.000000 0.087989
#
#
# Mechanical properties :
#
#
# Convention : Reuss Voigt Hill
#
# Bulk Modulus (GPa) = 44.54882 46.80941 45.67912
# Shear Modulus (GPa) = 17.24238 21.17271 19.20754
#
# Velocity S-wave (km/s) = 3.10318 3.43872 3.27525
# Velocity P-wave (km/s) = 6.14164 6.47372 6.30987
#
# Compressibility (1/GPa) = 0.02244728
#
# Stress axis : x y z
#
# Youngs Moduli (GPa) = 71.63638 48.74109 87.41764
#
# Poissons Ratio (x) = 0.28114 0.24041
# Poissons Ratio (y) = 0.41320 0.28112
# Poissons Ratio (z) = 0.19701 0.15674
#
# Static dielectric constant tensor:
#      x y z
#    x 1.600140 0.000000 0.000000 
#    y 0.000000 1.653890 0.000000 
#    z 0.000000 0.000000 1.625310 
# 
# From -- ./inp_files/16234.got.cif
#   From: 2010.05.17/outbox.cif.g08.bks.cpg/sg59_9_cif.got.tgz:16234.got - 2010.06.03 14:40:33.
