data_PCOD9448334
_publ_section_title
;
Structure prediction by ZEFSAII (Michael W. Deem and Ramdas Pophale) SiO2 
 PCOD9448334
Probable space group: P M M N
;
_chemical_formula_sum "Si O2"
_cell_formula_units_Z 64
_cell_length_a 9.595311
_cell_length_b 15.566687
_cell_length_c 20.855264
_cell_angle_alpha 90.000000
_cell_angle_beta 90.000000
_cell_angle_gamma 90.000000
_cell_volume 3115.092452
_symmetry_space_group_name_H-M "P M M N"
_symmetry_group_IT_number 59
_space_group.IT_coordinate_system_code '2'
_symmetry_cell_setting 'orthorhombic'
loop_
_space_group_symop_operation_xyz
x,y,z
1/2-x,1/2-y,z
1/2+x,-y,-z
-x,1/2+y,-z
-x,-y,-z
1/2+x,1/2+y,-z
1/2-x,y,z
x,1/2-y,z
loop_
_atom_site_type_symbol
_atom_site_label
_atom_site_fract_x
_atom_site_fract_y
_atom_site_fract_z
Si Si1 0.909772 0.150305 0.491605
Si Si2 0.408551 0.411672 0.377539
Si Si3 0.090228 0.349695 0.991605
Si Si4 0.591801 0.117074 0.637744
Si Si5 0.090055 0.895077 0.743035
Si Si6 0.091449 0.588327 0.122461
Si Si7 0.409945 0.395077 0.756965
Si Si8 0.091801 0.382925 0.137744
O O1 0.750000 0.117002 0.486182
O O2 0.909279 0.250000 0.472596
O O3 0.948993 0.145269 0.566382
O O4 0.014429 0.102535 0.444735
O O5 0.250000 0.378874 0.378090
O O6 0.402860 0.513556 0.364714
O O7 0.501073 0.373514 0.320072
O O8 0.250000 0.382998 0.986183
O O9 0.090721 0.250000 0.972596
O O10 0.051005 0.354730 0.066382
O O11 0.985572 0.397465 0.944734
O O12 0.750000 0.147348 0.650565
O O13 0.486547 0.140603 0.694049
O O14 0.250000 0.867580 0.737525
O O15 0.013453 0.859397 0.805951
O O16 0.090818 1.000000 0.750000
O O17 0.250000 0.621125 0.121910
O O18 0.097140 0.486444 0.135286
O O19 0.998928 0.626486 0.179928
O O20 0.250000 0.367580 0.762475
O O21 0.250000 0.352651 0.150565
#
# Coordination Sequence:
#
# PCOD9448334 Si02
#       8
#     8   8   8   8   8   8   8   8
#     4  10  21  36  52  72 102 137 170 207 252 301
#     4  10  19  32  53  78 103 132 168 210 253 301
#     4  10  21  36  52  72 102 137 170 207 252 301
#     4   9  18  33  53  77 103 132 168 210 256 302
#     4   9  17  30  51  78 104 130 165 210 256 301
#     4  10  19  32  53  78 103 132 168 210 253 301
#     4   9  17  30  51  78 104 130 165 210 256 301
#     4   9  18  33  53  77 103 132 168 210 256 302
#
# _framework density 20.545137
#
# number of rings (size 3 to 8) (size 9 to 14) (size 15 to 20)
#    0.000    2.500    0.000    2.250    0.000    5.500 
#    0.000    1.250    0.000    4.500    0.000    0.000 
#    0.000    0.000    0.000    0.000    0.000    0.000 
#
# Total GULP energy -357377.715225 kJ/mol
# GULP energy per Si atom -5584.026800 kJ/mol
# Density = 2.049838 g / cm^3
# Si number density = 20.545137 Si / 1000 Ang^3
#
#
#
# Elastic Constant Matrix: (Units=GPa)
#
#
# Indices 1 2 3 4 5 6 
#
# 1 161.1507 18.8765 111.1158 0.0000 0.0000 0.0000
# 2 18.8765 25.4552 9.0487 0.0000 0.0000 0.0000
# 3 111.1158 9.0487 131.7894 0.0000 0.0000 0.0000
# 4 0.0000 0.0000 0.0000 -25.4530 0.0000 0.0000
# 5 0.0000 0.0000 0.0000 0.0000 41.0040 0.0000
# 6 0.0000 0.0000 0.0000 0.0000 0.0000 -2.3372
#
#
#
# Elastic Compliance Matrix: (Units=1/GPa)
#
#
# Indices 1 2 3 4 5 6 
#
# 1 0.016033 -0.007261 -0.013019 0.000000 0.000000 0.000000
# 2 -0.007261 0.043556 0.003132 0.000000 0.000000 0.000000
# 3 -0.013019 0.003132 0.018350 0.000000 0.000000 0.000000
# 4 0.000000 0.000000 0.000000 -0.039288 0.000000 0.000000
# 5 0.000000 0.000000 0.000000 0.000000 0.024388 0.000000
# 6 0.000000 0.000000 0.000000 0.000000 0.000000 -0.427854
#
#
# Mechanical properties :
#
#
# Convention : Reuss Voigt Hill
#
# Bulk Modulus (GPa) = 22.91427 66.27527 44.59477
# Shear Modulus (GPa) = -15.82426 14.59971 -0.61228
#
# Velocity S-wave (km/s) = -2.77829 2.66863 -0.54650
# Velocity P-wave (km/s) = 0.94099 6.46714 4.62111
#
# Compressibility (1/GPa) = 0.04364092
#
# Stress axis : x y z
#
# Youngs Moduli (GPa) = 62.37172 22.95891 54.49652
#
# Poissons Ratio (x) = 0.16671 0.70951
# Poissons Ratio (y) = 0.45290 -0.17066
# Poissons Ratio (z) = 0.81203 -0.07190
#
# Static dielectric constant tensor:
#      x y z
#    x 1.713860 0.000000 0.000000 
#    y 0.000000 1.593150 0.000000 
#    z 0.000000 0.000000 1.695090 
# 
# From -- ./inp_files/29502.got.cif
#   From: 2010.05.17/outbox.cif.g08.bks.cpg/sg59_15_cif.got.tgz:29502.got - 2010.06.03 14:40:33.
