data_PCOD9448419
_publ_section_title
;
Structure prediction by ZEFSAII (Michael W. Deem and Ramdas Pophale) SiO2 
 PCOD9448419
Probable space group: P M M N
;
_chemical_formula_sum "Si O2"
_cell_formula_units_Z 64
_cell_length_a 8.912354
_cell_length_b 15.640621
_cell_length_c 24.597346
_cell_angle_alpha 90.000000
_cell_angle_beta 90.000000
_cell_angle_gamma 90.000000
_cell_volume 3428.740924
_symmetry_space_group_name_H-M "P M M N"
_symmetry_group_IT_number 59
_space_group.IT_coordinate_system_code '2'
_symmetry_cell_setting 'orthorhombic'
loop_
_space_group_symop_operation_xyz
x,y,z
1/2-x,1/2-y,z
1/2+x,-y,-z
-x,1/2+y,-z
-x,-y,-z
1/2+x,1/2+y,-z
1/2-x,y,z
x,1/2-y,z
loop_
_atom_site_type_symbol
_atom_site_label
_atom_site_fract_x
_atom_site_fract_y
_atom_site_fract_z
Si Si1 0.074608 0.897493 0.444375
Si Si2 0.070482 0.650568 0.062442
Si Si3 0.069320 0.844244 0.668561
Si Si4 0.430896 0.499194 0.743309
Si Si5 0.929281 0.849550 0.943156
Si Si6 0.569437 0.002741 0.129960
Si Si7 0.069381 0.846616 0.324234
Si Si8 0.576124 0.895708 0.556361
O O1 0.250000 0.875213 0.450683
O O2 0.020280 0.861610 0.386763
O O3 0.987744 0.868452 0.497973
O O4 0.063389 0.000744 0.441239
O O5 0.250000 0.638281 0.060626
O O6 0.041074 0.750000 0.077300
O O7 0.996326 0.583004 0.102912
O O8 0.001523 0.636510 0.002545
O O9 0.250000 0.846896 0.667927
O O10 0.021932 0.750000 0.687154
O O11 0.016224 0.919166 0.708364
O O12 0.012265 0.859569 0.607625
O O13 0.250000 0.495987 0.740230
O O14 0.471533 0.505980 0.806456
O O15 0.496801 0.415532 0.715001
O O16 0.750000 0.862355 0.946258
O O17 0.957216 0.750000 0.928267
O O18 0.001657 0.916148 0.901642
O O19 0.750000 0.003220 0.125003
O O20 0.250000 0.857377 0.323801
O O21 0.033825 0.750000 0.307860
O O22 0.750000 0.872826 0.560913
#
# Coordination Sequence:
#
# PCOD9448419 Si02
#       8
#     8   8   8   8   8   8   8   8
#     4   9  18  33  53  80 113 146 178 219 276 340
#     4  10  21  38  61  89 121 157 195 236 283 337
#     4  10  21  38  59  80 106 144 187 231 282 339
#     4  10  23  41  59  81 111 148 192 238 282 329
#     4  10  21  38  61  90 123 156 191 235 285 337
#     4  11  23  38  59  86 117 156 196 239 287 338
#     4  10  21  38  60  83 109 145 187 231 283 340
#     4  10  19  32  54  83 112 142 178 225 279 335
#
# _framework density 18.665744
#
# number of rings (size 3 to 8) (size 9 to 14) (size 15 to 20)
#    0.000    2.000    1.250    1.875    0.000    5.500 
#    0.000    5.000    0.000    0.000    0.000    0.000 
#    0.000    0.000    0.000    0.000    0.000    0.000 
#
# Total GULP energy -357500.731291 kJ/mol
# GULP energy per Si atom -5585.948926 kJ/mol
# Density = 1.862326 g / cm^3
# Si number density = 18.665744 Si / 1000 Ang^3
#
#
#
# Elastic Constant Matrix: (Units=GPa)
#
#
# Indices 1 2 3 4 5 6 
#
# 1 43.6439 48.5701 44.4951 0.0000 0.0000 0.0000
# 2 48.5701 116.4291 89.2289 0.0000 0.0000 0.0000
# 3 44.4951 89.2289 135.0077 0.0000 0.0000 0.0000
# 4 0.0000 0.0000 0.0000 -11.5250 0.0000 0.0000
# 5 0.0000 0.0000 0.0000 0.0000 22.5702 0.0000
# 6 0.0000 0.0000 0.0000 0.0000 0.0000 23.1604
#
#
#
# Elastic Compliance Matrix: (Units=1/GPa)
#
#
# Indices 1 2 3 4 5 6 
#
# 1 0.044270 -0.014765 -0.004832 0.000000 0.000000 0.000000
# 2 -0.014765 0.022329 -0.009891 0.000000 0.000000 0.000000
# 3 -0.004832 -0.009891 0.015537 0.000000 0.000000 0.000000
# 4 0.000000 0.000000 0.000000 -0.086768 0.000000 0.000000
# 5 0.000000 0.000000 0.000000 0.000000 0.044306 0.000000
# 6 0.000000 0.000000 0.000000 0.000000 0.000000 0.043177
#
#
# Mechanical properties :
#
#
# Convention : Reuss Voigt Hill
#
# Bulk Modulus (GPa) = 43.17874 73.29656 58.23765
# Shear Modulus (GPa) = 33.43406 14.36024 23.89715
#
# Velocity S-wave (km/s) = 4.23685 2.77670 3.58196
# Velocity P-wave (km/s) = 6.86421 7.04509 6.95524
#
# Compressibility (1/GPa) = 0.02315955
#
# Stress axis : x y z
#
# Youngs Moduli (GPa) = 22.58844 44.78507 64.36290
#
# Poissons Ratio (x) = 0.66125 0.31101
# Poissons Ratio (y) = 0.33352 0.63664
# Poissons Ratio (z) = 0.10915 0.44299
#
# Static dielectric constant tensor:
#      x y z
#    x 1.627960 0.000000 0.000000 
#    y 0.000000 1.653260 0.000000 
#    z 0.000000 0.000000 1.606410 
# 
# From -- ./inp_files/31611.got.cif
#   From: 2010.05.17/outbox.cif.g08.bks.cpg/sg59_16_cif.got.tgz:31611.got - 2010.06.03 14:40:33.
