data_PCOD9448460
_publ_section_title
;
Structure prediction by ZEFSAII (Michael W. Deem and Ramdas Pophale) SiO2 
 PCOD9448460
Probable space group: P M M N
;
_chemical_formula_sum "Si O2"
_cell_formula_units_Z 56
_cell_length_a 21.073337
_cell_length_b 14.243210
_cell_length_c 9.728043
_cell_angle_alpha 90.000000
_cell_angle_beta 90.000000
_cell_angle_gamma 90.000000
_cell_volume 2919.891215
_symmetry_space_group_name_H-M "P M M N"
_symmetry_group_IT_number 59
_space_group.IT_coordinate_system_code '2'
_symmetry_cell_setting 'orthorhombic'
loop_
_space_group_symop_operation_xyz
x,y,z
1/2-x,1/2-y,z
1/2+x,-y,-z
-x,1/2+y,-z
-x,-y,-z
1/2+x,1/2+y,-z
1/2-x,y,z
x,1/2-y,z
loop_
_atom_site_type_symbol
_atom_site_label
_atom_site_fract_x
_atom_site_fract_y
_atom_site_fract_z
Si Si1 0.879332 0.939726 0.153397
Si Si2 0.040189 0.074460 0.089380
Si Si3 0.452103 0.359708 0.593523
Si Si4 0.750000 0.638113 0.608748
Si Si5 0.400359 0.854300 0.482428
Si Si6 0.250000 0.137420 0.718706
Si Si7 0.377127 0.039802 0.348586
Si Si8 0.089436 0.853335 0.811865
O O1 0.929459 0.918350 0.275318
O O2 0.812554 0.902973 0.208463
O O3 0.878271 0.052413 0.129002
O O4 0.907625 0.888895 0.018937
O O5 0.079351 0.031211 0.214846
O O6 0.985396 0.140477 0.150699
O O7 0.000000 0.000000 0.000000
O O8 0.434771 0.250000 0.611772
O O9 0.527006 0.365747 0.568310
O O10 0.416527 0.401859 0.462216
O O11 0.750000 0.750000 0.618577
O O12 0.750000 0.613858 0.444596
O O13 0.687355 0.595377 0.675986
O O14 0.378344 0.750000 0.444008
O O15 0.401997 0.860168 0.647410
O O16 0.362656 0.938898 0.414766
O O17 0.250000 0.250000 0.728447
O O18 0.112896 0.750000 0.856200
#
# Coordination Sequence:
#
# PCOD9448460 Si02
#       8
#     8   8   8   4   8   4   8   8
#     4  11  22  39  56  85 121 160 199 243 300 362
#     4  10  23  38  59  88 122 160 194 242 312 371
#     4  11  20  33  59  87 114 153 201 253 307 357
#     4  11  24  39  62  92 117 160 215 254 300 355
#     4  10  19  32  58  91 114 147 196 250 309 358
#     4  11  22  39  62  84 117 160 209 256 298 355
#     4  12  21  39  60  84 125 160 203 257 299 357
#     4  10  19  34  57  87 118 150 191 246 305 362
#
# _framework density 19.178795999999998
#
# number of rings (size 3 to 8) (size 9 to 14) (size 15 to 20)
#    0.000    1.286    4.286    3.000    0.000    2.286 
#    0.000    5.714    0.000    2.571    0.000    4.000 
#    0.000    0.000    0.000    0.000    0.000    0.000 
#
# Total GULP energy -312638.239229 kJ/mol
# GULP energy per Si atom -5582.825701 kJ/mol
# Density = 1.913514 g / cm^3
# Si number density = 19.178796 Si / 1000 Ang^3
#
#
#
# Elastic Constant Matrix: (Units=GPa)
#
#
# Indices 1 2 3 4 5 6 
#
# 1 52.2922 23.3639 10.3287 0.0000 0.0000 0.0000
# 2 23.3639 104.4437 4.7401 0.0000 0.0000 0.0000
# 3 10.3287 4.7401 61.6307 0.0000 0.0000 0.0000
# 4 0.0000 0.0000 0.0000 7.4498 0.0000 0.0000
# 5 0.0000 0.0000 0.0000 0.0000 24.9473 0.0000
# 6 0.0000 0.0000 0.0000 0.0000 0.0000 18.7313
#
#
#
# Elastic Compliance Matrix: (Units=1/GPa)
#
#
# Indices 1 2 3 4 5 6 
#
# 1 0.021898 -0.004748 -0.003305 0.000000 0.000000 0.000000
# 2 -0.004748 0.010638 -0.000022 0.000000 0.000000 0.000000
# 3 -0.003305 -0.000022 0.016781 0.000000 0.000000 0.000000
# 4 0.000000 0.000000 0.000000 0.134232 0.000000 0.000000
# 5 0.000000 0.000000 0.000000 0.000000 0.040084 0.000000
# 6 0.000000 0.000000 0.000000 0.000000 0.000000 0.053387
#
#
# Mechanical properties :
#
#
# Convention : Reuss Voigt Hill
#
# Bulk Modulus (GPa) = 30.15162 32.80353 31.47757
# Shear Modulus (GPa) = 16.43514 22.22128 19.32821
#
# Velocity S-wave (km/s) = 2.93054 3.40757 3.17802
# Velocity P-wave (km/s) = 5.21595 5.71168 5.46943
#
# Compressibility (1/GPa) = 0.03316572
#
# Stress axis : x y z
#
# Youngs Moduli (GPa) = 45.66700 94.00453 59.59046
#
# Poissons Ratio (x) = 0.44638 0.19692
# Poissons Ratio (y) = 0.21685 0.00133
# Poissons Ratio (z) = 0.15091 0.00210
#
# Static dielectric constant tensor:
#      x y z
#    x 1.666640 0.000000 0.000000 
#    y 0.000000 1.708110 0.000000 
#    z 0.000000 0.000000 1.667050 
# 
# From -- ./inp_files/9395.got.cif
#   From: 2010.05.17/outbox.cif.g08.bks.cpg/sg59_5_cif.got.tgz:9395.got - 2010.06.03 14:40:33.
