data_PCOD9448715
_publ_section_title
;
Structure prediction by ZEFSAII (Michael W. Deem and Ramdas Pophale) SiO2 
 PCOD9448715
Probable space group: P M M N
;
_chemical_formula_sum "Si O2"
_cell_formula_units_Z 64
_cell_length_a 16.328885
_cell_length_b 13.700787
_cell_length_c 16.413270
_cell_angle_alpha 90.000000
_cell_angle_beta 90.000000
_cell_angle_gamma 90.000000
_cell_volume 3671.953381
_symmetry_space_group_name_H-M "P M M N"
_symmetry_group_IT_number 59
_space_group.IT_coordinate_system_code '2'
_symmetry_cell_setting 'orthorhombic'
loop_
_space_group_symop_operation_xyz
x,y,z
1/2-x,1/2-y,z
1/2+x,-y,-z
-x,1/2+y,-z
-x,-y,-z
1/2+x,1/2+y,-z
1/2-x,y,z
x,1/2-y,z
loop_
_atom_site_type_symbol
_atom_site_label
_atom_site_fract_x
_atom_site_fract_y
_atom_site_fract_z
Si Si1 0.919597 0.003518 0.684532
Si Si2 0.914316 0.494614 0.952853
Si Si3 0.652400 0.636157 0.820792
Si Si4 0.006867 0.864861 0.175243
Si Si5 0.541454 0.362970 0.400470
Si Si6 0.657535 0.134722 0.552436
Si Si7 0.346046 0.642413 0.758656
Si Si8 0.843378 0.965721 0.119243
O O1 0.861251 0.073033 0.632559
O O2 0.975349 0.071216 0.743750
O O3 0.872858 0.927276 0.742609
O O4 0.971662 0.939678 0.620926
O O5 0.895454 0.587561 0.896124
O O6 0.926730 0.404197 0.891166
O O7 0.850009 0.497014 0.026246
O O8 0.000000 0.500000 0.000000
O O9 0.750000 0.628286 0.834624
O O10 0.631491 0.750000 0.810562
O O11 0.014850 0.750000 0.189654
O O12 0.916031 0.889805 0.140088
O O13 0.512451 0.250000 0.406509
O O14 0.592492 0.386548 0.481372
O O15 0.601852 0.367768 0.322808
O O16 0.750000 0.115577 0.523154
O O17 0.651279 0.250000 0.570528
O O18 0.250000 0.638722 0.737837
O O19 0.363751 0.750000 0.793884
O O20 0.362097 0.557746 0.822743
O O21 0.750000 0.931632 0.134648
#
# Coordination Sequence:
#
# PCOD9448715 Si02
#       8
#     8   8   8   8   8   8   8   8
#     4  11  20  36  55  82 109 143 177 224 268 319
#     4   9  20  35  51  76 104 136 176 222 267 310
#     4  10  21  37  58  82 109 142 180 223 271 324
#     4  10  21  36  52  74 106 145 182 218 262 316
#     4  10  19  33  55  82 110 139 176 222 271 320
#     4  10  21  36  56  81 108 142 182 222 265 317
#     4   9  17  30  50  77 108 140 174 216 265 317
#     4  10  19  34  54  78 106 138 177 221 269 321
#
# _framework density 17.429416
#
# number of rings (size 3 to 8) (size 9 to 14) (size 15 to 20)
#    0.000    2.125    1.250    2.250    0.000    4.250 
#    0.000    0.000    0.000    7.125    0.000    0.000 
#    0.000    0.000    0.000    0.000    0.000    0.000 
#
# Total GULP energy -356756.176050 kJ/mol
# GULP energy per Si atom -5574.315251 kJ/mol
# Density = 1.738975 g / cm^3
# Si number density = 17.429416 Si / 1000 Ang^3
#
#
#
# Elastic Constant Matrix: (Units=GPa)
#
#
# Indices 1 2 3 4 5 6 
#
# 1 55.0018 41.0327 24.7063 0.0000 0.0000 0.0000
# 2 41.0327 91.3545 32.7511 0.0000 0.0000 0.0000
# 3 24.7063 32.7511 66.4984 0.0000 0.0000 0.0000
# 4 0.0000 0.0000 0.0000 19.3949 0.0000 0.0000
# 5 0.0000 0.0000 0.0000 0.0000 31.6644 0.0000
# 6 0.0000 0.0000 0.0000 0.0000 0.0000 -7.6924
#
#
#
# Elastic Compliance Matrix: (Units=1/GPa)
#
#
# Indices 1 2 3 4 5 6 
#
# 1 0.028780 -0.011043 -0.005254 0.000000 0.000000 0.000000
# 2 -0.011043 0.017531 -0.004531 0.000000 0.000000 0.000000
# 3 -0.005254 -0.004531 0.019222 0.000000 0.000000 0.000000
# 4 0.000000 0.000000 0.000000 0.051560 0.000000 0.000000
# 5 0.000000 0.000000 0.000000 0.000000 0.031581 0.000000
# 6 0.000000 0.000000 0.000000 0.000000 0.000000 -0.129999
#
#
# Mechanical properties :
#
#
# Convention : Reuss Voigt Hill
#
# Bulk Modulus (GPa) = 41.88324 45.53722 43.71023
# Shear Modulus (GPa) = 73.21832 16.29771 44.75801
#
# Velocity S-wave (km/s) = 6.48843 3.06121 5.07300
# Velocity P-wave (km/s) = 8.95630 6.21917 7.71017
#
# Compressibility (1/GPa) = 0.02387590
#
# Stress axis : x y z
#
# Youngs Moduli (GPa) = 34.74688 57.04183 52.02486
#
# Poissons Ratio (x) = 0.62992 0.27332
# Poissons Ratio (y) = 0.38371 0.23574
# Poissons Ratio (z) = 0.18255 0.25847
#
# Static dielectric constant tensor:
#      x y z
#    x 1.603690 0.000000 0.000000 
#    y 0.000000 1.580630 0.000000 
#    z 0.000000 0.000000 1.581880 
# 
# From -- ./inp_files/23964.got.cif
#   From: 2010.05.17/outbox.cif.g08.bks.cpg/sg59_12_cif.got.tgz:23964.got - 2010.06.03 14:40:33.
