data_PCOD9448787
_publ_section_title
;
Structure prediction by ZEFSAII (Michael W. Deem and Ramdas Pophale) SiO2 
 PCOD9448787
Probable space group: P M M N
;
_chemical_formula_sum "Si O2"
_cell_formula_units_Z 56
_cell_length_a 14.753961
_cell_length_b 19.400386
_cell_length_c 9.373824
_cell_angle_alpha 90.000000
_cell_angle_beta 90.000000
_cell_angle_gamma 90.000000
_cell_volume 2683.093438
_symmetry_space_group_name_H-M "P M M N"
_symmetry_group_IT_number 59
_space_group.IT_coordinate_system_code '2'
_symmetry_cell_setting 'orthorhombic'
loop_
_space_group_symop_operation_xyz
x,y,z
1/2-x,1/2-y,z
1/2+x,-y,-z
-x,1/2+y,-z
-x,-y,-z
1/2+x,1/2+y,-z
1/2-x,y,z
x,1/2-y,z
loop_
_atom_site_type_symbol
_atom_site_label
_atom_site_fract_x
_atom_site_fract_y
_atom_site_fract_z
Si Si1 0.642504 0.466756 0.447315
Si Si2 0.349959 0.062185 0.790015
Si Si3 0.598295 0.171774 0.595577
Si Si4 0.117676 0.172913 0.558085
Si Si5 0.144111 0.074599 0.310173
Si Si6 0.645153 0.332534 0.926994
Si Si7 0.480850 0.079351 0.035134
O O1 0.750000 0.478888 0.439128
O O2 0.608520 0.496202 0.295376
O O3 0.627821 0.387624 0.486621
O O4 0.611191 0.514178 0.580486
O O5 0.250000 0.044622 0.848062
O O6 0.342300 0.118174 0.666104
O O7 0.411886 0.097235 0.907601
O O8 0.630779 0.250000 0.564849
O O9 0.489961 0.172075 0.585714
O O10 0.628747 0.153993 0.757347
O O11 0.149413 0.250000 0.579613
O O12 0.139266 0.144218 0.402216
O O13 0.250000 0.060817 0.270616
O O14 0.076178 0.082422 0.179608
O O15 0.750000 0.349961 0.960510
O O16 0.632912 0.250000 0.947165
O O17 0.571447 0.375351 0.016811
O O18 0.500000 0.000000 0.000000
#
# Coordination Sequence:
#
# PCOD9448787 Si02
#       7
#     8   8   8   8   8   8   8
#     4   9  19  36  60  89 124 161 202 254 312 375
#     4  10  22  39  61  91 126 162 205 252 305 371
#     4  10  19  33  61  92 116 151 206 261 306 365
#     4  10  21  38  63  93 124 159 203 252 309 376
#     4  10  23  40  61  93 129 166 204 250 314 382
#     4  10  22  42  65  90 124 166 215 267 319 377
#     4  12  25  39  64  94 125 171 211 264 313 369
#
# _framework density 20.87143
#
# number of rings (size 3 to 8) (size 9 to 14) (size 15 to 20)
#    0.000    1.857    1.429    3.000    2.000    6.000 
#    0.000    0.000    0.000    2.571    0.000    0.000 
#    0.000    0.000    0.000    0.000    0.000    0.000 
#
# Total GULP energy -312711.378897 kJ/mol
# GULP energy per Si atom -5584.131766 kJ/mol
# Density = 2.082393 g / cm^3
# Si number density = 20.871430 Si / 1000 Ang^3
#
#
#
# Elastic Constant Matrix: (Units=GPa)
#
#
# Indices 1 2 3 4 5 6 
#
# 1 129.3781 16.9576 40.8819 0.0000 0.0000 0.0000
# 2 16.9576 74.4023 3.2886 0.0000 0.0000 0.0000
# 3 40.8819 3.2886 67.1573 0.0000 0.0000 0.0000
# 4 0.0000 0.0000 0.0000 17.9558 0.0000 0.0000
# 5 0.0000 0.0000 0.0000 0.0000 2.0508 0.0000
# 6 0.0000 0.0000 0.0000 0.0000 0.0000 -3.4931
#
#
#
# Elastic Compliance Matrix: (Units=1/GPa)
#
#
# Indices 1 2 3 4 5 6 
#
# 1 0.009854 -0.001985 -0.005902 0.000000 0.000000 0.000000
# 2 -0.001985 0.013869 0.000529 0.000000 0.000000 0.000000
# 3 -0.005902 0.000529 0.018457 0.000000 0.000000 0.000000
# 4 0.000000 0.000000 0.000000 0.055692 0.000000 0.000000
# 5 0.000000 0.000000 0.000000 0.000000 0.487619 0.000000
# 6 0.000000 0.000000 0.000000 0.000000 0.000000 -0.286282
#
#
# Mechanical properties :
#
#
# Convention : Reuss Voigt Hill
#
# Bulk Modulus (GPa) = 36.40864 43.68822 40.04843
# Shear Modulus (GPa) = 15.47602 17.29001 16.38301
#
# Velocity S-wave (km/s) = 2.72599 2.88133 2.80473
# Velocity P-wave (km/s) = 5.23356 5.66100 5.45147
#
# Compressibility (1/GPa) = 0.02746601
#
# Stress axis : x y z
#
# Youngs Moduli (GPa) = 101.47849 72.10068 54.17978
#
# Poissons Ratio (x) = 0.14313 0.31975
# Poissons Ratio (y) = 0.20145 -0.02868
# Poissons Ratio (z) = 0.59888 -0.03816
#
# Static dielectric constant tensor:
#      x y z
#    x 1.819760 0.000000 0.000000 
#    y 0.000000 1.765670 0.000000 
#    z 0.000000 0.000000 1.776060 
# 
# From -- ./inp_files/9373.got.cif
#   From: 2010.05.17/outbox.cif.g08.bks.cpg/sg59_5_cif.got.tgz:9373.got - 2010.06.03 14:40:33.
