data_PCOD9448004
_publ_section_title
;
Structure prediction by ZEFSAII (Michael W. Deem and Ramdas Pophale) SiO2 
 PCOD9448004
Probable space group: P M M N
;
_chemical_formula_sum "Si O2"
_cell_formula_units_Z 56
_cell_length_a 8.125918
_cell_length_b 19.088205
_cell_length_c 19.827508
_cell_angle_alpha 90.000000
_cell_angle_beta 90.000000
_cell_angle_gamma 90.000000
_cell_volume 3075.428678
_symmetry_space_group_name_H-M "P M M N"
_symmetry_group_IT_number 59
_space_group.IT_coordinate_system_code '2'
_symmetry_cell_setting 'orthorhombic'
loop_
_space_group_symop_operation_xyz
x,y,z
1/2-x,1/2-y,z
1/2+x,-y,-z
-x,1/2+y,-z
-x,-y,-z
1/2+x,1/2+y,-z
1/2-x,y,z
x,1/2-y,z
loop_
_atom_site_type_symbol
_atom_site_label
_atom_site_fract_x
_atom_site_fract_y
_atom_site_fract_z
Si Si1 0.448674 0.169585 0.468513
Si Si2 0.561067 0.032393 0.209888
Si Si3 0.944946 0.475002 0.927085
Si Si4 0.554921 0.384219 0.739942
Si Si5 0.448568 0.085869 0.599686
Si Si6 0.050827 0.824506 0.120380
Si Si7 0.449128 0.568570 0.647880
O O1 0.250000 0.170834 0.471872
O O2 0.506644 0.250000 0.473442
O O3 0.507743 0.120881 0.530600
O O4 0.498955 0.131802 0.399578
O O5 0.750000 0.052699 0.201289
O O6 0.490182 0.074318 0.274379
O O7 0.486697 0.026416 0.135350
O O8 0.545067 0.953354 0.238717
O O9 0.750000 0.468848 0.927469
O O10 0.013347 0.396895 0.911120
O O11 0.000000 0.500000 0.000000
O O12 0.750000 0.400750 0.742905
O O13 0.505966 0.368462 0.663790
O O14 0.521674 0.329781 0.799258
O O15 0.250000 0.084469 0.598555
O O16 0.505377 0.005781 0.614518
O O17 0.250000 0.824631 0.111742
O O18 0.987629 0.750000 0.094223
O O19 0.250000 0.565463 0.650798
#
# Coordination Sequence:
#
# PCOD9448004 Si02
#       7
#     8   8   8   8   8   8   8
#     4  10  21  34  47  66  94 127 161 203 256 302
#     4   9  17  31  50  72  97 121 151 192 236 283
#     4  10  19  31  51  77 103 131 161 196 236 278
#     4   9  16  26  44  70  95 121 155 192 232 279
#     4   9  18  32  47  66  95 127 160 198 240 289
#     4   8  15  28  45  67  96 128 160 191 226 274
#     4   9  18  32  51  71  90 120 161 203 242 283
#
# _framework density 18.208843000000002
#
# number of rings (size 3 to 8) (size 9 to 14) (size 15 to 20)
#    0.000    2.857    0.000    3.429    0.000    4.286 
#    0.000    0.000    0.000   15.857    0.000    2.000 
#    0.000    0.000    0.000    0.000    0.000    0.000 
#
# Total GULP energy -311736.522758 kJ/mol
# GULP energy per Si atom -5566.723621 kJ/mol
# Density = 1.816740 g / cm^3
# Si number density = 18.208843 Si / 1000 Ang^3
#
#
#
# Elastic Constant Matrix: (Units=GPa)
#
#
# Indices 1 2 3 4 5 6 
#
# 1 11.6695 3.4125 9.0896 0.0000 0.0000 0.0000
# 2 3.4125 55.6539 39.4761 0.0000 0.0000 0.0000
# 3 9.0896 39.4761 144.7706 0.0000 0.0000 0.0000
# 4 0.0000 0.0000 0.0000 7.2196 0.0000 0.0000
# 5 0.0000 0.0000 0.0000 0.0000 28.3237 0.0000
# 6 0.0000 0.0000 0.0000 0.0000 0.0000 9.7200
#
#
#
# Elastic Compliance Matrix: (Units=1/GPa)
#
#
# Indices 1 2 3 4 5 6 
#
# 1 0.090258 -0.001878 -0.005155 0.000000 0.000000 0.000000
# 2 -0.001878 0.022316 -0.005967 0.000000 0.000000 0.000000
# 3 -0.005155 -0.005967 0.008858 0.000000 0.000000 0.000000
# 4 0.000000 0.000000 0.000000 0.138512 0.000000 0.000000
# 5 0.000000 0.000000 0.000000 0.000000 0.035306 0.000000
# 6 0.000000 0.000000 0.000000 0.000000 0.000000 0.102881
#
#
# Mechanical properties :
#
#
# Convention : Reuss Voigt Hill
#
# Bulk Modulus (GPa) = 10.47868 35.11671 22.79769
# Shear Modulus (GPa) = 10.96633 19.72705 15.34669
#
# Velocity S-wave (km/s) = 2.45675 3.29504 2.90628
# Velocity P-wave (km/s) = 3.71681 5.81410 4.87947
#
# Compressibility (1/GPa) = 0.09543191
#
# Stress axis : x y z
#
# Youngs Moduli (GPa) = 11.07941 44.81091 112.88876
#
# Poissons Ratio (x) = 0.08415 0.58193
# Poissons Ratio (y) = 0.02081 0.67363
# Poissons Ratio (z) = 0.05711 0.26740
#
# Static dielectric constant tensor:
#      x y z
#    x 1.646050 0.000000 0.000000 
#    y 0.000000 1.656150 0.000000 
#    z 0.000000 0.000000 1.656850 
# 
# From -- ./inp_files/26089.got.cif
#   From: 2010.05.17/outbox.cif.g08.bks.cpg/sg59_14_cif.got.tgz:26089.got - 2010.06.03 14:40:33.
