data_PCOD9448776
_publ_section_title
;
Structure prediction by ZEFSAII (Michael W. Deem and Ramdas Pophale) SiO2 
 PCOD9448776
Probable space group: P M M N
;
_chemical_formula_sum "Si O2"
_cell_formula_units_Z 64
_cell_length_a 19.054468
_cell_length_b 20.001075
_cell_length_c 8.029671
_cell_angle_alpha 90.000000
_cell_angle_beta 90.000000
_cell_angle_gamma 90.000000
_cell_volume 3060.186659
_symmetry_space_group_name_H-M "P M M N"
_symmetry_group_IT_number 59
_space_group.IT_coordinate_system_code '2'
_symmetry_cell_setting 'orthorhombic'
loop_
_space_group_symop_operation_xyz
x,y,z
1/2-x,1/2-y,z
1/2+x,-y,-z
-x,1/2+y,-z
-x,-y,-z
1/2+x,1/2+y,-z
1/2-x,y,z
x,1/2-y,z
loop_
_atom_site_type_symbol
_atom_site_label
_atom_site_fract_x
_atom_site_fract_y
_atom_site_fract_z
Si Si1 0.832554 0.019897 0.229039
Si Si2 0.328430 0.330234 0.217761
Si Si3 0.826690 0.175125 0.596104
Si Si4 0.976787 0.325983 0.045017
Si Si5 0.105593 0.122761 0.870668
Si Si6 0.558321 0.385648 0.394563
Si Si7 0.171852 0.867356 0.051905
Si Si8 0.072123 0.328113 0.526651
O O1 0.750000 0.016827 0.284732
O O2 0.890241 0.051856 0.356288
O O3 0.862751 0.948692 0.175582
O O4 0.832973 0.067941 0.065962
O O5 0.250000 0.356846 0.242716
O O6 0.325994 0.250000 0.215954
O O7 0.377324 0.347444 0.374204
O O8 0.356582 0.352694 0.038476
O O9 0.750000 0.166035 0.518263
O O10 0.829322 0.250000 0.668567
O O11 0.885969 0.167743 0.461308
O O12 0.833992 0.123777 0.748726
O O13 0.004646 0.250000 0.049511
O O14 0.976399 0.360445 0.224228
O O15 0.895735 0.324714 0.993979
O O16 0.023664 0.370350 0.922047
O O17 0.111351 0.166123 0.702857
O O18 0.493558 0.379792 0.522385
O O19 0.250000 0.838421 0.023954
O O20 0.049148 0.250000 0.505523
#
# Coordination Sequence:
#
# PCOD9448776 Si02
#       8
#     8   8   8   8   8   8   8   8
#     4  10  24  45  65  91 131 181 234 274 320 400
#     4  10  22  42  66  95 131 169 220 284 345 401
#     4  10  19  33  57  90 126 167 218 272 332 395
#     4  11  21  36  62  93 125 166 216 273 339 399
#     4  12  24  42  68  95 134 178 225 275 333 394
#     4  11  22  39  62  91 133 175 214 275 331 391
#     4   9  20  38  59  87 126 171 218 271 326 392
#     4  11  23  41  67 102 134 167 219 282 346 406
#
# _framework density 20.913758000000001
#
# number of rings (size 3 to 8) (size 9 to 14) (size 15 to 20)
#    0.000    1.500    1.250    4.125    0.000    4.750 
#    2.250    1.250    0.000    0.000    0.000    0.000 
#    0.000    0.000    0.000    0.000    0.000    0.000 
#
# Total GULP energy -356802.145979 kJ/mol
# GULP energy per Si atom -5575.033531 kJ/mol
# Density = 2.086616 g / cm^3
# Si number density = 20.913758 Si / 1000 Ang^3
#
#
#
# Elastic Constant Matrix: (Units=GPa)
#
#
# Indices 1 2 3 4 5 6 
#
# 1 117.8585 27.0681 32.3366 0.0000 0.0000 0.0000
# 2 27.0681 43.5472 -3.6748 0.0000 0.0000 0.0000
# 3 32.3366 -3.6748 80.8767 0.0000 0.0000 0.0000
# 4 0.0000 0.0000 0.0000 16.3664 0.0000 0.0000
# 5 0.0000 0.0000 0.0000 0.0000 18.7565 0.0000
# 6 0.0000 0.0000 0.0000 0.0000 0.0000 -16.9057
#
#
#
# Elastic Compliance Matrix: (Units=1/GPa)
#
#
# Indices 1 2 3 4 5 6 
#
# 1 0.011607 -0.007635 -0.004988 0.000000 0.000000 0.000000
# 2 -0.007635 0.028075 0.004328 0.000000 0.000000 0.000000
# 3 -0.004988 0.004328 0.014555 0.000000 0.000000 0.000000
# 4 0.000000 0.000000 0.000000 0.061101 0.000000 0.000000
# 5 0.000000 0.000000 0.000000 0.000000 0.053315 0.000000
# 6 0.000000 0.000000 0.000000 0.000000 0.000000 -0.059152
#
#
# Mechanical properties :
#
#
# Convention : Reuss Voigt Hill
#
# Bulk Modulus (GPa) = 26.56195 39.30469 32.93332
# Shear Modulus (GPa) = 36.06476 16.08027 26.07251
#
# Velocity S-wave (km/s) = 4.15716 2.77589 3.53465
# Velocity P-wave (km/s) = 5.98088 5.39523 5.69559
#
# Compressibility (1/GPa) = 0.03764783
#
# Stress axis : x y z
#
# Youngs Moduli (GPa) = 86.15642 35.61905 68.70326
#
# Poissons Ratio (x) = 0.27197 0.34267
# Poissons Ratio (y) = 0.65784 -0.29738
# Poissons Ratio (z) = 0.42972 -0.15418
#
# Static dielectric constant tensor:
#      x y z
#    x 1.808550 0.000000 0.000000 
#    y 0.000000 1.738210 0.000000 
#    z 0.000000 0.000000 1.771710 
# 
# From -- ./inp_files/10660.got.cif
#   From: 2010.05.17/outbox.cif.g08.bks.cpg/sg59_6_cif.got.tgz:10660.got - 2010.06.03 14:40:33.
