data_PCOD9448732
_publ_section_title
;
Structure prediction by ZEFSAII (Michael W. Deem and Ramdas Pophale) SiO2 
 PCOD9448732
Probable space group: P M M N
;
_chemical_formula_sum "Si O2"
_cell_formula_units_Z 64
_cell_length_a 15.758458
_cell_length_b 8.736369
_cell_length_c 24.538829
_cell_angle_alpha 90.000000
_cell_angle_beta 90.000000
_cell_angle_gamma 90.000000
_cell_volume 3378.302402
_symmetry_space_group_name_H-M "P M M N"
_symmetry_group_IT_number 59
_space_group.IT_coordinate_system_code '2'
_symmetry_cell_setting 'orthorhombic'
loop_
_space_group_symop_operation_xyz
x,y,z
1/2-x,1/2-y,z
1/2+x,-y,-z
-x,1/2+y,-z
-x,-y,-z
1/2+x,1/2+y,-z
1/2-x,y,z
x,1/2-y,z
loop_
_atom_site_type_symbol
_atom_site_label
_atom_site_fract_x
_atom_site_fract_y
_atom_site_fract_z
Si Si1 0.396473 0.427567 0.058079
Si Si2 0.992255 0.433568 0.635864
Si Si3 0.348274 0.434363 0.441578
Si Si4 0.656199 0.436603 0.175553
Si Si5 0.154313 0.931432 0.170131
Si Si6 0.993400 0.933251 0.756327
Si Si7 0.398527 0.929949 0.943870
Si Si8 0.154222 0.436203 0.567322
O O1 0.375125 0.250000 0.066222
O O2 0.358171 0.525244 0.106918
O O3 0.499143 0.442856 0.060940
O O4 0.370642 0.482435 0.998011
O O5 0.992853 0.250000 0.637454
O O6 0.914385 0.489175 0.598803
O O7 0.985207 0.497589 0.696530
O O8 0.079988 0.487466 0.607403
O O9 0.250000 0.471951 0.428957
O O10 0.356682 0.250000 0.438408
O O11 0.364019 0.480260 0.504600
O O12 0.750000 0.483902 0.193556
O O13 0.653520 0.250000 0.174705
O O14 0.580056 0.487533 0.214274
O O15 0.640044 0.485151 0.113105
O O16 0.250000 0.972893 0.186730
O O17 0.143205 0.750000 0.176929
O O18 0.084523 0.017822 0.205592
O O19 0.995836 0.750000 0.752740
O O20 0.378451 0.750000 0.950514
O O21 0.250000 0.487050 0.581464
O O22 0.155086 0.250000 0.568046
#
# Coordination Sequence:
#
# PCOD9448732 Si02
#       8
#     8   8   8   8   8   8   8   8
#     4  10  19  33  55  85 116 147 182 223 276 336
#     4  11  22  35  56  85 115 150 187 230 281 328
#     4   9  18  35  59  85 114 151 191 230 274 326
#     4   9  18  35  59  83 108 141 183 230 279 330
#     4  11  24  41  61  83 108 143 187 236 290 342
#     4  11  23  41  60  81 110 147 191 235 280 330
#     4   9  17  32  54  83 115 148 182 220 273 332
#     4   8  16  33  57  85 118 153 188 226 273 329
#
# _framework density 18.944427000000001
#
# number of rings (size 3 to 8) (size 9 to 14) (size 15 to 20)
#    0.000    2.250    1.250    2.625    0.000    3.250 
#    0.000    1.875    0.000    5.250    0.000    0.000 
#    0.000    0.000    0.000    0.000    0.000    0.000 
#
# Total GULP energy -357356.052536 kJ/mol
# GULP energy per Si atom -5583.688321 kJ/mol
# Density = 1.890131 g / cm^3
# Si number density = 18.944427 Si / 1000 Ang^3
#
#
#
# Elastic Constant Matrix: (Units=GPa)
#
#
# Indices 1 2 3 4 5 6 
#
# 1 84.7563 29.4232 44.8825 0.0000 0.0000 0.0000
# 2 29.4232 27.3885 18.7206 0.0000 0.0000 0.0000
# 3 44.8825 18.7206 86.0783 0.0000 0.0000 0.0000
# 4 0.0000 0.0000 0.0000 9.7739 0.0000 0.0000
# 5 0.0000 0.0000 0.0000 0.0000 -6.7290 0.0000
# 6 0.0000 0.0000 0.0000 0.0000 0.0000 20.0214
#
#
#
# Elastic Compliance Matrix: (Units=1/GPa)
#
#
# Indices 1 2 3 4 5 6 
#
# 1 0.022334 -0.018833 -0.007550 0.000000 0.000000 0.000000
# 2 -0.018833 0.058768 -0.002961 0.000000 0.000000 0.000000
# 3 -0.007550 -0.002961 0.016198 0.000000 0.000000 0.000000
# 4 0.000000 0.000000 0.000000 0.102314 0.000000 0.000000
# 5 0.000000 0.000000 0.000000 0.000000 -0.148610 0.000000
# 6 0.000000 0.000000 0.000000 0.000000 0.000000 0.049947
#
#
# Mechanical properties :
#
#
# Convention : Reuss Voigt Hill
#
# Bulk Modulus (GPa) = 25.89847 42.69728 34.29787
# Shear Modulus (GPa) = 28.98393 11.62637 20.30515
#
# Velocity S-wave (km/s) = 3.91569 2.48000 3.27743
# Velocity P-wave (km/s) = 5.84329 5.54866 5.69788
#
# Compressibility (1/GPa) = 0.03861232
#
# Stress axis : x y z
#
# Youngs Moduli (GPa) = 44.77401 17.01603 61.73694
#
# Poissons Ratio (x) = 0.32047 0.46609
# Poissons Ratio (y) = 0.84324 0.18281
# Poissons Ratio (z) = 0.33802 0.05039
#
# Static dielectric constant tensor:
#      x y z
#    x 1.669150 0.000000 0.000000 
#    y 0.000000 1.638290 0.000000 
#    z 0.000000 0.000000 1.620660 
# 
# From -- ./inp_files/32169.got.cif
#   From: 2010.05.17/outbox.cif.g08.bks.cpg/sg59_17_cif.got.tgz:32169.got - 2010.06.03 14:40:33.
