data_PCOD9448394
_publ_section_title
;
Structure prediction by ZEFSAII (Michael W. Deem and Ramdas Pophale) SiO2 
 PCOD9448394
Probable space group: P M M N
;
_chemical_formula_sum "Si O2"
_cell_formula_units_Z 56
_cell_length_a 14.775876
_cell_length_b 8.669330
_cell_length_c 23.022483
_cell_angle_alpha 90.000000
_cell_angle_beta 90.000000
_cell_angle_gamma 90.000000
_cell_volume 2949.109741
_symmetry_space_group_name_H-M "P M M N"
_symmetry_group_IT_number 59
_space_group.IT_coordinate_system_code '2'
_symmetry_cell_setting 'orthorhombic'
loop_
_space_group_symop_operation_xyz
x,y,z
1/2-x,1/2-y,z
1/2+x,-y,-z
-x,1/2+y,-z
-x,-y,-z
1/2+x,1/2+y,-z
1/2-x,y,z
x,1/2-y,z
loop_
_atom_site_type_symbol
_atom_site_label
_atom_site_fract_x
_atom_site_fract_y
_atom_site_fract_z
Si Si1 0.147094 0.434387 0.899228
Si Si2 0.146314 0.937514 0.468461
Si Si3 0.144250 0.932253 0.028045
Si Si4 0.144863 0.936707 0.245193
Si Si5 0.467689 0.563912 0.358709
Si Si6 0.146665 0.563973 0.601098
Si Si7 0.035825 0.066690 0.136107
O O1 0.250000 0.480799 0.883402
O O2 0.140845 0.250000 0.896033
O O3 0.067520 0.508812 0.861905
O O4 0.132468 0.487152 0.965895
O O5 0.250000 0.980083 0.454521
O O6 0.143079 0.750000 0.468820
O O7 0.079668 0.992425 0.418298
O O8 0.127186 0.987814 0.534407
O O9 0.250000 0.951764 0.045101
O O10 0.126657 0.750000 0.021623
O O11 0.080707 0.001446 0.077251
O O12 0.250000 0.983652 0.246803
O O13 0.142679 0.750000 0.241754
O O14 0.092235 0.983248 0.303671
O O15 0.093713 0.003864 0.189770
O O16 0.468820 0.750000 0.359967
O O17 0.569623 0.503209 0.358089
O O18 0.250000 0.518666 0.614882
O O19 0.142982 0.750000 0.601982
O O20 0.038185 0.250000 0.134782
#
# Coordination Sequence:
#
# PCOD9448394 Si02
#       7
#     8   8   8   8   8   8   8
#     4  10  21  38  60  85 113 144 180 223 269 319
#     4   8  14  27  49  77 107 138 172 211 260 319
#     4  10  20  35  57  85 117 150 183 222 268 318
#     4  10  22  40  59  79 105 138 178 223 269 319
#     4  10  19  32  54  80 103 133 176 224 269 311
#     4   9  18  32  50  74 107 144 176 209 257 318
#     4  12  24  37  56  81 111 146 183 224 270 321
#
# _framework density 18.988780999999999
#
# number of rings (size 3 to 8) (size 9 to 14) (size 15 to 20)
#    0.000    2.143    0.000    4.714    0.000    6.286 
#    0.000    0.714    0.000    3.000    0.000    0.000 
#    0.000    0.000    0.000    0.000    0.000    0.000 
#
# Total GULP energy -312744.781569 kJ/mol
# GULP energy per Si atom -5584.728242 kJ/mol
# Density = 1.894556 g / cm^3
# Si number density = 18.988781 Si / 1000 Ang^3
#
#
#
# Elastic Constant Matrix: (Units=GPa)
#
#
# Indices 1 2 3 4 5 6 
#
# 1 149.5300 27.6594 69.0026 0.0000 0.0000 0.0000
# 2 27.6594 23.4063 14.1310 0.0000 0.0000 0.0000
# 3 69.0026 14.1310 47.1593 0.0000 0.0000 0.0000
# 4 0.0000 0.0000 0.0000 11.6541 0.0000 0.0000
# 5 0.0000 0.0000 0.0000 0.0000 26.9506 0.0000
# 6 0.0000 0.0000 0.0000 0.0000 0.0000 27.9200
#
#
#
# Elastic Compliance Matrix: (Units=1/GPa)
#
#
# Indices 1 2 3 4 5 6 
#
# 1 0.021728 -0.007914 -0.029421 0.000000 0.000000 0.000000
# 2 -0.007914 0.055042 -0.004913 0.000000 0.000000 0.000000
# 3 -0.029421 -0.004913 0.065725 0.000000 0.000000 0.000000
# 4 0.000000 0.000000 0.000000 0.085807 0.000000 0.000000
# 5 0.000000 0.000000 0.000000 0.000000 0.037105 0.000000
# 6 0.000000 0.000000 0.000000 0.000000 0.000000 0.035817
#
#
# Mechanical properties :
#
#
# Convention : Reuss Voigt Hill
#
# Bulk Modulus (GPa) = 17.24173 49.07574 33.15873
# Shear Modulus (GPa) = 12.34409 20.59178 16.46793
#
# Velocity S-wave (km/s) = 2.55242 3.29662 2.94810
# Velocity P-wave (km/s) = 4.21736 6.35539 5.39338
#
# Compressibility (1/GPa) = 0.05799882
#
# Stress axis : x y z
#
# Youngs Moduli (GPa) = 46.02322 18.16797 15.21497
#
# Poissons Ratio (x) = 0.14379 0.44764
# Poissons Ratio (y) = 0.36424 0.07475
# Poissons Ratio (z) = 1.35404 0.08926
#
# Static dielectric constant tensor:
#      x y z
#    x 1.668060 0.000000 0.000000 
#    y 0.000000 1.640740 0.000000 
#    z 0.000000 0.000000 1.637750 
# 
# From -- ./inp_files/30285.got.cif
#   From: 2010.05.17/outbox.cif.g08.bks.cpg/sg59_16_cif.got.tgz:30285.got - 2010.06.03 14:40:33.
