data_PCOD9448841
_publ_section_title
;
Structure prediction by ZEFSAII (Michael W. Deem and Ramdas Pophale) SiO2 
 PCOD9448841
Probable space group: P M M N
;
_chemical_formula_sum "Si O2"
_cell_formula_units_Z 64
_cell_length_a 8.966673
_cell_length_b 19.766597
_cell_length_c 21.019173
_cell_angle_alpha 90.000000
_cell_angle_beta 90.000000
_cell_angle_gamma 90.000000
_cell_volume 3725.451078
_symmetry_space_group_name_H-M "P M M N"
_symmetry_group_IT_number 59
_space_group.IT_coordinate_system_code '2'
_symmetry_cell_setting 'orthorhombic'
loop_
_space_group_symop_operation_xyz
x,y,z
1/2-x,1/2-y,z
1/2+x,-y,-z
-x,1/2+y,-z
-x,-y,-z
1/2+x,1/2+y,-z
1/2-x,y,z
x,1/2-y,z
loop_
_atom_site_type_symbol
_atom_site_label
_atom_site_fract_x
_atom_site_fract_y
_atom_site_fract_z
Si Si1 0.572211 0.827473 0.239578
Si Si2 0.570658 0.957343 0.690247
Si Si3 0.070851 0.673399 0.742850
Si Si4 0.428701 0.038564 0.059309
Si Si5 0.929104 0.455339 0.813461
Si Si6 0.570307 0.465376 0.561275
Si Si7 0.929468 0.327604 0.107838
Si Si8 0.570459 0.173196 0.621294
O O1 0.750000 0.834621 0.243420
O O2 0.537081 0.750000 0.221362
O O3 0.504629 0.882520 0.192296
O O4 0.502261 0.838513 0.309679
O O5 0.750000 0.953188 0.691441
O O6 0.502890 0.883582 0.700169
O O7 0.524455 0.002340 0.750987
O O8 0.526836 0.993545 0.624902
O O9 0.250000 0.668832 0.738810
O O10 0.027105 0.750000 0.725723
O O11 0.031058 0.662892 0.817370
O O12 0.250000 0.040334 0.053674
O O13 0.491780 0.114188 0.067820
O O14 0.467546 0.997018 0.123506
O O15 0.500000 0.000000 0.000000
O O16 0.750000 0.447454 0.811386
O O17 0.500000 0.500000 0.500000
O O18 0.750000 0.467546 0.555961
O O19 0.526711 0.387097 0.573857
O O20 0.750000 0.334008 0.102702
O O21 0.968479 0.250000 0.090759
O O22 0.750000 0.169390 0.629304
O O23 0.532978 0.250000 0.600889
#
# Coordination Sequence:
#
# PCOD9448841 Si02
#       8
#     8   8   8   8   8   8   8   8
#     4  10  20  32  51  83 114 138 173 224 275 319
#     4  10  19  34  54  79 108 137 177 223 264 315
#     4   9  18  32  52  81 112 141 177 222 271 319
#     4  11  23  38  57  82 112 146 185 227 273 326
#     4  10  20  36  56  79 107 141 180 219 264 321
#     4  10  21  36  53  77 108 141 178 220 267 320
#     4   9  18  34  56  82 112 144 180 223 271 324
#     4   9  17  33  56  77 102 139 179 219 265 320
#
# _framework density 17.179127999999999
#
# number of rings (size 3 to 8) (size 9 to 14) (size 15 to 20)
#    0.000    2.250    2.500    1.500    0.000    3.750 
#    0.000    2.500    0.000    3.000    0.000    0.000 
#    0.000    0.000    0.000    0.000    0.000    0.000 
#
# Total GULP energy -357034.109240 kJ/mol
# GULP energy per Si atom -5578.657957 kJ/mol
# Density = 1.714003 g / cm^3
# Si number density = 17.179128 Si / 1000 Ang^3
#
#
#
# Elastic Constant Matrix: (Units=GPa)
#
#
# Indices 1 2 3 4 5 6 
#
# 1 19.2894 47.3253 37.3508 0.0000 0.0000 0.0000
# 2 47.3253 168.5623 79.0819 0.0000 0.0000 0.0000
# 3 37.3508 79.0819 107.0770 0.0000 0.0000 0.0000
# 4 0.0000 0.0000 0.0000 28.8835 0.0000 0.0000
# 5 0.0000 0.0000 0.0000 0.0000 27.0603 0.0000
# 6 0.0000 0.0000 0.0000 0.0000 0.0000 32.5944
#
#
#
# Elastic Compliance Matrix: (Units=1/GPa)
#
#
# Indices 1 2 3 4 5 6 
#
# 1 0.367207 -0.065803 -0.079491 0.000000 0.000000 0.000000
# 2 -0.065803 0.020870 0.007540 0.000000 0.000000 0.000000
# 3 -0.079491 0.007540 0.031499 0.000000 0.000000 0.000000
# 4 0.000000 0.000000 0.000000 0.034622 0.000000 0.000000
# 5 0.000000 0.000000 0.000000 0.000000 0.036955 0.000000
# 6 0.000000 0.000000 0.000000 0.000000 0.000000 0.030680
#
#
# Mechanical properties :
#
#
# Convention : Reuss Voigt Hill
#
# Bulk Modulus (GPa) = 6.94118 69.16051 38.05085
# Shear Modulus (GPa) = 5.91463 26.45234 16.18349
#
# Velocity S-wave (km/s) = 1.85752 3.92828 3.07260
# Velocity P-wave (km/s) = 2.94105 7.80519 5.89791
#
# Compressibility (1/GPa) = 0.14406771
#
# Stress axis : x y z
#
# Youngs Moduli (GPa) = 2.72326 47.91629 31.74746
#
# Poissons Ratio (x) = 3.15302 2.52364
# Poissons Ratio (y) = 0.17920 -0.23938
# Poissons Ratio (z) = 0.21647 -0.36129
#
# Static dielectric constant tensor:
#      x y z
#    x 1.575370 0.000000 0.000000 
#    y 0.000000 1.594500 0.000000 
#    z 0.000000 0.000000 1.553890 
# 
# From -- ./inp_files/26272.got.cif
#   From: 2010.05.17/outbox.cif.g08.bks.cpg/sg59_14_cif.got.tgz:26272.got - 2010.06.03 14:40:33.
