data_PCOD9448745
_publ_section_title
;
Structure prediction by ZEFSAII (Michael W. Deem and Ramdas Pophale) SiO2 
 PCOD9448745
Probable space group: P M M N
;
_chemical_formula_sum "Si O2"
_cell_formula_units_Z 56
_cell_length_a 15.704626
_cell_length_b 8.516720
_cell_length_c 22.937593
_cell_angle_alpha 90.000000
_cell_angle_beta 90.000000
_cell_angle_gamma 90.000000
_cell_volume 3067.946699
_symmetry_space_group_name_H-M "P M M N"
_symmetry_group_IT_number 59
_space_group.IT_coordinate_system_code '2'
_symmetry_cell_setting 'orthorhombic'
loop_
_space_group_symop_operation_xyz
x,y,z
1/2-x,1/2-y,z
1/2+x,-y,-z
-x,1/2+y,-z
-x,-y,-z
1/2+x,1/2+y,-z
1/2-x,y,z
x,1/2-y,z
loop_
_atom_site_type_symbol
_atom_site_label
_atom_site_fract_x
_atom_site_fract_y
_atom_site_fract_z
Si Si1 0.646863 0.929813 0.508637
Si Si2 0.507766 0.062461 0.295966
Si Si3 0.060827 0.062456 0.177371
Si Si4 0.933679 0.438613 0.953552
Si Si5 0.848604 0.064164 0.633152
Si Si6 0.151665 0.439733 0.619283
Si Si7 0.750000 0.432677 0.957134
Si Si8 0.750000 0.936078 0.830870
O O1 0.750000 0.923699 0.504553
O O2 0.616825 0.750000 0.516927
O O3 0.619883 0.991747 0.445187
O O4 0.627758 0.029839 0.565660
O O5 0.515110 0.250000 0.295059
O O6 0.499935 0.005320 0.228996
O O7 0.419630 0.017969 0.327868
O O8 0.586884 0.993955 0.331479
O O9 0.050728 0.250000 0.171448
O O10 0.158993 0.034926 0.198207
O O11 0.050055 0.991735 0.113034
O O12 0.931489 0.250000 0.953775
O O13 0.840751 0.501599 0.973820
O O14 0.000000 0.500000 0.000000
O O15 0.750000 0.009864 0.642148
O O16 0.850921 0.250000 0.643774
O O17 0.250000 0.491549 0.628406
O O18 0.152608 0.250000 0.617057
O O19 0.750000 0.250000 0.973653
O O20 0.750000 0.453358 0.887295
O O21 0.750000 0.750000 0.848096
#
# Coordination Sequence:
#
# PCOD9448745 Si02
#       8
#     8   8   8   8   8   8   4   4
#     4   8  15  31  54  76  98 130 173 220 271 322
#     4  11  23  35  53  79 108 142 179 219 264 320
#     4   9  19  34  52  77 107 140 179 215 255 306
#     4  10  19  33  56  82 110 142 175 215 260 307
#     4  10  21  35  51  76 110 144 176 215 264 319
#     4   9  19  37  59  78  99 132 176 228 279 323
#     4   8  16  30  48  76 108 136 168 203 246 297
#     4   8  14  28  50  72  98 134 170 207 244 291
#
# _framework density 18.253250999999999
#
# number of rings (size 3 to 8) (size 9 to 14) (size 15 to 20)
#    0.000    2.714    0.000    2.143    1.000    4.000 
#    0.000    1.429    1.571    0.000    0.000    0.000 
#    0.000    0.000    0.000    0.000    0.000    0.000 
#
# Total GULP energy -311983.729779 kJ/mol
# GULP energy per Si atom -5571.138032 kJ/mol
# Density = 1.821171 g / cm^3
# Si number density = 18.253251 Si / 1000 Ang^3
#
#
#
# Elastic Constant Matrix: (Units=GPa)
#
#
# Indices 1 2 3 4 5 6 
#
# 1 87.0705 10.0221 59.9442 0.0000 0.0000 0.0000
# 2 10.0221 11.5893 10.2150 0.0000 0.0000 0.0000
# 3 59.9442 10.2150 103.7067 0.0000 0.0000 0.0000
# 4 0.0000 0.0000 0.0000 24.4532 0.0000 0.0000
# 5 0.0000 0.0000 0.0000 0.0000 31.7735 0.0000
# 6 0.0000 0.0000 0.0000 0.0000 0.0000 22.5159
#
#
#
# Elastic Compliance Matrix: (Units=1/GPa)
#
#
# Indices 1 2 3 4 5 6 
#
# 1 0.019677 -0.007656 -0.010620 0.000000 0.000000 0.000000
# 2 -0.007656 0.097468 -0.005175 0.000000 0.000000 0.000000
# 3 -0.010620 -0.005175 0.016291 0.000000 0.000000 0.000000
# 4 0.000000 0.000000 0.000000 0.040894 0.000000 0.000000
# 5 0.000000 0.000000 0.000000 0.000000 0.031473 0.000000
# 6 0.000000 0.000000 0.000000 0.000000 0.000000 0.044413
#
#
# Mechanical properties :
#
#
# Convention : Reuss Voigt Hill
#
# Bulk Modulus (GPa) = 11.55609 40.30322 25.92965
# Shear Modulus (GPa) = 15.33916 23.89423 19.61669
#
# Velocity S-wave (km/s) = 2.90203 3.62199 3.28181
# Velocity P-wave (km/s) = 4.19210 6.29442 5.34759
#
# Compressibility (1/GPa) = 0.08653450
#
# Stress axis : x y z
#
# Youngs Moduli (GPa) = 50.81972 10.25975 61.38463
#
# Poissons Ratio (x) = 0.07855 0.65189
# Poissons Ratio (y) = 0.38907 0.31768
# Poissons Ratio (z) = 0.53969 0.05310
#
# Static dielectric constant tensor:
#      x y z
#    x 1.657610 0.000000 0.000000 
#    y 0.000000 1.628730 0.000000 
#    z 0.000000 0.000000 1.626280 
# 
# From -- ./inp_files/30429.got.cif
#   From: 2010.05.17/outbox.cif.g08.bks.cpg/sg59_16_cif.got.tgz:30429.got - 2010.06.03 14:40:33.
