data_PCOD9448689
_publ_section_title
;
Structure prediction by ZEFSAII (Michael W. Deem and Ramdas Pophale) SiO2 
 PCOD9448689
Probable space group: P M M N
;
_chemical_formula_sum "Si O2"
_cell_formula_units_Z 64
_cell_length_a 33.422482
_cell_length_b 7.803836
_cell_length_c 11.658926
_cell_angle_alpha 90.000000
_cell_angle_beta 90.000000
_cell_angle_gamma 90.000000
_cell_volume 3040.922681
_symmetry_space_group_name_H-M "P M M N"
_symmetry_group_IT_number 59
_space_group.IT_coordinate_system_code '2'
_symmetry_cell_setting 'orthorhombic'
loop_
_space_group_symop_operation_xyz
x,y,z
1/2-x,1/2-y,z
1/2+x,-y,-z
-x,1/2+y,-z
-x,-y,-z
1/2+x,1/2+y,-z
1/2-x,y,z
x,1/2-y,z
loop_
_atom_site_type_symbol
_atom_site_label
_atom_site_fract_x
_atom_site_fract_y
_atom_site_fract_z
Si Si1 0.704627 0.546293 0.978576
Si Si2 0.016285 0.958261 0.827245
Si Si3 0.625207 0.051061 0.560377
Si Si4 0.205551 0.449468 0.558704
Si Si5 0.916033 0.459364 0.335424
Si Si6 0.637429 0.042255 0.814478
Si Si7 0.165330 0.547931 0.784162
Si Si8 0.561534 0.048461 0.945152
O O1 0.750000 0.477957 0.980394
O O2 0.706556 0.750000 0.989746
O O3 0.679137 0.480473 0.086720
O O4 0.680658 0.503979 0.863117
O O5 0.014342 0.750000 0.829988
O O6 0.041572 0.012429 0.716613
O O7 0.041718 0.020095 0.938463
O O8 0.971708 0.025528 0.846172
O O9 0.613749 0.250000 0.572788
O O10 0.596300 0.977095 0.461673
O O11 0.627377 0.976148 0.687445
O O12 0.669628 0.041510 0.506708
O O13 0.250000 0.517336 0.536729
O O14 0.204331 0.250000 0.525580
O O15 0.195305 0.461994 0.693668
O O16 0.916224 0.250000 0.337964
O O17 0.879673 0.508570 0.249360
O O18 0.635376 0.250000 0.811604
O O19 0.603540 0.977238 0.902465
O O20 0.166904 0.750000 0.760477
O O21 0.567691 0.250000 0.966783
#
# Coordination Sequence:
#
# PCOD9448689 Si02
#       8
#     8   8   8   8   8   8   8   8
#     4  11  24  38  52  75 107 138 169 212 266 318
#     4   9  16  29  51  76 102 132 165 201 250 315
#     4   9  19  35  54  74  96 130 178 223 260 303
#     4  10  20  33  50  74 105 137 168 210 264 312
#     4   8  15  30  52  77 103 131 166 210 255 297
#     4  10  21  38  57  74  98 136 179 220 260 306
#     4  10  19  33  55  80 106 137 173 212 255 305
#     4   9  18  32  50  75 105 133 165 210 259 304
#
# _framework density 21.046244999999999
#
# number of rings (size 3 to 8) (size 9 to 14) (size 15 to 20)
#    0.000    2.500    0.000    3.000    0.000    7.000 
#    0.000    8.750    0.000    0.000    0.000    0.000 
#    0.000    0.000    0.000    0.000    0.000    0.000 
#
# Total GULP energy -357116.616786 kJ/mol
# GULP energy per Si atom -5579.947137 kJ/mol
# Density = 2.099834 g / cm^3
# Si number density = 21.046245 Si / 1000 Ang^3
#
#
#
# Elastic Constant Matrix: (Units=GPa)
#
#
# Indices 1 2 3 4 5 6 
#
# 1 44.4710 -7.9713 5.3033 0.0000 0.0000 0.0000
# 2 -7.9713 28.5887 -5.0719 0.0000 0.0000 0.0000
# 3 5.3033 -5.0719 63.1073 0.0000 0.0000 0.0000
# 4 0.0000 0.0000 0.0000 6.9559 0.0000 0.0000
# 5 0.0000 0.0000 0.0000 0.0000 9.6107 0.0000
# 6 0.0000 0.0000 0.0000 0.0000 0.0000 2.0737
#
#
#
# Elastic Compliance Matrix: (Units=1/GPa)
#
#
# Indices 1 2 3 4 5 6 
#
# 1 0.023807 0.006374 -0.001488 0.000000 0.000000 0.000000
# 2 0.006374 0.037191 0.002453 0.000000 0.000000 0.000000
# 3 -0.001488 0.002453 0.016168 0.000000 0.000000 0.000000
# 4 0.000000 0.000000 0.000000 0.143763 0.000000 0.000000
# 5 0.000000 0.000000 0.000000 0.000000 0.104050 0.000000
# 6 0.000000 0.000000 0.000000 0.000000 0.000000 0.482230
#
#
# Mechanical properties :
#
#
# Convention : Reuss Voigt Hill
#
# Bulk Modulus (GPa) = 10.88803 13.40970 12.14886
# Shear Modulus (GPa) = 6.07425 13.32186 9.69806
#
# Velocity S-wave (km/s) = 1.70071 2.51864 2.14895
# Velocity P-wave (km/s) = 3.00685 3.85272 3.45576
#
# Compressibility (1/GPa) = 0.09184401
#
# Stress axis : x y z
#
# Youngs Moduli (GPa) = 42.00527 26.88797 61.84948
#
# Poissons Ratio (x) = -0.17138 0.09205
# Poissons Ratio (y) = -0.26774 -0.15174
# Poissons Ratio (z) = 0.06252 -0.06597
#
# Static dielectric constant tensor:
#      x y z
#    x 1.749050 0.000000 0.000000 
#    y 0.000000 1.762630 0.000000 
#    z 0.000000 0.000000 1.770000 
# 
# From -- ./inp_files/19223.got.cif
#   From: 2010.05.17/outbox.cif.g08.bks.cpg/sg59_10_cif.got.tgz:19223.got - 2010.06.03 14:40:33.
