data_PCOD9448090
_publ_section_title
;
Structure prediction by ZEFSAII (Michael W. Deem and Ramdas Pophale) SiO2 
 PCOD9448090
Probable space group: P M M N
;
_chemical_formula_sum "Si O2"
_cell_formula_units_Z 64
_cell_length_a 13.773138
_cell_length_b 10.295732
_cell_length_c 26.379540
_cell_angle_alpha 90.000000
_cell_angle_beta 90.000000
_cell_angle_gamma 90.000000
_cell_volume 3740.738473
_symmetry_space_group_name_H-M "P M M N"
_symmetry_group_IT_number 59
_space_group.IT_coordinate_system_code '2'
_symmetry_cell_setting 'orthorhombic'
loop_
_space_group_symop_operation_xyz
x,y,z
1/2-x,1/2-y,z
1/2+x,-y,-z
-x,1/2+y,-z
-x,-y,-z
1/2+x,1/2+y,-z
1/2-x,y,z
x,1/2-y,z
loop_
_atom_site_type_symbol
_atom_site_label
_atom_site_fract_x
_atom_site_fract_y
_atom_site_fract_z
Si Si1 0.139373 0.407609 0.172159
Si Si2 0.363031 0.609536 0.356996
Si Si3 0.365255 0.400756 0.971785
Si Si4 0.860200 0.529783 0.540608
Si Si5 0.142041 0.907066 0.671887
Si Si6 0.924623 0.103415 0.439063
Si Si7 0.949421 0.905679 0.719400
Si Si8 0.985813 0.596899 0.924815
O O1 0.250000 0.454271 0.165916
O O2 0.142409 0.250000 0.170912
O O3 0.097338 0.442850 0.227140
O O4 0.069313 0.445387 0.126211
O O5 0.250000 0.614675 0.343459
O O6 0.408317 0.750000 0.345007
O O7 0.366955 0.583446 0.417129
O O8 0.404274 0.488817 0.325965
O O9 0.250000 0.424666 0.972122
O O10 0.381329 0.250000 0.956005
O O11 0.424412 0.503668 0.938096
O O12 0.409988 0.412445 0.028378
O O13 0.750000 0.584776 0.545511
O O14 0.877038 0.479087 0.483859
O O15 0.958699 0.607487 0.553415
O O16 0.250000 0.957136 0.680596
O O17 0.146118 0.750000 0.669535
O O18 0.102437 0.948554 0.616621
O O19 0.063779 0.935456 0.715111
O O20 0.886859 0.250000 0.442931
O O21 0.935215 0.750000 0.711660
O O22 0.013474 0.750000 0.920627
#
# Coordination Sequence:
#
# PCOD9448090 Si02
#       8
#     8   8   8   8   8   8   8   8
#     4   9  17  30  50  75 103 133 165 206 256 302
#     4  10  20  33  49  71 100 131 159 193 244 301
#     4   9  17  30  49  73 104 141 176 211 254 302
#     4  10  20  32  48  70  95 125 158 193 238 296
#     4   9  17  30  49  71  94 121 156 200 246 290
#     4  10  19  32  49  70  94 122 158 199 242 292
#     4  10  19  33  52  76  99 126 167 210 248 289
#     4   9  17  30  49  74 102 135 178 217 250 295
#
# _framework density 17.108920999999999
#
# number of rings (size 3 to 8) (size 9 to 14) (size 15 to 20)
#    0.000    2.500    1.250    1.500    0.000    4.000 
#    0.000    2.500    0.000    4.500    0.000    0.000 
#    0.000    0.000    0.000    0.000    0.000    0.000 
#
# Total GULP energy -356281.854505 kJ/mol
# GULP energy per Si atom -5566.903977 kJ/mol
# Density = 1.706998 g / cm^3
# Si number density = 17.108921 Si / 1000 Ang^3
#
#
#
# Elastic Constant Matrix: (Units=GPa)
#
#
# Indices 1 2 3 4 5 6 
#
# 1 112.9750 36.6776 32.7767 0.0000 0.0000 0.0000
# 2 36.6776 52.0448 30.8506 0.0000 0.0000 0.0000
# 3 32.7767 30.8506 70.9264 0.0000 0.0000 0.0000
# 4 0.0000 0.0000 0.0000 10.4791 0.0000 0.0000
# 5 0.0000 0.0000 0.0000 0.0000 21.3782 0.0000
# 6 0.0000 0.0000 0.0000 0.0000 0.0000 13.4228
#
#
#
# Elastic Compliance Matrix: (Units=1/GPa)
#
#
# Indices 1 2 3 4 5 6 
#
# 1 0.011791 -0.006844 -0.002472 0.000000 0.000000 0.000000
# 2 -0.006844 0.029862 -0.009826 0.000000 0.000000 0.000000
# 3 -0.002472 -0.009826 0.019515 0.000000 0.000000 0.000000
# 4 0.000000 0.000000 0.000000 0.095428 0.000000 0.000000
# 5 0.000000 0.000000 0.000000 0.000000 0.046777 0.000000
# 6 0.000000 0.000000 0.000000 0.000000 0.000000 0.074500
#
#
# Mechanical properties :
#
#
# Convention : Reuss Voigt Hill
#
# Bulk Modulus (GPa) = 43.69845 48.50623 46.10234
# Shear Modulus (GPa) = 15.44236 18.09879 16.77057
#
# Velocity S-wave (km/s) = 3.00757 3.25600 3.13425
# Velocity P-wave (km/s) = 6.13657 6.52291 6.33268
#
# Compressibility (1/GPa) = 0.02288411
#
# Stress axis : x y z
#
# Youngs Moduli (GPa) = 84.81375 33.48725 51.24140
#
# Poissons Ratio (x) = 0.22919 0.12666
# Poissons Ratio (y) = 0.58046 0.50351
# Poissons Ratio (z) = 0.20964 0.32905
#
# Static dielectric constant tensor:
#      x y z
#    x 1.605580 0.000000 0.000000 
#    y 0.000000 1.589000 0.000000 
#    z 0.000000 0.000000 1.562320 
# 
# From -- ./inp_files/31981.got.cif
#   From: 2010.05.17/outbox.cif.g08.bks.cpg/sg59_16_cif.got.tgz:31981.got - 2010.06.03 14:40:33.
