data_PCOD9448644
_publ_section_title
;
Structure prediction by ZEFSAII (Michael W. Deem and Ramdas Pophale) SiO2 
 PCOD9448644
Probable space group: P M M N
;
_chemical_formula_sum "Si O2"
_cell_formula_units_Z 48
_cell_length_a 14.796428
_cell_length_b 10.325539
_cell_length_c 17.087014
_cell_angle_alpha 90.000000
_cell_angle_beta 90.000000
_cell_angle_gamma 90.000000
_cell_volume 2610.572699
_symmetry_space_group_name_H-M "P M M N"
_symmetry_group_IT_number 59
_space_group.IT_coordinate_system_code '2'
_symmetry_cell_setting 'orthorhombic'
loop_
_space_group_symop_operation_xyz
x,y,z
1/2-x,1/2-y,z
1/2+x,-y,-z
-x,1/2+y,-z
-x,-y,-z
1/2+x,1/2+y,-z
1/2-x,y,z
x,1/2-y,z
loop_
_atom_site_type_symbol
_atom_site_label
_atom_site_fract_x
_atom_site_fract_y
_atom_site_fract_z
Si Si1 0.509963 0.904724 0.426941
Si Si2 0.145572 0.599044 0.987865
Si Si3 0.653296 0.403072 0.684655
Si Si4 0.052674 0.896105 0.828549
Si Si5 0.857845 0.900947 0.290303
Si Si6 0.351932 0.037687 0.154223
O O1 0.500405 0.750000 0.446191
O O2 0.431445 0.946139 0.365830
O O3 0.602271 0.919442 0.377535
O O4 0.500000 0.000000 0.500000
O O5 0.250000 0.587474 0.961679
O O6 0.127825 0.750000 0.005491
O O7 0.083190 0.560462 0.915472
O O8 0.137055 0.520263 0.067707
O O9 0.750000 0.458911 0.657611
O O10 0.655629 0.250000 0.674572
O O11 0.646698 0.431878 0.776554
O O12 0.089174 0.750000 0.815666
O O13 0.944119 0.888009 0.827498
O O14 0.092548 0.998690 0.767286
O O15 0.750000 0.918351 0.287221
O O16 0.878580 0.750000 0.269019
O O17 0.250000 0.096423 0.157733
#
# Coordination Sequence:
#
# PCOD9448644 Si02
#       6
#     8   8   8   8   8   8
#     4  10  21  38  59  86 116 145 182 231 283 344
#     4   9  18  32  52  81 114 150 195 243 288 337
#     4   9  17  32  56  83 109 142 186 233 276 326
#     4  11  22  36  56  84 120 157 194 239 289 338
#     4  10  22  41  63  86 115 153 196 238 282 338
#     4  10  19  33  54  80 113 153 196 238 284 337
#
# _framework density 18.386769000000001
#
# number of rings (size 3 to 8) (size 9 to 14) (size 15 to 20)
#    0.000    2.167    1.667    1.500    0.000    5.333 
#    0.000    0.833    0.000    1.000    0.000    0.000 
#    0.000    0.000    0.000    0.000    0.000    0.000 
#
# Total GULP energy -267295.352427 kJ/mol
# GULP energy per Si atom -5568.653176 kJ/mol
# Density = 1.834492 g / cm^3
# Si number density = 18.386769 Si / 1000 Ang^3
#
#
#
# Elastic Constant Matrix: (Units=GPa)
#
#
# Indices 1 2 3 4 5 6 
#
# 1 106.8080 46.0743 51.4092 0.0000 0.0000 0.0000
# 2 46.0743 70.9077 56.2422 0.0000 0.0000 0.0000
# 3 51.4092 56.2422 106.0149 0.0000 0.0000 0.0000
# 4 0.0000 0.0000 0.0000 9.7753 0.0000 0.0000
# 5 0.0000 0.0000 0.0000 0.0000 24.4866 0.0000
# 6 0.0000 0.0000 0.0000 0.0000 0.0000 5.6751
#
#
#
# Elastic Compliance Matrix: (Units=1/GPa)
#
#
# Indices 1 2 3 4 5 6 
#
# 1 0.013648 -0.006248 -0.003304 0.000000 0.000000 0.000000
# 2 -0.006248 0.027208 -0.011405 0.000000 0.000000 0.000000
# 3 -0.003304 -0.011405 0.017085 0.000000 0.000000 0.000000
# 4 0.000000 0.000000 0.000000 0.102299 0.000000 0.000000
# 5 0.000000 0.000000 0.000000 0.000000 0.040839 0.000000
# 6 0.000000 0.000000 0.000000 0.000000 0.000000 0.176209
#
#
# Mechanical properties :
#
#
# Convention : Reuss Voigt Hill
#
# Bulk Modulus (GPa) = 62.38675 65.68690 64.03682
# Shear Modulus (GPa) = 11.77738 16.65438 14.21588
#
# Velocity S-wave (km/s) = 2.53363 3.01288 2.78359
# Velocity P-wave (km/s) = 6.52403 6.92141 6.72565
#
# Compressibility (1/GPa) = 0.01602905
#
# Stress axis : x y z
#
# Youngs Moduli (GPa) = 73.27174 36.75341 58.53072
#
# Poissons Ratio (x) = 0.22962 0.19337
# Poissons Ratio (y) = 0.45778 0.66753
# Poissons Ratio (z) = 0.24207 0.41916
#
# Static dielectric constant tensor:
#      x y z
#    x 1.688310 0.000000 0.000000 
#    y 0.000000 1.624650 0.000000 
#    z 0.000000 0.000000 1.596820 
# 
# From -- ./inp_files/22378.got.cif
#   From: 2010.05.17/outbox.cif.g08.bks.cpg/sg59_12_cif.got.tgz:22378.got - 2010.06.03 14:40:33.
