data_PCOD9448690
_publ_section_title
;
Structure prediction by ZEFSAII (Michael W. Deem and Ramdas Pophale) SiO2 
 PCOD9448690
Probable space group: P M M N
;
_chemical_formula_sum "Si O2"
_cell_formula_units_Z 64
_cell_length_a 8.092297
_cell_length_b 18.590692
_cell_length_c 20.372971
_cell_angle_alpha 90.000000
_cell_angle_beta 90.000000
_cell_angle_gamma 90.000000
_cell_volume 3064.938302
_symmetry_space_group_name_H-M "P M M N"
_symmetry_group_IT_number 59
_space_group.IT_coordinate_system_code '2'
_symmetry_cell_setting 'orthorhombic'
loop_
_space_group_symop_operation_xyz
x,y,z
1/2-x,1/2-y,z
1/2+x,-y,-z
-x,1/2+y,-z
-x,-y,-z
1/2+x,1/2+y,-z
1/2-x,y,z
x,1/2-y,z
loop_
_atom_site_type_symbol
_atom_site_label
_atom_site_fract_x
_atom_site_fract_y
_atom_site_fract_z
Si Si1 0.549375 0.588781 0.731351
Si Si2 0.058374 0.330715 0.679189
Si Si3 0.446772 0.920297 0.978268
Si Si4 0.443210 0.602891 0.446915
Si Si5 0.052993 0.556506 0.587377
Si Si6 0.452640 0.668004 0.103629
Si Si7 0.940766 0.062928 0.783339
Si Si8 0.551315 0.670556 0.856733
O O1 0.750000 0.586500 0.728290
O O2 0.487466 0.591720 0.656967
O O3 0.487100 0.513860 0.763693
O O4 0.499505 0.649984 0.782833
O O5 0.250000 0.340358 0.697517
O O6 0.006444 0.250000 0.695570
O O7 0.038990 0.345644 0.602228
O O8 0.952052 0.387638 0.719115
O O9 0.250000 0.919817 0.978351
O O10 0.504155 0.891596 0.907882
O O11 0.503803 0.863002 0.033214
O O12 0.500000 0.000000 0.000000
O O13 0.250000 0.621129 0.444050
O O14 0.468684 0.521510 0.420051
O O15 0.497468 0.601240 0.522776
O O16 0.250000 0.544550 0.582692
O O17 0.250000 0.668899 0.106224
O O18 0.507470 0.750000 0.114800
O O19 0.512741 0.611199 0.158183
O O20 0.750000 0.049167 0.801376
O O21 0.750000 0.672981 0.856612
O O22 0.488408 0.750000 0.875982
#
# Coordination Sequence:
#
# PCOD9448690 Si02
#       8
#     8   8   8   8   8   8   8   8
#     4  10  20  35  57  85 115 151 193 234 283 346
#     4  11  23  36  51  77 114 151 188 236 290 340
#     4  11  22  38  61  88 117 152 197 246 296 351
#     4  10  20  35  55  80 109 146 189 231 285 350
#     4  10  20  34  56  84 111 140 183 240 291 336
#     4   9  18  33  54  80 110 145 185 229 278 336
#     4  10  19  33  55  80 106 143 190 233 277 337
#     4  10  22  41  63  88 121 159 198 243 297 357
#
# _framework density 20.881332
#
# number of rings (size 3 to 8) (size 9 to 14) (size 15 to 20)
#    0.000    1.875    1.250    3.000    0.000    6.250 
#    0.000    3.125    0.000    5.250    0.000    0.000 
#    0.000    0.000    0.000    0.000    0.000    0.000 
#
# Total GULP energy -357389.320698 kJ/mol
# GULP energy per Si atom -5584.208136 kJ/mol
# Density = 2.083381 g / cm^3
# Si number density = 20.881332 Si / 1000 Ang^3
#
#
#
# Elastic Constant Matrix: (Units=GPa)
#
#
# Indices 1 2 3 4 5 6 
#
# 1 17.7875 3.3273 1.7375 0.0000 0.0000 0.0000
# 2 3.3273 53.8986 12.0065 0.0000 0.0000 0.0000
# 3 1.7375 12.0065 122.6145 0.0000 0.0000 0.0000
# 4 0.0000 0.0000 0.0000 10.9768 0.0000 0.0000
# 5 0.0000 0.0000 0.0000 0.0000 23.3113 0.0000
# 6 0.0000 0.0000 0.0000 0.0000 0.0000 11.6251
#
#
#
# Elastic Compliance Matrix: (Units=1/GPa)
#
#
# Indices 1 2 3 4 5 6 
#
# 1 0.056903 -0.003407 -0.000473 0.000000 0.000000 0.000000
# 2 -0.003407 0.019171 -0.001829 0.000000 0.000000 0.000000
# 3 -0.000473 -0.001829 0.008341 0.000000 0.000000 0.000000
# 4 0.000000 0.000000 0.000000 0.091101 0.000000 0.000000
# 5 0.000000 0.000000 0.000000 0.000000 0.042898 0.000000
# 6 0.000000 0.000000 0.000000 0.000000 0.000000 0.086021
#
#
# Mechanical properties :
#
#
# Convention : Reuss Voigt Hill
#
# Bulk Modulus (GPa) = 13.69917 25.38258 19.54087
# Shear Modulus (GPa) = 14.69785 20.99792 17.84789
#
# Velocity S-wave (km/s) = 2.65594 3.17453 2.92675
# Velocity P-wave (km/s) = 3.99751 5.06151 4.56065
#
# Compressibility (1/GPa) = 0.07299713
#
# Stress axis : x y z
#
# Youngs Moduli (GPa) = 17.57381 52.16179 119.88344
#
# Poissons Ratio (x) = 0.17774 0.05667
# Poissons Ratio (y) = 0.05988 0.21926
# Poissons Ratio (z) = 0.00831 0.09540
#
# Static dielectric constant tensor:
#      x y z
#    x 1.739660 0.000000 0.000000 
#    y 0.000000 1.220700 0.000000 
#    z 0.000000 0.000000 1.772360 
# 
# From -- ./inp_files/29421.got.cif
#   From: 2010.05.17/outbox.cif.g08.bks.cpg/sg59_15_cif.got.tgz:29421.got - 2010.06.03 14:40:33.
