data_PCOD9448864
_publ_section_title
;
Structure prediction by ZEFSAII (Michael W. Deem and Ramdas Pophale) SiO2 
 PCOD9448864
Probable space group: P M M N
;
_chemical_formula_sum "Si O2"
_cell_formula_units_Z 56
_cell_length_a 14.853193
_cell_length_b 16.500101
_cell_length_c 11.230821
_cell_angle_alpha 90.000000
_cell_angle_beta 90.000000
_cell_angle_gamma 90.000000
_cell_volume 2752.440454
_symmetry_space_group_name_H-M "P M M N"
_symmetry_group_IT_number 59
_space_group.IT_coordinate_system_code '2'
_symmetry_cell_setting 'orthorhombic'
loop_
_space_group_symop_operation_xyz
x,y,z
1/2-x,1/2-y,z
1/2+x,-y,-z
-x,1/2+y,-z
-x,-y,-z
1/2+x,1/2+y,-z
1/2-x,y,z
x,1/2-y,z
loop_
_atom_site_type_symbol
_atom_site_label
_atom_site_fract_x
_atom_site_fract_y
_atom_site_fract_z
Si Si1 0.955656 0.659678 0.718203
Si Si2 0.152047 0.591348 0.457056
Si Si3 0.853366 0.124252 0.183024
Si Si4 0.036414 0.160307 0.561691
Si Si5 0.645940 0.996777 0.785186
Si Si6 0.148803 0.026359 0.682868
Si Si7 0.356668 0.660902 0.094726
O O1 0.921696 0.750000 0.748614
O O2 0.938325 0.646149 0.577234
O O3 0.910767 0.585674 0.789591
O O4 0.062743 0.659144 0.743992
O O5 0.250000 0.630778 0.454435
O O6 0.148474 0.525464 0.351918
O O7 0.142030 0.541390 0.578804
O O8 0.070828 0.651644 0.437424
O O9 0.750000 0.144001 0.221911
O O10 0.862499 0.026739 0.198460
O O11 0.862155 0.152776 0.047678
O O12 0.065699 0.250000 0.594943
O O13 0.078089 0.093943 0.648492
O O14 0.750000 0.982984 0.823906
O O15 0.607598 0.076759 0.851205
O O16 0.250000 0.060044 0.679254
O O17 0.250000 0.661298 0.126939
O O18 0.393420 0.750000 0.130571
#
# Coordination Sequence:
#
# PCOD9448864 Si02
#       7
#     8   8   8   8   8   8   8
#     4  11  22  34  53  83 116 150 189 229 270 325
#     4  10  19  34  55  79 107 142 183 226 280 339
#     4  10  20  36  59  82 106 140 181 231 283 330
#     4  11  22  34  51  79 116 151 184 227 275 329
#     4  10  21  37  58  80 111 152 187 226 277 328
#     4  10  19  34  56  79 106 144 185 227 276 331
#     4   9  19  37  60  84 110 142 183 230 281 337
#
# _framework density 20.345580999999999
#
# number of rings (size 3 to 8) (size 9 to 14) (size 15 to 20)
#    0.000    1.857    2.857    1.714    0.000    2.857 
#    0.000    4.286    0.000    0.857    0.000    4.000 
#    0.000    0.000    0.000    0.000    0.000    0.000 
#
# Total GULP energy -312350.239450 kJ/mol
# GULP energy per Si atom -5577.682847 kJ/mol
# Density = 2.029927 g / cm^3
# Si number density = 20.345581 Si / 1000 Ang^3
#
#
#
# Elastic Constant Matrix: (Units=GPa)
#
#
# Indices 1 2 3 4 5 6 
#
# 1 64.4375 57.3511 7.9148 0.0000 0.0000 0.0000
# 2 57.3511 154.5287 32.7559 0.0000 0.0000 0.0000
# 3 7.9148 32.7559 28.0246 0.0000 0.0000 0.0000
# 4 0.0000 0.0000 0.0000 22.3259 0.0000 0.0000
# 5 0.0000 0.0000 0.0000 0.0000 14.8193 0.0000
# 6 0.0000 0.0000 0.0000 0.0000 0.0000 1.5366
#
#
#
# Elastic Compliance Matrix: (Units=1/GPa)
#
#
# Indices 1 2 3 4 5 6 
#
# 1 0.023641 -0.009783 0.004757 0.000000 0.000000 0.000000
# 2 -0.009783 0.012651 -0.012024 0.000000 0.000000 0.000000
# 3 0.004757 -0.012024 0.048393 0.000000 0.000000 0.000000
# 4 0.000000 0.000000 0.000000 0.044791 0.000000 0.000000
# 5 0.000000 0.000000 0.000000 0.000000 0.067480 0.000000
# 6 0.000000 0.000000 0.000000 0.000000 0.000000 0.650802
#
#
# Mechanical properties :
#
#
# Convention : Reuss Voigt Hill
#
# Bulk Modulus (GPa) = 19.76791 49.22604 34.49698
# Shear Modulus (GPa) = 5.56348 17.66761 11.61555
#
# Velocity S-wave (km/s) = 1.65542 2.95002 2.39197
# Velocity P-wave (km/s) = 3.65938 5.98757 4.96196
#
# Compressibility (1/GPa) = 0.05058704
#
# Stress axis : x y z
#
# Youngs Moduli (GPa) = 42.29881 79.04756 20.66423
#
# Poissons Ratio (x) = 0.77329 -0.09830
# Poissons Ratio (y) = 0.41379 0.24846
# Poissons Ratio (z) = -0.20123 0.95043
#
# Static dielectric constant tensor:
#      x y z
#    x 1.747160 0.000000 0.000000 
#    y 0.000000 1.727260 0.000000 
#    z 0.000000 0.000000 1.745990 
# 
# From -- ./inp_files/16946.got.cif
#   From: 2010.05.17/outbox.cif.g08.bks.cpg/sg59_9_cif.got.tgz:16946.got - 2010.06.03 14:40:33.
