data_PCOD9448907
_publ_section_title
;
Structure prediction by ZEFSAII (Michael W. Deem and Ramdas Pophale) SiO2 
 PCOD9448907
Probable space group: P M M N
;
_chemical_formula_sum "Si O2"
_cell_formula_units_Z 48
_cell_length_a 8.415565
_cell_length_b 16.142831
_cell_length_c 19.637159
_cell_angle_alpha 90.000000
_cell_angle_beta 90.000000
_cell_angle_gamma 90.000000
_cell_volume 2667.728543
_symmetry_space_group_name_H-M "P M M N"
_symmetry_group_IT_number 59
_space_group.IT_coordinate_system_code '2'
_symmetry_cell_setting 'orthorhombic'
loop_
_space_group_symop_operation_xyz
x,y,z
1/2-x,1/2-y,z
1/2+x,-y,-z
-x,1/2+y,-z
-x,-y,-z
1/2+x,1/2+y,-z
1/2-x,y,z
x,1/2-y,z
loop_
_atom_site_type_symbol
_atom_site_label
_atom_site_fract_x
_atom_site_fract_y
_atom_site_fract_z
Si Si1 0.056482 0.342324 0.582339
Si Si2 0.558376 0.843002 0.576474
Si Si3 0.559100 0.750000 0.064106
Si Si4 0.435619 0.750000 0.215281
Si Si5 0.061383 0.432476 0.947524
Si Si6 0.939710 0.496362 0.336260
Si Si7 0.059791 0.929778 0.206431
O O1 0.250000 0.341832 0.585040
O O2 0.003336 0.250000 0.605087
O O3 0.012112 0.353178 0.502931
O O4 0.998925 0.421169 0.624560
O O5 0.750000 0.846496 0.578665
O O6 0.509541 0.750000 0.597530
O O7 0.491532 0.915249 0.623092
O O8 0.750000 0.750000 0.080711
O O9 0.457787 0.750000 0.133379
O O10 0.523988 0.662202 0.029401
O O11 0.250000 0.750000 0.234190
O O12 0.505508 0.660120 0.233299
O O13 0.250000 0.439459 0.943349
O O14 0.995293 0.442842 0.870942
O O15 0.000000 0.500000 0.000000
O O16 0.750000 0.500001 0.334973
O O17 0.003221 0.501963 0.259555
O O18 0.250000 0.925172 0.206371
#
# Coordination Sequence:
#
# PCOD9448907 Si02
#       7
#     8   8   4   4   8   8   8
#     4   8  16  31  50  75 105 137 173 210 256 315
#     4   9  18  35  56  72  94 135 181 221 263 312
#     4   8  16  30  50  76 104 134 167 198 241 302
#     4   8  16  30  48  70 100 134 167 204 247 296
#     4  10  19  34  56  81 108 139 174 213 256 306
#     4  11  21  31  50  78 107 137 171 216 264 310
#     4  10  20  34  51  75 107 141 175 212 256 311
#
# _framework density 17.992833999999998
#
# number of rings (size 3 to 8) (size 9 to 14) (size 15 to 20)
#    0.000    2.667    0.000    3.000    1.167    1.667 
#    0.000    0.833    1.833    2.000    0.000    0.000 
#    0.000    0.000    0.000    0.000    0.000    0.000 
#
# Total GULP energy -267533.112187 kJ/mol
# GULP energy per Si atom -5573.606504 kJ/mol
# Density = 1.795188 g / cm^3
# Si number density = 17.992834 Si / 1000 Ang^3
#
#
#
# Elastic Constant Matrix: (Units=GPa)
#
#
# Indices 1 2 3 4 5 6 
#
# 1 27.8617 29.9677 20.4747 0.0000 0.0000 0.0000
# 2 29.9677 139.9488 82.6826 0.0000 0.0000 0.0000
# 3 20.4747 82.6826 88.9060 0.0000 0.0000 0.0000
# 4 0.0000 0.0000 0.0000 31.3214 0.0000 0.0000
# 5 0.0000 0.0000 0.0000 0.0000 18.2512 0.0000
# 6 0.0000 0.0000 0.0000 0.0000 0.0000 24.2337
#
#
#
# Elastic Compliance Matrix: (Units=1/GPa)
#
#
# Indices 1 2 3 4 5 6 
#
# 1 0.047052 -0.008153 -0.003253 0.000000 0.000000 0.000000
# 2 -0.008153 0.017272 -0.014186 0.000000 0.000000 0.000000
# 3 -0.003253 -0.014186 0.025190 0.000000 0.000000 0.000000
# 4 0.000000 0.000000 0.000000 0.031927 0.000000 0.000000
# 5 0.000000 0.000000 0.000000 0.000000 0.054791 0.000000
# 6 0.000000 0.000000 0.000000 0.000000 0.000000 0.041265
#
#
# Mechanical properties :
#
#
# Convention : Reuss Voigt Hill
#
# Bulk Modulus (GPa) = 26.08956 58.10739 42.09847
# Shear Modulus (GPa) = 17.76469 23.00071 20.38270
#
# Velocity S-wave (km/s) = 3.14557 3.57925 3.36940
# Velocity P-wave (km/s) = 5.26539 7.03180 6.21170
#
# Compressibility (1/GPa) = 0.03832951
#
# Stress axis : x y z
#
# Youngs Moduli (GPa) = 21.25313 57.89623 39.69897
#
# Poissons Ratio (x) = 0.47205 0.12915
# Poissons Ratio (y) = 0.17328 0.56315
# Poissons Ratio (z) = 0.06914 0.82129
#
# Static dielectric constant tensor:
#      x y z
#    x 1.618610 0.000000 0.000000 
#    y 0.000000 1.670920 0.000000 
#    z 0.000000 0.000000 1.599350 
# 
# From -- ./inp_files/25578.got.cif
#   From: 2010.05.17/outbox.cif.g08.bks.cpg/sg59_13_cif.got.tgz:25578.got - 2010.06.03 14:40:33.
