data_PCOD9448906
_publ_section_title
;
Structure prediction by ZEFSAII (Michael W. Deem and Ramdas Pophale) SiO2 
 PCOD9448906
Probable space group: P M M N
;
_chemical_formula_sum "Si O2"
_cell_formula_units_Z 48
_cell_length_a 16.222512
_cell_length_b 8.528708
_cell_length_c 19.560714
_cell_angle_alpha 90.000000
_cell_angle_beta 90.000000
_cell_angle_gamma 90.000000
_cell_volume 2706.363035
_symmetry_space_group_name_H-M "P M M N"
_symmetry_group_IT_number 59
_space_group.IT_coordinate_system_code '2'
_symmetry_cell_setting 'orthorhombic'
loop_
_space_group_symop_operation_xyz
x,y,z
1/2-x,1/2-y,z
1/2+x,-y,-z
-x,1/2+y,-z
-x,-y,-z
1/2+x,1/2+y,-z
1/2-x,y,z
x,1/2-y,z
loop_
_atom_site_type_symbol
_atom_site_label
_atom_site_fract_x
_atom_site_fract_y
_atom_site_fract_z
Si Si1 0.750000 0.066132 0.956697
Si Si2 0.000897 0.437142 0.663062
Si Si3 0.657017 0.560687 0.582183
Si Si4 0.750000 0.563401 0.806531
Si Si5 0.070831 0.561144 0.049093
Si Si6 0.657988 0.940802 0.422353
Si Si7 0.567216 0.936129 0.796586
O O1 0.750000 0.250000 0.973186
O O2 0.839270 0.002151 0.977538
O O3 0.750000 0.039687 0.874973
O O4 0.002659 0.250000 0.661539
O O5 0.918805 0.493717 0.624320
O O6 0.993537 0.492718 0.741038
O O7 0.082568 0.496926 0.624073
O O8 0.750000 0.511475 0.603192
O O9 0.654729 0.750000 0.587427
O O10 0.646537 0.517732 0.502119
O O11 0.750000 0.750000 0.824850
O O12 0.837857 0.533119 0.772078
O O13 0.071860 0.750000 0.049633
O O14 0.059316 0.503107 0.126973
O O15 0.000000 0.500000 0.000000
O O16 0.750000 0.992495 0.401140
O O17 0.657903 0.750000 0.420065
O O18 0.556518 0.750000 0.799498
#
# Coordination Sequence:
#
# PCOD9448906 Si02
#       7
#     4   8   8   4   8   8   8
#     4   8  16  30  50  76 104 132 161 198 247 294
#     4  11  21  31  49  77 105 131 167 216 265 306
#     4   9  18  33  52  73 100 136 173 206 251 313
#     4   8  16  30  48  68  94 130 167 198 235 296
#     4  10  19  34  56  81 108 138 172 212 256 303
#     4   8  16  33  54  72  94 131 176 217 257 306
#     4  10  20  34  51  74 104 139 175 208 250 308
#
# _framework density 17.735980000000001
#
# number of rings (size 3 to 8) (size 9 to 14) (size 15 to 20)
#    0.000    2.667    0.000    3.000    1.167    1.667 
#    0.000    0.833    1.833    4.000    0.000    0.000 
#    0.000    0.000    0.000    0.000    0.000    0.000 
#
# Total GULP energy -267481.341325 kJ/mol
# GULP energy per Si atom -5572.527944 kJ/mol
# Density = 1.769561 g / cm^3
# Si number density = 17.735980 Si / 1000 Ang^3
#
#
#
# Elastic Constant Matrix: (Units=GPa)
#
#
# Indices 1 2 3 4 5 6 
#
# 1 152.3766 29.0997 82.8480 0.0000 0.0000 0.0000
# 2 29.0997 26.3043 21.1670 0.0000 0.0000 0.0000
# 3 82.8480 21.1670 85.1131 0.0000 0.0000 0.0000
# 4 0.0000 0.0000 0.0000 26.3413 0.0000 0.0000
# 5 0.0000 0.0000 0.0000 0.0000 30.4093 0.0000
# 6 0.0000 0.0000 0.0000 0.0000 0.0000 20.9599
#
#
#
# Elastic Compliance Matrix: (Units=1/GPa)
#
#
# Indices 1 2 3 4 5 6 
#
# 1 0.014641 -0.005912 -0.012781 0.000000 0.000000 0.000000
# 2 -0.005912 0.049915 -0.006659 0.000000 0.000000 0.000000
# 3 -0.012781 -0.006659 0.025846 0.000000 0.000000 0.000000
# 4 0.000000 0.000000 0.000000 0.037963 0.000000 0.000000
# 5 0.000000 0.000000 0.000000 0.000000 0.032885 0.000000
# 6 0.000000 0.000000 0.000000 0.000000 0.000000 0.047710
#
#
# Mechanical properties :
#
#
# Convention : Reuss Voigt Hill
#
# Bulk Modulus (GPa) = 25.18999 58.89149 42.04074
# Shear Modulus (GPa) = 18.32199 24.25405 21.28802
#
# Velocity S-wave (km/s) = 3.21758 3.70199 3.46825
# Velocity P-wave (km/s) = 5.29503 7.17981 6.30821
#
# Compressibility (1/GPa) = 0.03969831
#
# Stress axis : x y z
#
# Youngs Moduli (GPa) = 68.30262 20.03396 38.69090
#
# Poissons Ratio (x) = 0.11844 0.49450
# Poissons Ratio (y) = 0.40380 0.25764
# Poissons Ratio (z) = 0.87297 0.13341
#
# Static dielectric constant tensor:
#      x y z
#    x 1.639570 0.000000 0.000000 
#    y 0.000000 1.613310 0.000000 
#    z 0.000000 0.000000 1.581630 
# 
# From -- ./inp_files/27447.got.cif
#   From: 2010.05.17/outbox.cif.g08.bks.cpg/sg59_14_cif.got.tgz:27447.got - 2010.06.03 14:40:33.
