data_PCOD9448757
_publ_section_title
;
Structure prediction by ZEFSAII (Michael W. Deem and Ramdas Pophale) SiO2 
 PCOD9448757
Probable space group: P M M N
;
_chemical_formula_sum "Si O2"
_cell_formula_units_Z 56
_cell_length_a 14.099343
_cell_length_b 21.351404
_cell_length_c 9.606088
_cell_angle_alpha 90.000000
_cell_angle_beta 90.000000
_cell_angle_gamma 90.000000
_cell_volume 2891.824114
_symmetry_space_group_name_H-M "P M M N"
_symmetry_group_IT_number 59
_space_group.IT_coordinate_system_code '2'
_symmetry_cell_setting 'orthorhombic'
loop_
_space_group_symop_operation_xyz
x,y,z
1/2-x,1/2-y,z
1/2+x,-y,-z
-x,1/2+y,-z
-x,-y,-z
1/2+x,1/2+y,-z
1/2-x,y,z
x,1/2-y,z
loop_
_atom_site_type_symbol
_atom_site_label
_atom_site_fract_x
_atom_site_fract_y
_atom_site_fract_z
Si Si1 0.642164 0.111361 0.122948
Si Si2 0.637522 0.922600 0.751681
Si Si3 0.359519 0.122654 0.549065
Si Si4 0.438749 0.943953 0.159101
Si Si5 0.542515 0.819328 0.929774
Si Si6 0.507364 0.318624 0.744518
Si Si7 0.856931 0.980594 0.217427
O O1 0.750000 0.134138 0.121393
O O2 0.562606 0.164227 0.128159
O O3 0.632487 0.055322 0.234599
O O4 0.617682 0.074116 0.979736
O O5 0.750000 0.928184 0.745859
O O6 0.605283 0.893298 0.604773
O O7 0.607435 0.874096 0.870819
O O8 0.596608 0.991494 0.776929
O O9 0.250000 0.143806 0.543000
O O10 0.424929 0.170758 0.632587
O O11 0.361086 0.058830 0.640653
O O12 0.431009 0.882288 0.256532
O O13 0.551507 0.956030 0.133181
O O14 0.573213 0.750000 0.886050
O O15 0.534195 0.819509 0.097552
O O16 0.552503 0.250000 0.726025
O O17 0.750000 0.970413 0.157503
#
# Coordination Sequence:
#
# PCOD9448757 Si02
#       7
#     8   8   8   8   8   8   8
#     4  10  19  33  56  84 112 147 186 233 285 334
#     4  11  23  37  56  84 117 152 189 236 292 343
#     4   9  20  35  53  81 114 146 186 232 282 337
#     4  10  19  34  55  83 118 145 188 233 287 335
#     4  10  22  39  56  82 116 149 190 237 285 343
#     4   9  20  36  57  80 109 146 185 229 279 335
#     4   9  17  30  52  80 110 141 181 229 277 328
#
# _framework density 19.364941000000002
#
# number of rings (size 3 to 8) (size 9 to 14) (size 15 to 20)
#    0.000    2.286    1.429    0.857    4.000    4.286 
#    0.000    2.857    0.000    1.286    0.000    0.000 
#    0.000    2.857    0.000    0.000    0.000    0.000 
#
# Total GULP energy -312074.897202 kJ/mol
# GULP energy per Si atom -5572.766021 kJ/mol
# Density = 1.932087 g / cm^3
# Si number density = 19.364941 Si / 1000 Ang^3
#
#
#
# Elastic Constant Matrix: (Units=GPa)
#
#
# Indices 1 2 3 4 5 6 
#
# 1 57.3967 21.3168 11.3599 0.0000 0.0000 0.0000
# 2 21.3168 134.4127 18.0484 0.0000 0.0000 0.0000
# 3 11.3599 18.0484 32.7113 0.0000 0.0000 0.0000
# 4 0.0000 0.0000 0.0000 0.3801 0.0000 0.0000
# 5 0.0000 0.0000 0.0000 0.0000 17.4133 0.0000
# 6 0.0000 0.0000 0.0000 0.0000 0.0000 7.8726
#
#
#
# Elastic Compliance Matrix: (Units=1/GPa)
#
#
# Indices 1 2 3 4 5 6 
#
# 1 0.019368 -0.002342 -0.005434 0.000000 0.000000 0.000000
# 2 -0.002342 0.008318 -0.003776 0.000000 0.000000 0.000000
# 3 -0.005434 -0.003776 0.034541 0.000000 0.000000 0.000000
# 4 0.000000 0.000000 0.000000 2.630724 0.000000 0.000000
# 5 0.000000 0.000000 0.000000 0.000000 0.057427 0.000000
# 6 0.000000 0.000000 0.000000 0.000000 0.000000 0.127022
#
#
# Mechanical properties :
#
#
# Convention : Reuss Voigt Hill
#
# Bulk Modulus (GPa) = 25.56038 36.21898 30.88968
# Shear Modulus (GPa) = 1.71612 16.71957 9.21785
#
# Velocity S-wave (km/s) = 0.94240 2.94154 2.18413
# Velocity P-wave (km/s) = 3.79633 5.50281 4.72721
#
# Compressibility (1/GPa) = 0.03912306
#
# Stress axis : x y z
#
# Youngs Moduli (GPa) = 51.63188 120.21758 28.95099
#
# Poissons Ratio (x) = 0.28154 0.15732
# Poissons Ratio (y) = 0.12092 0.10933
# Poissons Ratio (z) = 0.28056 0.45397
#
# Static dielectric constant tensor:
#      x y z
#    x 1.691920 0.000000 0.000000 
#    y 0.000000 1.713940 0.000000 
#    z 0.000000 0.000000 1.695730 
# 
# From -- ./inp_files/9355.got.cif
#   From: 2010.05.17/outbox.cif.g08.bks.cpg/sg59_5_cif.got.tgz:9355.got - 2010.06.03 14:40:33.
