data_PCOD9448716
_publ_section_title
;
Structure prediction by ZEFSAII (Michael W. Deem and Ramdas Pophale) SiO2 
 PCOD9448716
Probable space group: P M M N
;
_chemical_formula_sum "Si O2"
_cell_formula_units_Z 40
_cell_length_a 7.564299
_cell_length_b 21.045873
_cell_length_c 11.995909
_cell_angle_alpha 90.000000
_cell_angle_beta 90.000000
_cell_angle_gamma 90.000000
_cell_volume 1909.716037
_symmetry_space_group_name_H-M "P M M N"
_symmetry_group_IT_number 59
_space_group.IT_coordinate_system_code '2'
_symmetry_cell_setting 'orthorhombic'
loop_
_space_group_symop_operation_xyz
x,y,z
1/2-x,1/2-y,z
1/2+x,-y,-z
-x,1/2+y,-z
-x,-y,-z
1/2+x,1/2+y,-z
1/2-x,y,z
x,1/2-y,z
loop_
_atom_site_type_symbol
_atom_site_label
_atom_site_fract_x
_atom_site_fract_y
_atom_site_fract_z
Si Si1 0.466757 0.250000 0.381112
Si Si2 0.033924 0.175289 0.003321
Si Si3 0.465492 0.250000 0.634912
Si Si4 0.538039 0.871399 0.757418
Si Si5 0.457991 0.497769 0.631841
Si Si6 0.466572 0.124383 0.766219
O O1 0.250000 0.250000 0.380785
O O2 0.524643 0.250000 0.508069
O O3 0.526021 0.312859 0.317463
O O4 0.250000 0.176373 0.002889
O O5 0.980460 0.250000 0.000642
O O6 0.974531 0.140687 0.116589
O O7 0.977684 0.136884 0.893466
O O8 0.250000 0.250000 0.635218
O O9 0.520706 0.186670 0.697899
O O10 0.750000 0.866397 0.762520
O O11 0.499391 0.937354 0.696717
O O12 0.500000 0.500000 0.500000
O O13 0.250000 0.489282 0.635379
O O14 0.532626 0.437989 0.701581
O O15 0.250000 0.122813 0.767608
#
# Coordination Sequence:
#
# PCOD9448716 Si02
#       6
#     4   8   4   8   8   8
#     4   9  16  27  48  78 105 135 182 227 262 308
#     4   9  15  28  52  82 110 135 174 228 273 315
#     4   9  14  23  43  70  99 131 172 223 264 300
#     4  10  19  33  55  82 110 141 178 223 271 322
#     4  11  23  38  54  77 111 148 183 226 277 332
#     4   9  17  29  49  77 107 138 176 223 274 318
#
# _framework density 20.945523000000001
#
# number of rings (size 3 to 8) (size 9 to 14) (size 15 to 20)
#    0.000    2.400    2.000    1.800    0.000    4.000 
#    0.000    0.500    0.000    1.200    0.000    2.100 
#    0.000    0.000    0.000    0.000    0.000    0.000 
#
# Total GULP energy -223312.760047 kJ/mol
# GULP energy per Si atom -5582.819001 kJ/mol
# Density = 2.089785 g / cm^3
# Si number density = 20.945523 Si / 1000 Ang^3
#
#
#
# Elastic Constant Matrix: (Units=GPa)
#
#
# Indices 1 2 3 4 5 6 
#
# 1 46.3481 1.6115 7.5126 0.0000 0.0000 0.0000
# 2 1.6115 215.9690 143.1548 0.0000 0.0000 0.0000
# 3 7.5126 143.1548 266.4044 0.0000 0.0000 0.0000
# 4 0.0000 0.0000 0.0000 76.7808 0.0000 0.0000
# 5 0.0000 0.0000 0.0000 0.0000 4.9058 0.0000
# 6 0.0000 0.0000 0.0000 0.0000 0.0000 14.7002
#
#
#
# Elastic Compliance Matrix: (Units=1/GPa)
#
#
# Indices 1 2 3 4 5 6 
#
# 1 0.021695 0.000378 -0.000815 0.000000 0.000000 0.000000
# 2 0.000378 0.007199 -0.003879 0.000000 0.000000 0.000000
# 3 -0.000815 -0.003879 0.005861 0.000000 0.000000 0.000000
# 4 0.000000 0.000000 0.000000 0.013024 0.000000 0.000000
# 5 0.000000 0.000000 0.000000 0.000000 0.203842 0.000000
# 6 0.000000 0.000000 0.000000 0.000000 0.000000 0.068026
#
#
# Mechanical properties :
#
#
# Convention : Reuss Voigt Hill
#
# Bulk Modulus (GPa) = 38.28008 92.58658 65.43333
# Shear Modulus (GPa) = 14.83742 44.37353 29.60548
#
# Velocity S-wave (km/s) = 2.66443 4.60773 3.76367
# Velocity P-wave (km/s) = 5.27080 8.52102 7.08481
#
# Compressibility (1/GPa) = 0.02612325
#
# Stress axis : x y z
#
# Youngs Moduli (GPa) = 46.09394 138.91603 170.61819
#
# Poissons Ratio (x) = -0.05257 0.13908
# Poissons Ratio (y) = -0.01744 0.66181
# Poissons Ratio (z) = 0.03757 0.53884
#
# Static dielectric constant tensor:
#      x y z
#    x 1.811940 0.000000 0.000000 
#    y 0.000000 1.696920 0.000000 
#    z 0.000000 0.000000 1.722440 
# 
# From -- ./inp_files/14128.got.cif
#   From: 2010.05.17/outbox.cif.g08.bks.cpg/sg59_8_cif.got.tgz:14128.got - 2010.06.03 14:40:33.
