data_PCOD9448138
_publ_section_title
;
Structure prediction by ZEFSAII (Michael W. Deem and Ramdas Pophale) SiO2 
 PCOD9448138
Probable space group: P M M N
;
_chemical_formula_sum "Si O2"
_cell_formula_units_Z 40
_cell_length_a 8.520805
_cell_length_b 14.802825
_cell_length_c 17.592384
_cell_angle_alpha 90.000000
_cell_angle_beta 90.000000
_cell_angle_gamma 90.000000
_cell_volume 2218.962320
_symmetry_space_group_name_H-M "P M M N"
_symmetry_group_IT_number 59
_space_group.IT_coordinate_system_code '2'
_symmetry_cell_setting 'orthorhombic'
loop_
_space_group_symop_operation_xyz
x,y,z
1/2-x,1/2-y,z
1/2+x,-y,-z
-x,1/2+y,-z
-x,-y,-z
1/2+x,1/2+y,-z
1/2-x,y,z
x,1/2-y,z
loop_
_atom_site_type_symbol
_atom_site_label
_atom_site_fract_x
_atom_site_fract_y
_atom_site_fract_z
Si Si1 0.938327 0.052483 0.758532
Si Si2 0.568396 0.949362 0.071791
Si Si3 0.929528 0.250000 0.745654
Si Si4 0.438055 0.527397 0.613720
Si Si5 0.560792 0.647202 0.483715
Si Si6 0.928414 0.750000 0.097302
O O1 0.750000 0.055683 0.755132
O O2 0.001303 0.151589 0.729636
O O3 0.988291 0.037853 0.845802
O O4 0.003851 0.979699 0.699905
O O5 0.750000 0.973219 0.081508
O O6 0.557361 0.842686 0.053499
O O7 0.500000 0.000000 0.000000
O O8 0.750000 0.250000 0.718705
O O9 0.941321 0.250000 0.837375
O O10 0.250000 0.530474 0.610585
O O11 0.506357 0.610869 0.565925
O O12 0.492773 0.433724 0.572338
O O13 0.750000 0.648660 0.481026
O O14 0.505744 0.750000 0.467008
O O15 0.750000 0.750000 0.132139
#
# Coordination Sequence:
#
# PCOD9448138 Si02
#       6
#     8   8   4   8   8   4
#     4  10  19  32  50  75 106 138 172 212 257 309
#     4  10  19  33  53  77 104 137 172 212 258 308
#     4   8  16  28  44  70 100 129 162 203 252 298
#     4  10  20  33  52  79 107 136 172 216 258 306
#     4   9  19  36  55  75 103 140 176 211 257 310
#     4   8  16  30  48  70  98 129 162 199 248 304
#
# _framework density 18.026443
#
# number of rings (size 3 to 8) (size 9 to 14) (size 15 to 20)
#    0.000    2.600    0.000    1.800    1.400    2.800 
#    0.000    0.000    2.200    0.000    0.000    0.000 
#    0.000    0.000    0.000    0.000    0.000    0.000 
#
# Total GULP energy -222735.115817 kJ/mol
# GULP energy per Si atom -5568.377895 kJ/mol
# Density = 1.798541 g / cm^3
# Si number density = 18.026443 Si / 1000 Ang^3
#
#
#
# Elastic Constant Matrix: (Units=GPa)
#
#
# Indices 1 2 3 4 5 6 
#
# 1 19.5386 7.6456 -1.9140 0.0000 0.0000 0.0000
# 2 7.6456 46.7944 13.9054 0.0000 0.0000 0.0000
# 3 -1.9140 13.9054 64.6015 0.0000 0.0000 0.0000
# 4 0.0000 0.0000 0.0000 29.3225 0.0000 0.0000
# 5 0.0000 0.0000 0.0000 0.0000 24.5000 0.0000
# 6 0.0000 0.0000 0.0000 0.0000 0.0000 19.9250
#
#
#
# Elastic Compliance Matrix: (Units=1/GPa)
#
#
# Indices 1 2 3 4 5 6 
#
# 1 0.055556 -0.010220 0.003846 0.000000 0.000000 0.000000
# 2 -0.010220 0.024710 -0.005622 0.000000 0.000000 0.000000
# 3 0.003846 -0.005622 0.016804 0.000000 0.000000 0.000000
# 4 0.000000 0.000000 0.000000 0.034103 0.000000 0.000000
# 5 0.000000 0.000000 0.000000 0.000000 0.040816 0.000000
# 6 0.000000 0.000000 0.000000 0.000000 0.000000 0.050188
#
#
# Mechanical properties :
#
#
# Convention : Reuss Voigt Hill
#
# Bulk Modulus (GPa) = 13.68388 18.91207 16.29797
# Shear Modulus (GPa) = 18.48225 22.16933 20.32579
#
# Velocity S-wave (km/s) = 3.20548 3.51069 3.36155
# Velocity P-wave (km/s) = 4.61602 5.19108 4.91197
#
# Compressibility (1/GPa) = 0.07307870
#
# Stress axis : x y z
#
# Youngs Moduli (GPa) = 17.99970 40.46874 59.51137
#
# Poissons Ratio (x) = 0.41359 -0.22887
# Poissons Ratio (y) = 0.18396 0.33455
# Poissons Ratio (z) = -0.06922 0.22750
#
# Static dielectric constant tensor:
#      x y z
#    x 1.631830 0.000000 0.000000 
#    y 0.000000 1.665520 0.000000 
#    z 0.000000 0.000000 1.607320 
# 
# From -- ./inp_files/19947.got.cif
#   From: 2010.05.17/outbox.cif.g08.bks.cpg/sg59_10_cif.got.tgz:19947.got - 2010.06.03 14:40:33.
