data_PCOD9448996
_publ_section_title
;
Structure prediction by ZEFSAII (Michael W. Deem and Ramdas Pophale) SiO2 
 PCOD9448996
Probable space group: P M M N
;
_chemical_formula_sum "Si O2"
_cell_formula_units_Z 64
_cell_length_a 7.648652
_cell_length_b 22.362917
_cell_length_c 15.695749
_cell_angle_alpha 90.000000
_cell_angle_beta 90.000000
_cell_angle_gamma 90.000000
_cell_volume 2684.697749
_symmetry_space_group_name_H-M "P M M N"
_symmetry_group_IT_number 59
_space_group.IT_coordinate_system_code '2'
_symmetry_cell_setting 'orthorhombic'
loop_
_space_group_symop_operation_xyz
x,y,z
1/2-x,1/2-y,z
1/2+x,-y,-z
-x,1/2+y,-z
-x,-y,-z
1/2+x,1/2+y,-z
1/2-x,y,z
x,1/2-y,z
loop_
_atom_site_type_symbol
_atom_site_label
_atom_site_fract_x
_atom_site_fract_y
_atom_site_fract_z
Si Si1 0.454282 0.976428 0.324636
Si Si2 0.954810 0.496008 0.870354
Si Si3 0.550092 0.656647 0.291499
Si Si4 0.048430 0.360255 0.893061
Si Si5 0.950257 0.313242 0.526421
Si Si6 0.454757 0.091942 0.399161
Si Si7 0.536047 0.682121 0.746157
Si Si8 0.464756 0.124734 0.075132
O O1 0.250000 0.961156 0.342295
O O2 0.462662 0.007398 0.231351
O O3 0.549187 0.914016 0.312632
O O4 0.527046 0.025001 0.390722
O O5 0.750000 0.487720 0.891240
O O6 0.021200 0.555346 0.916666
O O7 0.045209 0.432868 0.887720
O O8 0.750000 0.677699 0.290576
O O9 0.471546 0.662611 0.196483
O O10 0.457677 0.685152 0.371840
O O11 0.250000 0.340403 0.892796
O O12 0.973833 0.346857 0.986180
O O13 0.750000 0.314063 0.499204
O O14 0.031595 0.250000 0.497035
O O15 0.031443 0.372556 0.486867
O O16 0.250000 0.083578 0.379808
O O17 0.525469 0.136857 0.326983
O O18 0.750000 0.681792 0.744254
O O19 0.479235 0.750000 0.730969
O O20 0.483810 0.659402 0.839733
O O21 0.250000 0.123720 0.073399
#
# Coordination Sequence:
#
# PCOD9448996 Si02
#       8
#     8   8   8   8   8   8   8   8
#     4   9  17  31  53  82 115 147 176 212 264 322
#     4   9  15  26  46  72 105 142 176 208 249 307
#     4  10  21  37  56  80 110 144 182 226 271 316
#     4   9  18  30  47  74 107 137 173 219 263 303
#     4  11  25  43  61  80 102 134 178 225 275 328
#     4  10  19  34  58  86 111 138 175 218 265 319
#     4   9  16  27  47  76 108 141 177 216 260 313
#     4   9  15  26  44  70 105 141 175 213 255 303
#
# _framework density 23.838809999999999
#
# number of rings (size 3 to 8) (size 9 to 14) (size 15 to 20)
#    0.000    2.500    1.250    1.500    0.000    3.000 
#    0.000    0.625    0.000    3.000    0.000    0.000 
#    0.000    0.000    0.000    0.000    0.000    0.000 
#
# Total GULP energy -357384.628476 kJ/mol
# GULP energy per Si atom -5584.134820 kJ/mol
# Density = 2.378455 g / cm^3
# Si number density = 23.838810 Si / 1000 Ang^3
#
#
#
# Elastic Constant Matrix: (Units=GPa)
#
#
# Indices 1 2 3 4 5 6 
#
# 1 51.1832 1.1759 -1.8513 0.0000 0.0000 0.0000
# 2 1.1759 51.7319 16.5444 0.0000 0.0000 0.0000
# 3 -1.8513 16.5444 112.7199 0.0000 0.0000 0.0000
# 4 0.0000 0.0000 0.0000 3.8844 0.0000 0.0000
# 5 0.0000 0.0000 0.0000 0.0000 4.7683 0.0000
# 6 0.0000 0.0000 0.0000 0.0000 0.0000 -39.6493
#
#
#
# Elastic Compliance Matrix: (Units=1/GPa)
#
#
# Indices 1 2 3 4 5 6 
#
# 1 0.019566 -0.000574 0.000406 0.000000 0.000000 0.000000
# 2 -0.000574 0.020299 -0.002989 0.000000 0.000000 0.000000
# 3 0.000406 -0.002989 0.009317 0.000000 0.000000 0.000000
# 4 0.000000 0.000000 0.000000 0.257437 0.000000 0.000000
# 5 0.000000 0.000000 0.000000 0.000000 0.209720 0.000000
# 6 0.000000 0.000000 0.000000 0.000000 0.000000 -0.025221
#
#
# Mechanical properties :
#
#
# Convention : Reuss Voigt Hill
#
# Bulk Modulus (GPa) = 23.32827 27.48589 25.40708
# Shear Modulus (GPa) = 9.77093 7.11841 8.44467
#
# Velocity S-wave (km/s) = 2.02673 1.72990 1.88417
# Velocity P-wave (km/s) = 3.90947 3.94271 3.92613
#
# Compressibility (1/GPa) = 0.04286644
#
# Stress axis : x y z
#
# Youngs Moduli (GPa) = 51.11027 49.26266 107.33184
#
# Poissons Ratio (x) = 0.02830 -0.04354
# Poissons Ratio (y) = 0.02936 0.32080
# Poissons Ratio (z) = -0.02073 0.14724
#
# Static dielectric constant tensor:
#      x y z
#    x 1.894070 0.000000 0.000000 
#    y 0.000000 1.921230 0.000000 
#    z 0.000000 0.000000 1.941330 
# 
# From -- ./inp_files/21436.got.cif
#   From: 2010.05.17/outbox.cif.g08.bks.cpg/sg59_11_cif.got.tgz:21436.got - 2010.06.03 14:40:33.
