data_PCOD9448276
_publ_section_title
;
Structure prediction by ZEFSAII (Michael W. Deem and Ramdas Pophale) SiO2 
 PCOD9448276
Probable space group: P M M N
;
_chemical_formula_sum "Si O2"
_cell_formula_units_Z 56
_cell_length_a 8.974912
_cell_length_b 24.739191
_cell_length_c 15.191372
_cell_angle_alpha 90.000000
_cell_angle_beta 90.000000
_cell_angle_gamma 90.000000
_cell_volume 3372.971652
_symmetry_space_group_name_H-M "P M M N"
_symmetry_group_IT_number 59
_space_group.IT_coordinate_system_code '2'
_symmetry_cell_setting 'orthorhombic'
loop_
_space_group_symop_operation_xyz
x,y,z
1/2-x,1/2-y,z
1/2+x,-y,-z
-x,1/2+y,-z
-x,-y,-z
1/2+x,1/2+y,-z
1/2-x,y,z
x,1/2-y,z
loop_
_atom_site_type_symbol
_atom_site_label
_atom_site_fract_x
_atom_site_fract_y
_atom_site_fract_z
Si Si1 0.428542 0.936120 0.868096
Si Si2 0.571621 0.750000 0.783246
Si Si3 0.571834 0.357854 0.293687
Si Si4 0.570381 0.362960 0.963958
Si Si5 0.426397 0.419611 0.448240
Si Si6 0.928043 0.750000 0.991392
Si Si7 0.072322 0.541546 0.379485
Si Si8 0.429454 0.951525 0.177085
O O1 0.250000 0.943063 0.872078
O O2 0.465627 0.903914 0.778661
O O3 0.504034 0.994456 0.866018
O O4 0.472627 0.898566 0.950373
O O5 0.750000 0.750000 0.774753
O O6 0.502921 0.802931 0.738857
O O7 0.534141 0.750000 0.887125
O O8 0.750000 0.352119 0.295455
O O9 0.510206 0.376834 0.387410
O O10 0.750000 0.356392 0.966257
O O11 0.530072 0.398849 0.879192
O O12 0.495373 0.304618 0.968181
O O13 0.250000 0.409927 0.447703
O O14 0.488247 0.423661 0.547073
O O15 0.453701 0.478762 0.404682
O O16 0.750000 0.750000 0.999894
O O17 0.250000 0.551086 0.386205
O O18 0.024064 0.551437 0.279237
O O19 0.250000 0.956388 0.175464
#
# Coordination Sequence:
#
# PCOD9448276 Si02
#       8
#     8   4   8   8   8   4   8   8
#     4  10  20  32  50  78 111 144 176 213 262 321
#     4  11  23  37  55  78 105 140 183 225 266 314
#     4  11  21  34  54  79 109 144 177 216 266 320
#     4  10  21  37  55  76 106 144 182 221 267 319
#     4  10  19  32  52  77 106 140 174 217 265 313
#     4  11  23  37  55  78 103 138 183 229 268 306
#     4   9  18  32  50  76 107 138 175 218 262 316
#     4  10  20  34  54  79 109 144 180 221 269 319
#
# _framework density 16.60257
#
# number of rings (size 3 to 8) (size 9 to 14) (size 15 to 20)
#    0.000    1.857    2.857    1.714    0.000    3.429 
#    0.000    0.000    0.000    0.857    0.000    4.000 
#    0.000    0.000    0.000    0.000    0.000    0.000 
#
# Total GULP energy -312650.637218 kJ/mol
# GULP energy per Si atom -5583.047093 kJ/mol
# Density = 1.656478 g / cm^3
# Si number density = 16.602570 Si / 1000 Ang^3
#
#
#
# Elastic Constant Matrix: (Units=GPa)
#
#
# Indices 1 2 3 4 5 6 
#
# 1 31.5308 52.4572 33.8371 0.0000 0.0000 0.0000
# 2 52.4572 134.0943 67.8248 0.0000 0.0000 0.0000
# 3 33.8371 67.8248 105.6489 0.0000 0.0000 0.0000
# 4 0.0000 0.0000 0.0000 20.9132 0.0000 0.0000
# 5 0.0000 0.0000 0.0000 0.0000 22.2879 0.0000
# 6 0.0000 0.0000 0.0000 0.0000 0.0000 31.1757
#
#
#
# Elastic Compliance Matrix: (Units=1/GPa)
#
#
# Indices 1 2 3 4 5 6 
#
# 1 0.097448 -0.033075 -0.009977 0.000000 0.000000 0.000000
# 2 -0.033075 0.022269 -0.003703 0.000000 0.000000 0.000000
# 3 -0.009977 -0.003703 0.015038 0.000000 0.000000 0.000000
# 4 0.000000 0.000000 0.000000 0.047817 0.000000 0.000000
# 5 0.000000 0.000000 0.000000 0.000000 0.044867 0.000000
# 6 0.000000 0.000000 0.000000 0.000000 0.000000 0.032076
#
#
# Mechanical properties :
#
#
# Convention : Reuss Voigt Hill
#
# Bulk Modulus (GPa) = 24.24529 64.39025 44.31777
# Shear Modulus (GPa) = 13.63232 22.68567 18.15899
#
# Velocity S-wave (km/s) = 2.86859 3.70049 3.31077
# Velocity P-wave (km/s) = 5.06031 7.55815 6.43166
#
# Compressibility (1/GPa) = 0.04124512
#
# Stress axis : x y z
#
# Youngs Moduli (GPa) = 10.26186 44.90456 66.49720
#
# Poissons Ratio (x) = 1.48522 0.66344
# Poissons Ratio (y) = 0.33941 0.24626
# Poissons Ratio (z) = 0.10238 0.16630
#
# Static dielectric constant tensor:
#      x y z
#    x 1.548590 0.000000 0.000000 
#    y 0.000000 1.526220 0.000000 
#    z 0.000000 0.000000 1.558380 
# 
# From -- ./inp_files/21120.got.cif
#   From: 2010.05.17/outbox.cif.g08.bks.cpg/sg59_11_cif.got.tgz:21120.got - 2010.06.03 14:40:33.
