data_PCOD9448238
_publ_section_title
;
Structure prediction by ZEFSAII (Michael W. Deem and Ramdas Pophale) SiO2 
 PCOD9448238
Probable space group: P M M N
;
_chemical_formula_sum "Si O2"
_cell_formula_units_Z 64
_cell_length_a 8.840612
_cell_length_b 27.899259
_cell_length_c 14.779213
_cell_angle_alpha 90.000000
_cell_angle_beta 90.000000
_cell_angle_gamma 90.000000
_cell_volume 3645.241513
_symmetry_space_group_name_H-M "P M M N"
_symmetry_group_IT_number 59
_space_group.IT_coordinate_system_code '2'
_symmetry_cell_setting 'orthorhombic'
loop_
_space_group_symop_operation_xyz
x,y,z
1/2-x,1/2-y,z
1/2+x,-y,-z
-x,1/2+y,-z
-x,-y,-z
1/2+x,1/2+y,-z
1/2-x,y,z
x,1/2-y,z
loop_
_atom_site_type_symbol
_atom_site_label
_atom_site_fract_x
_atom_site_fract_y
_atom_site_fract_z
Si Si1 0.430855 0.948631 0.608177
Si Si2 0.425751 0.370662 0.261079
Si Si3 0.569061 0.305044 0.904171
Si Si4 0.567998 0.053288 0.599499
Si Si5 0.431831 0.642985 0.274971
Si Si6 0.918125 0.693141 0.433039
Si Si7 0.082836 0.807148 0.607352
Si Si8 0.932633 0.804476 0.898085
O O1 0.250000 0.948794 0.611312
O O2 0.492934 0.913875 0.686446
O O3 0.476560 0.934007 0.504678
O O4 0.493677 0.002232 0.620566
O O5 0.250000 0.382715 0.250638
O O6 0.451981 0.326448 0.329198
O O7 0.485456 0.347534 0.167442
O O8 0.750000 0.307459 0.918420
O O9 0.535751 0.250000 0.873288
O O10 0.528957 0.344495 0.828495
O O11 0.487452 0.312056 0.999717
O O12 0.750000 0.048307 0.599822
O O13 0.528843 0.092872 0.675414
O O14 0.250000 0.648866 0.283060
O O15 0.519290 0.681298 0.335350
O O16 0.750000 0.672700 0.447838
O O17 0.907714 0.750000 0.444092
O O18 0.040593 0.676835 0.506535
O O19 0.250000 0.825440 0.633042
O O20 0.087387 0.750000 0.611045
O O21 0.750000 0.804496 0.894437
O O22 0.982657 0.750000 0.870705
#
# Coordination Sequence:
#
# PCOD9448238 Si02
#       8
#     8   8   8   8   8   8   8   8
#     4  10  20  34  53  77 104 134 170 210 253 304
#     4  11  21  33  52  75 100 131 168 210 255 305
#     4   9  18  32  51  76 104 134 169 210 255 302
#     4   9  19  35  53  74 102 135 169 207 254 305
#     4  10  19  32  52  75 100 132 170 211 256 307
#     4  10  20  31  44  67 100 136 171 205 243 293
#     4  10  20  32  46  67  98 134 168 203 245 295
#     4   9  19  35  53  74 102 136 171 208 253 304
#
# _framework density 17.557134999999999
#
# number of rings (size 3 to 8) (size 9 to 14) (size 15 to 20)
#    0.000    2.250    0.000    3.000    0.000    6.000 
#    0.000    2.500    0.000    0.750    0.000    0.000 
#    0.000    0.000    0.000    0.000    0.000    0.000 
#
# Total GULP energy -356600.020768 kJ/mol
# GULP energy per Si atom -5571.875324 kJ/mol
# Density = 1.751717 g / cm^3
# Si number density = 17.557135 Si / 1000 Ang^3
#
#
#
# Elastic Constant Matrix: (Units=GPa)
#
#
# Indices 1 2 3 4 5 6 
#
# 1 13.7516 29.8625 20.3274 0.0000 0.0000 0.0000
# 2 29.8625 87.7561 53.2611 0.0000 0.0000 0.0000
# 3 20.3274 53.2611 98.1903 0.0000 0.0000 0.0000
# 4 0.0000 0.0000 0.0000 31.8790 0.0000 0.0000
# 5 0.0000 0.0000 0.0000 0.0000 1.2979 0.0000
# 6 0.0000 0.0000 0.0000 0.0000 0.0000 26.1359
#
#
#
# Elastic Compliance Matrix: (Units=1/GPa)
#
#
# Indices 1 2 3 4 5 6 
#
# 1 0.284412 -0.091008 -0.009514 0.000000 0.000000 0.000000
# 2 -0.091008 0.046109 -0.006170 0.000000 0.000000 0.000000
# 3 -0.009514 -0.006170 0.015501 0.000000 0.000000 0.000000
# 4 0.000000 0.000000 0.000000 0.031369 0.000000 0.000000
# 5 0.000000 0.000000 0.000000 0.000000 0.770455 0.000000
# 6 0.000000 0.000000 0.000000 0.000000 0.000000 0.038262
#
#
# Mechanical properties :
#
#
# Convention : Reuss Voigt Hill
#
# Bulk Modulus (GPa) = 7.53936 45.17779 26.35857
# Shear Modulus (GPa) = 3.46331 18.27905 10.87118
#
# Velocity S-wave (km/s) = 1.40601 3.23014 2.49105
# Velocity P-wave (km/s) = 2.63426 6.30075 4.82902
#
# Compressibility (1/GPa) = 0.13263727
#
# Stress axis : x y z
#
# Youngs Moduli (GPa) = 3.51602 21.68759 64.51276
#
# Poissons Ratio (x) = 1.97375 0.61376
# Poissons Ratio (y) = 0.31999 0.39806
# Poissons Ratio (z) = 0.03345 0.13382
#
# Static dielectric constant tensor:
#      x y z
#    x 1.608440 0.000000 0.000000 
#    y 0.000000 1.617260 0.000000 
#    z 0.000000 0.000000 1.597380 
# 
# From -- ./inp_files/14873.got.cif
#   From: 2010.05.17/outbox.cif.g08.bks.cpg/sg59_8_cif.got.tgz:14873.got - 2010.06.03 14:40:33.
