data_PCOD9448837
_publ_section_title
;
Structure prediction by ZEFSAII (Michael W. Deem and Ramdas Pophale) SiO2 
 PCOD9448837
Probable space group: P M M N
;
_chemical_formula_sum "Si O2"
_cell_formula_units_Z 64
_cell_length_a 7.820452
_cell_length_b 20.391563
_cell_length_c 19.385209
_cell_angle_alpha 90.000000
_cell_angle_beta 90.000000
_cell_angle_gamma 90.000000
_cell_volume 3091.383310
_symmetry_space_group_name_H-M "P M M N"
_symmetry_group_IT_number 59
_space_group.IT_coordinate_system_code '2'
_symmetry_cell_setting 'orthorhombic'
loop_
_space_group_symop_operation_xyz
x,y,z
1/2-x,1/2-y,z
1/2+x,-y,-z
-x,1/2+y,-z
-x,-y,-z
1/2+x,1/2+y,-z
1/2-x,y,z
x,1/2-y,z
loop_
_atom_site_type_symbol
_atom_site_label
_atom_site_fract_x
_atom_site_fract_y
_atom_site_fract_z
Si Si1 0.456968 0.483241 0.708625
Si Si2 0.543392 0.926335 0.921565
Si Si3 0.545180 0.437657 0.861534
Si Si4 0.453301 0.181359 0.179189
Si Si5 0.043781 0.630584 0.679901
Si Si6 0.043338 0.823735 0.529897
Si Si7 0.544621 0.174613 0.955433
Si Si8 0.049086 0.053878 0.558026
O O1 0.250000 0.481990 0.709232
O O2 0.511154 0.452263 0.781248
O O3 0.514859 0.558606 0.702321
O O4 0.521062 0.453305 0.635805
O O5 0.750000 0.930605 0.922400
O O6 0.479473 0.884054 0.856064
O O7 0.480232 0.000918 0.909155
O O8 0.494316 0.877800 0.983804
O O9 0.750000 0.437224 0.869996
O O10 0.482568 0.366993 0.888681
O O11 0.250000 0.181240 0.167430
O O12 0.523282 0.250000 0.150122
O O13 0.487012 0.178256 0.259889
O O14 0.250000 0.630176 0.677530
O O15 0.982064 0.650929 0.604535
O O16 0.250000 0.822894 0.532497
O O17 0.983157 0.750000 0.517461
O O18 0.991034 0.875539 0.472846
O O19 0.750000 0.180375 0.952263
O O20 0.478530 0.250000 0.962999
O O21 0.250000 0.044994 0.565412
O O22 0.000000 0.000000 0.500000
#
# Coordination Sequence:
#
# PCOD9448837 Si02
#       8
#     8   8   8   8   8   8   8   8
#     4  10  21  37  58  85 113 144 187 236 282 333
#     4  10  20  35  56  82 111 145 184 225 275 329
#     4  10  21  38  60  84 112 146 185 233 282 331
#     4  10  20  32  47  74 113 149 182 222 269 326
#     4  10  19  34  54  77 110 148 185 226 275 333
#     4  10  21  38  58  83 117 153 190 235 290 348
#     4  10  22  39  58  83 113 145 185 232 281 333
#     4  11  22  38  60  85 116 151 193 240 286 338
#
# _framework density 20.702705000000002
#
# number of rings (size 3 to 8) (size 9 to 14) (size 15 to 20)
#    0.000    1.875    2.500    1.500    0.000    4.750 
#    0.000    0.625    0.000    2.250    0.000    0.000 
#    0.000    0.000    0.000    0.000    0.000    0.000 
#
# Total GULP energy -356959.714581 kJ/mol
# GULP energy per Si atom -5577.495540 kJ/mol
# Density = 2.065558 g / cm^3
# Si number density = 20.702705 Si / 1000 Ang^3
#
#
#
# Elastic Constant Matrix: (Units=GPa)
#
#
# Indices 1 2 3 4 5 6 
#
# 1 23.0022 9.2070 -0.6012 0.0000 0.0000 0.0000
# 2 9.2070 149.6742 89.2396 0.0000 0.0000 0.0000
# 3 -0.6012 89.2396 122.1178 0.0000 0.0000 0.0000
# 4 0.0000 0.0000 0.0000 39.5570 0.0000 0.0000
# 5 0.0000 0.0000 0.0000 0.0000 26.5351 0.0000
# 6 0.0000 0.0000 0.0000 0.0000 0.0000 15.9313
#
#
#
# Elastic Compliance Matrix: (Units=1/GPa)
#
#
# Indices 1 2 3 4 5 6 
#
# 1 0.045667 -0.005216 0.004036 0.000000 0.000000 0.000000
# 2 -0.005216 0.012435 -0.009113 0.000000 0.000000 0.000000
# 3 0.004036 -0.009113 0.014868 0.000000 0.000000 0.000000
# 4 0.000000 0.000000 0.000000 0.025280 0.000000 0.000000
# 5 0.000000 0.000000 0.000000 0.000000 0.037686 0.000000
# 6 0.000000 0.000000 0.000000 0.000000 0.000000 0.062770
#
#
# Mechanical properties :
#
#
# Convention : Reuss Voigt Hill
#
# Bulk Modulus (GPa) = 19.08913 54.49835 36.79374
# Shear Modulus (GPa) = 21.11901 29.53458 25.32680
#
# Velocity S-wave (km/s) = 3.19738 3.78114 3.50145
# Velocity P-wave (km/s) = 4.78242 6.74122 5.84447
#
# Compressibility (1/GPa) = 0.05238584
#
# Stress axis : x y z
#
# Youngs Moduli (GPa) = 21.89756 80.41501 67.25740
#
# Poissons Ratio (x) = 0.41942 -0.27147
# Poissons Ratio (y) = 0.11421 0.61292
# Poissons Ratio (z) = -0.08838 0.73283
#
# Static dielectric constant tensor:
#      x y z
#    x 1.756080 0.000000 0.000000 
#    y 0.000000 1.764540 0.000000 
#    z 0.000000 0.000000 1.766070 
# 
# From -- ./inp_files/26211.got.cif
#   From: 2010.05.17/outbox.cif.g08.bks.cpg/sg59_14_cif.got.tgz:26211.got - 2010.06.03 14:40:33.
