data_PCOD9448359
_publ_section_title
;
Structure prediction by ZEFSAII (Michael W. Deem and Ramdas Pophale) SiO2 
 PCOD9448359
Probable space group: P M M N
;
_chemical_formula_sum "Si O2"
_cell_formula_units_Z 40
_cell_length_a 15.560814
_cell_length_b 18.150705
_cell_length_c 7.824527
_cell_angle_alpha 90.000000
_cell_angle_beta 90.000000
_cell_angle_gamma 90.000000
_cell_volume 2209.957407
_symmetry_space_group_name_H-M "P M M N"
_symmetry_group_IT_number 59
_space_group.IT_coordinate_system_code '2'
_symmetry_cell_setting 'orthorhombic'
loop_
_space_group_symop_operation_xyz
x,y,z
1/2-x,1/2-y,z
1/2+x,-y,-z
-x,1/2+y,-z
-x,-y,-z
1/2+x,1/2+y,-z
1/2-x,y,z
x,1/2-y,z
loop_
_atom_site_type_symbol
_atom_site_label
_atom_site_fract_x
_atom_site_fract_y
_atom_site_fract_z
Si Si1 0.923000 0.514903 0.724027
Si Si2 0.656001 0.831198 0.175660
Si Si3 0.652962 0.077637 0.037924
Si Si4 0.984332 0.665148 0.878731
Si Si5 0.116273 0.475697 0.647008
O O1 0.879210 0.478367 0.889231
O O2 0.948119 0.600659 0.755345
O O3 0.870009 0.505308 0.550235
O O4 0.014266 0.475846 0.688101
O O5 0.750000 0.837335 0.089039
O O6 0.650245 0.750000 0.253487
O O7 0.649720 0.895086 0.312003
O O8 0.580385 0.838243 0.039056
O O9 0.750000 0.103415 0.001202
O O10 0.579410 0.139349 0.062252
O O11 0.653669 0.032262 0.215350
O O12 0.985023 0.750000 0.815820
#
# Coordination Sequence:
#
# PCOD9448359 Si02
#       5
#     8   8   8   8   8
#     4  10  20  35  57  83 106 143 190 229 279 330
#     4  10  19  32  53  79 109 143 176 220 279 331
#     4  11  21  36  57  82 115 149 186 232 278 328
#     4  10  20  37  57  81 114 148 186 228 273 333
#     4  10  19  35  56  80 109 141 184 234 279 324
#
# _framework density 18.099896999999999
#
# number of rings (size 3 to 8) (size 9 to 14) (size 15 to 20)
#    0.000    1.800    4.000    1.800    0.000    2.800 
#    0.000    0.000    0.000    2.400    0.000    2.800 
#    0.000    0.000    0.000    0.000    0.000    0.000 
#
# Total GULP energy -222935.972790 kJ/mol
# GULP energy per Si atom -5573.399320 kJ/mol
# Density = 1.805870 g / cm^3
# Si number density = 18.099897 Si / 1000 Ang^3
#
#
#
# Elastic Constant Matrix: (Units=GPa)
#
#
# Indices 1 2 3 4 5 6 
#
# 1 98.5269 23.4366 24.3597 0.0000 0.0000 0.0000
# 2 23.4366 89.3660 28.0389 0.0000 0.0000 0.0000
# 3 24.3597 28.0389 84.4975 0.0000 0.0000 0.0000
# 4 0.0000 0.0000 0.0000 11.5295 0.0000 0.0000
# 5 0.0000 0.0000 0.0000 0.0000 10.5208 0.0000
# 6 0.0000 0.0000 0.0000 0.0000 0.0000 70.1334
#
#
#
# Elastic Compliance Matrix: (Units=1/GPa)
#
#
# Indices 1 2 3 4 5 6 
#
# 1 0.011292 -0.002165 -0.002537 0.000000 0.000000 0.000000
# 2 -0.002165 0.012906 -0.003658 0.000000 0.000000 0.000000
# 3 -0.002537 -0.003658 0.013780 0.000000 0.000000 0.000000
# 4 0.000000 0.000000 0.000000 0.086734 0.000000 0.000000
# 5 0.000000 0.000000 0.000000 0.000000 0.095050 0.000000
# 6 0.000000 0.000000 0.000000 0.000000 0.000000 0.014259
#
#
# Mechanical properties :
#
#
# Convention : Reuss Voigt Hill
#
# Bulk Modulus (GPa) = 47.04435 47.11787 47.08111
# Shear Modulus (GPa) = 19.39294 31.54043 25.46669
#
# Velocity S-wave (km/s) = 3.27684 4.17895 3.75508
# Velocity P-wave (km/s) = 6.35333 7.02662 6.69844
#
# Compressibility (1/GPa) = 0.02125654
#
# Stress axis : x y z
#
# Youngs Moduli (GPa) = 88.56003 77.48574 72.56954
#
# Poissons Ratio (x) = 0.16779 0.18409
# Poissons Ratio (y) = 0.19177 0.26547
# Poissons Ratio (z) = 0.22465 0.28346
#
# Static dielectric constant tensor:
#      x y z
#    x 1.653130 0.000000 0.000000 
#    y 0.000000 1.616410 0.000000 
#    z 0.000000 0.000000 1.612680 
# 
# From -- ./inp_files/8800.got.cif
#   From: 2010.05.17/outbox.cif.g08.bks.cpg/sg59_5_cif.got.tgz:8800.got - 2010.06.03 14:40:33.
