data_PCOD9448574
_publ_section_title
;
Structure prediction by ZEFSAII (Michael W. Deem and Ramdas Pophale) SiO2 
 PCOD9448574
Probable space group: P M M N
;
_chemical_formula_sum "Si O2"
_cell_formula_units_Z 64
_cell_length_a 18.222207
_cell_length_b 8.663485
_cell_length_c 23.213647
_cell_angle_alpha 90.000000
_cell_angle_beta 90.000000
_cell_angle_gamma 90.000000
_cell_volume 3664.687777
_symmetry_space_group_name_H-M "P M M N"
_symmetry_group_IT_number 59
_space_group.IT_coordinate_system_code '2'
_symmetry_cell_setting 'orthorhombic'
loop_
_space_group_symop_operation_xyz
x,y,z
1/2-x,1/2-y,z
1/2+x,-y,-z
-x,1/2+y,-z
-x,-y,-z
1/2+x,1/2+y,-z
1/2-x,y,z
x,1/2-y,z
loop_
_atom_site_type_symbol
_atom_site_label
_atom_site_fract_x
_atom_site_fract_y
_atom_site_fract_z
Si Si1 0.832971 0.937691 0.057801
Si Si2 0.965694 0.564162 0.378308
Si Si3 0.936007 0.564813 0.958852
Si Si4 0.984888 0.933274 0.742835
Si Si5 0.831578 0.063572 0.705989
Si Si6 0.330693 0.435791 0.544938
Si Si7 0.125286 0.933926 0.423025
Si Si8 0.470350 0.065088 0.862826
O O1 0.750000 0.992524 0.068628
O O2 0.831847 0.750000 0.060343
O O3 0.896020 0.987012 0.103400
O O4 0.862213 0.978198 0.993579
O O5 0.962241 0.750000 0.370444
O O6 0.895051 0.508498 0.413178
O O7 0.977150 0.489031 0.316194
O O8 0.038887 0.533066 0.415374
O O9 0.939679 0.750000 0.956139
O O10 0.958297 0.496195 0.897490
O O11 0.000000 0.500000 0.000000
O O12 0.986291 0.750000 0.746617
O O13 0.900403 0.990574 0.738551
O O14 0.024248 0.005594 0.798125
O O15 0.750000 0.020834 0.726351
O O16 0.838831 0.250000 0.708821
O O17 0.839213 0.021024 0.638202
O O18 0.250000 0.488892 0.563248
O O19 0.332477 0.250000 0.546905
O O20 0.344209 0.485570 0.479357
O O21 0.135542 0.750000 0.429330
O O22 0.471158 0.250000 0.864295
#
# Coordination Sequence:
#
# PCOD9448574 Si02
#       8
#     8   8   8   8   8   8   8   8
#     4   8  15  29  51  79 105 130 165 208 250 289
#     4   9  19  36  52  67  94 131 169 206 249 305
#     4   9  16  28  49  75 103 132 161 198 243 293
#     4  11  22  35  53  75  99 130 172 215 251 294
#     4   9  18  34  54  75 101 131 162 200 250 306
#     4  10  20  32  48  72  99 126 160 206 256 304
#     4   9  17  30  50  73  96 125 158 194 245 309
#     4  10  19  33  54  75 100 136 174 210 249 299
#
# _framework density 17.46397
#
# number of rings (size 3 to 8) (size 9 to 14) (size 15 to 20)
#    0.000    2.625    0.000    4.125    0.000    3.500 
#    0.000    1.250    0.000   19.500    0.000    0.000 
#    0.000    0.000    0.000    0.000    0.000    0.000 
#
# Total GULP energy -356698.496937 kJ/mol
# GULP energy per Si atom -5573.414015 kJ/mol
# Density = 1.742422 g / cm^3
# Si number density = 17.463970 Si / 1000 Ang^3
#
#
#
# Elastic Constant Matrix: (Units=GPa)
#
#
# Indices 1 2 3 4 5 6 
#
# 1 114.3680 27.5208 41.6670 0.0000 0.0000 0.0000
# 2 27.5208 31.2903 15.3235 0.0000 0.0000 0.0000
# 3 41.6670 15.3235 59.5361 0.0000 0.0000 0.0000
# 4 0.0000 0.0000 0.0000 29.9095 0.0000 0.0000
# 5 0.0000 0.0000 0.0000 0.0000 15.7277 0.0000
# 6 0.0000 0.0000 0.0000 0.0000 0.0000 16.4849
#
#
#
# Elastic Compliance Matrix: (Units=1/GPa)
#
#
# Indices 1 2 3 4 5 6 
#
# 1 0.013353 -0.008202 -0.007234 0.000000 0.000000 0.000000
# 2 -0.008202 0.041605 -0.004969 0.000000 0.000000 0.000000
# 3 -0.007234 -0.004969 0.023138 0.000000 0.000000 0.000000
# 4 0.000000 0.000000 0.000000 0.033434 0.000000 0.000000
# 5 0.000000 0.000000 0.000000 0.000000 0.063582 0.000000
# 6 0.000000 0.000000 0.000000 0.000000 0.000000 0.060662
#
#
# Mechanical properties :
#
#
# Convention : Reuss Voigt Hill
#
# Bulk Modulus (GPa) = 26.81823 41.57966 34.19894
# Shear Modulus (GPa) = 17.30029 20.46996 18.88512
#
# Velocity S-wave (km/s) = 3.15084 3.42735 3.29200
# Velocity P-wave (km/s) = 5.35039 6.28671 5.83736
#
# Compressibility (1/GPa) = 0.03728807
#
# Stress axis : x y z
#
# Youngs Moduli (GPa) = 74.89017 24.03530 43.21840
#
# Poissons Ratio (x) = 0.19713 0.31265
# Poissons Ratio (y) = 0.61421 0.21473
# Poissons Ratio (z) = 0.54177 0.11942
#
# Static dielectric constant tensor:
#      x y z
#    x 1.617880 0.000000 0.000000 
#    y 0.000000 1.590830 0.000000 
#    z 0.000000 0.000000 1.567770 
# 
# From -- ./inp_files/30647.got.cif
#   From: 2010.05.17/outbox.cif.g08.bks.cpg/sg59_16_cif.got.tgz:30647.got - 2010.06.03 14:40:33.
