data_PCOD9448094
_publ_section_title
;
Structure prediction by ZEFSAII (Michael W. Deem and Ramdas Pophale) SiO2 
 PCOD9448094
Probable space group: P M M N
;
_chemical_formula_sum "Si O2"
_cell_formula_units_Z 64
_cell_length_a 7.576074
_cell_length_b 28.775752
_cell_length_c 13.215987
_cell_angle_alpha 90.000000
_cell_angle_beta 90.000000
_cell_angle_gamma 90.000000
_cell_volume 2881.180672
_symmetry_space_group_name_H-M "P M M N"
_symmetry_group_IT_number 59
_space_group.IT_coordinate_system_code '2'
_symmetry_cell_setting 'orthorhombic'
loop_
_space_group_symop_operation_xyz
x,y,z
1/2-x,1/2-y,z
1/2+x,-y,-z
-x,1/2+y,-z
-x,-y,-z
1/2+x,1/2+y,-z
1/2-x,y,z
x,1/2-y,z
loop_
_atom_site_type_symbol
_atom_site_label
_atom_site_fract_x
_atom_site_fract_y
_atom_site_fract_z
Si Si1 0.943887 0.545030 0.066882
Si Si2 0.966649 0.896994 0.257668
Si Si3 0.033786 0.303561 0.645492
Si Si4 0.463616 0.197358 0.214844
Si Si5 0.960474 0.975759 0.394241
Si Si6 0.037212 0.931025 0.685191
Si Si7 0.041382 0.343180 0.429070
Si Si8 0.544358 0.389324 0.103624
O O1 0.750000 0.531170 0.104043
O O2 0.030135 0.570720 0.164171
O O3 0.000000 0.500000 0.000000
O O4 0.943480 0.587127 0.986999
O O5 0.750000 0.895531 0.251335
O O6 0.021376 0.843451 0.274051
O O7 0.023083 0.925863 0.357694
O O8 0.250000 0.303449 0.645066
O O9 0.978549 0.250000 0.662289
O O10 0.974617 0.321864 0.534001
O O11 0.250000 0.194804 0.216733
O O12 0.517504 0.250000 0.201525
O O13 0.529512 0.179587 0.325020
O O14 0.527728 0.165101 0.123798
O O15 0.750000 0.972690 0.388732
O O16 0.023616 0.016216 0.319028
O O17 0.000000 0.000000 0.500000
O O18 0.250000 0.930243 0.684414
O O19 0.975550 0.909547 0.790104
O O20 0.980380 0.898233 0.592175
O O21 0.250000 0.333797 0.430687
O O22 0.750000 0.401937 0.091205
#
# Coordination Sequence:
#
# PCOD9448094 Si02
#       8
#     8   8   8   8   8   8   8   8
#     4  11  22  38  59  80 102 132 171 216 269 324
#     4   9  19  34  51  73 104 138 171 211 260 315
#     4   9  16  28  49  76 103 133 171 212 252 298
#     4   9  17  30  49  77 112 144 175 215 260 304
#     4  10  19  32  49  71 101 134 165 200 247 302
#     4   9  18  31  47  69 101 137 168 202 250 308
#     4   9  16  27  48  77 106 136 173 214 251 293
#     4  10  20  35  54  76 102 134 173 215 260 309
#
# _framework density 22.213114999999998
#
# number of rings (size 3 to 8) (size 9 to 14) (size 15 to 20)
#    0.000    2.500    0.000    2.625    0.000    5.750 
#    0.000    3.125    0.000    4.875    0.000    0.000 
#    0.000    0.000    0.000    0.000    0.000    0.000 
#
# Total GULP energy -356711.098485 kJ/mol
# GULP energy per Si atom -5573.610914 kJ/mol
# Density = 2.216256 g / cm^3
# Si number density = 22.213115 Si / 1000 Ang^3
#
#
#
# Elastic Constant Matrix: (Units=GPa)
#
#
# Indices 1 2 3 4 5 6 
#
# 1 47.0400 3.0677 -0.3392 0.0000 0.0000 0.0000
# 2 3.0677 176.4847 58.3478 0.0000 0.0000 0.0000
# 3 -0.3392 58.3478 102.1833 0.0000 0.0000 0.0000
# 4 0.0000 0.0000 0.0000 32.7895 0.0000 0.0000
# 5 0.0000 0.0000 0.0000 0.0000 7.1032 0.0000
# 6 0.0000 0.0000 0.0000 0.0000 0.0000 16.0214
#
#
#
# Elastic Compliance Matrix: (Units=1/GPa)
#
#
# Indices 1 2 3 4 5 6 
#
# 1 0.021293 -0.000485 0.000348 0.000000 0.000000 0.000000
# 2 -0.000485 0.006996 -0.003996 0.000000 0.000000 0.000000
# 3 0.000348 -0.003996 0.012069 0.000000 0.000000 0.000000
# 4 0.000000 0.000000 0.000000 0.030498 0.000000 0.000000
# 5 0.000000 0.000000 0.000000 0.000000 0.140781 0.000000
# 6 0.000000 0.000000 0.000000 0.000000 0.000000 0.062416
#
#
# Mechanical properties :
#
#
# Convention : Reuss Voigt Hill
#
# Bulk Modulus (GPa) = 31.16185 49.76227 40.46206
# Shear Modulus (GPa) = 17.06384 28.82494 22.94439
#
# Velocity S-wave (km/s) = 2.77463 3.60620 3.21740
# Velocity P-wave (km/s) = 4.93191 6.30797 5.66190
#
# Compressibility (1/GPa) = 0.03209052
#
# Stress axis : x y z
#
# Youngs Moduli (GPa) = 46.96455 142.94127 82.85388
#
# Poissons Ratio (x) = 0.06933 -0.02880
# Poissons Ratio (y) = 0.02278 0.33111
# Poissons Ratio (z) = -0.01633 0.57124
#
# Static dielectric constant tensor:
#      x y z
#    x 1.932570 0.000000 0.000000 
#    y 0.000000 1.856090 0.000000 
#    z 0.000000 0.000000 1.857630 
# 
# From -- ./inp_files/14903.got.cif
#   From: 2010.05.17/outbox.cif.g08.bks.cpg/sg59_8_cif.got.tgz:14903.got - 2010.06.03 14:40:33.
