data_PCOD9448596
_publ_section_title
;
Structure prediction by ZEFSAII (Michael W. Deem and Ramdas Pophale) SiO2 
 PCOD9448596
Probable space group: P M M N
;
_chemical_formula_sum "Si O2"
_cell_formula_units_Z 64
_cell_length_a 8.922567
_cell_length_b 23.696367
_cell_length_c 18.451954
_cell_angle_alpha 90.000000
_cell_angle_beta 90.000000
_cell_angle_gamma 90.000000
_cell_volume 3901.341329
_symmetry_space_group_name_H-M "P M M N"
_symmetry_group_IT_number 59
_space_group.IT_coordinate_system_code '2'
_symmetry_cell_setting 'orthorhombic'
loop_
_space_group_symop_operation_xyz
x,y,z
1/2-x,1/2-y,z
1/2+x,-y,-z
-x,1/2+y,-z
-x,-y,-z
1/2+x,1/2+y,-z
1/2-x,y,z
x,1/2-y,z
loop_
_atom_site_type_symbol
_atom_site_label
_atom_site_fract_x
_atom_site_fract_y
_atom_site_fract_z
Si Si1 0.927982 0.316903 0.765548
Si Si2 0.428894 0.998902 0.419465
Si Si3 0.428774 0.611674 0.639090
Si Si4 0.432852 0.815079 0.776727
Si Si5 0.572507 0.615507 0.365444
Si Si6 0.920710 0.818532 0.084212
Si Si7 0.925569 0.183341 0.506242
Si Si8 0.923326 0.318678 0.062656
O O1 0.750000 0.323735 0.757210
O O2 0.962361 0.250000 0.755680
O O3 0.014019 0.353334 0.706226
O O4 0.978987 0.333339 0.846542
O O5 0.250000 0.996898 0.425816
O O6 0.482892 0.054817 0.378065
O O7 0.500000 0.000000 0.500000
O O8 0.489945 0.943668 0.379012
O O9 0.250000 0.599488 0.644195
O O10 0.477450 0.643877 0.711908
O O11 0.448597 0.653482 0.570850
O O12 0.250000 0.814007 0.777934
O O13 0.480695 0.750000 0.764431
O O14 0.480351 0.834334 0.857211
O O15 0.750000 0.607032 0.362732
O O16 0.527700 0.654770 0.433408
O O17 0.750000 0.837042 0.095147
O O18 0.920979 0.750000 0.081231
O O19 0.984547 0.838165 0.006998
O O20 0.750000 0.174650 0.526640
O O21 0.951507 0.250000 0.501126
O O22 0.750000 0.336138 0.054983
O O23 0.924038 0.250000 0.062724
#
# Coordination Sequence:
#
# PCOD9448596 Si02
#       8
#     8   8   8   8   8   8   8   8
#     4  10  20  34  52  75 105 138 170 206 252 306
#     4  12  24  40  58  75  96 127 170 219 263 306
#     4  10  19  33  54  77 102 133 171 213 255 300
#     4   8  14  26  47  76 107 138 172 208 247 297
#     4  12  24  37  54  75 100 132 169 212 258 302
#     4   9  16  26  42  67 100 136 172 208 248 294
#     4  10  20  33  51  75 104 137 169 202 248 306
#     4   8  13  23  41  66  98 136 174 206 239 287
#
# _framework density 16.404613999999999
#
# number of rings (size 3 to 8) (size 9 to 14) (size 15 to 20)
#    0.000    2.125    1.250    4.500    0.000    5.500 
#    0.000    0.625    0.000    1.875    0.000    0.875 
#    0.000    0.000    0.000    0.000    0.000    0.000 
#
# Total GULP energy -357047.435493 kJ/mol
# GULP energy per Si atom -5578.866180 kJ/mol
# Density = 1.636728 g / cm^3
# Si number density = 16.404614 Si / 1000 Ang^3
#
#
#
# Elastic Constant Matrix: (Units=GPa)
#
#
# Indices 1 2 3 4 5 6 
#
# 1 82.8724 45.5083 50.7775 0.0000 0.0000 0.0000
# 2 45.5083 79.1208 46.1822 0.0000 0.0000 0.0000
# 3 50.7775 46.1822 121.3243 0.0000 0.0000 0.0000
# 4 0.0000 0.0000 0.0000 -1.3307 0.0000 0.0000
# 5 0.0000 0.0000 0.0000 0.0000 -58.8733 0.0000
# 6 0.0000 0.0000 0.0000 0.0000 0.0000 21.8089
#
#
#
# Elastic Compliance Matrix: (Units=1/GPa)
#
#
# Indices 1 2 3 4 5 6 
#
# 1 0.019808 -0.008427 -0.005083 0.000000 0.000000 0.000000
# 2 -0.008427 0.019834 -0.004023 0.000000 0.000000 0.000000
# 3 -0.005083 -0.004023 0.011901 0.000000 0.000000 0.000000
# 4 0.000000 0.000000 0.000000 -0.751481 0.000000 0.000000
# 5 0.000000 0.000000 0.000000 0.000000 -0.016986 0.000000
# 6 0.000000 0.000000 0.000000 0.000000 0.000000 0.045853
#
#
# Mechanical properties :
#
#
# Convention : Reuss Voigt Hill
#
# Bulk Modulus (GPa) = 60.68487 63.13929 61.91208
# Shear Modulus (GPa) = -7.93005 1.71094 -3.10956
#
# Velocity S-wave (km/s) = -2.20103 1.02236 -1.37828
# Velocity P-wave (km/s) = 5.53295 6.32186 5.94051
#
# Compressibility (1/GPa) = 0.01647857
#
# Stress axis : x y z
#
# Youngs Moduli (GPa) = 50.48370 50.41887 84.02633
#
# Poissons Ratio (x) = 0.42485 0.42709
# Poissons Ratio (y) = 0.42540 0.33804
# Poissons Ratio (z) = 0.25660 0.20284
#
# Static dielectric constant tensor:
#      x y z
#    x 1.554230 0.000000 0.000000 
#    y 0.000000 1.514680 0.000000 
#    z 0.000000 0.000000 1.553540 
# 
# From -- ./inp_files/26311.got.cif
#   From: 2010.05.17/outbox.cif.g08.bks.cpg/sg59_14_cif.got.tgz:26311.got - 2010.06.03 14:40:33.
