data_PCOD9448612
_publ_section_title
;
Structure prediction by ZEFSAII (Michael W. Deem and Ramdas Pophale) SiO2 
 PCOD9448612
Probable space group: P M M N
;
_chemical_formula_sum "Si O2"
_cell_formula_units_Z 48
_cell_length_a 7.632325
_cell_length_b 15.364529
_cell_length_c 20.279366
_cell_angle_alpha 90.000000
_cell_angle_beta 90.000000
_cell_angle_gamma 90.000000
_cell_volume 2378.102011
_symmetry_space_group_name_H-M "P M M N"
_symmetry_group_IT_number 59
_space_group.IT_coordinate_system_code '2'
_symmetry_cell_setting 'orthorhombic'
loop_
_space_group_symop_operation_xyz
x,y,z
1/2-x,1/2-y,z
1/2+x,-y,-z
-x,1/2+y,-z
-x,-y,-z
1/2+x,1/2+y,-z
1/2-x,y,z
x,1/2-y,z
loop_
_atom_site_type_symbol
_atom_site_label
_atom_site_fract_x
_atom_site_fract_y
_atom_site_fract_z
Si Si1 0.541672 0.559603 0.711015
Si Si2 0.540002 0.250000 0.440176
Si Si3 0.546231 0.069758 0.815603
Si Si4 0.040407 0.555935 0.934232
Si Si5 0.958451 0.065229 0.442109
Si Si6 0.459425 0.250000 0.284538
Si Si7 0.963668 0.250000 0.029914
Si Si8 0.534721 0.250000 0.876279
O O1 0.750000 0.562851 0.723725
O O2 0.467795 0.478968 0.752239
O O3 0.521605 0.548246 0.632423
O O4 0.471474 0.654396 0.735475
O O5 0.750000 0.250000 0.449055
O O6 0.470405 0.340940 0.465229
O O7 0.496693 0.250000 0.362672
O O8 0.750000 0.088450 0.800993
O O9 0.472921 0.161539 0.841061
O O10 0.536595 0.998797 0.873925
O O11 0.250000 0.558073 0.926612
O O12 0.979391 0.656853 0.939776
O O13 0.000000 0.500000 0.000000
O O14 0.750000 0.070513 0.435521
O O15 0.000000 0.000000 0.500000
O O16 0.250000 0.250000 0.273121
O O17 0.750000 0.250000 0.032228
O O18 0.016507 0.250000 0.953022
O O19 0.750000 0.250000 0.876999
#
# Coordination Sequence:
#
# PCOD9448612 Si02
#       8
#     8   4   8   8   8   4   4   4
#     4   9  18  32  51  75 103 135 172 212 261 313
#     4   8  16  30  48  72  98 132 173 208 243 302
#     4  10  20  35  55  77 103 138 176 216 259 309
#     4  11  21  35  54  76 101 132 171 215 259 307
#     4  10  19  33  54  78 106 138 175 216 259 305
#     4   8  14  27  47  70  98 128 159 207 262 307
#     4   9  18  33  53  74 103 137 171 210 259 315
#     4   9  16  32  54  72  99 141 179 207 252 312
#
# _framework density 20.184163999999999
#
# number of rings (size 3 to 8) (size 9 to 14) (size 15 to 20)
#    0.000    2.500    1.667    1.000    0.000    2.000 
#    0.000    4.583    0.000    6.000    0.000    0.000 
#    0.000    0.000    0.000    0.000    0.000    0.000 
#
# Total GULP energy -267456.672902 kJ/mol
# GULP energy per Si atom -5572.014019 kJ/mol
# Density = 2.013822 g / cm^3
# Si number density = 20.184164 Si / 1000 Ang^3
#
#
#
# Elastic Constant Matrix: (Units=GPa)
#
#
# Indices 1 2 3 4 5 6 
#
# 1 43.7594 -5.1699 -12.0480 0.0000 0.0000 0.0000
# 2 -5.1699 207.6079 70.2918 0.0000 0.0000 0.0000
# 3 -12.0480 70.2918 75.4535 0.0000 0.0000 0.0000
# 4 0.0000 0.0000 0.0000 35.0059 0.0000 0.0000
# 5 0.0000 0.0000 0.0000 0.0000 14.1623 0.0000
# 6 0.0000 0.0000 0.0000 0.0000 0.0000 12.8973
#
#
#
# Elastic Compliance Matrix: (Units=1/GPa)
#
#
# Indices 1 2 3 4 5 6 
#
# 1 0.024051 -0.001024 0.004795 0.000000 0.000000 0.000000
# 2 -0.001024 0.007080 -0.006759 0.000000 0.000000 0.000000
# 3 0.004795 -0.006759 0.020315 0.000000 0.000000 0.000000
# 4 0.000000 0.000000 0.000000 0.028567 0.000000 0.000000
# 5 0.000000 0.000000 0.000000 0.000000 0.070610 0.000000
# 6 0.000000 0.000000 0.000000 0.000000 0.000000 0.077535
#
#
# Mechanical properties :
#
#
# Convention : Reuss Voigt Hill
#
# Bulk Modulus (GPa) = 21.99297 48.10762 35.05030
# Shear Modulus (GPa) = 20.05678 30.66290 25.35984
#
# Velocity S-wave (km/s) = 3.15570 3.90186 3.54845
# Velocity P-wave (km/s) = 4.91912 6.64722 5.84736
#
# Compressibility (1/GPa) = 0.04546907
#
# Stress axis : x y z
#
# Youngs Moduli (GPa) = 41.57777 141.24859 49.22371
#
# Poissons Ratio (x) = 0.14471 -0.23602
# Poissons Ratio (y) = 0.04260 0.33270
# Poissons Ratio (z) = -0.19936 0.95470
#
# Static dielectric constant tensor:
#      x y z
#    x 1.756770 0.000000 0.000000 
#    y 0.000000 1.804790 0.000000 
#    z 0.000000 0.000000 1.681650 
# 
# From -- ./inp_files/25688.got.cif
#   From: 2010.05.17/outbox.cif.g08.bks.cpg/sg59_13_cif.got.tgz:25688.got - 2010.06.03 14:40:33.
