data_PCOD9448172
_publ_section_title
;
Structure prediction by ZEFSAII (Michael W. Deem and Ramdas Pophale) SiO2 
 PCOD9448172
Probable space group: P M M N
;
_chemical_formula_sum "Si O2"
_cell_formula_units_Z 56
_cell_length_a 13.905692
_cell_length_b 18.737929
_cell_length_c 13.529071
_cell_angle_alpha 90.000000
_cell_angle_beta 90.000000
_cell_angle_gamma 90.000000
_cell_volume 3525.187089
_symmetry_space_group_name_H-M "P M M N"
_symmetry_group_IT_number 59
_space_group.IT_coordinate_system_code '2'
_symmetry_cell_setting 'orthorhombic'
loop_
_space_group_symop_operation_xyz
x,y,z
1/2-x,1/2-y,z
1/2+x,-y,-z
-x,1/2+y,-z
-x,-y,-z
1/2+x,1/2+y,-z
1/2-x,y,z
x,1/2-y,z
loop_
_atom_site_type_symbol
_atom_site_label
_atom_site_fract_x
_atom_site_fract_y
_atom_site_fract_z
Si Si1 0.638303 0.833324 0.740575
Si Si2 0.991829 0.834163 0.128363
Si Si3 0.138200 0.330648 0.676495
Si Si4 0.862018 0.974685 0.437156
Si Si5 0.864891 0.457865 0.841567
Si Si6 0.137852 0.400195 0.043384
Si Si7 0.952040 0.534500 0.649994
O O1 0.750000 0.849531 0.714349
O O2 0.621429 0.750000 0.726734
O O3 0.627622 0.854924 0.855465
O O4 0.570347 0.884077 0.677634
O O5 0.009405 0.750000 0.112372
O O6 0.086796 0.882444 0.135271
O O7 0.931503 0.841277 0.230312
O O8 0.927797 0.867368 0.040945
O O9 0.250000 0.335581 0.709428
O O10 0.123534 0.250000 0.637985
O O11 0.123850 0.392269 0.596100
O O12 0.750000 0.992523 0.423952
O O13 0.894661 0.984048 0.550052
O O14 0.936329 0.019078 0.370390
O O15 0.750000 0.454012 0.830536
O O16 0.884952 0.518224 0.925143
O O17 0.911558 0.488328 0.740947
O O18 0.250000 0.396990 0.013799
#
# Coordination Sequence:
#
# PCOD9448172 Si02
#       7
#     8   8   8   8   8   8   8
#     4   9  17  30  50  77 101 123 159 206 254 299
#     4  11  20  31  49  73 101 135 167 197 244 297
#     4   9  18  31  47  72 104 129 158 203 251 297
#     4  10  19  32  51  74  98 130 168 205 247 295
#     4  10  20  35  51  72 100 131 170 210 245 292
#     4   9  18  32  52  75  99 126 161 206 253 296
#     4  10  19  33  52  73  98 131 164 204 253 297
#
# _framework density 15.885683
#
# number of rings (size 3 to 8) (size 9 to 14) (size 15 to 20)
#    0.000    2.286    1.429    3.429    0.000    2.286 
#    0.000    1.429    0.000    0.429    0.000    0.000 
#    0.000    0.000    0.000    0.000    0.000    0.000 
#
# Total GULP energy -312227.745944 kJ/mol
# GULP energy per Si atom -5575.495463 kJ/mol
# Density = 1.584953 g / cm^3
# Si number density = 15.885683 Si / 1000 Ang^3
#
#
#
# Elastic Constant Matrix: (Units=GPa)
#
#
# Indices 1 2 3 4 5 6 
#
# 1 94.3756 54.8682 34.3563 0.0000 0.0000 0.0000
# 2 54.8682 97.5622 31.8415 0.0000 0.0000 0.0000
# 3 34.3563 31.8415 46.7490 0.0000 0.0000 0.0000
# 4 0.0000 0.0000 0.0000 14.9488 0.0000 0.0000
# 5 0.0000 0.0000 0.0000 0.0000 21.8769 0.0000
# 6 0.0000 0.0000 0.0000 0.0000 0.0000 28.6273
#
#
#
# Elastic Compliance Matrix: (Units=1/GPa)
#
#
# Indices 1 2 3 4 5 6 
#
# 1 0.017833 -0.007396 -0.008068 0.000000 0.000000 0.000000
# 2 -0.007396 0.016247 -0.005631 0.000000 0.000000 0.000000
# 3 -0.008068 -0.005631 0.031155 0.000000 0.000000 0.000000
# 4 0.000000 0.000000 0.000000 0.066895 0.000000 0.000000
# 5 0.000000 0.000000 0.000000 0.000000 0.045710 0.000000
# 6 0.000000 0.000000 0.000000 0.000000 0.000000 0.034932
#
#
# Mechanical properties :
#
#
# Convention : Reuss Voigt Hill
#
# Bulk Modulus (GPa) = 43.39200 53.42431 48.40816
# Shear Modulus (GPa) = 19.03719 20.93199 19.98459
#
# Velocity S-wave (km/s) = 3.46553 3.63390 3.55071
# Velocity P-wave (km/s) = 6.58693 7.16313 6.88107
#
# Compressibility (1/GPa) = 0.02304572
#
# Stress axis : x y z
#
# Youngs Moduli (GPa) = 56.07612 61.54994 32.09714
#
# Poissons Ratio (x) = 0.45522 0.25896
# Poissons Ratio (y) = 0.41473 0.18073
# Poissons Ratio (z) = 0.45243 0.34657
#
# Static dielectric constant tensor:
#      x y z
#    x 1.516460 0.000000 0.000000 
#    y 0.000000 1.530630 0.000000 
#    z 0.000000 0.000000 1.521470 
# 
# From -- ./inp_files/16003.got.cif
#   From: 2010.05.17/outbox.cif.g08.bks.cpg/sg59_9_cif.got.tgz:16003.got - 2010.06.03 14:40:33.
