data_PCOD9448249
_publ_section_title
;
Structure prediction by ZEFSAII (Michael W. Deem and Ramdas Pophale) SiO2 
 PCOD9448249
Probable space group: P M M N
;
_chemical_formula_sum "Si O2"
_cell_formula_units_Z 64
_cell_length_a 8.208296
_cell_length_b 20.346890
_cell_length_c 21.391639
_cell_angle_alpha 90.000000
_cell_angle_beta 90.000000
_cell_angle_gamma 90.000000
_cell_volume 3572.688132
_symmetry_space_group_name_H-M "P M M N"
_symmetry_group_IT_number 59
_space_group.IT_coordinate_system_code '2'
_symmetry_cell_setting 'orthorhombic'
loop_
_space_group_symop_operation_xyz
x,y,z
1/2-x,1/2-y,z
1/2+x,-y,-z
-x,1/2+y,-z
-x,-y,-z
1/2+x,1/2+y,-z
1/2-x,y,z
x,1/2-y,z
loop_
_atom_site_type_symbol
_atom_site_label
_atom_site_fract_x
_atom_site_fract_y
_atom_site_fract_z
Si Si1 0.946640 0.676672 0.866692
Si Si2 0.056418 0.539051 0.817482
Si Si3 0.948406 0.822835 0.012582
Si Si4 0.552658 0.960381 0.061475
Si Si5 0.551421 0.822631 0.632848
Si Si6 0.943860 0.040064 0.560990
Si Si7 0.946321 0.822988 0.486690
Si Si8 0.446440 0.038796 0.318302
O O1 0.750000 0.675696 0.864165
O O2 0.999433 0.750000 0.846646
O O3 0.009140 0.614992 0.828326
O O4 0.994759 0.668073 0.939659
O O5 0.250000 0.534099 0.818121
O O6 0.992119 0.496700 0.876202
O O7 0.994764 0.516072 0.750309
O O8 0.750000 0.822546 0.013505
O O9 0.002859 0.750000 0.032502
O O10 0.003463 0.885134 0.052528
O O11 0.750000 0.960220 0.063010
O O12 0.500000 0.000000 0.000000
O O13 0.750000 0.822076 0.635208
O O14 0.496672 0.750000 0.653672
O O15 0.506605 0.831205 0.559760
O O16 0.494786 0.886266 0.670263
O O17 0.750000 0.035612 0.562527
O O18 0.992471 0.115684 0.552584
O O19 0.006840 0.006084 0.624422
O O20 0.000000 0.000000 0.500000
O O21 0.750000 0.823959 0.485465
O O22 0.000636 0.750000 0.466649
O O23 0.250000 0.040196 0.321340
#
# Coordination Sequence:
#
# PCOD9448249 Si02
#       8
#     8   8   8   8   8   8   8   8
#     4   9  17  31  52  74  97 134 177 207 241 302
#     4  11  23  34  47  74 108 138 167 213 268 303
#     4   8  14  27  50  76  97 122 164 210 245 290
#     4  10  19  32  52  76 101 130 165 207 257 302
#     4   8  14  28  50  73  98 130 171 211 244 292
#     4  11  21  34  55  81 107 137 177 221 266 310
#     4   9  17  32  55  81 108 136 168 213 266 315
#     4  10  21  36  52  72 101 143 184 211 248 308
#
# _framework density 17.913682000000001
#
# number of rings (size 3 to 8) (size 9 to 14) (size 15 to 20)
#    0.000    2.500    2.500    2.250    0.000    2.500 
#    0.000    1.250    0.000    1.125    0.000    1.750 
#    0.000    0.000    0.000    0.000    0.000    0.000 
#
# Total GULP energy -356891.435793 kJ/mol
# GULP energy per Si atom -5576.428684 kJ/mol
# Density = 1.787291 g / cm^3
# Si number density = 17.913682 Si / 1000 Ang^3
#
#
#
# Elastic Constant Matrix: (Units=GPa)
#
#
# Indices 1 2 3 4 5 6 
#
# 1 10.1322 12.3828 12.0067 0.0000 0.0000 0.0000
# 2 12.3828 132.0972 75.1341 0.0000 0.0000 0.0000
# 3 12.0067 75.1341 122.3447 0.0000 0.0000 0.0000
# 4 0.0000 0.0000 0.0000 22.6983 0.0000 0.0000
# 5 0.0000 0.0000 0.0000 0.0000 19.6190 0.0000
# 6 0.0000 0.0000 0.0000 0.0000 0.0000 21.2024
#
#
#
# Elastic Compliance Matrix: (Units=1/GPa)
#
#
# Indices 1 2 3 4 5 6 
#
# 1 0.115447 -0.006728 -0.007198 0.000000 0.000000 0.000000
# 2 -0.006728 0.012026 -0.006725 0.000000 0.000000 0.000000
# 3 -0.007198 -0.006725 0.013010 0.000000 0.000000 0.000000
# 4 0.000000 0.000000 0.000000 0.044056 0.000000 0.000000
# 5 0.000000 0.000000 0.000000 0.000000 0.050971 0.000000
# 6 0.000000 0.000000 0.000000 0.000000 0.000000 0.047164
#
#
# Mechanical properties :
#
#
# Convention : Reuss Voigt Hill
#
# Bulk Modulus (GPa) = 10.08260 51.51348 30.79804
# Shear Modulus (GPa) = 14.00416 23.70731 18.85574
#
# Velocity S-wave (km/s) = 2.79903 3.64183 3.24788
# Velocity P-wave (km/s) = 4.01083 6.81930 5.59417
#
# Compressibility (1/GPa) = 0.09918074
#
# Stress axis : x y z
#
# Youngs Moduli (GPa) = 8.66200 83.15366 76.86384
#
# Poissons Ratio (x) = 0.55945 0.55327
# Poissons Ratio (y) = 0.05828 0.51692
# Poissons Ratio (z) = 0.06235 0.55921
#
# Static dielectric constant tensor:
#      x y z
#    x 1.614420 0.000000 0.000000 
#    y 0.000000 1.629850 0.000000 
#    z 0.000000 0.000000 1.604850 
# 
# From -- ./inp_files/26290.got.cif
#   From: 2010.05.17/outbox.cif.g08.bks.cpg/sg59_14_cif.got.tgz:26290.got - 2010.06.03 14:40:33.
