data_PCOD9448431
_publ_section_title
;
Structure prediction by ZEFSAII (Michael W. Deem and Ramdas Pophale) SiO2 
 PCOD9448431
Probable space group: P M M N
;
_chemical_formula_sum "Si O2"
_cell_formula_units_Z 64
_cell_length_a 17.602102
_cell_length_b 14.614501
_cell_length_c 11.566436
_cell_angle_alpha 90.000000
_cell_angle_beta 90.000000
_cell_angle_gamma 90.000000
_cell_volume 2975.418670
_symmetry_space_group_name_H-M "P M M N"
_symmetry_group_IT_number 59
_space_group.IT_coordinate_system_code '2'
_symmetry_cell_setting 'orthorhombic'
loop_
_space_group_symop_operation_xyz
x,y,z
1/2-x,1/2-y,z
1/2+x,-y,-z
-x,1/2+y,-z
-x,-y,-z
1/2+x,1/2+y,-z
1/2-x,y,z
x,1/2-y,z
loop_
_atom_site_type_symbol
_atom_site_label
_atom_site_fract_x
_atom_site_fract_y
_atom_site_fract_z
Si Si1 0.839408 0.963228 0.912669
Si Si2 0.483501 0.138223 0.664911
Si Si3 0.939434 0.417810 0.027812
Si Si4 0.562474 0.360956 0.442178
Si Si5 0.908590 0.859146 0.697222
Si Si6 0.337300 0.861416 0.760842
Si Si7 0.068835 0.350167 0.912073
Si Si8 0.831324 0.860437 0.461966
O O1 0.750000 0.959534 0.894814
O O2 0.884663 0.915806 0.808524
O O3 0.872019 0.064372 0.936403
O O4 0.864923 0.909499 0.029764
O O5 0.488685 0.250000 0.666026
O O6 0.547682 0.105820 0.573584
O O7 0.472459 0.110729 0.797337
O O8 0.404592 0.107892 0.606721
O O9 0.999476 0.340045 0.001676
O O10 0.897100 0.403655 0.148448
O O11 0.000000 0.500000 0.000000
O O12 0.562867 0.250000 0.449001
O O13 0.489075 0.383281 0.362343
O O14 0.635895 0.387433 0.368631
O O15 0.909890 0.750000 0.722977
O O16 0.846694 0.875691 0.597009
O O17 0.250000 0.887859 0.784086
O O18 0.342050 0.750000 0.770611
O O19 0.100241 0.250000 0.882882
O O20 0.750000 0.896777 0.424104
O O21 0.830986 0.750000 0.447494
#
# Coordination Sequence:
#
# PCOD9448431 Si02
#       8
#     8   8   8   8   8   8   8   8
#     4  11  22  33  48  72 105 140 169 208 261 308
#     4   8  15  27  45  71 100 128 160 200 247 300
#     4  10  21  36  52  70  99 139 174 204 247 305
#     4   8  14  27  48  74 100 125 158 206 261 306
#     4   9  16  27  46  72  99 129 170 213 252 301
#     4  10  19  32  55  82 101 122 165 226 274 301
#     4  10  20  34  53  76 101 133 172 209 246 297
#     4   8  13  22  39  65  97 130 163 205 255 300
#
# _framework density 21.509578999999999
#
# number of rings (size 3 to 8) (size 9 to 14) (size 15 to 20)
#    0.000    2.750    0.000    4.500    0.000    3.000 
#    0.000    1.250    0.000   13.500    0.000    5.250 
#    0.000    0.000    0.000    0.000    0.000    0.000 
#
# Total GULP energy -356475.080061 kJ/mol
# GULP energy per Si atom -5569.923126 kJ/mol
# Density = 2.146062 g / cm^3
# Si number density = 21.509579 Si / 1000 Ang^3
#
#
#
# Elastic Constant Matrix: (Units=GPa)
#
#
# Indices 1 2 3 4 5 6 
#
# 1 74.8924 -1.1541 23.0891 0.0000 0.0000 0.0000
# 2 -1.1541 44.2249 -10.9981 0.0000 0.0000 0.0000
# 3 23.0891 -10.9981 62.1656 0.0000 0.0000 0.0000
# 4 0.0000 0.0000 0.0000 42.5227 0.0000 0.0000
# 5 0.0000 0.0000 0.0000 0.0000 12.4167 0.0000
# 6 0.0000 0.0000 0.0000 0.0000 0.0000 14.3452
#
#
#
# Elastic Compliance Matrix: (Units=1/GPa)
#
#
# Indices 1 2 3 4 5 6 
#
# 1 0.015125 -0.001048 -0.005803 0.000000 0.000000 0.000000
# 2 -0.001048 0.023725 0.004587 0.000000 0.000000 0.000000
# 3 -0.005803 0.004587 0.019053 0.000000 0.000000 0.000000
# 4 0.000000 0.000000 0.000000 0.023517 0.000000 0.000000
# 5 0.000000 0.000000 0.000000 0.000000 0.080536 0.000000
# 6 0.000000 0.000000 0.000000 0.000000 0.000000 0.069710
#
#
# Mechanical properties :
#
#
# Convention : Reuss Voigt Hill
#
# Bulk Modulus (GPa) = 18.73591 22.57294 20.65443
# Shear Modulus (GPa) = 19.68600 25.21332 22.44966
#
# Velocity S-wave (km/s) = 3.02854 3.42744 3.23415
# Velocity P-wave (km/s) = 4.57808 5.11667 4.85485
#
# Compressibility (1/GPa) = 0.05337343
#
# Stress axis : x y z
#
# Youngs Moduli (GPa) = 66.11367 42.14964 52.48534
#
# Poissons Ratio (x) = 0.04419 0.30459
# Poissons Ratio (y) = 0.06932 -0.24074
# Poissons Ratio (z) = 0.38368 -0.19333
#
# Static dielectric constant tensor:
#      x y z
#    x 1.777260 0.000000 0.000000 
#    y 0.000000 1.946890 0.000000 
#    z 0.000000 0.000000 1.824300 
# 
# From -- ./inp_files/17970.got.cif
#   From: 2010.05.17/outbox.cif.g08.bks.cpg/sg59_9_cif.got.tgz:17970.got - 2010.06.03 14:40:33.
