data_PCOD9448205
_publ_section_title
;
Structure prediction by ZEFSAII (Michael W. Deem and Ramdas Pophale) SiO2 
 PCOD9448205
Probable space group: P M M N
;
_chemical_formula_sum "Si O2"
_cell_formula_units_Z 56
_cell_length_a 23.273567
_cell_length_b 16.086389
_cell_length_c 8.584963
_cell_angle_alpha 90.000000
_cell_angle_beta 90.000000
_cell_angle_gamma 90.000000
_cell_volume 3214.104142
_symmetry_space_group_name_H-M "P M M N"
_symmetry_group_IT_number 59
_space_group.IT_coordinate_system_code '2'
_symmetry_cell_setting 'orthorhombic'
loop_
_space_group_symop_operation_xyz
x,y,z
1/2-x,1/2-y,z
1/2+x,-y,-z
-x,1/2+y,-z
-x,-y,-z
1/2+x,1/2+y,-z
1/2-x,y,z
x,1/2-y,z
loop_
_atom_site_type_symbol
_atom_site_label
_atom_site_fract_x
_atom_site_fract_y
_atom_site_fract_z
Si Si1 0.609205 0.032728 0.459287
Si Si2 0.617157 0.408405 0.968954
Si Si3 0.578559 0.558335 0.764990
Si Si4 0.183780 0.348769 0.093394
Si Si5 0.183133 0.468216 0.813152
Si Si6 0.038163 0.653931 0.762659
Si Si7 0.817703 0.154702 0.670189
O O1 0.642105 0.974966 0.335310
O O2 0.567104 0.094012 0.365710
O O3 0.655430 0.090582 0.547950
O O4 0.578060 0.979261 0.591842
O O5 0.580190 0.480988 0.884906
O O6 0.649059 0.359148 0.832541
O O7 0.664270 0.455378 0.075383
O O8 0.576810 0.356044 0.082395
O O9 0.638210 0.606709 0.795221
O O10 0.525265 0.618519 0.793258
O O11 0.250000 0.368573 0.136297
O O12 0.176524 0.250000 0.094197
O O13 0.174687 0.387158 0.921002
O O14 0.250000 0.474211 0.770487
O O15 0.036791 0.750000 0.714156
O O16 0.750000 0.139382 0.691353
O O17 0.825393 0.250000 0.617980
#
# Coordination Sequence:
#
# PCOD9448205 Si02
#       7
#     8   8   8   8   8   8   8
#     4  10  21  34  50  74 104 137 172 206 245 303
#     4   9  19  33  52  76 100 130 172 214 251 298
#     4  10  20  35  55  75 101 136 173 209 253 307
#     4   9  18  34  55  79 104 129 165 214 261 301
#     4   9  17  31  52  75 101 134 165 199 247 302
#     4  11  21  35  53  73 101 134 171 214 259 302
#     4  10  19  32  51  76 106 137 170 210 253 294
#
# _framework density 17.423206
#
# number of rings (size 3 to 8) (size 9 to 14) (size 15 to 20)
#    0.000    2.286    0.000    3.000    0.000    4.000 
#    0.000    1.429    0.000    8.571    0.000    0.000 
#    0.000    0.000    0.000    0.000    0.000    0.000 
#
# Total GULP energy -312404.366860 kJ/mol
# GULP energy per Si atom -5578.649408 kJ/mol
# Density = 1.738355 g / cm^3
# Si number density = 17.423206 Si / 1000 Ang^3
#
#
#
# Elastic Constant Matrix: (Units=GPa)
#
#
# Indices 1 2 3 4 5 6 
#
# 1 78.2556 33.5213 19.4437 0.0000 0.0000 0.0000
# 2 33.5213 63.8612 10.3164 0.0000 0.0000 0.0000
# 3 19.4437 10.3164 51.1926 0.0000 0.0000 0.0000
# 4 0.0000 0.0000 0.0000 10.4491 0.0000 0.0000
# 5 0.0000 0.0000 0.0000 0.0000 15.7419 0.0000
# 6 0.0000 0.0000 0.0000 0.0000 0.0000 27.6900
#
#
#
# Elastic Compliance Matrix: (Units=1/GPa)
#
#
# Indices 1 2 3 4 5 6 
#
# 1 0.017641 -0.008453 -0.004997 0.000000 0.000000 0.000000
# 2 -0.008453 0.020236 -0.000868 0.000000 0.000000 0.000000
# 3 -0.004997 -0.000868 0.021607 0.000000 0.000000 0.000000
# 4 0.000000 0.000000 0.000000 0.095702 0.000000 0.000000
# 5 0.000000 0.000000 0.000000 0.000000 0.063525 0.000000
# 6 0.000000 0.000000 0.000000 0.000000 0.000000 0.036114
#
#
# Mechanical properties :
#
#
# Convention : Reuss Voigt Hill
#
# Bulk Modulus (GPa) = 32.41539 35.54134 33.97837
# Shear Modulus (GPa) = 17.02174 19.44472 18.23323
#
# Velocity S-wave (km/s) = 3.12902 3.34432 3.23846
# Velocity P-wave (km/s) = 5.63023 5.94607 5.79030
#
# Compressibility (1/GPa) = 0.03084954
#
# Stress axis : x y z
#
# Youngs Moduli (GPa) = 56.68627 49.41691 46.28170
#
# Poissons Ratio (x) = 0.41770 0.23127
# Poissons Ratio (y) = 0.47915 0.04015
# Poissons Ratio (z) = 0.28326 0.04287
#
# Static dielectric constant tensor:
#      x y z
#    x 1.577580 0.000000 0.000000 
#    y 0.000000 1.573210 0.000000 
#    z 0.000000 0.000000 1.577520 
# 
# From -- ./inp_files/11545.got.cif
#   From: 2010.05.17/outbox.cif.g08.bks.cpg/sg59_6_cif.got.tgz:11545.got - 2010.06.03 14:40:33.
