data_PCOD9448876
_publ_section_title
;
Structure prediction by ZEFSAII (Michael W. Deem and Ramdas Pophale) SiO2 
 PCOD9448876
Probable space group: P M M N
;
_chemical_formula_sum "Si O2"
_cell_formula_units_Z 48
_cell_length_a 28.542950
_cell_length_b 10.329981
_cell_length_c 9.012232
_cell_angle_alpha 90.000000
_cell_angle_beta 90.000000
_cell_angle_gamma 90.000000
_cell_volume 2657.239763
_symmetry_space_group_name_H-M "P M M N"
_symmetry_group_IT_number 59
_space_group.IT_coordinate_system_code '2'
_symmetry_cell_setting 'orthorhombic'
loop_
_space_group_symop_operation_xyz
x,y,z
1/2-x,1/2-y,z
1/2+x,-y,-z
-x,1/2+y,-z
-x,-y,-z
1/2+x,1/2+y,-z
1/2-x,y,z
x,1/2-y,z
loop_
_atom_site_type_symbol
_atom_site_label
_atom_site_fract_x
_atom_site_fract_y
_atom_site_fract_z
Si Si1 0.750000 0.593466 0.389396
Si Si2 0.250000 0.408113 0.951723
Si Si3 0.436918 0.105552 0.982727
Si Si4 0.843779 0.907259 0.886478
Si Si5 0.995844 0.972009 0.746860
Si Si6 0.433039 0.896224 0.495857
Si Si7 0.149917 0.406599 0.463494
O O1 0.750000 0.750000 0.390980
O O2 0.750000 0.549769 0.218786
O O3 0.700665 0.558485 0.467108
O O4 0.250000 0.250000 0.950925
O O5 0.204238 0.450689 0.040145
O O6 0.427770 0.250000 0.929493
O O7 0.387533 0.040150 0.020002
O O8 0.463422 0.108537 0.141169
O O9 0.468766 0.041156 0.859572
O O10 0.845318 0.750000 0.896063
O O11 0.847524 0.934352 0.712521
O O12 0.028207 0.901659 0.626389
O O13 0.961512 0.064921 0.653004
O O14 0.414242 0.750000 0.484984
O O15 0.392819 0.004636 0.521961
O O16 0.142001 0.250000 0.484546
#
# Coordination Sequence:
#
# PCOD9448876 Si02
#       7
#     4   4   8   8   8   8   8
#     4   9  19  33  54  85 114 140 181 234 284 331
#     4   9  17  29  49  81 112 136 173 232 288 331
#     4  10  19  34  55  81 108 143 189 236 283 330
#     4   9  17  30  51  78 110 140 173 222 282 333
#     4  10  22  36  54  77 112 152 195 233 276 335
#     4  11  23  38  56  83 117 155 191 232 284 338
#     4  10  20  36  58  84 113 147 186 231 280 337
#
# _framework density 18.063856999999999
#
# number of rings (size 3 to 8) (size 9 to 14) (size 15 to 20)
#    0.000    2.167    1.667    1.500    2.333    5.333 
#    0.000    0.417    0.000    0.000    0.000    0.000 
#    0.000    0.000    0.000    0.000    0.000    0.000 
#
# Total GULP energy -267395.148036 kJ/mol
# GULP energy per Si atom -5570.732251 kJ/mol
# Density = 1.802274 g / cm^3
# Si number density = 18.063857 Si / 1000 Ang^3
#
#
#
# Elastic Constant Matrix: (Units=GPa)
#
#
# Indices 1 2 3 4 5 6 
#
# 1 126.8313 27.7998 19.6490 0.0000 0.0000 0.0000
# 2 27.7998 53.9579 12.4508 0.0000 0.0000 0.0000
# 3 19.6490 12.4508 51.1328 0.0000 0.0000 0.0000
# 4 0.0000 0.0000 0.0000 -0.0753 0.0000 0.0000
# 5 0.0000 0.0000 0.0000 0.0000 29.3576 0.0000
# 6 0.0000 0.0000 0.0000 0.0000 0.0000 -2.9675
#
#
#
# Elastic Compliance Matrix: (Units=1/GPa)
#
#
# Indices 1 2 3 4 5 6 
#
# 1 0.009184 -0.004151 -0.002519 0.000000 0.000000 0.000000
# 2 -0.004151 0.021512 -0.003643 0.000000 0.000000 0.000000
# 3 -0.002519 -0.003643 0.021412 0.000000 0.000000 0.000000
# 4 0.000000 0.000000 0.000000-13.289020 0.000000 0.000000
# 5 0.000000 0.000000 0.000000 0.000000 0.034063 0.000000
# 6 0.000000 0.000000 0.000000 0.000000 0.000000 -0.336988
#
#
# Mechanical properties :
#
#
# Convention : Reuss Voigt Hill
#
# Bulk Modulus (GPa) = 31.76282 39.08013 35.42148
# Shear Modulus (GPa) = -0.37013 16.73114 8.18050
#
# Velocity S-wave (km/s) = -0.45315 3.04669 2.13037
# Velocity P-wave (km/s) = 4.16509 5.83591 5.06980
#
# Compressibility (1/GPa) = 0.03148335
#
# Stress axis : x y z
#
# Youngs Moduli (GPa) = 108.87930 46.48531 46.70303
#
# Poissons Ratio (x) = 0.19295 0.11763
# Poissons Ratio (y) = 0.45193 0.17015
# Poissons Ratio (z) = 0.27423 0.16935
#
# Static dielectric constant tensor:
#      x y z
#    x 1.639320 0.000000 0.000000 
#    y 0.000000 1.606640 0.000000 
#    z 0.000000 0.000000 1.614770 
# 
# From -- ./inp_files/13064.got.cif
#   From: 2010.05.17/outbox.cif.g08.bks.cpg/sg59_7_cif.got.tgz:13064.got - 2010.06.03 14:40:33.
