data_PCOD9448518
_publ_section_title
;
Structure prediction by ZEFSAII (Michael W. Deem and Ramdas Pophale) SiO2 
 PCOD9448518
Probable space group: P M M N
;
_chemical_formula_sum "Si O2"
_cell_formula_units_Z 64
_cell_length_a 9.078130
_cell_length_b 25.998985
_cell_length_c 14.801408
_cell_angle_alpha 90.000000
_cell_angle_beta 90.000000
_cell_angle_gamma 90.000000
_cell_volume 3493.460372
_symmetry_space_group_name_H-M "P M M N"
_symmetry_group_IT_number 59
_space_group.IT_coordinate_system_code '2'
_symmetry_cell_setting 'orthorhombic'
loop_
_space_group_symop_operation_xyz
x,y,z
1/2-x,1/2-y,z
1/2+x,-y,-z
-x,1/2+y,-z
-x,-y,-z
1/2+x,1/2+y,-z
1/2-x,y,z
x,1/2-y,z
loop_
_atom_site_type_symbol
_atom_site_label
_atom_site_fract_x
_atom_site_fract_y
_atom_site_fract_z
Si Si1 0.572903 0.191707 0.795457
Si Si2 0.928099 0.444611 0.477669
Si Si3 0.574040 0.397729 0.659791
Si Si4 0.428434 0.336137 0.985547
Si Si5 0.074013 0.594577 0.723066
Si Si6 0.082817 0.016945 0.767672
Si Si7 0.083782 0.449972 0.970174
Si Si8 0.072724 0.306649 0.187136
O O1 0.750000 0.185745 0.805988
O O2 0.544386 0.250000 0.763912
O O3 0.519515 0.149243 0.722645
O O4 0.499453 0.184585 0.893690
O O5 0.750000 0.450779 0.480239
O O6 0.972097 0.403782 0.555611
O O7 0.966586 0.422439 0.379057
O O8 0.000000 0.500000 0.500000
O O9 0.750000 0.393944 0.660712
O O10 0.523935 0.451227 0.704340
O O11 0.250000 0.335520 0.974634
O O12 0.464544 0.309407 0.080157
O O13 0.479788 0.395179 0.996627
O O14 0.250000 0.603076 0.726325
O O15 0.040463 0.542623 0.780082
O O16 0.996022 0.645131 0.760708
O O17 0.250000 0.016776 0.729449
O O18 0.086960 0.046533 0.861978
O O19 0.250000 0.452523 0.005575
O O20 0.000000 0.500000 0.000000
O O21 0.250000 0.310492 0.192830
O O22 0.027895 0.250000 0.221500
#
# Coordination Sequence:
#
# PCOD9448518 Si02
#       8
#     8   8   8   8   8   8   8   8
#     4  10  21  36  54  79 111 146 184 227 273 322
#     4  10  20  35  57  85 113 142 180 222 272 330
#     4  10  20  34  54  81 111 142 178 219 268 325
#     4  10  20  36  57  80 107 143 187 229 272 324
#     4  10  21  36  56  83 113 143 181 227 275 330
#     4  10  19  33  52  78 112 142 173 220 272 322
#     4  10  20  31  47  74 108 145 181 218 267 322
#     4  10  22  39  57  79 109 145 187 233 275 319
#
# _framework density 18.319942999999999
#
# number of rings (size 3 to 8) (size 9 to 14) (size 15 to 20)
#    0.000    2.000    2.500    1.125    0.000    3.500 
#    0.000    0.625    0.000    2.250    0.000    0.000 
#    0.000    0.000    0.000    0.000    0.000    0.000 
#
# Total GULP energy -356832.301560 kJ/mol
# GULP energy per Si atom -5575.504712 kJ/mol
# Density = 1.827825 g / cm^3
# Si number density = 18.319943 Si / 1000 Ang^3
#
#
#
# Elastic Constant Matrix: (Units=GPa)
#
#
# Indices 1 2 3 4 5 6 
#
# 1 9.2652 25.6919 17.8590 0.0000 0.0000 0.0000
# 2 25.6919 147.2355 47.5081 0.0000 0.0000 0.0000
# 3 17.8590 47.5081 76.1535 0.0000 0.0000 0.0000
# 4 0.0000 0.0000 0.0000 13.0034 0.0000 0.0000
# 5 0.0000 0.0000 0.0000 0.0000 18.0400 0.0000
# 6 0.0000 0.0000 0.0000 0.0000 0.0000 24.6660
#
#
#
# Elastic Compliance Matrix: (Units=1/GPa)
#
#
# Indices 1 2 3 4 5 6 
#
# 1 0.305190 -0.037762 -0.048013 0.000000 0.000000 0.000000
# 2 -0.037762 0.013176 0.000636 0.000000 0.000000 0.000000
# 3 -0.048013 0.000636 0.023994 0.000000 0.000000 0.000000
# 4 0.000000 0.000000 0.000000 0.076903 0.000000 0.000000
# 5 0.000000 0.000000 0.000000 0.000000 0.055432 0.000000
# 6 0.000000 0.000000 0.000000 0.000000 0.000000 0.040542
#
#
# Mechanical properties :
#
#
# Convention : Reuss Voigt Hill
#
# Bulk Modulus (GPa) = 5.81120 46.08580 25.94850
# Shear Modulus (GPa) = 6.73060 20.58154 13.65607
#
# Velocity S-wave (km/s) = 1.91883 3.35543 2.73320
# Velocity P-wave (km/s) = 2.84397 6.34212 4.91481
#
# Compressibility (1/GPa) = 0.17208156
#
# Stress axis : x y z
#
# Youngs Moduli (GPa) = 3.27665 75.89575 41.67646
#
# Poissons Ratio (x) = 2.86598 2.00102
# Poissons Ratio (y) = 0.12373 -0.02650
# Poissons Ratio (z) = 0.15732 -0.04826
#
# Static dielectric constant tensor:
#      x y z
#    x 1.635420 0.000000 0.000000 
#    y 0.000000 1.637180 0.000000 
#    z 0.000000 0.000000 1.652140 
# 
# From -- ./inp_files/21580.got.cif
#   From: 2010.05.17/outbox.cif.g08.bks.cpg/sg59_11_cif.got.tgz:21580.got - 2010.06.03 14:40:33.
