data_PCOD9448130
_publ_section_title
;
Structure prediction by ZEFSAII (Michael W. Deem and Ramdas Pophale) SiO2 
 PCOD9448130
Probable space group: P M M N
;
_chemical_formula_sum "Si O2"
_cell_formula_units_Z 48
_cell_length_a 15.614695
_cell_length_b 8.551852
_cell_length_c 19.498569
_cell_angle_alpha 90.000000
_cell_angle_beta 90.000000
_cell_angle_gamma 90.000000
_cell_volume 2603.732845
_symmetry_space_group_name_H-M "P M M N"
_symmetry_group_IT_number 59
_space_group.IT_coordinate_system_code '2'
_symmetry_cell_setting 'orthorhombic'
loop_
_space_group_symop_operation_xyz
x,y,z
1/2-x,1/2-y,z
1/2+x,-y,-z
-x,1/2+y,-z
-x,-y,-z
1/2+x,1/2+y,-z
1/2-x,y,z
x,1/2-y,z
loop_
_atom_site_type_symbol
_atom_site_label
_atom_site_fract_x
_atom_site_fract_y
_atom_site_fract_z
Si Si1 0.904917 0.437907 0.830607
Si Si2 0.402133 0.060644 0.677228
Si Si3 0.750000 0.060499 0.576798
Si Si4 0.750000 0.562229 0.079899
Si Si5 0.403162 0.560177 0.326368
Si Si6 0.750000 0.937386 0.921015
Si Si7 0.750000 0.938845 0.422851
Si Si8 0.404616 0.563613 0.829304
O O1 0.905932 0.250000 0.832617
O O2 0.883158 0.486387 0.752053
O O3 0.833844 0.500700 0.882039
O O4 0.000442 0.499066 0.845334
O O5 0.400262 0.250000 0.682648
O O6 0.499145 0.012765 0.658717
O O7 0.333271 0.012376 0.620763
O O8 0.382442 0.993672 0.752341
O O9 0.750000 0.250000 0.576926
O O10 0.666528 0.005916 0.619082
O O11 0.750000 0.003690 0.499201
O O12 0.750000 0.750000 0.083017
O O13 0.833785 0.499926 0.118727
O O14 0.750000 0.513135 0.000434
O O15 0.401319 0.750000 0.327281
O O16 0.750000 0.750000 0.918661
O O17 0.750000 0.750000 0.426094
O O18 0.405942 0.750000 0.830943
#
# Coordination Sequence:
#
# PCOD9448130 Si02
#       8
#     8   8   4   4   8   4   4   8
#     4  10  20  38  63  85 111 150 190 226 278 344
#     4   9  18  35  56  75 102 141 181 219 267 330
#     4  10  19  32  50  73 104 138 175 220 266 316
#     4  11  24  41  58  79 114 157 190 221 276 342
#     4   8  16  32  54  77  99 134 181 220 260 320
#     4  11  24  39  57  85 117 147 188 239 278 316
#     4  10  21  34  49  73 105 140 177 218 268 328
#     4  11  22  37  60  89 115 139 182 240 284 324
#
# _framework density 18.435071000000001
#
# number of rings (size 3 to 8) (size 9 to 14) (size 15 to 20)
#    0.000    2.167    0.000    4.500    0.000    5.333 
#    0.000    5.000    0.000    0.000    0.000    0.000 
#    0.000    0.000    0.000    0.000    0.000    0.000 
#
# Total GULP energy -268043.151920 kJ/mol
# GULP energy per Si atom -5584.232332 kJ/mol
# Density = 1.839311 g / cm^3
# Si number density = 18.435071 Si / 1000 Ang^3
#
#
#
# Elastic Constant Matrix: (Units=GPa)
#
#
# Indices 1 2 3 4 5 6 
#
# 1 164.0111 43.2038 150.9059 0.0000 0.0000 0.0000
# 2 43.2038 47.1928 45.9502 0.0000 0.0000 0.0000
# 3 150.9059 45.9502 186.5735 0.0000 0.0000 0.0000
# 4 0.0000 0.0000 0.0000 29.7945 0.0000 0.0000
# 5 0.0000 0.0000 0.0000 0.0000 -14.8592 0.0000
# 6 0.0000 0.0000 0.0000 0.0000 0.0000 23.4620
#
#
#
# Elastic Compliance Matrix: (Units=1/GPa)
#
#
# Indices 1 2 3 4 5 6 
#
# 1 0.024427 -0.004111 -0.018745 0.000000 0.000000 0.000000
# 2 -0.004111 0.028566 -0.003710 0.000000 0.000000 0.000000
# 3 -0.018745 -0.003710 0.021435 0.000000 0.000000 0.000000
# 4 0.000000 0.000000 0.000000 0.033563 0.000000 0.000000
# 5 0.000000 0.000000 0.000000 0.000000 -0.067298 0.000000
# 6 0.000000 0.000000 0.000000 0.000000 0.000000 0.042622
#
#
# Mechanical properties :
#
#
# Convention : Reuss Voigt Hill
#
# Bulk Modulus (GPa) = 46.95803 97.54415 72.25109
# Shear Modulus (GPa) = 34.83200 18.19394 26.51297
#
# Velocity S-wave (km/s) = 4.35149 3.14494 3.79645
# Velocity P-wave (km/s) = 7.12563 8.13724 7.64818
#
# Compressibility (1/GPa) = 0.02129561
#
# Stress axis : x y z
#
# Youngs Moduli (GPa) = 40.93785 35.00700 46.65261
#
# Poissons Ratio (x) = 0.14392 0.87450
# Poissons Ratio (y) = 0.16830 0.17309
# Poissons Ratio (z) = 0.76738 0.12988
#
# Static dielectric constant tensor:
#      x y z
#    x 1.626500 0.000000 0.000000 
#    y 0.000000 1.630100 0.000000 
#    z 0.000000 0.000000 1.603870 
# 
# From -- ./inp_files/27509.got.cif
#   From: 2010.05.17/outbox.cif.g08.bks.cpg/sg59_14_cif.got.tgz:27509.got - 2010.06.03 14:40:33.
