data_PCOD9448515
_publ_section_title
;
Structure prediction by ZEFSAII (Michael W. Deem and Ramdas Pophale) SiO2 
 PCOD9448515
Probable space group: P M M N
;
_chemical_formula_sum "Si O2"
_cell_formula_units_Z 48
_cell_length_a 7.688763
_cell_length_b 16.750058
_cell_length_c 17.511679
_cell_angle_alpha 90.000000
_cell_angle_beta 90.000000
_cell_angle_gamma 90.000000
_cell_volume 2255.280564
_symmetry_space_group_name_H-M "P M M N"
_symmetry_group_IT_number 59
_space_group.IT_coordinate_system_code '2'
_symmetry_cell_setting 'orthorhombic'
loop_
_space_group_symop_operation_xyz
x,y,z
1/2-x,1/2-y,z
1/2+x,-y,-z
-x,1/2+y,-z
-x,-y,-z
1/2+x,1/2+y,-z
1/2-x,y,z
x,1/2-y,z
loop_
_atom_site_type_symbol
_atom_site_label
_atom_site_fract_x
_atom_site_fract_y
_atom_site_fract_z
Si Si1 0.036275 0.250000 0.556035
Si Si2 0.541965 0.070635 0.165664
Si Si3 0.036821 0.108350 0.843068
Si Si4 0.962264 0.750000 0.267577
Si Si5 0.540834 0.339341 0.313489
Si Si6 0.954800 0.588786 0.528621
Si Si7 0.540599 0.839841 0.988144
O O1 0.250000 0.250000 0.553637
O O2 0.983242 0.250000 0.644674
O O3 0.974105 0.167708 0.515654
O O4 0.750000 0.067452 0.174666
O O5 0.474573 0.128028 0.232488
O O6 0.507709 0.103287 0.081331
O O7 0.476389 0.980731 0.174499
O O8 0.250000 0.108856 0.843574
O O9 0.981855 0.172604 0.780379
O O10 0.980299 0.132472 0.928390
O O11 0.750000 0.750000 0.267672
O O12 0.750000 0.334484 0.309037
O O13 0.473942 0.250000 0.329791
O O14 0.499314 0.398119 0.382764
O O15 0.750000 0.594666 0.519677
O O16 0.000000 0.500000 0.500000
O O17 0.750000 0.837738 0.991472
O O18 0.477458 0.750000 0.972671
#
# Coordination Sequence:
#
# PCOD9448515 Si02
#       7
#     4   8   8   4   8   8   8
#     4   9  20  36  59  88 115 144 190 239 281 343
#     4  10  21  34  54  83 110 143 187 232 278 330
#     4   9  17  31  52  79 109 140 178 226 278 331
#     4   9  16  30  54  80 105 136 176 227 275 321
#     4  10  21  38  58  82 115 152 190 234 286 341
#     4  11  23  40  61  90 120 152 194 239 291 350
#     4  10  19  33  52  77 108 144 184 224 274 332
#
# _framework density 21.283380999999999
#
# number of rings (size 3 to 8) (size 9 to 14) (size 15 to 20)
#    0.000    2.167    1.667    1.500    2.333    1.667 
#    0.000    0.000    0.000    0.000    0.000    0.000 
#    0.000    0.000    0.000    0.000    0.000    0.000 
#
# Total GULP energy -268077.592203 kJ/mol
# GULP energy per Si atom -5584.949838 kJ/mol
# Density = 2.123494 g / cm^3
# Si number density = 21.283381 Si / 1000 Ang^3
#
#
#
# Elastic Constant Matrix: (Units=GPa)
#
#
# Indices 1 2 3 4 5 6 
#
# 1 34.7146 15.2296 2.9589 0.0000 0.0000 0.0000
# 2 15.2296 114.8372 32.6749 0.0000 0.0000 0.0000
# 3 2.9589 32.6749 117.2040 0.0000 0.0000 0.0000
# 4 0.0000 0.0000 0.0000 -14.9257 0.0000 0.0000
# 5 0.0000 0.0000 0.0000 0.0000 12.7374 0.0000
# 6 0.0000 0.0000 0.0000 0.0000 0.0000 13.6131
#
#
#
# Elastic Compliance Matrix: (Units=1/GPa)
#
#
# Indices 1 2 3 4 5 6 
#
# 1 0.030602 -0.004169 0.000390 0.000000 0.000000 0.000000
# 2 -0.004169 0.010026 -0.002690 0.000000 0.000000 0.000000
# 3 0.000390 -0.002690 0.009272 0.000000 0.000000 0.000000
# 4 0.000000 0.000000 0.000000 -0.066998 0.000000 0.000000
# 5 0.000000 0.000000 0.000000 0.000000 0.078509 0.000000
# 6 0.000000 0.000000 0.000000 0.000000 0.000000 0.073458
#
#
# Mechanical properties :
#
#
# Convention : Reuss Voigt Hill
#
# Bulk Modulus (GPa) = 27.05501 40.94250 33.99876
# Shear Modulus (GPa) = 31.22483 16.67780 23.95132
#
# Velocity S-wave (km/s) = 3.83443 2.80233 3.35827
# Velocity P-wave (km/s) = 5.68711 5.45430 5.57192
#
# Compressibility (1/GPa) = 0.03696172
#
# Stress axis : x y z
#
# Youngs Moduli (GPa) = 32.67738 99.73779 107.84912
#
# Poissons Ratio (x) = 0.41584 -0.04204
# Poissons Ratio (y) = 0.13624 0.29011
# Poissons Ratio (z) = -0.01274 0.26829
#
# Static dielectric constant tensor:
#      x y z
#    x 1.803260 0.000000 0.000000 
#    y 0.000000 1.764740 0.000000 
#    z 0.000000 0.000000 1.798710 
# 
# From -- ./inp_files/25629.got.cif
#   From: 2010.05.17/outbox.cif.g08.bks.cpg/sg59_13_cif.got.tgz:25629.got - 2010.06.03 14:40:33.
