data_PCOD9448187
_publ_section_title
;
Structure prediction by ZEFSAII (Michael W. Deem and Ramdas Pophale) SiO2 
 PCOD9448187
Probable space group: P M M N
;
_chemical_formula_sum "Si O2"
_cell_formula_units_Z 64
_cell_length_a 8.367587
_cell_length_b 14.585712
_cell_length_c 26.284831
_cell_angle_alpha 90.000000
_cell_angle_beta 90.000000
_cell_angle_gamma 90.000000
_cell_volume 3207.990397
_symmetry_space_group_name_H-M "P M M N"
_symmetry_group_IT_number 59
_space_group.IT_coordinate_system_code '2'
_symmetry_cell_setting 'orthorhombic'
loop_
_space_group_symop_operation_xyz
x,y,z
1/2-x,1/2-y,z
1/2+x,-y,-z
-x,1/2+y,-z
-x,-y,-z
1/2+x,1/2+y,-z
1/2-x,y,z
x,1/2-y,z
loop_
_atom_site_type_symbol
_atom_site_label
_atom_site_fract_x
_atom_site_fract_y
_atom_site_fract_z
Si Si1 0.070702 0.384939 0.452235
Si Si2 0.058329 0.541190 0.924553
Si Si3 0.554555 0.146999 0.673047
Si Si4 0.428616 0.647086 0.651820
Si Si5 0.434452 0.023499 0.269150
Si Si6 0.065919 0.605236 0.440967
Si Si7 0.556594 0.644317 0.824017
Si Si8 0.556908 0.356467 0.971154
O O1 0.250000 0.354897 0.440485
O O2 0.065982 0.495309 0.447093
O O3 0.954056 0.351356 0.408432
O O4 0.025261 0.359162 0.509528
O O5 0.250000 0.541685 0.922802
O O6 0.990982 0.590187 0.874709
O O7 0.002024 0.435954 0.932678
O O8 0.008078 0.602421 0.973645
O O9 0.750000 0.138565 0.671364
O O10 0.514155 0.250000 0.687302
O O11 0.500831 0.128568 0.614908
O O12 0.493632 0.073283 0.713688
O O13 0.250000 0.613679 0.663310
O O14 0.446410 0.750000 0.671541
O O15 0.554267 0.582631 0.679295
O O16 0.250000 0.007123 0.255289
O O17 0.504773 0.085328 0.224206
O O18 0.250000 0.636665 0.443449
O O19 0.750000 0.648308 0.820884
O O20 0.498993 0.750000 0.824006
O O21 0.750000 0.355602 0.969389
O O22 0.503780 0.250000 0.964179
#
# Coordination Sequence:
#
# PCOD9448187 Si02
#       8
#     8   8   8   8   8   8   8   8
#     4  10  19  32  51  75 103 135 169 207 256 318
#     4  10  20  34  55  85 120 155 195 243 288 335
#     4   9  17  32  56  81 102 129 169 216 266 320
#     4  11  23  36  52  76 104 135 171 214 269 328
#     4  10  20  38  59  80 105 137 180 227 272 319
#     4   9  17  31  50  75 104 133 165 205 257 316
#     4  10  21  36  56  82 113 149 187 231 282 336
#     4   9  18  34  56  83 118 160 202 242 285 334
#
# _framework density 19.950184
#
# number of rings (size 3 to 8) (size 9 to 14) (size 15 to 20)
#    0.000    2.250    1.250    1.875    0.000    4.500 
#    0.000    1.875    0.000    3.375    0.000    0.000 
#    0.000    0.000    0.000    0.000    0.000    0.000 
#
# Total GULP energy -356971.804116 kJ/mol
# GULP energy per Si atom -5577.684439 kJ/mol
# Density = 1.990478 g / cm^3
# Si number density = 19.950184 Si / 1000 Ang^3
#
#
#
# Elastic Constant Matrix: (Units=GPa)
#
#
# Indices 1 2 3 4 5 6 
#
# 1 14.1009 15.1479 2.4143 0.0000 0.0000 0.0000
# 2 15.1479 170.1117 74.4954 0.0000 0.0000 0.0000
# 3 2.4143 74.4954 114.0222 0.0000 0.0000 0.0000
# 4 0.0000 0.0000 0.0000 -4.7660 0.0000 0.0000
# 5 0.0000 0.0000 0.0000 0.0000 21.0833 0.0000
# 6 0.0000 0.0000 0.0000 0.0000 0.0000 13.2520
#
#
#
# Elastic Compliance Matrix: (Units=1/GPa)
#
#
# Indices 1 2 3 4 5 6 
#
# 1 0.079787 -0.008916 0.004136 0.000000 0.000000 0.000000
# 2 -0.008916 0.009231 -0.005842 0.000000 0.000000 0.000000
# 3 0.004136 -0.005842 0.012500 0.000000 0.000000 0.000000
# 4 0.000000 0.000000 0.000000 -0.209820 0.000000 0.000000
# 5 0.000000 0.000000 0.000000 0.000000 0.047431 0.000000
# 6 0.000000 0.000000 0.000000 0.000000 0.000000 0.075460
#
#
# Mechanical properties :
#
#
# Convention : Reuss Voigt Hill
#
# Bulk Modulus (GPa) = 12.45750 53.59444 33.02597
# Shear Modulus (GPa) = 79.88364 19.65900 49.77132
#
# Velocity S-wave (km/s) = 6.33470 3.14252 5.00020
# Velocity P-wave (km/s) = 7.73062 6.33164 7.06584
#
# Compressibility (1/GPa) = 0.08027293
#
# Stress axis : x y z
#
# Youngs Moduli (GPa) = 12.53335 108.33326 80.00311
#
# Poissons Ratio (x) = 0.96588 -0.33087
# Poissons Ratio (y) = 0.11175 0.46738
# Poissons Ratio (z) = -0.05183 0.63289
#
# Static dielectric constant tensor:
#      x y z
#    x 1.706100 0.000000 0.000000 
#    y 0.000000 1.733740 0.000000 
#    z 0.000000 0.000000 1.687920 
# 
# From -- ./inp_files/31581.got.cif
#   From: 2010.05.17/outbox.cif.g08.bks.cpg/sg59_16_cif.got.tgz:31581.got - 2010.06.03 14:40:33.
