data_PCOD9448475
_publ_section_title
;
Structure prediction by ZEFSAII (Michael W. Deem and Ramdas Pophale) SiO2 
 PCOD9448475
Probable space group: P M M N
;
_chemical_formula_sum "Si O2"
_cell_formula_units_Z 64
_cell_length_a 19.461270
_cell_length_b 7.439853
_cell_length_c 20.434602
_cell_angle_alpha 90.000000
_cell_angle_beta 90.000000
_cell_angle_gamma 90.000000
_cell_volume 2958.705344
_symmetry_space_group_name_H-M "P M M N"
_symmetry_group_IT_number 59
_space_group.IT_coordinate_system_code '2'
_symmetry_cell_setting 'orthorhombic'
loop_
_space_group_symop_operation_xyz
x,y,z
1/2-x,1/2-y,z
1/2+x,-y,-z
-x,1/2+y,-z
-x,-y,-z
1/2+x,1/2+y,-z
1/2-x,y,z
x,1/2-y,z
loop_
_atom_site_type_symbol
_atom_site_label
_atom_site_fract_x
_atom_site_fract_y
_atom_site_fract_z
Si Si1 0.414779 0.466757 0.098171
Si Si2 0.912409 0.459139 0.649477
Si Si3 0.828353 0.034582 0.528302
Si Si4 0.551889 0.528947 0.284399
Si Si5 0.066291 0.038922 0.863846
Si Si6 0.671655 0.532510 0.776740
Si Si7 0.827599 0.535341 0.379080
Si Si8 0.329271 0.470267 0.971229
O O1 0.413150 0.250000 0.098437
O O2 0.494157 0.520913 0.098339
O O3 0.378432 0.529265 0.165156
O O4 0.370966 0.527032 0.035800
O O5 0.927145 0.250000 0.635720
O O6 0.879869 0.536961 0.583383
O O7 0.856216 0.470678 0.706928
O O8 0.982517 0.534468 0.679851
O O9 0.750000 0.966148 0.536511
O O10 0.825077 0.250000 0.536477
O O11 0.849836 0.999147 0.453778
O O12 0.549678 0.750000 0.283267
O O13 0.556537 0.466196 0.209404
O O14 0.617499 0.471006 0.326501
O O15 0.080466 0.250000 0.855778
O O16 0.128259 0.967146 0.907883
O O17 0.750000 0.475507 0.788217
O O18 0.670651 0.750000 0.776666
O O19 0.750000 0.463789 0.371263
O O20 0.824069 0.750000 0.371237
O O21 0.250000 0.526422 0.972215
O O22 0.329462 0.250000 0.971359
#
# Coordination Sequence:
#
# PCOD9448475 Si02
#       8
#     8   8   8   8   8   8   8   8
#     4  10  19  33  52  74 103 137 168 205 253 302
#     4  10  19  33  51  71 101 135 165 202 250 301
#     4   9  18  32  49  70  96 128 165 203 248 302
#     4   9  18  32  50  74 102 129 163 209 252 293
#     4  10  19  33  54  77 102 134 171 212 252 296
#     4  10  20  32  48  72 101 133 169 206 243 289
#     4   9  18  33  52  72  96 129 166 206 254 300
#     4   9  18  32  52  78 104 133 172 213 253 298
#
# _framework density 21.631083
#
# number of rings (size 3 to 8) (size 9 to 14) (size 15 to 20)
#    0.000    2.500    1.250    1.125    0.000    3.750 
#    0.000    5.000    0.000    2.250    0.000    0.000 
#    0.000    0.000    0.000    0.000    0.000    0.000 
#
# Total GULP energy -357493.044408 kJ/mol
# GULP energy per Si atom -5585.828819 kJ/mol
# Density = 2.158185 g / cm^3
# Si number density = 21.631083 Si / 1000 Ang^3
#
#
#
# Elastic Constant Matrix: (Units=GPa)
#
#
# Indices 1 2 3 4 5 6 
#
# 1 108.6316 -6.5034 103.5060 0.0000 0.0000 0.0000
# 2 -6.5034 64.5354 -1.6074 0.0000 0.0000 0.0000
# 3 103.5060 -1.6074 137.6265 0.0000 0.0000 0.0000
# 4 0.0000 0.0000 0.0000 -1.7762 0.0000 0.0000
# 5 0.0000 0.0000 0.0000 0.0000 29.5545 0.0000
# 6 0.0000 0.0000 0.0000 0.0000 0.0000 -48.8277
#
#
#
# Elastic Compliance Matrix: (Units=1/GPa)
#
#
# Indices 1 2 3 4 5 6 
#
# 1 0.032946 0.002704 -0.024747 0.000000 0.000000 0.000000
# 2 0.002704 0.015722 -0.001850 0.000000 0.000000 0.000000
# 3 -0.024747 -0.001850 0.025856 0.000000 0.000000 0.000000
# 4 0.000000 0.000000 0.000000 -0.563008 0.000000 0.000000
# 5 0.000000 0.000000 0.000000 0.000000 0.033836 0.000000
# 6 0.000000 0.000000 0.000000 0.000000 0.000000 -0.020480
#
#
# Mechanical properties :
#
#
# Convention : Reuss Voigt Hill
#
# Bulk Modulus (GPa) = 37.39924 55.73154 46.56539
# Shear Modulus (GPa) = -11.94943 10.15003 -0.89970
#
# Velocity S-wave (km/s) = -2.35291 2.16853 -0.64563
# Velocity P-wave (km/s) = 3.15365 5.66485 4.58454
#
# Compressibility (1/GPa) = 0.02673851
#
# Stress axis : x y z
#
# Youngs Moduli (GPa) = 30.35239 63.60611 38.67591
#
# Poissons Ratio (x) = -0.17197 0.95710
# Poissons Ratio (y) = -0.08206 0.07154
# Poissons Ratio (z) = 0.75112 0.11766
#
# Static dielectric constant tensor:
#      x y z
#    x 1.757510 0.000000 0.000000 
#    y 0.000000 1.821340 0.000000 
#    z 0.000000 0.000000 1.750930 
# 
# From -- ./inp_files/26319.got.cif
#   From: 2010.05.17/outbox.cif.g08.bks.cpg/sg59_14_cif.got.tgz:26319.got - 2010.06.03 14:40:33.
