data_PCOD9448314
_publ_section_title
;
Structure prediction by ZEFSAII (Michael W. Deem and Ramdas Pophale) SiO2 
 PCOD9448314
Probable space group: P M M N
;
_chemical_formula_sum "Si O2"
_cell_formula_units_Z 64
_cell_length_a 25.711490
_cell_length_b 14.607024
_cell_length_c 8.714314
_cell_angle_alpha 90.000000
_cell_angle_beta 90.000000
_cell_angle_gamma 90.000000
_cell_volume 3272.820543
_symmetry_space_group_name_H-M "P M M N"
_symmetry_group_IT_number 59
_space_group.IT_coordinate_system_code '2'
_symmetry_cell_setting 'orthorhombic'
loop_
_space_group_symop_operation_xyz
x,y,z
1/2-x,1/2-y,z
1/2+x,-y,-z
-x,1/2+y,-z
-x,-y,-z
1/2+x,1/2+y,-z
1/2-x,y,z
x,1/2-y,z
loop_
_atom_site_type_symbol
_atom_site_label
_atom_site_fract_x
_atom_site_fract_y
_atom_site_fract_z
Si Si1 0.509973 0.361643 0.501463
Si Si2 0.592313 0.856430 0.346286
Si Si3 0.945719 0.852427 0.997675
Si Si4 0.691435 0.965799 0.237066
Si Si5 0.946759 0.357279 0.167113
Si Si6 0.307719 0.649064 0.573416
Si Si7 0.374239 0.984123 0.028011
Si Si8 0.891996 0.143510 0.693902
O O1 0.508019 0.250000 0.504747
O O2 0.451467 0.393830 0.537188
O O3 0.532218 0.385586 0.334452
O O4 0.551588 0.387704 0.632076
O O5 0.602928 0.750000 0.383275
O O6 0.646316 0.909202 0.323681
O O7 0.564165 0.858281 0.179598
O O8 0.930341 0.750000 0.946874
O O9 0.005286 0.864137 0.951195
O O10 0.911064 0.931577 0.925668
O O11 0.750000 0.928993 0.255602
O O12 0.690534 0.067299 0.307570
O O13 0.675430 0.974384 0.058581
O O14 0.930912 0.250000 0.174824
O O15 0.903505 0.424577 0.102925
O O16 0.250000 0.645651 0.499718
O O17 0.312938 0.750000 0.645828
O O18 0.352982 0.640208 0.449732
O O19 0.369088 0.917807 0.171401
O O20 0.896617 0.250000 0.743418
#
# Coordination Sequence:
#
# PCOD9448314 Si02
#       8
#     8   8   8   8   8   8   8   8
#     4   9  18  32  52  80 113 143 169 205 257 318
#     4   9  18  35  57  79 105 137 173 215 265 319
#     4   9  19  35  51  70 102 140 174 210 253 305
#     4  10  22  38  55  77 103 134 177 227 271 311
#     4  10  19  32  52  80 114 144 171 206 251 311
#     4   9  19  37  57  75 102 143 183 216 257 310
#     4  11  21  33  52  78 105 139 177 215 262 313
#     4  10  20  34  54  81 112 142 174 214 259 312
#
# _framework density 19.554998000000001
#
# number of rings (size 3 to 8) (size 9 to 14) (size 15 to 20)
#    0.000    2.375    0.000    2.250    0.000    6.750 
#    0.000    3.750    0.000    0.000    0.000    0.000 
#    0.000    5.000    0.000    0.000    0.000    0.000 
#
# Total GULP energy -357275.353920 kJ/mol
# GULP energy per Si atom -5582.427405 kJ/mol
# Density = 1.951049 g / cm^3
# Si number density = 19.554998 Si / 1000 Ang^3
#
#
#
# Elastic Constant Matrix: (Units=GPa)
#
#
# Indices 1 2 3 4 5 6 
#
# 1 108.8802 18.9771 18.3626 0.0000 0.0000 0.0000
# 2 18.9771 51.7127 1.9120 0.0000 0.0000 0.0000
# 3 18.3626 1.9120 23.8780 0.0000 0.0000 0.0000
# 4 0.0000 0.0000 0.0000 16.3229 0.0000 0.0000
# 5 0.0000 0.0000 0.0000 0.0000 20.4862 0.0000
# 6 0.0000 0.0000 0.0000 0.0000 0.0000 17.6600
#
#
#
# Elastic Compliance Matrix: (Units=1/GPa)
#
#
# Indices 1 2 3 4 5 6 
#
# 1 0.011259 -0.003823 -0.008353 0.000000 0.000000 0.000000
# 2 -0.003823 0.020693 0.001283 0.000000 0.000000 0.000000
# 3 -0.008353 0.001283 0.048200 0.000000 0.000000 0.000000
# 4 0.000000 0.000000 0.000000 0.061264 0.000000 0.000000
# 5 0.000000 0.000000 0.000000 0.000000 0.048813 0.000000
# 6 0.000000 0.000000 0.000000 0.000000 0.000000 0.056625
#
#
# Mechanical properties :
#
#
# Convention : Reuss Voigt Hill
#
# Bulk Modulus (GPa) = 17.13282 29.21935 23.17609
# Shear Modulus (GPa) = 17.35534 20.57510 18.96522
#
# Velocity S-wave (km/s) = 2.98235 3.24723 3.11760
# Velocity P-wave (km/s) = 4.54308 5.38831 4.98365
#
# Compressibility (1/GPa) = 0.05836749
#
# Stress axis : x y z
#
# Youngs Moduli (GPa) = 88.81475 48.32525 20.74686
#
# Poissons Ratio (x) = 0.18475 0.17329
# Poissons Ratio (y) = 0.33954 -0.02662
# Poissons Ratio (z) = 0.74183 -0.06200
#
# Static dielectric constant tensor:
#      x y z
#    x 1.707950 0.000000 0.000000 
#    y 0.000000 1.718440 0.000000 
#    z 0.000000 0.000000 1.676140 
# 
# From -- ./inp_files/12207.got.cif
#   From: 2010.05.17/outbox.cif.g08.bks.cpg/sg59_7_cif.got.tgz:12207.got - 2010.06.03 14:40:33.
