data_PCOD9448380
_publ_section_title
;
Structure prediction by ZEFSAII (Michael W. Deem and Ramdas Pophale) SiO2 
 PCOD9448380
Probable space group: P M M N
;
_chemical_formula_sum "Si O2"
_cell_formula_units_Z 64
_cell_length_a 8.809851
_cell_length_b 20.351661
_cell_length_c 20.502050
_cell_angle_alpha 90.000000
_cell_angle_beta 90.000000
_cell_angle_gamma 90.000000
_cell_volume 3675.917126
_symmetry_space_group_name_H-M "P M M N"
_symmetry_group_IT_number 59
_space_group.IT_coordinate_system_code '2'
_symmetry_cell_setting 'orthorhombic'
loop_
_space_group_symop_operation_xyz
x,y,z
1/2-x,1/2-y,z
1/2+x,-y,-z
-x,1/2+y,-z
-x,-y,-z
1/2+x,1/2+y,-z
1/2-x,y,z
x,1/2-y,z
loop_
_atom_site_type_symbol
_atom_site_label
_atom_site_fract_x
_atom_site_fract_y
_atom_site_fract_z
Si Si1 0.567201 0.174377 0.587787
Si Si2 0.568841 0.913679 0.304277
Si Si3 0.930446 0.429981 0.978292
Si Si4 0.432639 0.174536 0.077960
Si Si5 0.431367 0.083920 0.196020
Si Si6 0.068252 0.930333 0.522657
Si Si7 0.931015 0.945436 0.659301
Si Si8 0.069730 0.444677 0.841480
O O1 0.750000 0.170441 0.594611
O O2 0.526191 0.250000 0.575802
O O3 0.491162 0.146122 0.652907
O O4 0.523455 0.126274 0.528385
O O5 0.750000 0.920983 0.311336
O O6 0.534736 0.909268 0.227175
O O7 0.489506 0.979995 0.330611
O O8 0.750000 0.434344 0.981994
O O9 0.983707 0.417774 0.904276
O O10 0.000000 0.500000 0.000000
O O11 0.991531 0.373424 0.025695
O O12 0.250000 0.171536 0.069329
O O13 0.480763 0.250000 0.071691
O O14 0.465707 0.145106 0.149679
O O15 0.250000 0.070423 0.191330
O O16 0.466831 0.090990 0.272562
O O17 0.518591 0.020134 0.169392
O O18 0.250000 0.935477 0.522848
O O19 0.009039 0.916812 0.595318
O O20 0.000000 0.000000 0.500000
O O21 0.750000 0.946520 0.650282
O O22 0.250000 0.442116 0.852690
#
# Coordination Sequence:
#
# PCOD9448380 Si02
#       8
#     8   8   8   8   8   8   8   8
#     4  10  22  39  57  78 109 150 190 230 282 340
#     4  10  20  34  55  83 111 141 181 228 278 331
#     4  12  23  36  57  85 115 149 191 237 284 335
#     4  10  21  38  59  83 114 152 191 234 286 339
#     4   9  18  33  54  80 110 146 184 226 277 332
#     4  11  21  34  55  82 111 145 186 234 283 331
#     4  10  19  32  53  82 113 144 182 228 275 326
#     4  10  20  34  55  84 113 142 180 231 283 330
#
# _framework density 17.410620000000002
#
# number of rings (size 3 to 8) (size 9 to 14) (size 15 to 20)
#    0.000    1.750    2.500    2.625    0.000    3.000 
#    0.000    1.250    0.000    1.500    0.000    0.000 
#    0.000    0.000    0.000    0.000    0.000    0.000 
#
# Total GULP energy -357340.235739 kJ/mol
# GULP energy per Si atom -5583.441183 kJ/mol
# Density = 1.737099 g / cm^3
# Si number density = 17.410620 Si / 1000 Ang^3
#
#
#
# Elastic Constant Matrix: (Units=GPa)
#
#
# Indices 1 2 3 4 5 6 
#
# 1 54.5607 50.1775 57.2516 0.0000 0.0000 0.0000
# 2 50.1775 125.9690 83.8151 0.0000 0.0000 0.0000
# 3 57.2516 83.8151 147.4288 0.0000 0.0000 0.0000
# 4 0.0000 0.0000 0.0000 25.1506 0.0000 0.0000
# 5 0.0000 0.0000 0.0000 0.0000 31.6433 0.0000
# 6 0.0000 0.0000 0.0000 0.0000 0.0000 20.3124
#
#
#
# Elastic Compliance Matrix: (Units=1/GPa)
#
#
# Indices 1 2 3 4 5 6 
#
# 1 0.035261 -0.007937 -0.009181 0.000000 0.000000 0.000000
# 2 -0.007937 0.014555 -0.005192 0.000000 0.000000 0.000000
# 3 -0.009181 -0.005192 0.013300 0.000000 0.000000 0.000000
# 4 0.000000 0.000000 0.000000 0.039760 0.000000 0.000000
# 5 0.000000 0.000000 0.000000 0.000000 0.031602 0.000000
# 6 0.000000 0.000000 0.000000 0.000000 0.000000 0.049231
#
#
# Mechanical properties :
#
#
# Convention : Reuss Voigt Hill
#
# Bulk Modulus (GPa) = 54.06677 78.93853 66.50265
# Shear Modulus (GPa) = 21.32235 24.53557 22.92896
#
# Velocity S-wave (km/s) = 3.50333 3.75804 3.63292
# Velocity P-wave (km/s) = 6.89099 8.01675 7.47509
#
# Compressibility (1/GPa) = 0.01849565
#
# Stress axis : x y z
#
# Youngs Moduli (GPa) = 28.35970 68.70539 75.18767
#
# Poissons Ratio (x) = 0.54533 0.69028
# Poissons Ratio (y) = 0.22510 0.39040
# Poissons Ratio (z) = 0.26036 0.35674
#
# Static dielectric constant tensor:
#      x y z
#    x 1.584060 0.000000 0.000000 
#    y 0.000000 1.560130 0.000000 
#    z 0.000000 0.000000 1.608510 
# 
# From -- ./inp_files/29467.got.cif
#   From: 2010.05.17/outbox.cif.g08.bks.cpg/sg59_15_cif.got.tgz:29467.got - 2010.06.03 14:40:33.
