data_PCOD9448870
_publ_section_title
;
Structure prediction by ZEFSAII (Michael W. Deem and Ramdas Pophale) SiO2 
 PCOD9448870
Probable space group: P M M N
;
_chemical_formula_sum "Si O2"
_cell_formula_units_Z 56
_cell_length_a 20.340071
_cell_length_b 7.889082
_cell_length_c 17.887137
_cell_angle_alpha 90.000000
_cell_angle_beta 90.000000
_cell_angle_gamma 90.000000
_cell_volume 2870.250281
_symmetry_space_group_name_H-M "P M M N"
_symmetry_group_IT_number 59
_space_group.IT_coordinate_system_code '2'
_symmetry_cell_setting 'orthorhombic'
loop_
_space_group_symop_operation_xyz
x,y,z
1/2-x,1/2-y,z
1/2+x,-y,-z
-x,1/2+y,-z
-x,-y,-z
1/2+x,1/2+y,-z
1/2-x,y,z
x,1/2-y,z
loop_
_atom_site_type_symbol
_atom_site_label
_atom_site_fract_x
_atom_site_fract_y
_atom_site_fract_z
Si Si1 0.824010 0.948224 0.308647
Si Si2 0.324181 0.545554 0.118154
Si Si3 0.175140 0.957386 0.947348
Si Si4 0.551664 0.545018 0.601224
Si Si5 0.061317 0.453295 0.230993
Si Si6 0.095313 0.950358 0.555748
Si Si7 0.579337 0.051150 0.180405
O O1 0.750000 0.014976 0.299412
O O2 0.824142 0.750000 0.289216
O O3 0.849031 0.967754 0.393367
O O4 0.875966 0.036468 0.254195
O O5 0.250000 0.487871 0.136729
O O6 0.323526 0.750000 0.117487
O O7 0.378360 0.489479 0.176833
O O8 0.338708 0.490962 0.032782
O O9 0.250000 0.009083 0.927918
O O10 0.174969 0.750000 0.945477
O O11 0.121660 0.020898 0.888306
O O12 0.551835 0.750000 0.599231
O O13 0.570811 0.485482 0.683888
O O14 0.476643 0.488419 0.584017
O O15 0.596224 0.484748 0.532534
O O16 0.053948 0.250000 0.236908
O O17 0.992610 0.521919 0.197462
O O18 0.098404 0.750000 0.568725
O O19 0.569860 0.250000 0.163561
#
# Coordination Sequence:
#
# PCOD9448870 Si02
#       7
#     8   8   8   8   8   8   8
#     4  11  23  36  51  77 114 149 179 219 271 319
#     4   9  19  36  55  76 103 138 182 225 267 320
#     4   8  15  30  53  77 103 140 182 222 264 311
#     4   9  18  34  53  77 108 136 168 216 267 314
#     4  10  20  34  53  81 112 138 172 220 272 322
#     4  10  19  34  56  79 101 136 182 218 255 312
#     4  10  19  34  55  80 107 140 183 223 263 321
#
# _framework density 19.510494000000001
#
# number of rings (size 3 to 8) (size 9 to 14) (size 15 to 20)
#    0.000    2.429    1.429    2.143    0.000    4.286 
#    0.000    1.429    0.000    1.714    0.000    0.000 
#    0.000    0.000    0.000    0.000    0.000    0.000 
#
# Total GULP energy -312468.260330 kJ/mol
# GULP energy per Si atom -5579.790363 kJ/mol
# Density = 1.946609 g / cm^3
# Si number density = 19.510494 Si / 1000 Ang^3
#
#
#
# Elastic Constant Matrix: (Units=GPa)
#
#
# Indices 1 2 3 4 5 6 
#
# 1 109.8820 -4.8435 80.1566 0.0000 0.0000 0.0000
# 2 -4.8435 16.7745 -4.7322 0.0000 0.0000 0.0000
# 3 80.1566 -4.7322 142.2425 0.0000 0.0000 0.0000
# 4 0.0000 0.0000 0.0000 16.7281 0.0000 0.0000
# 5 0.0000 0.0000 0.0000 0.0000 24.0860 0.0000
# 6 0.0000 0.0000 0.0000 0.0000 0.0000 12.3048
#
#
#
# Elastic Compliance Matrix: (Units=1/GPa)
#
#
# Indices 1 2 3 4 5 6 
#
# 1 0.015521 0.002033 -0.008679 0.000000 0.000000 0.000000
# 2 0.002033 0.060446 0.000865 0.000000 0.000000 0.000000
# 3 -0.008679 0.000865 0.011950 0.000000 0.000000 0.000000
# 4 0.000000 0.000000 0.000000 0.059780 0.000000 0.000000
# 5 0.000000 0.000000 0.000000 0.000000 0.041518 0.000000
# 6 0.000000 0.000000 0.000000 0.000000 0.000000 0.081269
#
#
# Mechanical properties :
#
#
# Convention : Reuss Voigt Hill
#
# Bulk Modulus (GPa) = 13.09661 45.56230 29.32945
# Shear Modulus (GPa) = 16.26033 23.84499 20.05266
#
# Velocity S-wave (km/s) = 2.89002 3.49974 3.20939
# Velocity P-wave (km/s) = 4.22652 6.30351 5.36646
#
# Compressibility (1/GPa) = 0.07635566
#
# Stress axis : x y z
#
# Youngs Moduli (GPa) = 64.42698 16.54382 83.68324
#
# Poissons Ratio (x) = -0.03364 0.72629
# Poissons Ratio (y) = -0.13100 -0.07240
# Poissons Ratio (z) = 0.55916 -0.01431
#
# Static dielectric constant tensor:
#      x y z
#    x 1.669050 0.000000 0.000000 
#    y 0.000000 1.722320 0.000000 
#    z 0.000000 0.000000 1.680850 
# 
# From -- ./inp_files/28045.got.cif
#   From: 2010.05.17/outbox.cif.g08.bks.cpg/sg59_15_cif.got.tgz:28045.got - 2010.06.03 14:40:33.
