data_PCOD9448610
_publ_section_title
;
Structure prediction by ZEFSAII (Michael W. Deem and Ramdas Pophale) SiO2 
 PCOD9448610
Probable space group: P M M N
;
_chemical_formula_sum "Si O2"
_cell_formula_units_Z 64
_cell_length_a 21.010370
_cell_length_b 7.644729
_cell_length_c 17.895575
_cell_angle_alpha 90.000000
_cell_angle_beta 90.000000
_cell_angle_gamma 90.000000
_cell_volume 2874.361931
_symmetry_space_group_name_H-M "P M M N"
_symmetry_group_IT_number 59
_space_group.IT_coordinate_system_code '2'
_symmetry_cell_setting 'orthorhombic'
loop_
_space_group_symop_operation_xyz
x,y,z
1/2-x,1/2-y,z
1/2+x,-y,-z
-x,1/2+y,-z
-x,-y,-z
1/2+x,1/2+y,-z
1/2-x,y,z
x,1/2-y,z
loop_
_atom_site_type_symbol
_atom_site_label
_atom_site_fract_x
_atom_site_fract_y
_atom_site_fract_z
Si Si1 0.554215 0.948657 0.214459
Si Si2 0.901624 0.035250 0.429504
Si Si3 0.821384 0.963759 0.881419
Si Si4 0.642428 0.952135 0.717311
Si Si5 0.177408 0.539134 0.717930
Si Si6 0.981658 0.945767 0.648255
Si Si7 0.963767 0.958165 0.923348
Si Si8 0.182638 0.959622 0.438363
O O1 0.546115 0.750000 0.239237
O O2 0.629858 0.984034 0.214848
O O3 0.527780 0.068234 0.280265
O O4 0.510211 0.974581 0.142337
O O5 0.903187 0.250000 0.429174
O O6 0.855161 0.983074 0.360866
O O7 0.972884 0.971121 0.413145
O O8 0.873572 0.978992 0.508480
O O9 0.750000 0.020650 0.907304
O O10 0.819957 0.750000 0.885472
O O11 0.829030 0.019660 0.794205
O O12 0.889417 0.019727 0.918141
O O13 0.626419 0.750000 0.735381
O O14 0.578758 0.039041 0.684321
O O15 0.684047 0.960045 0.643530
O O16 0.250000 0.476356 0.724722
O O17 0.179078 0.750000 0.716780
O O18 0.963082 0.750000 0.623802
O O19 0.960680 0.750000 0.914366
O O20 0.000000 0.000000 0.000000
O O21 0.250000 0.995024 0.477310
O O22 0.177573 0.750000 0.429596
#
# Coordination Sequence:
#
# PCOD9448610 Si02
#       8
#     8   8   8   8   8   8   8   8
#     4  11  21  34  55  84 117 149 182 226 280 337
#     4   8  15  29  50  72 100 140 188 233 282 342
#     4   9  18  35  61  88 113 145 185 228 276 333
#     4  10  19  33  54  78 105 139 183 231 282 336
#     4   9  17  32  56  81 106 146 198 245 288 337
#     4   9  17  33  55  77 100 138 186 233 279 333
#     4  11  22  40  64  90 118 150 188 226 272 334
#     4  10  20  32  45  67 102 143 185 233 288 341
#
# _framework density 22.265810999999999
#
# number of rings (size 3 to 8) (size 9 to 14) (size 15 to 20)
#    0.000    2.375    1.250    3.000    0.000    3.500 
#    0.000    3.125    0.000    7.500    0.000    0.000 
#    0.000    0.000    0.000    0.000    0.000    0.000 
#
# Total GULP energy -356670.344811 kJ/mol
# GULP energy per Si atom -5572.974138 kJ/mol
# Density = 2.221513 g / cm^3
# Si number density = 22.265811 Si / 1000 Ang^3
#
#
#
# Elastic Constant Matrix: (Units=GPa)
#
#
# Indices 1 2 3 4 5 6 
#
# 1 183.1144 8.9154 48.7682 0.0000 0.0000 0.0000
# 2 8.9154 65.5213 1.0397 0.0000 0.0000 0.0000
# 3 48.7682 1.0397 82.0456 0.0000 0.0000 0.0000
# 4 0.0000 0.0000 0.0000 13.0675 0.0000 0.0000
# 5 0.0000 0.0000 0.0000 0.0000 16.0313 0.0000
# 6 0.0000 0.0000 0.0000 0.0000 0.0000 6.1870
#
#
#
# Elastic Compliance Matrix: (Units=1/GPa)
#
#
# Indices 1 2 3 4 5 6 
#
# 1 0.006533 -0.000827 -0.003873 0.000000 0.000000 0.000000
# 2 -0.000827 0.015370 0.000297 0.000000 0.000000 0.000000
# 3 -0.003873 0.000297 0.014486 0.000000 0.000000 0.000000
# 4 0.000000 0.000000 0.000000 0.076526 0.000000 0.000000
# 5 0.000000 0.000000 0.000000 0.000000 0.062378 0.000000
# 6 0.000000 0.000000 0.000000 0.000000 0.000000 0.161628
#
#
# Mechanical properties :
#
#
# Convention : Reuss Voigt Hill
#
# Bulk Modulus (GPa) = 36.25376 49.79198 43.02287
# Shear Modulus (GPa) = 14.08762 25.18769 19.63766
#
# Velocity S-wave (km/s) = 2.51809 3.36702 2.97301
# Velocity P-wave (km/s) = 4.97714 6.12592 5.58116
#
# Compressibility (1/GPa) = 0.02758334
#
# Stress axis : x y z
#
# Youngs Moduli (GPa) = 153.07548 65.06140 69.02997
#
# Poissons Ratio (x) = 0.05384 0.26732
# Poissons Ratio (y) = 0.12666 -0.02051
# Poissons Ratio (z) = 0.59280 -0.01933
#
# Static dielectric constant tensor:
#      x y z
#    x 1.937290 0.000000 0.000000 
#    y 0.000000 1.834750 0.000000 
#    z 0.000000 0.000000 1.755220 
# 
# From -- ./inp_files/28191.got.cif
#   From: 2010.05.17/outbox.cif.g08.bks.cpg/sg59_15_cif.got.tgz:28191.got - 2010.06.03 14:40:33.
