data_PCOD9448425
_publ_section_title
;
Structure prediction by ZEFSAII (Michael W. Deem and Ramdas Pophale) SiO2 
 PCOD9448425
Probable space group: P M M N
;
_chemical_formula_sum "Si O2"
_cell_formula_units_Z 64
_cell_length_a 14.037496
_cell_length_b 19.330335
_cell_length_c 11.917002
_cell_angle_alpha 90.000000
_cell_angle_beta 90.000000
_cell_angle_gamma 90.000000
_cell_volume 3233.672537
_symmetry_space_group_name_H-M "P M M N"
_symmetry_group_IT_number 59
_space_group.IT_coordinate_system_code '2'
_symmetry_cell_setting 'orthorhombic'
loop_
_space_group_symop_operation_xyz
x,y,z
1/2-x,1/2-y,z
1/2+x,-y,-z
-x,1/2+y,-z
-x,-y,-z
1/2+x,1/2+y,-z
1/2-x,y,z
x,1/2-y,z
loop_
_atom_site_type_symbol
_atom_site_label
_atom_site_fract_x
_atom_site_fract_y
_atom_site_fract_z
Si Si1 0.856719 0.418531 0.801267
Si Si2 0.007922 0.635048 0.021894
Si Si3 0.860412 0.332363 0.193993
Si Si4 0.853090 0.943144 0.942415
Si Si5 0.638406 0.826443 0.207761
Si Si6 0.479172 0.590177 0.625739
Si Si7 0.641822 0.669257 0.758742
Si Si8 0.521035 0.574752 0.368237
O O1 0.750000 0.399134 0.776835
O O2 0.859033 0.496118 0.851975
O O3 0.902687 0.371414 0.896260
O O4 0.921687 0.414449 0.694192
O O5 0.928234 0.674974 0.096236
O O6 0.948244 0.563189 0.013584
O O7 0.059784 0.652665 0.903538
O O8 0.750000 0.351730 0.163825
O O9 0.861780 0.250000 0.211581
O O10 0.894272 0.371075 0.307407
O O11 0.750000 0.952460 0.999602
O O12 0.854314 0.869201 0.878685
O O13 0.750000 0.838247 0.180751
O O14 0.631109 0.750000 0.259916
O O15 0.598081 0.882967 0.294975
O O16 0.571542 0.622310 0.687035
O O17 0.503530 0.599946 0.494710
O O18 0.461393 0.507843 0.636833
O O19 0.750000 0.667221 0.714156
O O20 0.613045 0.750000 0.766673
#
# Coordination Sequence:
#
# PCOD9448425 Si02
#       8
#     8   8   8   8   8   8   8   8
#     4  10  20  36  57  83 117 159 203 250 296 347
#     4  11  20  36  60  88 120 162 203 249 296 362
#     4  11  24  40  59  87 124 164 209 258 306 358
#     4  10  19  32  54  85 121 155 191 238 297 359
#     4  10  23  42  63  90 124 161 202 251 311 375
#     4  11  22  40  62  88 120 156 203 251 308 367
#     4  10  20  34  57  90 123 154 189 234 294 363
#     4  10  23  40  63  89 116 156 202 255 306 363
#
# _framework density 19.791739
#
# number of rings (size 3 to 8) (size 9 to 14) (size 15 to 20)
#    0.000    1.625    2.500    1.875    0.000    4.000 
#    0.000    5.000    0.000    3.375    0.000    0.000 
#    0.000    0.000    0.000    0.000    0.000    0.000 
#
# Total GULP energy -356370.711950 kJ/mol
# GULP energy per Si atom -5568.292374 kJ/mol
# Density = 1.974669 g / cm^3
# Si number density = 19.791739 Si / 1000 Ang^3
#
#
#
# Elastic Constant Matrix: (Units=GPa)
#
#
# Indices 1 2 3 4 5 6 
#
# 1 123.6656 37.4252 21.2191 0.0000 0.0000 0.0000
# 2 37.4252 64.9588 27.6248 0.0000 0.0000 0.0000
# 3 21.2191 27.6248 79.1435 0.0000 0.0000 0.0000
# 4 0.0000 0.0000 0.0000 13.7284 0.0000 0.0000
# 5 0.0000 0.0000 0.0000 0.0000 -12.7231 0.0000
# 6 0.0000 0.0000 0.0000 0.0000 0.0000 27.3679
#
#
#
# Elastic Compliance Matrix: (Units=1/GPa)
#
#
# Indices 1 2 3 4 5 6 
#
# 1 0.009834 -0.005337 -0.000774 0.000000 0.000000 0.000000
# 2 -0.005337 0.020974 -0.005890 0.000000 0.000000 0.000000
# 3 -0.000774 -0.005890 0.014899 0.000000 0.000000 0.000000
# 4 0.000000 0.000000 0.000000 0.072842 0.000000 0.000000
# 5 0.000000 0.000000 0.000000 0.000000 -0.078597 0.000000
# 6 0.000000 0.000000 0.000000 0.000000 0.000000 0.036539
#
#
# Mechanical properties :
#
#
# Convention : Reuss Voigt Hill
#
# Bulk Modulus (GPa) = 46.07140 48.92289 47.49714
# Shear Modulus (GPa) = 46.41364 17.77456 32.09410
#
# Velocity S-wave (km/s) = 4.84788 3.00005 4.03127
# Velocity P-wave (km/s) = 7.39355 6.06407 6.76156
#
# Compressibility (1/GPa) = 0.02170544
#
# Stress axis : x y z
#
# Youngs Moduli (GPa) = 101.68620 47.67830 67.12007
#
# Poissons Ratio (x) = 0.25445 0.05194
# Poissons Ratio (y) = 0.54267 0.39534
# Poissons Ratio (z) = 0.07869 0.28083
#
# Static dielectric constant tensor:
#      x y z
#    x 1.756680 0.000000 0.000000 
#    y 0.000000 1.733790 0.000000 
#    z 0.000000 0.000000 1.718720 
# 
# From -- ./inp_files/17241.got.cif
#   From: 2010.05.17/outbox.cif.g08.bks.cpg/sg59_9_cif.got.tgz:17241.got - 2010.06.03 14:40:33.
