data_PCOD9448859
_publ_section_title
;
Structure prediction by ZEFSAII (Michael W. Deem and Ramdas Pophale) SiO2 
 PCOD9448859
Probable space group: P M M N
;
_chemical_formula_sum "Si O2"
_cell_formula_units_Z 56
_cell_length_a 8.841575
_cell_length_b 20.207412
_cell_length_c 17.647572
_cell_angle_alpha 90.000000
_cell_angle_beta 90.000000
_cell_angle_gamma 90.000000
_cell_volume 3153.009606
_symmetry_space_group_name_H-M "P M M N"
_symmetry_group_IT_number 59
_space_group.IT_coordinate_system_code '2'
_symmetry_cell_setting 'orthorhombic'
loop_
_space_group_symop_operation_xyz
x,y,z
1/2-x,1/2-y,z
1/2+x,-y,-z
-x,1/2+y,-z
-x,-y,-z
1/2+x,1/2+y,-z
1/2-x,y,z
x,1/2-y,z
loop_
_atom_site_type_symbol
_atom_site_label
_atom_site_fract_x
_atom_site_fract_y
_atom_site_fract_z
Si Si1 0.928487 0.951295 0.110450
Si Si2 0.565672 0.324326 0.181921
Si Si3 0.566956 0.420400 0.318028
Si Si4 0.930695 0.826638 0.377542
Si Si5 0.929921 0.440461 0.724664
Si Si6 0.431532 0.673747 0.542518
Si Si7 0.430100 0.596627 0.961465
O O1 0.750000 0.943408 0.123155
O O2 0.014607 0.939294 0.188423
O O3 0.954526 0.026574 0.081561
O O4 0.984970 0.906195 0.041069
O O5 0.750000 0.324661 0.182997
O O6 0.515424 0.250000 0.199205
O O7 0.518745 0.377032 0.245165
O O8 0.520552 0.347812 0.098184
O O9 0.750000 0.426837 0.315660
O O10 0.495191 0.492465 0.312576
O O11 0.526725 0.378329 0.392544
O O12 0.750000 0.833579 0.374504
O O13 0.969494 0.750000 0.360133
O O14 0.006544 0.877597 0.320369
O O15 0.987983 0.839593 0.462959
O O16 0.750000 0.441305 0.721629
O O17 0.250000 0.669848 0.531889
O O18 0.465478 0.750000 0.565596
O O19 0.250000 0.602424 0.975123
#
# Coordination Sequence:
#
# PCOD9448859 Si02
#       7
#     8   8   8   8   8   8   8
#     4  10  19  34  55  78 106 142 183 228 276 328
#     4   9  16  29  52  81 113 148 186 228 274 324
#     4  10  19  34  55  83 116 150 188 228 273 326
#     4  10  22  41  63  83 107 142 182 228 286 343
#     4  12  24  37  57  84 113 145 185 233 282 331
#     4   9  18  34  58  86 115 149 189 230 274 329
#     4   9  17  31  52  79 107 141 184 227 273 326
#
# _framework density 17.760808000000001
#
# number of rings (size 3 to 8) (size 9 to 14) (size 15 to 20)
#    0.000    2.143    1.429    2.571    0.000    4.286 
#    0.000    0.714    0.000    5.143    0.000    0.000 
#    0.000    0.000    0.000    0.000    0.000    0.000 
#
# Total GULP energy -312571.855145 kJ/mol
# GULP energy per Si atom -5581.640270 kJ/mol
# Density = 1.772038 g / cm^3
# Si number density = 17.760808 Si / 1000 Ang^3
#
#
#
# Elastic Constant Matrix: (Units=GPa)
#
#
# Indices 1 2 3 4 5 6 
#
# 1 53.0130 54.0275 61.8793 0.0000 0.0000 0.0000
# 2 54.0275 107.3970 78.3141 0.0000 0.0000 0.0000
# 3 61.8793 78.3141 120.0314 0.0000 0.0000 0.0000
# 4 0.0000 0.0000 0.0000 26.5561 0.0000 0.0000
# 5 0.0000 0.0000 0.0000 0.0000 29.1371 0.0000
# 6 0.0000 0.0000 0.0000 0.0000 0.0000 17.6973
#
#
#
# Elastic Compliance Matrix: (Units=1/GPa)
#
#
# Indices 1 2 3 4 5 6 
#
# 1 0.056177 -0.013624 -0.020071 0.000000 0.000000 0.000000
# 2 -0.013624 0.021066 -0.006721 0.000000 0.000000 0.000000
# 3 -0.020071 -0.006721 0.023063 0.000000 0.000000 0.000000
# 4 0.000000 0.000000 0.000000 0.037656 0.000000 0.000000
# 5 0.000000 0.000000 0.000000 0.000000 0.034321 0.000000
# 6 0.000000 0.000000 0.000000 0.000000 0.000000 0.056506
#
#
# Mechanical properties :
#
#
# Convention : Reuss Voigt Hill
#
# Bulk Modulus (GPa) = 51.35282 74.32035 62.83659
# Shear Modulus (GPa) = 15.81718 20.42612 18.12165
#
# Velocity S-wave (km/s) = 2.98747 3.39494 3.19770
# Velocity P-wave (km/s) = 6.39346 7.56991 7.00642
#
# Compressibility (1/GPa) = 0.01947313
#
# Stress axis : x y z
#
# Youngs Moduli (GPa) = 17.80101 47.47022 43.35878
#
# Poissons Ratio (x) = 0.64675 0.87027
# Poissons Ratio (y) = 0.24253 0.29140
# Poissons Ratio (z) = 0.35729 0.31903
#
# Static dielectric constant tensor:
#      x y z
#    x 1.594290 0.000000 0.000000 
#    y 0.000000 1.597710 0.000000 
#    z 0.000000 0.000000 1.587280 
# 
# From -- ./inp_files/21084.got.cif
#   From: 2010.05.17/outbox.cif.g08.bks.cpg/sg59_11_cif.got.tgz:21084.got - 2010.06.03 14:40:33.
