data_PCOD9448615
_publ_section_title
;
Structure prediction by ZEFSAII (Michael W. Deem and Ramdas Pophale) SiO2 
 PCOD9448615
Probable space group: P M M N
;
_chemical_formula_sum "Si O2"
_cell_formula_units_Z 64
_cell_length_a 23.897615
_cell_length_b 8.548161
_cell_length_c 16.168995
_cell_angle_alpha 90.000000
_cell_angle_beta 90.000000
_cell_angle_gamma 90.000000
_cell_volume 3303.012979
_symmetry_space_group_name_H-M "P M M N"
_symmetry_group_IT_number 59
_space_group.IT_coordinate_system_code '2'
_symmetry_cell_setting 'orthorhombic'
loop_
_space_group_symop_operation_xyz
x,y,z
1/2-x,1/2-y,z
1/2+x,-y,-z
-x,1/2+y,-z
-x,-y,-z
1/2+x,1/2+y,-z
1/2-x,y,z
x,1/2-y,z
loop_
_atom_site_type_symbol
_atom_site_label
_atom_site_fract_x
_atom_site_fract_y
_atom_site_fract_z
Si Si1 0.315849 0.434810 0.165326
Si Si2 0.418877 0.932506 0.232479
Si Si3 0.001009 0.437091 0.906701
Si Si4 0.687039 0.559932 0.021762
Si Si5 0.614425 0.560599 0.178086
Si Si6 0.022462 0.433770 0.387954
Si Si7 0.410065 0.435849 0.550160
Si Si8 0.184278 0.562818 0.664125
O O1 0.250000 0.449949 0.180100
O O2 0.329923 0.250000 0.170738
O O3 0.353701 0.530885 0.227281
O O4 0.326434 0.490352 0.071089
O O5 0.430187 0.750000 0.248238
O O6 0.444952 0.974274 0.143382
O O7 0.448211 0.033754 0.301977
O O8 0.006889 0.250000 0.913987
O O9 0.051232 0.489211 0.844883
O O10 0.000000 0.500000 0.000000
O O11 0.750000 0.509708 0.041347
O O12 0.686603 0.750000 0.019465
O O13 0.646974 0.511934 0.094860
O O14 0.614930 0.750000 0.186063
O O15 0.648252 0.496219 0.256698
O O16 0.011573 0.250000 0.401182
O O17 0.065171 0.487206 0.460812
O O18 0.963170 0.521787 0.392017
O O19 0.402061 0.250000 0.548556
O O20 0.353232 0.510311 0.585303
O O21 0.250000 0.508505 0.664501
O O22 0.185517 0.750000 0.666464
#
# Coordination Sequence:
#
# PCOD9448615 Si02
#       8
#     8   8   8   8   8   8   8   8
#     4   9  18  34  55  76 100 135 181 229 274 322
#     4  11  22  35  53  81 115 146 181 223 270 328
#     4  10  22  36  52  79 113 150 190 233 281 333
#     4   8  14  26  47  73  97 129 179 232 275 317
#     4  10  19  33  54  78 107 146 192 236 280 334
#     4  10  21  38  63  91 115 143 180 225 278 334
#     4  10  21  39  63  89 114 142 181 227 278 337
#     4  11  24  39  56  83 119 157 196 237 285 343
#
# _framework density 19.376249000000001
#
# number of rings (size 3 to 8) (size 9 to 14) (size 15 to 20)
#    0.000    2.125    0.000    4.125    0.000    6.750 
#    0.000    1.250    0.000    1.500    0.000    0.000 
#    0.000    0.000    0.000    0.000    0.000    0.000 
#
# Total GULP energy -356972.915705 kJ/mol
# GULP energy per Si atom -5577.701808 kJ/mol
# Density = 1.933215 g / cm^3
# Si number density = 19.376249 Si / 1000 Ang^3
#
#
#
# Elastic Constant Matrix: (Units=GPa)
#
#
# Indices 1 2 3 4 5 6 
#
# 1 110.3032 25.1826 34.5224 0.0000 0.0000 0.0000
# 2 25.1826 22.4269 14.6955 0.0000 0.0000 0.0000
# 3 34.5224 14.6955 53.0927 0.0000 0.0000 0.0000
# 4 0.0000 0.0000 0.0000 24.7222 0.0000 0.0000
# 5 0.0000 0.0000 0.0000 0.0000 28.9886 0.0000
# 6 0.0000 0.0000 0.0000 0.0000 0.0000 27.1401
#
#
#
# Elastic Compliance Matrix: (Units=1/GPa)
#
#
# Indices 1 2 3 4 5 6 
#
# 1 0.013413 -0.011417 -0.005561 0.000000 0.000000 0.000000
# 2 -0.011417 0.064186 -0.010342 0.000000 0.000000 0.000000
# 3 -0.005561 -0.010342 0.025314 0.000000 0.000000 0.000000
# 4 0.000000 0.000000 0.000000 0.040450 0.000000 0.000000
# 5 0.000000 0.000000 0.000000 0.000000 0.034496 0.000000
# 6 0.000000 0.000000 0.000000 0.000000 0.000000 0.036846
#
#
# Mechanical properties :
#
#
# Convention : Reuss Voigt Hill
#
# Bulk Modulus (GPa) = 20.71617 37.18042 28.94829
# Shear Modulus (GPa) = 17.51699 23.59833 20.55766
#
# Velocity S-wave (km/s) = 3.01000 3.49363 3.26079
# Velocity P-wave (km/s) = 4.77439 5.95854 5.39903
#
# Compressibility (1/GPa) = 0.04827148
#
# Stress axis : x y z
#
# Youngs Moduli (GPa) = 74.55417 15.57964 39.50409
#
# Poissons Ratio (x) = 0.17787 0.21970
# Poissons Ratio (y) = 0.85119 0.40857
# Poissons Ratio (z) = 0.41463 0.16113
#
# Static dielectric constant tensor:
#      x y z
#    x 1.714090 0.000000 0.000000 
#    y 0.000000 1.671780 0.000000 
#    z 0.000000 0.000000 1.675460 
# 
# From -- ./inp_files/24778.got.cif
#   From: 2010.05.17/outbox.cif.g08.bks.cpg/sg59_13_cif.got.tgz:24778.got - 2010.06.03 14:40:33.
