data_PCOD9448054
_publ_section_title
;
Structure prediction by ZEFSAII (Michael W. Deem and Ramdas Pophale) SiO2 
 PCOD9448054
Probable space group: P M M N
;
_chemical_formula_sum "Si O2"
_cell_formula_units_Z 64
_cell_length_a 9.282568
_cell_length_b 19.816380
_cell_length_c 20.512700
_cell_angle_alpha 90.000000
_cell_angle_beta 90.000000
_cell_angle_gamma 90.000000
_cell_volume 3773.247470
_symmetry_space_group_name_H-M "P M M N"
_symmetry_group_IT_number 59
_space_group.IT_coordinate_system_code '2'
_symmetry_cell_setting 'orthorhombic'
loop_
_space_group_symop_operation_xyz
x,y,z
1/2-x,1/2-y,z
1/2+x,-y,-z
-x,1/2+y,-z
-x,-y,-z
1/2+x,1/2+y,-z
1/2-x,y,z
x,1/2-y,z
loop_
_atom_site_type_symbol
_atom_site_label
_atom_site_fract_x
_atom_site_fract_y
_atom_site_fract_z
Si Si1 0.579292 0.905591 0.544748
Si Si2 0.579701 0.172992 0.351778
Si Si3 0.576176 0.171114 0.835179
Si Si4 0.415017 0.831809 0.018651
Si Si5 0.921843 0.829986 0.887872
Si Si6 0.421676 0.459566 0.593027
Si Si7 0.422921 0.913197 0.775052
Si Si8 0.922526 0.932890 0.258608
O O1 0.750000 0.906596 0.555049
O O2 0.507285 0.844810 0.583507
O O3 0.552671 0.908799 0.467115
O O4 0.508116 0.972974 0.575096
O O5 0.750000 0.163938 0.364219
O O6 0.555521 0.250000 0.331126
O O7 0.538992 0.123030 0.293189
O O8 0.750000 0.167632 0.831357
O O9 0.535594 0.250000 0.827361
O O10 0.536668 0.147900 0.908827
O O11 0.503583 0.123876 0.782037
O O12 0.250000 0.854548 0.007546
O O13 0.411440 0.750000 0.020668
O O14 0.515760 0.850476 0.958530
O O15 0.750000 0.837147 0.886229
O O16 0.955973 0.750000 0.877956
O O17 0.996151 0.874953 0.832749
O O18 0.250000 0.475724 0.593932
O O19 0.459887 0.433106 0.664511
O O20 0.250000 0.906028 0.783480
O O21 0.456586 0.992368 0.768840
O O22 0.750000 0.923506 0.253461
#
# Coordination Sequence:
#
# PCOD9448054 Si02
#       8
#     8   8   8   8   8   8   8   8
#     4  10  19  31  53  79 101 131 172 221 266 303
#     4  10  20  35  54  74 104 146 183 218 261 312
#     4   9  19  36  57  81 107 133 166 213 266 318
#     4   8  15  31  54  75  98 134 175 210 252 312
#     4  10  20  32  49  77 109 137 171 220 265 301
#     4   9  18  35  54  74 103 136 172 212 257 313
#     4  10  20  35  53  73 101 141 183 216 253 309
#     4  10  20  35  56  79 104 136 175 218 257 306
#
# _framework density 16.961516
#
# number of rings (size 3 to 8) (size 9 to 14) (size 15 to 20)
#    0.000    2.500    1.250    1.875    0.000    4.250 
#    0.000    2.500    0.000    3.750    0.000    0.000 
#    0.000    0.000    0.000    0.000    0.000    0.000 
#
# Total GULP energy -356843.073130 kJ/mol
# GULP energy per Si atom -5575.673018 kJ/mol
# Density = 1.692291 g / cm^3
# Si number density = 16.961516 Si / 1000 Ang^3
#
#
#
# Elastic Constant Matrix: (Units=GPa)
#
#
# Indices 1 2 3 4 5 6 
#
# 1 37.2719 37.9375 58.3604 0.0000 0.0000 0.0000
# 2 37.9375 74.9991 64.2350 0.0000 0.0000 0.0000
# 3 58.3604 64.2350 151.3812 0.0000 0.0000 0.0000
# 4 0.0000 0.0000 0.0000 28.1801 0.0000 0.0000
# 5 0.0000 0.0000 0.0000 0.0000 30.8513 0.0000
# 6 0.0000 0.0000 0.0000 0.0000 0.0000 28.5656
#
#
#
# Elastic Compliance Matrix: (Units=1/GPa)
#
#
# Indices 1 2 3 4 5 6 
#
# 1 0.089784 -0.024774 -0.024101 0.000000 0.000000 0.000000
# 2 -0.024774 0.027782 -0.002238 0.000000 0.000000 0.000000
# 3 -0.024101 -0.002238 0.016847 0.000000 0.000000 0.000000
# 4 0.000000 0.000000 0.000000 0.035486 0.000000 0.000000
# 5 0.000000 0.000000 0.000000 0.000000 0.032413 0.000000
# 6 0.000000 0.000000 0.000000 0.000000 0.000000 0.035007
#
#
# Mechanical properties :
#
#
# Convention : Reuss Voigt Hill
#
# Bulk Modulus (GPa) = 31.06877 64.96869 48.01873
# Shear Modulus (GPa) = 14.27452 24.39403 19.33428
#
# Velocity S-wave (km/s) = 2.90415 3.79647 3.37989
# Velocity P-wave (km/s) = 5.44081 7.58975 6.60329
#
# Compressibility (1/GPa) = 0.03218666
#
# Stress axis : x y z
#
# Youngs Moduli (GPa) = 11.13781 35.99494 59.35859
#
# Poissons Ratio (x) = 0.89175 1.43061
# Poissons Ratio (y) = 0.27593 0.13282
# Poissons Ratio (z) = 0.26843 0.08054
#
# Static dielectric constant tensor:
#      x y z
#    x 1.562970 0.000000 0.000000 
#    y 0.000000 1.558740 0.000000 
#    z 0.000000 0.000000 1.576050 
# 
# From -- ./inp_files/26214.got.cif
#   From: 2010.05.17/outbox.cif.g08.bks.cpg/sg59_14_cif.got.tgz:26214.got - 2010.06.03 14:40:33.
