data_PCOD9448947
_publ_section_title
;
Structure prediction by ZEFSAII (Michael W. Deem and Ramdas Pophale) SiO2 
 PCOD9448947
Probable space group: P M M N
;
_chemical_formula_sum "Si O2"
_cell_formula_units_Z 36
_cell_length_a 13.387116
_cell_length_b 10.415851
_cell_length_c 14.352675
_cell_angle_alpha 90.000000
_cell_angle_beta 90.000000
_cell_angle_gamma 90.000000
_cell_volume 2001.311247
_symmetry_space_group_name_H-M "P M M N"
_symmetry_group_IT_number 59
_space_group.IT_coordinate_system_code '2'
_symmetry_cell_setting 'orthorhombic'
loop_
_space_group_symop_operation_xyz
x,y,z
1/2-x,1/2-y,z
1/2+x,-y,-z
-x,1/2+y,-z
-x,-y,-z
1/2+x,1/2+y,-z
1/2-x,y,z
x,1/2-y,z
loop_
_atom_site_type_symbol
_atom_site_label
_atom_site_fract_x
_atom_site_fract_y
_atom_site_fract_z
Si Si1 0.992209 0.250000 0.359765
Si Si2 0.363246 0.250000 0.182981
Si Si3 0.137737 0.512092 0.065950
Si Si4 0.868956 0.994138 0.328044
Si Si5 0.928428 0.602965 0.124201
Si Si6 0.131578 0.250000 0.540058
O O1 0.924916 0.122554 0.359101
O O2 0.057708 0.250000 0.265512
O O3 0.065445 0.250000 0.447934
O O4 0.250000 0.250000 0.221128
O O5 0.373692 0.124122 0.119147
O O6 0.250000 0.560700 0.082299
O O7 0.046834 0.597365 0.102612
O O8 0.121703 0.481508 0.956981
O O9 0.750000 0.014571 0.325547
O O10 0.904895 0.953228 0.225210
O O11 0.889425 0.875953 0.397775
O O12 0.892862 0.750000 0.118929
O O13 0.250000 0.250000 0.517880
#
# Coordination Sequence:
#
# PCOD9448947 Si02
#       6
#     4   4   8   8   8   4
#     4  12  22  40  60  88 117 152 187 249 295 349
#     4  10  19  34  57  81 109 150 193 231 282 340
#     4  10  21  36  55  83 117 154 195 239 283 337
#     4  11  23  39  61  89 118 153 194 241 293 349
#     4  11  21  36  60  84 116 158 198 237 288 345
#     4  10  23  42  65  87 110 148 198 244 295 355
#
# _framework density 17.988206999999999
#
# number of rings (size 3 to 8) (size 9 to 14) (size 15 to 20)
#    0.000    1.333    4.444    2.000    0.000    1.333 
#    0.000    0.000    0.000    1.333    0.000    0.000 
#    0.000    0.000    0.000    0.000    0.000    0.000 
#
# Total GULP energy -201136.012973 kJ/mol
# GULP energy per Si atom -5587.111471 kJ/mol
# Density = 1.794726 g / cm^3
# Si number density = 17.988207 Si / 1000 Ang^3
#
#
#
# Elastic Constant Matrix: (Units=GPa)
#
#
# Indices 1 2 3 4 5 6 
#
# 1 82.4706 27.2178 48.0736 0.0000 0.0000 0.0000
# 2 27.2178 91.5754 37.1594 0.0000 0.0000 0.0000
# 3 48.0736 37.1594 129.1431 0.0000 0.0000 0.0000
# 4 0.0000 0.0000 0.0000 7.2941 0.0000 0.0000
# 5 0.0000 0.0000 0.0000 0.0000 17.5537 0.0000
# 6 0.0000 0.0000 0.0000 0.0000 0.0000 3.7929
#
#
#
# Elastic Compliance Matrix: (Units=1/GPa)
#
#
# Indices 1 2 3 4 5 6 
#
# 1 0.016036 -0.002654 -0.005206 0.000000 0.000000 0.000000
# 2 -0.002654 0.012803 -0.002696 0.000000 0.000000 0.000000
# 3 -0.005206 -0.002696 0.010457 0.000000 0.000000 0.000000
# 4 0.000000 0.000000 0.000000 0.137096 0.000000 0.000000
# 5 0.000000 0.000000 0.000000 0.000000 0.056968 0.000000
# 6 0.000000 0.000000 0.000000 0.000000 0.000000 0.263651
#
#
# Mechanical properties :
#
#
# Convention : Reuss Voigt Hill
#
# Bulk Modulus (GPa) = 54.99183 58.67674 56.83428
# Shear Modulus (GPa) = 9.53865 18.44404 13.99135
#
# Velocity S-wave (km/s) = 2.30526 3.20557 2.79194
# Velocity P-wave (km/s) = 6.14191 6.81111 6.48515
#
# Compressibility (1/GPa) = 0.01818452
#
# Stress axis : x y z
#
# Youngs Moduli (GPa) = 62.36010 78.10876 95.63027
#
# Poissons Ratio (x) = 0.20728 0.49783
# Poissons Ratio (y) = 0.16549 0.25782
# Poissons Ratio (z) = 0.32463 0.21058
#
# Static dielectric constant tensor:
#      x y z
#    x 1.617360 0.000000 0.000000 
#    y 0.000000 1.595840 0.000000 
#    z 0.000000 0.000000 1.575830 
# 
# From -- ./inp_files/22917.got.cif
#   From: 2010.05.17/outbox.cif.g08.bks.cpg/sg59_12_cif.got.tgz:22917.got - 2010.06.03 14:40:33.
