data_PCOD9448474
_publ_section_title
;
Structure prediction by ZEFSAII (Michael W. Deem and Ramdas Pophale) SiO2 
 PCOD9448474
Probable space group: P M M N
;
_chemical_formula_sum "Si O2"
_cell_formula_units_Z 64
_cell_length_a 35.833607
_cell_length_b 18.104895
_cell_length_c 5.520631
_cell_angle_alpha 90.000000
_cell_angle_beta 90.000000
_cell_angle_gamma 90.000000
_cell_volume 3581.584951
_symmetry_space_group_name_H-M "P M M N"
_symmetry_group_IT_number 59
_space_group.IT_coordinate_system_code '2'
_symmetry_cell_setting 'orthorhombic'
loop_
_space_group_symop_operation_xyz
x,y,z
1/2-x,1/2-y,z
1/2+x,-y,-z
-x,1/2+y,-z
-x,-y,-z
1/2+x,1/2+y,-z
1/2-x,y,z
x,1/2-y,z
loop_
_atom_site_type_symbol
_atom_site_label
_atom_site_fract_x
_atom_site_fract_y
_atom_site_fract_z
Si Si1 0.887693 0.161298 0.138758
Si Si2 0.611230 0.338968 0.638743
Si Si3 0.548431 0.835837 0.500574
Si Si4 0.953336 0.448486 0.111967
Si Si5 0.972121 0.405691 0.612452
Si Si6 0.792930 0.660388 0.459848
Si Si7 0.081933 0.100571 0.001610
Si Si8 0.665152 0.839771 0.959501
O O1 0.890129 0.250000 0.139559
O O2 0.869968 0.136563 0.390075
O O3 0.929022 0.126399 0.137374
O O4 0.869737 0.137429 0.887291
O O5 0.609198 0.250000 0.638146
O O6 0.568988 0.369718 0.638205
O O7 0.556934 0.750000 0.532737
O O8 0.504452 0.849691 0.461950
O O9 0.561227 0.875678 0.748918
O O10 0.567366 0.862587 0.249277
O O11 0.968757 0.460738 0.382585
O O12 0.980341 0.436553 0.882211
O O13 0.925849 0.514104 0.037153
O O14 0.750000 0.635112 0.462385
O O15 0.792436 0.750000 0.460657
O O16 0.813859 0.639333 0.709325
O O17 0.813040 0.639726 0.207288
O O18 0.124679 0.123263 0.034097
O O19 0.660996 0.750000 0.958962
#
# Coordination Sequence:
#
# PCOD9448474 Si02
#       8
#     8   8   8   8   8   8   8   8
#     4   8  14  25  43  63  83 106 138 184 233 290
#     4   8  13  23  39  59  77  95 125 172 235 290
#     4  12  25  39  54  70  90 122 171 221 262 306
#     4  10  21  35  51  71  93 119 157 203 259 312
#     4  10  20  34  51  65  84 111 151 210 265 297
#     4   9  17  30  52  80 102 122 156 200 234 262
#     4  12  25  38  52  71 100 134 165 199 248 309
#     4  10  19  33  51  70  99 134 163 191 229 281
#
# _framework density 17.869183
#
# number of rings (size 3 to 8) (size 9 to 14) (size 15 to 20)
#    0.000    2.125    0.000    4.125    0.000    6.500 
#    0.000    2.500    0.000    0.000    0.000    0.000 
#    0.000    0.000    0.000    0.000    0.000    3.750 
#
# Total GULP energy -356417.341490 kJ/mol
# GULP energy per Si atom -5569.020961 kJ/mol
# Density = 1.782851 g / cm^3
# Si number density = 17.869183 Si / 1000 Ang^3
#
#
#
# Elastic Constant Matrix: (Units=GPa)
#
#
# Indices 1 2 3 4 5 6 
#
# 1 38.6567 6.9847 17.4514 0.0000 0.0000 0.0000
# 2 6.9847 20.9211 10.3904 0.0000 0.0000 0.0000
# 3 17.4514 10.3904 196.9641 0.0000 0.0000 0.0000
# 4 0.0000 0.0000 0.0000 19.2489 0.0000 0.0000
# 5 0.0000 0.0000 0.0000 0.0000 19.2921 0.0000
# 6 0.0000 0.0000 0.0000 0.0000 0.0000 7.0024
#
#
#
# Elastic Compliance Matrix: (Units=1/GPa)
#
#
# Indices 1 2 3 4 5 6 
#
# 1 0.028324 -0.008431 -0.002065 0.000000 0.000000 0.000000
# 2 -0.008431 0.051594 -0.001975 0.000000 0.000000 0.000000
# 3 -0.002065 -0.001975 0.005364 0.000000 0.000000 0.000000
# 4 0.000000 0.000000 0.000000 0.051951 0.000000 0.000000
# 5 0.000000 0.000000 0.000000 0.000000 0.051835 0.000000
# 6 0.000000 0.000000 0.000000 0.000000 0.000000 0.142809
#
#
# Mechanical properties :
#
#
# Convention : Reuss Voigt Hill
#
# Bulk Modulus (GPa) = 16.57226 36.24388 26.40807
# Shear Modulus (GPa) = 13.26500 23.88970 18.57735
#
# Velocity S-wave (km/s) = 2.72755 3.66036 3.22783
# Velocity P-wave (km/s) = 4.38334 6.17991 5.35747
#
# Compressibility (1/GPa) = 0.06034179
#
# Stress axis : x y z
#
# Youngs Moduli (GPa) = 35.30547 19.38201 186.42147
#
# Poissons Ratio (x) = 0.16341 0.38493
# Poissons Ratio (y) = 0.29766 0.36814
# Poissons Ratio (z) = 0.07290 0.03827
#
# Static dielectric constant tensor:
#      x y z
#    x 1.562650 0.000000 0.000000 
#    y 0.000000 1.612570 0.000000 
#    z 0.000000 0.000000 1.733740 
# 
# From -- ./inp_files/4631.got.cif
#   From: 2010.05.17/outbox.cif.g08.bks.cpg/sg59_3_cif.got.tgz:4631.got - 2010.06.03 14:40:33.
