data_PCOD9448371
_publ_section_title
;
Structure prediction by ZEFSAII (Michael W. Deem and Ramdas Pophale) SiO2 
 PCOD9448371
Probable space group: P M M N
;
_chemical_formula_sum "Si O2"
_cell_formula_units_Z 64
_cell_length_a 10.755026
_cell_length_b 14.754638
_cell_length_c 20.011783
_cell_angle_alpha 90.000000
_cell_angle_beta 90.000000
_cell_angle_gamma 90.000000
_cell_volume 3175.600109
_symmetry_space_group_name_H-M "P M M N"
_symmetry_group_IT_number 59
_space_group.IT_coordinate_system_code '2'
_symmetry_cell_setting 'orthorhombic'
loop_
_space_group_symop_operation_xyz
x,y,z
1/2-x,1/2-y,z
1/2+x,-y,-z
-x,1/2+y,-z
-x,-y,-z
1/2+x,1/2+y,-z
1/2-x,y,z
x,1/2-y,z
loop_
_atom_site_type_symbol
_atom_site_label
_atom_site_fract_x
_atom_site_fract_y
_atom_site_fract_z
Si Si1 0.399590 0.849918 0.658490
Si Si2 0.896425 0.074676 0.486393
Si Si3 0.883535 0.357020 0.884033
Si Si4 0.890459 0.044798 0.208086
Si Si5 0.114639 0.140750 0.967308
Si Si6 0.893551 0.858057 0.873601
Si Si7 0.033461 0.144928 0.755911
Si Si8 0.384268 0.644256 0.367724
O O1 0.250000 0.844571 0.657456
O O2 0.450604 0.750000 0.673036
O O3 0.432346 0.879407 0.583557
O O4 0.427756 0.917070 0.718666
O O5 0.750000 0.045281 0.481012
O O6 0.903065 0.134962 0.553301
O O7 0.000000 0.000000 0.500000
O O8 0.750000 0.399318 0.898458
O O9 0.877172 0.250000 0.901610
O O10 0.997975 0.395670 0.926166
O O11 0.914620 0.358208 0.805442
O O12 0.750000 0.077660 0.191528
O O13 0.999009 0.082951 0.160741
O O14 0.885996 0.935989 0.214207
O O15 0.250000 0.103857 0.946851
O O16 0.118773 0.250000 0.955507
O O17 0.099641 0.128871 0.046394
O O18 0.750000 0.878964 0.853084
O O19 0.913614 0.750000 0.860781
O O20 0.079769 0.250000 0.757735
O O21 0.993879 0.115667 0.681380
O O22 0.250000 0.600319 0.352295
O O23 0.375092 0.750000 0.351642
#
# Coordination Sequence:
#
# PCOD9448371 Si02
#       8
#     8   8   8   8   8   8   8   8
#     4   9  18  34  56  82 113 147 184 230 282 333
#     4  10  19  32  53  80 110 144 181 222 270 324
#     4   9  17  30  51  79 108 141 183 229 278 333
#     4  11  23  37  56  83 112 147 193 238 281 336
#     4   8  15  30  53  80 110 143 177 217 271 335
#     4   9  19  37  60  86 116 148 181 223 280 339
#     4  10  21  36  53  77 113 150 185 234 292 340
#     4   9  17  31  53  78 101 133 182 230 269 319
#
# _framework density 20.153670999999999
#
# number of rings (size 3 to 8) (size 9 to 14) (size 15 to 20)
#    0.000    2.625    0.000    2.625    0.000    6.000 
#    0.000    3.750    0.000    3.000    0.000    0.000 
#    0.000    0.000    0.000    0.000    0.000    0.000 
#
# Total GULP energy -356454.727852 kJ/mol
# GULP energy per Si atom -5569.605123 kJ/mol
# Density = 2.010780 g / cm^3
# Si number density = 20.153671 Si / 1000 Ang^3
#
#
#
# Elastic Constant Matrix: (Units=GPa)
#
#
# Indices 1 2 3 4 5 6 
#
# 1 105.4197 28.3348 50.6631 0.0000 0.0000 0.0000
# 2 28.3348 78.4329 17.8762 0.0000 0.0000 0.0000
# 3 50.6631 17.8762 81.9801 0.0000 0.0000 0.0000
# 4 0.0000 0.0000 0.0000 22.9075 0.0000 0.0000
# 5 0.0000 0.0000 0.0000 0.0000 17.7759 0.0000
# 6 0.0000 0.0000 0.0000 0.0000 0.0000 15.4649
#
#
#
# Elastic Compliance Matrix: (Units=1/GPa)
#
#
# Indices 1 2 3 4 5 6 
#
# 1 0.014265 -0.003309 -0.008094 0.000000 0.000000 0.000000
# 2 -0.003309 0.014184 -0.001048 0.000000 0.000000 0.000000
# 3 -0.008094 -0.001048 0.017429 0.000000 0.000000 0.000000
# 4 0.000000 0.000000 0.000000 0.043654 0.000000 0.000000
# 5 0.000000 0.000000 0.000000 0.000000 0.056256 0.000000
# 6 0.000000 0.000000 0.000000 0.000000 0.000000 0.064662
#
#
# Mechanical properties :
#
#
# Convention : Reuss Voigt Hill
#
# Bulk Modulus (GPa) = 47.67412 51.06455 49.36933
# Shear Modulus (GPa) = 20.63179 22.49357 21.56268
#
# Velocity S-wave (km/s) = 3.20304 3.34444 3.27450
# Velocity P-wave (km/s) = 6.11440 6.34872 6.23266
#
# Compressibility (1/GPa) = 0.02097574
#
# Stress axis : x y z
#
# Youngs Moduli (GPa) = 70.10075 70.50235 57.37610
#
# Poissons Ratio (x) = 0.23327 0.46442
# Poissons Ratio (y) = 0.23194 0.06014
# Poissons Ratio (z) = 0.56742 0.07390
#
# Static dielectric constant tensor:
#      x y z
#    x 1.745760 0.000000 0.000000 
#    y 0.000000 1.741290 0.000000 
#    z 0.000000 0.000000 1.753040 
# 
# From -- ./inp_files/27074.got.cif
#   From: 2010.05.17/outbox.cif.g08.bks.cpg/sg59_14_cif.got.tgz:27074.got - 2010.06.03 14:40:33.
