data_PCOD9448784
_publ_section_title
;
Structure prediction by ZEFSAII (Michael W. Deem and Ramdas Pophale) SiO2 
 PCOD9448784
Probable space group: P M M N
;
_chemical_formula_sum "Si O2"
_cell_formula_units_Z 64
_cell_length_a 9.364403
_cell_length_b 28.505605
_cell_length_c 12.450146
_cell_angle_alpha 90.000000
_cell_angle_beta 90.000000
_cell_angle_gamma 90.000000
_cell_volume 3323.416737
_symmetry_space_group_name_H-M "P M M N"
_symmetry_group_IT_number 59
_space_group.IT_coordinate_system_code '2'
_symmetry_cell_setting 'orthorhombic'
loop_
_space_group_symop_operation_xyz
x,y,z
1/2-x,1/2-y,z
1/2+x,-y,-z
-x,1/2+y,-z
-x,-y,-z
1/2+x,1/2+y,-z
1/2-x,y,z
x,1/2-y,z
loop_
_atom_site_type_symbol
_atom_site_label
_atom_site_fract_x
_atom_site_fract_y
_atom_site_fract_z
Si Si1 0.917075 0.629837 0.378982
Si Si2 0.590766 0.838251 0.135177
Si Si3 0.578462 0.982182 0.392665
Si Si4 0.087798 0.060755 0.972338
Si Si5 0.080996 0.008964 0.178558
Si Si6 0.410779 0.306984 0.239149
Si Si7 0.093365 0.804818 0.959005
Si Si8 0.579681 0.305135 0.455067
O O1 0.750000 0.636489 0.408457
O O2 0.935403 0.648597 0.258025
O O3 0.945322 0.574081 0.382030
O O4 0.014913 0.660252 0.456876
O O5 0.750000 0.817338 0.125558
O O6 0.588606 0.886525 0.068245
O O7 0.471811 0.808103 0.077195
O O8 0.750000 0.989955 0.396616
O O9 0.500000 0.000000 0.500000
O O10 0.508598 0.006634 0.287991
O O11 0.250000 0.041818 0.953312
O O12 0.059007 0.053180 0.098562
O O13 0.976488 0.032735 0.898573
O O14 0.250000 0.004474 0.201504
O O15 0.250000 0.325258 0.250228
O O16 0.401573 0.250000 0.234935
O O17 0.484887 0.323823 0.130102
O O18 0.507544 0.317726 0.341615
O O19 0.250000 0.826890 0.953055
O O20 0.107073 0.750000 0.932686
O O21 0.750000 0.309276 0.448454
O O22 0.545912 0.250000 0.478098
#
# Coordination Sequence:
#
# PCOD9448784 Si02
#       8
#     8   8   8   8   8   8   8   8
#     4  10  22  40  61  83 114 156 199 242 287 345
#     4  10  20  37  58  80 111 152 193 235 285 340
#     4  11  23  42  63  85 117 155 197 243 295 349
#     4   9  18  35  57  83 114 146 183 230 279 333
#     4  10  19  33  59  88 112 145 186 228 282 341
#     4   9  17  33  58  82 106 143 189 232 280 341
#     4  10  21  36  54  81 117 152 188 235 289 340
#     4  10  21  37  59  88 121 154 192 243 297 346
#
# _framework density 19.257290000000001
#
# number of rings (size 3 to 8) (size 9 to 14) (size 15 to 20)
#    0.000    2.125    1.250    1.875    0.000    6.000 
#    2.250    2.500    0.000    0.000    0.000    0.000 
#    0.000    0.000    0.000    0.000    0.000    0.000 
#
# Total GULP energy -357010.772001 kJ/mol
# GULP energy per Si atom -5578.293313 kJ/mol
# Density = 1.921346 g / cm^3
# Si number density = 19.257290 Si / 1000 Ang^3
#
#
#
# Elastic Constant Matrix: (Units=GPa)
#
#
# Indices 1 2 3 4 5 6 
#
# 1 112.9190 23.0524 73.9511 0.0000 0.0000 0.0000
# 2 23.0524 12.1666 15.5340 0.0000 0.0000 0.0000
# 3 73.9511 15.5340 122.5199 0.0000 0.0000 0.0000
# 4 0.0000 0.0000 0.0000 23.6203 0.0000 0.0000
# 5 0.0000 0.0000 0.0000 0.0000 30.4562 0.0000
# 6 0.0000 0.0000 0.0000 0.0000 0.0000 21.0525
#
#
#
# Elastic Compliance Matrix: (Units=1/GPa)
#
#
# Indices 1 2 3 4 5 6 
#
# 1 0.020024 -0.026856 -0.008681 0.000000 0.000000 0.000000
# 2 -0.026856 0.134085 -0.000791 0.000000 0.000000 0.000000
# 3 -0.008681 -0.000791 0.013502 0.000000 0.000000 0.000000
# 4 0.000000 0.000000 0.000000 0.042336 0.000000 0.000000
# 5 0.000000 0.000000 0.000000 0.000000 0.032834 0.000000
# 6 0.000000 0.000000 0.000000 0.000000 0.000000 0.047500
#
#
# Mechanical properties :
#
#
# Convention : Reuss Voigt Hill
#
# Bulk Modulus (GPa) = 10.53117 52.52006 31.52561
# Shear Modulus (GPa) = 12.67142 24.03033 18.35087
#
# Velocity S-wave (km/s) = 2.56795 3.53633 3.09031
# Velocity P-wave (km/s) = 3.77796 6.63372 5.39811
#
# Compressibility (1/GPa) = 0.09495624
#
# Stress axis : x y z
#
# Youngs Moduli (GPa) = 49.94065 7.45794 74.06342
#
# Poissons Ratio (x) = 0.20029 0.64295
# Poissons Ratio (y) = 1.34119 0.05856
# Poissons Ratio (z) = 0.43354 0.00590
#
# Static dielectric constant tensor:
#      x y z
#    x 1.688380 0.000000 0.000000 
#    y 0.000000 1.687190 0.000000 
#    z 0.000000 0.000000 1.652340 
# 
# From -- ./inp_files/15073.got.cif
#   From: 2010.05.17/outbox.cif.g08.bks.cpg/sg59_8_cif.got.tgz:15073.got - 2010.06.03 14:40:33.
