data_PCOD9448849
_publ_section_title
;
Structure prediction by ZEFSAII (Michael W. Deem and Ramdas Pophale) SiO2 
 PCOD9448849
Probable space group: P M M N
;
_chemical_formula_sum "Si O2"
_cell_formula_units_Z 58
_cell_length_a 24.361831
_cell_length_b 7.547152
_cell_length_c 14.970855
_cell_angle_alpha 90.000000
_cell_angle_beta 90.000000
_cell_angle_gamma 90.000000
_cell_volume 2752.577952
_symmetry_space_group_name_H-M "P M M N"
_symmetry_group_IT_number 59
_space_group.IT_coordinate_system_code '2'
_symmetry_cell_setting 'orthorhombic'
loop_
_space_group_symop_operation_xyz
x,y,z
1/2-x,1/2-y,z
1/2+x,-y,-z
-x,1/2+y,-z
-x,-y,-z
1/2+x,1/2+y,-z
1/2-x,y,z
x,1/2-y,z
loop_
_atom_site_type_symbol
_atom_site_label
_atom_site_fract_x
_atom_site_fract_y
_atom_site_fract_z
Si Si1 0.813311 0.967127 0.930520
Si Si2 0.935810 0.455540 0.399297
Si Si3 0.250000 0.750000 0.628188
Si Si4 0.865650 0.534056 0.118397
Si Si5 0.099150 0.457378 0.212663
Si Si6 0.938650 0.965485 0.599733
Si Si7 0.829396 0.951636 0.306908
Si Si8 0.989882 0.539223 0.104440
O O1 0.750000 0.020949 0.920962
O O2 0.814238 0.750000 0.930628
O O3 0.853617 0.030556 0.851816
O O4 0.838995 0.023061 0.025282
O O5 0.936711 0.250000 0.374090
O O6 0.918733 0.473499 0.503038
O O7 0.892456 0.550178 0.337434
O O8 0.997883 0.524355 0.391956
O O9 0.202810 0.593356 0.635143
O O10 0.867350 0.750000 0.117420
O O11 0.829477 0.485632 0.203948
O O12 0.928716 0.472281 0.127055
O O13 0.111899 0.250000 0.223170
O O14 0.093293 0.529623 0.312808
O O15 0.040245 0.468788 0.163170
O O16 0.938532 0.750000 0.598493
O O17 0.809352 0.750000 0.312580
O O18 0.990059 0.750000 0.116633
O O19 0.000000 0.500000 0.000000
#
# Coordination Sequence:
#
# PCOD9448849 Si02
#       8
#     8   8   2   8   8   8   8   8
#     4   9  17  31  53  76 105 147 197 241 280 337
#     4  10  19  36  58  89 122 155 196 249 306 377
#     4  12  26  44  60  94 120 162 218 252 302 374
#     4   9  19  34  55  82 111 152 196 237 293 359
#     4  10  19  34  54  81 114 149 192 243 293 351
#     4   9  19  33  58  89 121 155 192 243 314 374
#     4  11  23  41  64  87 124 163 203 257 308 361
#     4  11  20  33  52  80 114 149 189 236 301 369
#
# _framework density 21.071156999999999
#
# number of rings (size 3 to 8) (size 9 to 14) (size 15 to 20)
#    0.000    2.069    2.069    1.862    0.966    1.103 
#    2.483    0.000    1.517    0.414    0.000    0.000 
#    0.000    0.000    0.000    0.000    0.000    0.000 
#
# Total GULP energy -323485.347715 kJ/mol
# GULP energy per Si atom -5577.333581 kJ/mol
# Density = 2.102320 g / cm^3
# Si number density = 21.071157 Si / 1000 Ang^3
#
#
#
# Elastic Constant Matrix: (Units=GPa)
#
#
# Indices 1 2 3 4 5 6 
#
# 1 91.5294 8.6102 30.5437 0.0000 0.0000 0.0000
# 2 8.6102 74.6225 0.7717 0.0000 0.0000 0.0000
# 3 30.5437 0.7717 99.6054 0.0000 0.0000 0.0000
# 4 0.0000 0.0000 0.0000 9.7598 0.0000 0.0000
# 5 0.0000 0.0000 0.0000 0.0000 -25.5922 0.0000
# 6 0.0000 0.0000 0.0000 0.0000 0.0000 697.4811
#
#
#
# Elastic Compliance Matrix: (Units=1/GPa)
#
#
# Indices 1 2 3 4 5 6 
#
# 1 0.012312 -0.001382 -0.003765 0.000000 0.000000 0.000000
# 2 -0.001382 0.013557 0.000319 0.000000 0.000000 0.000000
# 3 -0.003765 0.000319 0.011192 0.000000 0.000000 0.000000
# 4 0.000000 0.000000 0.000000 0.102462 0.000000 0.000000
# 5 0.000000 0.000000 0.000000 0.000000 -0.039074 0.000000
# 6 0.000000 0.000000 0.000000 0.000000 0.000000 0.001434
#
#
# Mechanical properties :
#
#
# Convention : Reuss Voigt Hill
#
# Bulk Modulus (GPa) = 36.48985 38.40096 37.44540
# Shear Modulus (GPa) = 41.43489 151.38520 96.41004
#
# Velocity S-wave (km/s) = 4.43925 8.48532 6.77155
# Velocity P-wave (km/s) = 6.60537 10.68948 8.88527
#
# Compressibility (1/GPa) = 0.02740488
#
# Stress axis : x y z
#
# Youngs Moduli (GPa) = 81.22363 73.76319 89.35305
#
# Poissons Ratio (x) = 0.10191 0.33638
# Poissons Ratio (y) = 0.11222 -0.02847
# Poissons Ratio (z) = 0.30578 -0.02350
#
# Static dielectric constant tensor:
#      x y z
#    x 1.346530 0.000000 0.000000 
#    y 0.000000 1.743720 0.000000 
#    z 0.000000 0.000000 1.752170 
# 
# From -- ./inp_files/24606.got.cif
#   From: 2010.05.17/outbox.cif.g08.bks.cpg/sg59_13_cif.got.tgz:24606.got - 2010.06.03 14:40:33.
