data_PCOD9448557
_publ_section_title
;
Structure prediction by ZEFSAII (Michael W. Deem and Ramdas Pophale) SiO2 
 PCOD9448557
Probable space group: P M M N
;
_chemical_formula_sum "Si O2"
_cell_formula_units_Z 40
_cell_length_a 8.120628
_cell_length_b 25.119235
_cell_length_c 9.810974
_cell_angle_alpha 90.000000
_cell_angle_beta 90.000000
_cell_angle_gamma 90.000000
_cell_volume 2001.281358
_symmetry_space_group_name_H-M "P M M N"
_symmetry_group_IT_number 59
_space_group.IT_coordinate_system_code '2'
_symmetry_cell_setting 'orthorhombic'
loop_
_space_group_symop_operation_xyz
x,y,z
1/2-x,1/2-y,z
1/2+x,-y,-z
-x,1/2+y,-z
-x,-y,-z
1/2+x,1/2+y,-z
1/2-x,y,z
x,1/2-y,z
loop_
_atom_site_type_symbol
_atom_site_label
_atom_site_fract_x
_atom_site_fract_y
_atom_site_fract_z
Si Si1 0.048252 0.689277 0.401110
Si Si2 0.060455 0.006509 0.692157
Si Si3 0.449527 0.606272 0.629098
Si Si4 0.941025 0.108739 0.816158
Si Si5 0.061706 0.428801 0.103379
O O1 0.250000 0.688757 0.402347
O O2 0.994418 0.750000 0.415415
O O3 0.994492 0.650141 0.522699
O O4 0.997030 0.661210 0.260472
O O5 0.250000 0.018768 0.662849
O O6 0.958956 0.060111 0.708597
O O7 0.000571 0.955877 0.602278
O O8 0.048657 0.978024 0.843117
O O9 0.250000 0.605966 0.632749
O O10 0.518140 0.615104 0.781171
O O11 0.750000 0.115326 0.849975
O O12 0.030950 0.092658 0.953905
O O13 0.250000 0.445624 0.119568
#
# Coordination Sequence:
#
# PCOD9448557 Si02
#       5
#     8   8   8   8   8
#     4   9  19  37  58  78 102 136 180 226 266 306
#     4   9  18  32  53  81 111 140 170 213 265 318
#     4   8  17  34  55  78 104 135 173 217 260 310
#     4  11  20  31  53  83 112 140 172 214 263 318
#     4  10  19  33  53  79 109 142 173 209 258 313
#
# _framework density 19.987193999999999
#
# number of rings (size 3 to 8) (size 9 to 14) (size 15 to 20)
#    1.200    1.400    0.000    3.000    0.000    0.800 
#    0.000    3.000    0.000   11.400    0.000    0.000 
#    0.000    0.000    0.000    0.000    0.000    0.000 
#
# Total GULP energy -222827.002520 kJ/mol
# GULP energy per Si atom -5570.675063 kJ/mol
# Density = 1.994170 g / cm^3
# Si number density = 19.987194 Si / 1000 Ang^3
#
#
#
# Elastic Constant Matrix: (Units=GPa)
#
#
# Indices 1 2 3 4 5 6 
#
# 1 44.0631 0.2719 -1.5485 0.0000 0.0000 0.0000
# 2 0.2719 118.4735 41.8442 0.0000 0.0000 0.0000
# 3 -1.5485 41.8442 72.0955 0.0000 0.0000 0.0000
# 4 0.0000 0.0000 0.0000 19.8478 0.0000 0.0000
# 5 0.0000 0.0000 0.0000 0.0000 13.1287 0.0000
# 6 0.0000 0.0000 0.0000 0.0000 0.0000 14.6814
#
#
#
# Elastic Compliance Matrix: (Units=1/GPa)
#
#
# Indices 1 2 3 4 5 6 
#
# 1 0.022719 -0.000282 0.000652 0.000000 0.000000 0.000000
# 2 -0.000282 0.010621 -0.006170 0.000000 0.000000 0.000000
# 3 0.000652 -0.006170 0.017466 0.000000 0.000000 0.000000
# 4 0.000000 0.000000 0.000000 0.050383 0.000000 0.000000
# 5 0.000000 0.000000 0.000000 0.000000 0.076169 0.000000
# 6 0.000000 0.000000 0.000000 0.000000 0.000000 0.068113
#
#
# Mechanical properties :
#
#
# Convention : Reuss Voigt Hill
#
# Bulk Modulus (GPa) = 25.50749 35.08526 30.29638
# Shear Modulus (GPa) = 18.50883 22.46921 20.48902
#
# Velocity S-wave (km/s) = 3.04638 3.35652 3.20520
# Velocity P-wave (km/s) = 5.01633 5.71083 5.37481
#
# Compressibility (1/GPa) = 0.03920417
#
# Stress axis : x y z
#
# Youngs Moduli (GPa) = 44.01530 94.15596 57.25499
#
# Poissons Ratio (x) = 0.02659 -0.03732
# Poissons Ratio (y) = 0.01243 0.35328
# Poissons Ratio (z) = -0.02869 0.58097
#
# Static dielectric constant tensor:
#      x y z
#    x 1.679370 0.000000 0.000000 
#    y 0.000000 1.711610 0.000000 
#    z 0.000000 0.000000 1.803850 
# 
# From -- ./inp_files/6037.got.cif
#   From: 2010.05.17/outbox.cif.g08.bks.cpg/sg59_4_cif.got.tgz:6037.got - 2010.06.03 14:40:33.
