data_PCOD9448661
_publ_section_title
;
Structure prediction by ZEFSAII (Michael W. Deem and Ramdas Pophale) SiO2 
 PCOD9448661
Probable space group: P M M N
;
_chemical_formula_sum "Si O2"
_cell_formula_units_Z 64
_cell_length_a 8.455783
_cell_length_b 22.981939
_cell_length_c 18.041074
_cell_angle_alpha 90.000000
_cell_angle_beta 90.000000
_cell_angle_gamma 90.000000
_cell_volume 3505.927126
_symmetry_space_group_name_H-M "P M M N"
_symmetry_group_IT_number 59
_space_group.IT_coordinate_system_code '2'
_symmetry_cell_setting 'orthorhombic'
loop_
_space_group_symop_operation_xyz
x,y,z
1/2-x,1/2-y,z
1/2+x,-y,-z
-x,1/2+y,-z
-x,-y,-z
1/2+x,1/2+y,-z
1/2-x,y,z
x,1/2-y,z
loop_
_atom_site_type_symbol
_atom_site_label
_atom_site_fract_x
_atom_site_fract_y
_atom_site_fract_z
Si Si1 0.936532 0.525489 0.077343
Si Si2 0.060299 0.948191 0.672360
Si Si3 0.560694 0.420007 0.651428
Si Si4 0.559567 0.685346 0.933076
Si Si5 0.561601 0.578453 0.828518
Si Si6 0.435051 0.846968 0.094781
Si Si7 0.062454 0.314113 0.748900
Si Si8 0.940185 0.065634 0.489620
O O1 0.750000 0.537811 0.071461
O O2 0.971413 0.477195 0.138751
O O3 0.028119 0.584366 0.095440
O O4 0.000000 0.500000 0.000000
O O5 0.250000 0.944459 0.678930
O O6 0.008620 0.919396 0.593889
O O7 0.979679 0.918192 0.742378
O O8 0.013997 0.016976 0.670551
O O9 0.750000 0.427603 0.653581
O O10 0.513576 0.368579 0.706608
O O11 0.511720 0.403822 0.566492
O O12 0.750000 0.682639 0.939501
O O13 0.515513 0.750000 0.907082
O O14 0.512107 0.634538 0.876554
O O15 0.489917 0.675127 0.014578
O O16 0.750000 0.570128 0.838365
O O17 0.250000 0.835937 0.104309
O O18 0.526262 0.819651 0.163843
O O19 0.250000 0.317273 0.737674
O O20 0.005983 0.250000 0.723725
O O21 0.750000 0.066076 0.488160
O O22 0.000000 0.000000 0.500000
#
# Coordination Sequence:
#
# PCOD9448661 Si02
#       8
#     8   8   8   8   8   8   8   8
#     4  12  23  37  56  80 110 142 177 221 272 326
#     4  10  19  33  54  82 115 145 177 218 271 329
#     4  10  19  34  56  82 111 141 179 222 269 326
#     4  10  22  40  59  76 100 138 181 226 274 319
#     4  11  22  36  55  80 110 143 180 222 270 323
#     4  12  24  38  58  82 108 140 180 225 272 324
#     4  11  24  40  56  76 107 147 188 229 275 326
#     4   8  16  30  51  79 109 140 169 207 258 315
#
# _framework density 18.254799999999999
#
# number of rings (size 3 to 8) (size 9 to 14) (size 15 to 20)
#    0.000    1.500    1.250    4.875    0.000    4.250 
#    0.000    0.000    0.000    0.750    0.000    3.500 
#    0.000    0.000    0.000    0.000    0.000    0.000 
#
# Total GULP energy -357335.459969 kJ/mol
# GULP energy per Si atom -5583.366562 kJ/mol
# Density = 1.821325 g / cm^3
# Si number density = 18.254800 Si / 1000 Ang^3
#
#
#
# Elastic Constant Matrix: (Units=GPa)
#
#
# Indices 1 2 3 4 5 6 
#
# 1 20.1199 -1.8740 0.1405 0.0000 0.0000 0.0000
# 2 -1.8740 66.2483 14.3898 0.0000 0.0000 0.0000
# 3 0.1405 14.3898 107.7743 0.0000 0.0000 0.0000
# 4 0.0000 0.0000 0.0000 7.1640 0.0000 0.0000
# 5 0.0000 0.0000 0.0000 0.0000 26.5428 0.0000
# 6 0.0000 0.0000 0.0000 0.0000 0.0000 15.4538
#
#
#
# Elastic Compliance Matrix: (Units=1/GPa)
#
#
# Indices 1 2 3 4 5 6 
#
# 1 0.049841 0.001466 -0.000261 0.000000 0.000000 0.000000
# 2 0.001466 0.015589 -0.002083 0.000000 0.000000 0.000000
# 3 -0.000261 -0.002083 0.009557 0.000000 0.000000 0.000000
# 4 0.000000 0.000000 0.000000 0.139586 0.000000 0.000000
# 5 0.000000 0.000000 0.000000 0.000000 0.037675 0.000000
# 6 0.000000 0.000000 0.000000 0.000000 0.000000 0.064709
#
#
# Mechanical properties :
#
#
# Convention : Reuss Voigt Hill
#
# Bulk Modulus (GPa) = 13.65537 24.38390 19.01964
# Shear Modulus (GPa) = 14.57207 21.93120 18.25164
#
# Velocity S-wave (km/s) = 2.82841 3.46987 3.16543
# Velocity P-wave (km/s) = 4.26184 5.42585 4.87868
#
# Compressibility (1/GPa) = 0.07323124
#
# Stress axis : x y z
#
# Youngs Moduli (GPa) = 20.06399 64.14894 104.63377
#
# Poissons Ratio (x) = -0.09407 0.02729
# Poissons Ratio (y) = -0.02942 0.21798
# Poissons Ratio (z) = 0.00523 0.13364
#
# Static dielectric constant tensor:
#      x y z
#    x 1.620670 0.000000 0.000000 
#    y 0.000000 1.623990 0.000000 
#    z 0.000000 0.000000 1.664320 
# 
# From -- ./inp_files/26221.got.cif
#   From: 2010.05.17/outbox.cif.g08.bks.cpg/sg59_14_cif.got.tgz:26221.got - 2010.06.03 14:40:33.
