data_PCOD9448792
_publ_section_title
;
Structure prediction by ZEFSAII (Michael W. Deem and Ramdas Pophale) SiO2 
 PCOD9448792
Probable space group: P M M N
;
_chemical_formula_sum "Si O2"
_cell_formula_units_Z 48
_cell_length_a 21.358568
_cell_length_b 7.567825
_cell_length_c 14.567430
_cell_angle_alpha 90.000000
_cell_angle_beta 90.000000
_cell_angle_gamma 90.000000
_cell_volume 2354.648865
_symmetry_space_group_name_H-M "P M M N"
_symmetry_group_IT_number 59
_space_group.IT_coordinate_system_code '2'
_symmetry_cell_setting 'orthorhombic'
loop_
_space_group_symop_operation_xyz
x,y,z
1/2-x,1/2-y,z
1/2+x,-y,-z
-x,1/2+y,-z
-x,-y,-z
1/2+x,1/2+y,-z
1/2-x,y,z
x,1/2-y,z
loop_
_atom_site_type_symbol
_atom_site_label
_atom_site_fract_x
_atom_site_fract_y
_atom_site_fract_z
Si Si1 0.377419 0.541303 0.716404
Si Si2 0.250000 0.466729 0.398899
Si Si3 0.322626 0.534211 0.902450
Si Si4 0.750000 0.538353 0.389622
Si Si5 0.875279 0.540912 0.700699
Si Si6 0.001895 0.537243 0.608080
Si Si7 0.178256 0.537134 0.108330
O O1 0.389029 0.750000 0.727565
O O2 0.365093 0.469450 0.818790
O O3 0.312635 0.521628 0.661490
O O4 0.435485 0.468450 0.658132
O O5 0.250000 0.250000 0.396056
O O6 0.250000 0.520901 0.504825
O O7 0.312615 0.529762 0.347998
O O8 0.250000 0.483581 0.886203
O O9 0.323587 0.750000 0.901544
O O10 0.339706 0.478112 0.005684
O O11 0.750000 0.750000 0.389161
O O12 0.875804 0.750000 0.682003
O O13 0.866444 0.517352 0.809241
O O14 0.939258 0.469156 0.658062
O O15 0.002575 0.750000 0.616614
O O16 0.000000 0.500000 0.500000
O O17 0.250000 0.476025 0.126586
O O18 0.179924 0.750000 0.107129
#
# Coordination Sequence:
#
# PCOD9448792 Si02
#       7
#     8   4   8   4   8   8   8
#     4  10  19  35  56  77 102 139 180 215 257 316
#     4   9  18  31  48  67  96 136 169 203 258 315
#     4   8  14  28  52  76 101 132 168 211 259 311
#     4  11  21  33  52  79 106 132 169 223 270 309
#     4  10  19  34  52  73 102 139 175 211 263 318
#     4  10  22  37  55  77 105 142 182 220 263 315
#     4   9  17  30  51  79 103 129 170 217 263 308
#
# _framework density 20.385204000000002
#
# number of rings (size 3 to 8) (size 9 to 14) (size 15 to 20)
#    0.000    2.500    1.667    2.250    0.000    2.667 
#    0.000    3.333    0.000    0.000    0.000    0.000 
#    0.000    0.000    0.000    0.000    0.000    0.000 
#
# Total GULP energy -267919.871139 kJ/mol
# GULP energy per Si atom -5581.663982 kJ/mol
# Density = 2.033881 g / cm^3
# Si number density = 20.385204 Si / 1000 Ang^3
#
#
#
# Elastic Constant Matrix: (Units=GPa)
#
#
# Indices 1 2 3 4 5 6 
#
# 1 171.3723 3.1456 116.2753 0.0000 0.0000 0.0000
# 2 3.1456 44.7225 -6.2709 0.0000 0.0000 0.0000
# 3 116.2753 -6.2709 199.1984 0.0000 0.0000 0.0000
# 4 0.0000 0.0000 0.0000 15.1371 0.0000 0.0000
# 5 0.0000 0.0000 0.0000 0.0000 49.5491 0.0000
# 6 0.0000 0.0000 0.0000 0.0000 0.0000 -3.8884
#
#
#
# Elastic Compliance Matrix: (Units=1/GPa)
#
#
# Indices 1 2 3 4 5 6 
#
# 1 0.009760 -0.001492 -0.005744 0.000000 0.000000 0.000000
# 2 -0.001492 0.022687 0.001585 0.000000 0.000000 0.000000
# 3 -0.005744 0.001585 0.008423 0.000000 0.000000 0.000000
# 4 0.000000 0.000000 0.000000 0.066063 0.000000 0.000000
# 5 0.000000 0.000000 0.000000 0.000000 0.020182 0.000000
# 6 0.000000 0.000000 0.000000 0.000000 0.000000 -0.257173
#
#
# Mechanical properties :
#
#
# Convention : Reuss Voigt Hill
#
# Bulk Modulus (GPa) = 33.81984 71.28812 52.55398
# Shear Modulus (GPa) = -45.91367 32.30244 -6.80561
#
# Velocity S-wave (km/s) = -4.75099 3.98502 -1.82914
# Velocity P-wave (km/s) = 3.67008 7.49802 4.62336
#
# Compressibility (1/GPa) = 0.02956844
#
# Stress axis : x y z
#
# Youngs Moduli (GPa) = 102.46016 44.07755 118.72442
#
# Poissons Ratio (x) = 0.06576 0.68195
# Poissons Ratio (y) = 0.15286 -0.18818
# Poissons Ratio (z) = 0.58853 -0.06987
#
# Static dielectric constant tensor:
#      x y z
#    x 1.698930 0.000000 0.000000 
#    y 0.000000 1.773440 0.000000 
#    z 0.000000 0.000000 1.719570 
# 
# From -- ./inp_files/23719.got.cif
#   From: 2010.05.17/outbox.cif.g08.bks.cpg/sg59_12_cif.got.tgz:23719.got - 2010.06.03 14:40:33.
