data_PCOD9448158
_publ_section_title
;
Structure prediction by ZEFSAII (Michael W. Deem and Ramdas Pophale) SiO2 
 PCOD9448158
Probable space group: P M M N
;
_chemical_formula_sum "Si O2"
_cell_formula_units_Z 64
_cell_length_a 8.689266
_cell_length_b 19.542461
_cell_length_c 21.291793
_cell_angle_alpha 90.000000
_cell_angle_beta 90.000000
_cell_angle_gamma 90.000000
_cell_volume 3615.551745
_symmetry_space_group_name_H-M "P M M N"
_symmetry_group_IT_number 59
_space_group.IT_coordinate_system_code '2'
_symmetry_cell_setting 'orthorhombic'
loop_
_space_group_symop_operation_xyz
x,y,z
1/2-x,1/2-y,z
1/2+x,-y,-z
-x,1/2+y,-z
-x,-y,-z
1/2+x,1/2+y,-z
1/2-x,y,z
x,1/2-y,z
loop_
_atom_site_type_symbol
_atom_site_label
_atom_site_fract_x
_atom_site_fract_y
_atom_site_fract_z
Si Si1 0.571382 0.833048 0.003305
Si Si2 0.436699 0.922301 0.755865
Si Si3 0.434771 0.922962 0.383797
Si Si4 0.065745 0.080275 0.752318
Si Si5 0.433478 0.669647 0.135595
Si Si6 0.564128 0.329672 0.129168
Si Si7 0.562291 0.328550 0.500048
Si Si8 0.563471 0.425002 0.385788
O O1 0.750000 0.851711 0.005942
O O2 0.559717 0.750000 0.002561
O O3 0.497881 0.855882 0.937659
O O4 0.488366 0.855517 0.067094
O O5 0.250000 0.919101 0.756861
O O6 0.491667 0.873832 0.811722
O O7 0.483772 0.903499 0.684847
O O8 0.480004 0.001426 0.765713
O O9 0.250000 0.926014 0.383111
O O10 0.494533 0.901483 0.315197
O O11 0.484081 0.870102 0.437771
O O12 0.499462 0.998893 0.397337
O O13 0.250000 0.082655 0.747322
O O14 0.009204 0.127978 0.808183
O O15 0.250000 0.664484 0.139458
O O16 0.475965 0.750000 0.140809
O O17 0.750000 0.331958 0.127145
O O18 0.519195 0.250000 0.136707
O O19 0.750000 0.327345 0.499518
O O20 0.509606 0.250000 0.499549
O O21 0.514091 0.371640 0.438878
O O22 0.750000 0.429260 0.386803
#
# Coordination Sequence:
#
# PCOD9448158 Si02
#       8
#     8   8   8   8   8   8   8   8
#     4   9  17  30  48  71  99 130 164 200 240 290
#     4   8  16  30  48  72  99 126 159 202 246 288
#     4  10  19  32  51  73  99 133 170 206 248 300
#     4  10  20  35  53  73 100 132 168 208 248 294
#     4  10  20  34  53  76 100 127 162 205 251 298
#     4   9  16  28  48  72  97 126 161 201 245 292
#     4   9  18  31  49  75 103 129 162 208 256 298
#     4   9  17  32  53  73  96 130 170 208 247 297
#
# _framework density 17.701308999999998
#
# number of rings (size 3 to 8) (size 9 to 14) (size 15 to 20)
#    0.000    2.750    0.000    2.625    0.000    3.250 
#    0.000    8.125    0.000    3.000    0.000    0.000 
#    0.000    0.000    0.000    0.000    0.000    0.000 
#
# Total GULP energy -356816.795459 kJ/mol
# GULP energy per Si atom -5575.262429 kJ/mol
# Density = 1.766102 g / cm^3
# Si number density = 17.701309 Si / 1000 Ang^3
#
#
#
# Elastic Constant Matrix: (Units=GPa)
#
#
# Indices 1 2 3 4 5 6 
#
# 1 25.3821 26.8134 40.9438 0.0000 0.0000 0.0000
# 2 26.8134 83.6324 105.5090 0.0000 0.0000 0.0000
# 3 40.9438 105.5090 193.7829 0.0000 0.0000 0.0000
# 4 0.0000 0.0000 0.0000 40.2592 0.0000 0.0000
# 5 0.0000 0.0000 0.0000 0.0000 21.4983 0.0000
# 6 0.0000 0.0000 0.0000 0.0000 0.0000 19.9557
#
#
#
# Elastic Compliance Matrix: (Units=1/GPa)
#
#
# Indices 1 2 3 4 5 6 
#
# 1 0.062693 -0.010823 -0.007353 0.000000 0.000000 0.000000
# 2 -0.010823 0.040057 -0.019523 0.000000 0.000000 0.000000
# 3 -0.007353 -0.019523 0.017344 0.000000 0.000000 0.000000
# 4 0.000000 0.000000 0.000000 0.024839 0.000000 0.000000
# 5 0.000000 0.000000 0.000000 0.000000 0.046515 0.000000
# 6 0.000000 0.000000 0.000000 0.000000 0.000000 0.050111
#
#
# Mechanical properties :
#
#
# Convention : Reuss Voigt Hill
#
# Bulk Modulus (GPa) = 22.37405 72.14775 47.26090
# Shear Modulus (GPa) = 15.06676 24.97805 20.02241
#
# Velocity S-wave (km/s) = 2.92064 3.76052 3.36687
# Velocity P-wave (km/s) = 4.90313 7.72672 6.47082
#
# Compressibility (1/GPa) = 0.04469464
#
# Stress axis : x y z
#
# Youngs Moduli (GPa) = 15.95076 24.96439 57.65747
#
# Poissons Ratio (x) = 0.27019 0.42397
# Poissons Ratio (y) = 0.17264 1.12565
# Poissons Ratio (z) = 0.11729 0.48738
#
# Static dielectric constant tensor:
#      x y z
#    x 1.600690 0.000000 0.000000 
#    y 0.000000 1.588380 0.000000 
#    z 0.000000 0.000000 1.599620 
# 
# From -- ./inp_files/29532.got.cif
#   From: 2010.05.17/outbox.cif.g08.bks.cpg/sg59_15_cif.got.tgz:29532.got - 2010.06.03 14:40:33.
