data_PCOD9448444
_publ_section_title
;
Structure prediction by ZEFSAII (Michael W. Deem and Ramdas Pophale) SiO2 
 PCOD9448444
Probable space group: P M M N
;
_chemical_formula_sum "Si O2"
_cell_formula_units_Z 64
_cell_length_a 8.880714
_cell_length_b 15.705693
_cell_length_c 24.607062
_cell_angle_alpha 90.000000
_cell_angle_beta 90.000000
_cell_angle_gamma 90.000000
_cell_volume 3432.138078
_symmetry_space_group_name_H-M "P M M N"
_symmetry_group_IT_number 59
_space_group.IT_coordinate_system_code '2'
_symmetry_cell_setting 'orthorhombic'
loop_
_space_group_symop_operation_xyz
x,y,z
1/2-x,1/2-y,z
1/2+x,-y,-z
-x,1/2+y,-z
-x,-y,-z
1/2+x,1/2+y,-z
1/2-x,y,z
x,1/2-y,z
loop_
_atom_site_type_symbol
_atom_site_label
_atom_site_fract_x
_atom_site_fract_y
_atom_site_fract_z
Si Si1 0.067012 0.153783 0.561308
Si Si2 0.930941 0.849424 0.564076
Si Si3 0.568841 0.656111 0.830370
Si Si4 0.574402 0.397002 0.057449
Si Si5 0.573043 0.602314 0.054964
Si Si6 0.568986 0.496788 0.363751
Si Si7 0.069168 0.346901 0.824758
Si Si8 0.930960 0.001610 0.755849
O O1 0.250000 0.154976 0.561911
O O2 0.016775 0.250000 0.575149
O O3 0.024064 0.134986 0.498850
O O4 0.018388 0.080392 0.602324
O O5 0.750000 0.861125 0.568144
O O6 0.962211 0.750000 0.576038
O O7 0.013168 0.914140 0.603679
O O8 0.750000 0.653788 0.831179
O O9 0.520789 0.750000 0.811549
O O10 0.511550 0.641023 0.891322
O O11 0.517818 0.580204 0.791170
O O12 0.750000 0.377272 0.062030
O O13 0.556007 0.499868 0.059726
O O14 0.512814 0.368859 0.998907
O O15 0.750000 0.621035 0.047829
O O16 0.523100 0.641195 0.112203
O O17 0.750000 0.497464 0.360754
O O18 0.500191 0.498402 0.303889
O O19 0.250000 0.362046 0.822587
O O20 0.040619 0.250000 0.807739
O O21 0.986793 0.415021 0.787550
O O22 0.750000 0.000780 0.752708
#
# Coordination Sequence:
#
# PCOD9448444 Si02
#       8
#     8   8   8   8   8   8   8   8
#     4   8  16  33  57  85 116 151 189 228 275 334
#     4   9  18  35  59  85 116 153 190 229 277 333
#     4  10  22  40  60  79 103 142 189 234 285 342
#     4  10  19  32  55  85 115 143 177 224 278 335
#     4   9  18  33  54  82 116 148 179 217 272 341
#     4  11  22  35  57  86 116 150 191 236 283 335
#     4  10  21  39  62  84 109 146 189 233 284 339
#     4  11  24  41  59  80 111 149 193 241 286 333
#
# _framework density 18.647269999999999
#
# number of rings (size 3 to 8) (size 9 to 14) (size 15 to 20)
#    0.000    2.250    1.250    2.250    0.000    3.750 
#    0.000    4.375    0.000    2.625    0.000    0.000 
#    0.000    0.000    0.000    0.000    0.000    0.000 
#
# Total GULP energy -357331.829267 kJ/mol
# GULP energy per Si atom -5583.309832 kJ/mol
# Density = 1.860483 g / cm^3
# Si number density = 18.647270 Si / 1000 Ang^3
#
#
#
# Elastic Constant Matrix: (Units=GPa)
#
#
# Indices 1 2 3 4 5 6 
#
# 1 29.2277 48.7219 41.3987 0.0000 0.0000 0.0000
# 2 48.7219 118.0004 99.0761 0.0000 0.0000 0.0000
# 3 41.3987 99.0761 151.3854 0.0000 0.0000 0.0000
# 4 0.0000 0.0000 0.0000 -9.4487 0.0000 0.0000
# 5 0.0000 0.0000 0.0000 0.0000 16.1255 0.0000
# 6 0.0000 0.0000 0.0000 0.0000 0.0000 25.2784
#
#
#
# Elastic Compliance Matrix: (Units=1/GPa)
#
#
# Indices 1 2 3 4 5 6 
#
# 1 0.109805 -0.044675 -0.000790 0.000000 0.000000 0.000000
# 2 -0.044675 0.036988 -0.011990 0.000000 0.000000 0.000000
# 3 -0.000790 -0.011990 0.014669 0.000000 0.000000 0.000000
# 4 0.000000 0.000000 0.000000 -0.105835 0.000000 0.000000
# 5 0.000000 0.000000 0.000000 0.000000 0.062014 0.000000
# 6 0.000000 0.000000 0.000000 0.000000 0.000000 0.039559
#
#
# Mechanical properties :
#
#
# Convention : Reuss Voigt Hill
#
# Bulk Modulus (GPa) = 21.48136 75.22300 48.35218
# Shear Modulus (GPa) = 17.38357 13.68548 15.53453
#
# Velocity S-wave (km/s) = 3.05656 2.71202 2.88943
# Velocity P-wave (km/s) = 4.89914 7.08761 6.09245
#
# Compressibility (1/GPa) = 0.04655199
#
# Stress axis : x y z
#
# Youngs Moduli (GPa) = 9.10702 27.03582 68.17214
#
# Poissons Ratio (x) = 1.20783 0.05384
# Poissons Ratio (y) = 0.40686 0.81739
# Poissons Ratio (z) = 0.00719 0.32416
#
# Static dielectric constant tensor:
#      x y z
#    x 1.629510 0.000000 0.000000 
#    y 0.000000 1.659770 0.000000 
#    z 0.000000 0.000000 1.610040 
# 
# From -- ./inp_files/31516.got.cif
#   From: 2010.05.17/outbox.cif.g08.bks.cpg/sg59_16_cif.got.tgz:31516.got - 2010.06.03 14:40:33.
