data_PCOD9448546
_publ_section_title
;
Structure prediction by ZEFSAII (Michael W. Deem and Ramdas Pophale) SiO2 
 PCOD9448546
Probable space group: P M M N
;
_chemical_formula_sum "Si O2"
_cell_formula_units_Z 64
_cell_length_a 26.572697
_cell_length_b 7.635900
_cell_length_c 13.978151
_cell_angle_alpha 90.000000
_cell_angle_beta 90.000000
_cell_angle_gamma 90.000000
_cell_volume 2836.257095
_symmetry_space_group_name_H-M "P M M N"
_symmetry_group_IT_number 59
_space_group.IT_coordinate_system_code '2'
_symmetry_cell_setting 'orthorhombic'
loop_
_space_group_symop_operation_xyz
x,y,z
1/2-x,1/2-y,z
1/2+x,-y,-z
-x,1/2+y,-z
-x,-y,-z
1/2+x,1/2+y,-z
1/2-x,y,z
x,1/2-y,z
loop_
_atom_site_type_symbol
_atom_site_label
_atom_site_fract_x
_atom_site_fract_y
_atom_site_fract_z
Si Si1 0.453759 0.959110 0.068693
Si Si2 0.847552 0.045032 0.000373
Si Si3 0.807551 0.541561 0.794797
Si Si4 0.971151 0.537319 0.218791
Si Si5 0.525502 0.456943 0.598251
Si Si6 0.191121 0.464280 0.593767
Si Si7 0.359635 0.452870 0.395247
Si Si8 0.858670 0.543012 0.206435
O O1 0.446147 0.750000 0.076657
O O2 0.402027 0.034367 0.029208
O O3 0.478045 0.025941 0.166292
O O4 0.500000 0.000000 0.000000
O O5 0.853164 0.250000 0.017976
O O6 0.816480 0.024992 0.902606
O O7 0.830649 0.975906 0.104211
O O8 0.750000 0.509911 0.767731
O O9 0.816345 0.750000 0.802155
O O10 0.840712 0.470195 0.706501
O O11 0.970418 0.750000 0.205514
O O12 0.915791 0.471940 0.190768
O O13 0.983051 0.490597 0.326263
O O14 0.500000 0.500000 0.500000
O O15 0.533782 0.250000 0.610999
O O16 0.580262 0.540317 0.604788
O O17 0.250000 0.513049 0.589839
O O18 0.188862 0.250000 0.594858
O O19 0.162654 0.523503 0.496191
O O20 0.166744 0.524441 0.695394
O O21 0.342708 0.250000 0.393526
O O22 0.864168 0.750000 0.222538
#
# Coordination Sequence:
#
# PCOD9448546 Si02
#       8
#     8   8   8   8   8   8   8   8
#     4  10  19  33  53  77 106 143 186 227 274 331
#     4  11  23  37  55  84 120 156 193 239 294 348
#     4  10  22  40  63  89 116 152 200 250 296 350
#     4   9  18  33  53  76 107 147 187 229 278 329
#     4  11  22  37  57  84 120 157 191 229 278 341
#     4   9  18  34  59  87 111 141 186 239 292 344
#     4  10  20  38  63  89 116 147 190 243 296 346
#     4  10  19  34  57  81 110 151 196 236 278 337
#
# _framework density 22.56495
#
# number of rings (size 3 to 8) (size 9 to 14) (size 15 to 20)
#    0.000    2.000    1.250    2.625    0.000    6.250 
#    0.000    5.625    0.000    1.875    0.000    0.000 
#    0.000    0.000    0.000    0.000    0.000    0.000 
#
# Total GULP energy -356875.311184 kJ/mol
# GULP energy per Si atom -5576.176737 kJ/mol
# Density = 2.251359 g / cm^3
# Si number density = 22.564950 Si / 1000 Ang^3
#
#
#
# Elastic Constant Matrix: (Units=GPa)
#
#
# Indices 1 2 3 4 5 6 
#
# 1 52.6749 6.5718 23.8359 0.0000 0.0000 0.0000
# 2 6.5718 39.2157 0.9930 0.0000 0.0000 0.0000
# 3 23.8359 0.9930 148.5192 0.0000 0.0000 0.0000
# 4 0.0000 0.0000 0.0000 3.4855 0.0000 0.0000
# 5 0.0000 0.0000 0.0000 0.0000 38.2106 0.0000
# 6 0.0000 0.0000 0.0000 0.0000 0.0000 11.1680
#
#
#
# Elastic Compliance Matrix: (Units=1/GPa)
#
#
# Indices 1 2 3 4 5 6 
#
# 1 0.020920 -0.003421 -0.003335 0.000000 0.000000 0.000000
# 2 -0.003421 0.026064 0.000375 0.000000 0.000000 0.000000
# 3 -0.003335 0.000375 0.007266 0.000000 0.000000 0.000000
# 4 0.000000 0.000000 0.000000 0.286905 0.000000 0.000000
# 5 0.000000 0.000000 0.000000 0.000000 0.026171 0.000000
# 6 0.000000 0.000000 0.000000 0.000000 0.000000 0.089542
#
#
# Mechanical properties :
#
#
# Convention : Reuss Voigt Hill
#
# Bulk Modulus (GPa) = 24.10361 33.69011 28.89686
# Shear Modulus (GPa) = 10.34215 24.50676 17.42445
#
# Velocity S-wave (km/s) = 2.14318 3.29911 2.78185
# Velocity P-wave (km/s) = 4.10236 5.42908 4.81166
#
# Compressibility (1/GPa) = 0.04148756
#
# Stress axis : x y z
#
# Youngs Moduli (GPa) = 47.80077 38.36732 137.63107
#
# Poissons Ratio (x) = 0.13127 0.45895
# Poissons Ratio (y) = 0.16354 -0.05159
# Poissons Ratio (z) = 0.15940 -0.01438
#
# Static dielectric constant tensor:
#      x y z
#    x 1.808180 0.000000 0.000000 
#    y 0.000000 1.827010 0.000000 
#    z 0.000000 0.000000 6.442760 
# 
# From -- ./inp_files/19256.got.cif
#   From: 2010.05.17/outbox.cif.g08.bks.cpg/sg59_10_cif.got.tgz:19256.got - 2010.06.03 14:40:33.
