data_PCOD9448887
_publ_section_title
;
Structure prediction by ZEFSAII (Michael W. Deem and Ramdas Pophale) SiO2 
 PCOD9448887
Probable space group: P M M N
;
_chemical_formula_sum "Si O2"
_cell_formula_units_Z 64
_cell_length_a 13.848370
_cell_length_b 20.790034
_cell_length_c 11.367645
_cell_angle_alpha 90.000000
_cell_angle_beta 90.000000
_cell_angle_gamma 90.000000
_cell_volume 3272.836882
_symmetry_space_group_name_H-M "P M M N"
_symmetry_group_IT_number 59
_space_group.IT_coordinate_system_code '2'
_symmetry_cell_setting 'orthorhombic'
loop_
_space_group_symop_operation_xyz
x,y,z
1/2-x,1/2-y,z
1/2+x,-y,-z
-x,1/2+y,-z
-x,-y,-z
1/2+x,1/2+y,-z
1/2-x,y,z
x,1/2-y,z
loop_
_atom_site_type_symbol
_atom_site_label
_atom_site_fract_x
_atom_site_fract_y
_atom_site_fract_z
Si Si1 0.633355 0.062570 0.573958
Si Si2 0.638166 0.174585 0.980312
Si Si3 0.985472 0.440699 0.089483
Si Si4 0.134166 0.437488 0.274968
Si Si5 0.440080 0.823307 0.273431
Si Si6 0.358411 0.361924 0.696900
Si Si7 0.862433 0.015971 0.314699
Si Si8 0.135008 0.319240 0.429260
O O1 0.750000 0.068419 0.575983
O O2 0.586322 0.126746 0.624849
O O3 0.605727 0.043919 0.441030
O O4 0.606740 0.004641 0.662769
O O5 0.750000 0.162820 0.014314
O O6 0.615126 0.250000 0.007439
O O7 0.627935 0.167559 0.839201
O O8 0.566804 0.121563 0.035012
O O9 0.922020 0.461515 0.202470
O O10 0.089634 0.428263 0.147059
O O11 0.000000 0.500000 0.000000
O O12 0.250000 0.436914 0.271523
O O13 0.097551 0.379390 0.356705
O O14 0.432392 0.750000 0.313852
O O15 0.549956 0.837168 0.231519
O O16 0.250000 0.346653 0.739877
O O17 0.365513 0.438508 0.680316
O O18 0.371247 0.331000 0.568124
O O19 0.750000 0.034212 0.299327
O O20 0.250000 0.317110 0.404726
O O21 0.092127 0.250000 0.398242
#
# Coordination Sequence:
#
# PCOD9448887 Si02
#       8
#     8   8   8   8   8   8   8   8
#     4  10  20  37  60  88 121 157 194 246 313 376
#     4  10  23  46  68  84 115 165 217 265 311 366
#     4  12  25  39  60  92 119 159 212 266 310 354
#     4  10  21  37  59  88 121 158 197 241 302 369
#     4  11  23  37  60  90 116 153 205 255 306 362
#     4  10  19  34  55  85 126 162 186 223 288 370
#     4  10  21  37  60  87 120 157 196 249 313 369
#     4   9  17  31  52  80 117 158 193 222 269 350
#
# _framework density 19.554898999999999
#
# number of rings (size 3 to 8) (size 9 to 14) (size 15 to 20)
#    0.000    1.750    1.250    3.375    1.750    5.000 
#    0.000    1.250    0.000    1.500    0.000    0.000 
#    0.000    0.000    0.000    0.000    0.000    0.000 
#
# Total GULP energy -357360.976136 kJ/mol
# GULP energy per Si atom -5583.765252 kJ/mol
# Density = 1.951039 g / cm^3
# Si number density = 19.554899 Si / 1000 Ang^3
#
#
#
# Elastic Constant Matrix: (Units=GPa)
#
#
# Indices 1 2 3 4 5 6 
#
# 1 74.5856 41.8208 28.8038 0.0000 0.0000 0.0000
# 2 41.8208 135.0783 42.5522 0.0000 0.0000 0.0000
# 3 28.8038 42.5522 61.0477 0.0000 0.0000 0.0000
# 4 0.0000 0.0000 0.0000 24.7714 0.0000 0.0000
# 5 0.0000 0.0000 0.0000 0.0000 40.0132 0.0000
# 6 0.0000 0.0000 0.0000 0.0000 0.0000 23.1150
#
#
#
# Elastic Compliance Matrix: (Units=1/GPa)
#
#
# Indices 1 2 3 4 5 6 
#
# 1 0.017696 -0.003650 -0.005805 0.000000 0.000000 0.000000
# 2 -0.003650 0.010239 -0.005415 0.000000 0.000000 0.000000
# 3 -0.005805 -0.005415 0.022894 0.000000 0.000000 0.000000
# 4 0.000000 0.000000 0.000000 0.040369 0.000000 0.000000
# 5 0.000000 0.000000 0.000000 0.000000 0.024992 0.000000
# 6 0.000000 0.000000 0.000000 0.000000 0.000000 0.043262
#
#
# Mechanical properties :
#
#
# Convention : Reuss Voigt Hill
#
# Bulk Modulus (GPa) = 47.41827 55.22948 51.32388
# Shear Modulus (GPa) = 25.48150 28.08224 26.78187
#
# Velocity S-wave (km/s) = 3.61373 3.79367 3.70479
# Velocity P-wave (km/s) = 6.45860 6.89157 6.67860
#
# Compressibility (1/GPa) = 0.02108892
#
# Stress axis : x y z
#
# Youngs Moduli (GPa) = 56.51042 97.66687 43.67984
#
# Poissons Ratio (x) = 0.35648 0.25357
# Poissons Ratio (y) = 0.20626 0.23651
# Poissons Ratio (z) = 0.32805 0.52884
#
# Static dielectric constant tensor:
#      x y z
#    x 1.741760 0.000000 0.000000 
#    y 0.000000 1.686280 0.000000 
#    z 0.000000 0.000000 1.655530 
# 
# From -- ./inp_files/17209.got.cif
#   From: 2010.05.17/outbox.cif.g08.bks.cpg/sg59_9_cif.got.tgz:17209.got - 2010.06.03 14:40:33.
