data_PCOD9448998
_publ_section_title
;
Structure prediction by ZEFSAII (Michael W. Deem and Ramdas Pophale) SiO2 
 PCOD9448998
Probable space group: P M M N
;
_chemical_formula_sum "Si O2"
_cell_formula_units_Z 48
_cell_length_a 24.055457
_cell_length_b 8.753041
_cell_length_c 12.979349
_cell_angle_alpha 90.000000
_cell_angle_beta 90.000000
_cell_angle_gamma 90.000000
_cell_volume 2732.910977
_symmetry_space_group_name_H-M "P M M N"
_symmetry_group_IT_number 59
_space_group.IT_coordinate_system_code '2'
_symmetry_cell_setting 'orthorhombic'
loop_
_space_group_symop_operation_xyz
x,y,z
1/2-x,1/2-y,z
1/2+x,-y,-z
-x,1/2+y,-z
-x,-y,-z
1/2+x,1/2+y,-z
1/2-x,y,z
x,1/2-y,z
loop_
_atom_site_type_symbol
_atom_site_label
_atom_site_fract_x
_atom_site_fract_y
_atom_site_fract_z
Si Si1 0.813221 0.935964 0.114896
Si Si2 0.814871 0.933949 0.878209
Si Si3 0.184981 0.432476 0.494887
Si Si4 0.388686 0.433914 0.696588
Si Si5 0.116497 0.569097 0.307554
Si Si6 0.998063 0.931859 0.615405
O O1 0.750000 0.985285 0.139864
O O2 0.812560 0.750000 0.117531
O O3 0.857525 0.985723 0.199683
O O4 0.825791 0.978925 0.996976
O O5 0.750000 0.969779 0.855674
O O6 0.820574 0.750000 0.870427
O O7 0.855166 0.012610 0.797438
O O8 0.250000 0.468637 0.505492
O O9 0.180170 0.250000 0.474982
O O10 0.151677 0.464857 0.599647
O O11 0.156945 0.520227 0.400862
O O12 0.396614 0.250000 0.701258
O O13 0.447289 0.512183 0.675123
O O14 0.109176 0.750000 0.306808
O O15 0.057539 0.490172 0.329381
O O16 0.997094 0.750000 0.607770
O O17 0.000000 0.000000 0.500000
#
# Coordination Sequence:
#
# PCOD9448998 Si02
#       6
#     8   8   8   8   8   8
#     4   8  15  31  58  89 117 148 186 226 272 331
#     4   9  18  35  59  85 115 151 189 229 276 330
#     4  10  20  33  53  82 115 148 180 221 278 340
#     4  10  19  34  58  86 115 146 185 229 275 333
#     4  12  24  37  55  80 111 148 191 236 281 330
#     4  12  24  40  59  80 109 148 190 232 282 338
#
# _framework density 17.563689
#
# number of rings (size 3 to 8) (size 9 to 14) (size 15 to 20)
#    0.000    1.833    1.667    5.000    0.000    4.667 
#    0.000    1.667    0.000    2.500    0.000    0.000 
#    0.000    0.000    0.000    0.000    0.000    0.000 
#
# Total GULP energy -268099.449099 kJ/mol
# GULP energy per Si atom -5585.405190 kJ/mol
# Density = 1.752371 g / cm^3
# Si number density = 17.563689 Si / 1000 Ang^3
#
#
#
# Elastic Constant Matrix: (Units=GPa)
#
#
# Indices 1 2 3 4 5 6 
#
# 1 149.2549 63.7340 91.1374 0.0000 0.0000 0.0000
# 2 63.7340 63.5830 55.5650 0.0000 0.0000 0.0000
# 3 91.1374 55.5650 130.6125 0.0000 0.0000 0.0000
# 4 0.0000 0.0000 0.0000 5.8132 0.0000 0.0000
# 5 0.0000 0.0000 0.0000 0.0000 14.6783 0.0000
# 6 0.0000 0.0000 0.0000 0.0000 0.0000 29.0782
#
#
#
# Elastic Compliance Matrix: (Units=1/GPa)
#
#
# Indices 1 2 3 4 5 6 
#
# 1 0.014273 -0.008920 -0.006165 0.000000 0.000000 0.000000
# 2 -0.008920 0.030609 -0.006798 0.000000 0.000000 0.000000
# 3 -0.006165 -0.006798 0.014850 0.000000 0.000000 0.000000
# 4 0.000000 0.000000 0.000000 0.172022 0.000000 0.000000
# 5 0.000000 0.000000 0.000000 0.000000 0.068128 0.000000
# 6 0.000000 0.000000 0.000000 0.000000 0.000000 0.034390
#
#
# Mechanical properties :
#
#
# Convention : Reuss Voigt Hill
#
# Bulk Modulus (GPa) = 62.62762 84.92480 73.77621
# Shear Modulus (GPa) = 13.04264 18.78154 15.91209
#
# Velocity S-wave (km/s) = 2.72801 3.27362 3.01319
# Velocity P-wave (km/s) = 6.75704 7.92125 7.36219
#
# Compressibility (1/GPa) = 0.01596739
#
# Stress axis : x y z
#
# Youngs Moduli (GPa) = 70.06229 32.67035 67.34155
#
# Poissons Ratio (x) = 0.29141 0.41514
# Poissons Ratio (y) = 0.62493 0.45777
# Poissons Ratio (z) = 0.43191 0.22208
#
# Static dielectric constant tensor:
#      x y z
#    x 1.575430 0.000000 0.000000 
#    y 0.000000 1.593800 0.000000 
#    z 0.000000 0.000000 1.583360 
# 
# From -- ./inp_files/14361.got.cif
#   From: 2010.05.17/outbox.cif.g08.bks.cpg/sg59_8_cif.got.tgz:14361.got - 2010.06.03 14:40:33.
