data_PCOD9448422
_publ_section_title
;
Structure prediction by ZEFSAII (Michael W. Deem and Ramdas Pophale) SiO2 
 PCOD9448422
Probable space group: P M M N
;
_chemical_formula_sum "Si O2"
_cell_formula_units_Z 64
_cell_length_a 8.788767
_cell_length_b 20.329542
_cell_length_c 20.538526
_cell_angle_alpha 90.000000
_cell_angle_beta 90.000000
_cell_angle_gamma 90.000000
_cell_volume 3669.651463
_symmetry_space_group_name_H-M "P M M N"
_symmetry_group_IT_number 59
_space_group.IT_coordinate_system_code '2'
_symmetry_cell_setting 'orthorhombic'
loop_
_space_group_symop_operation_xyz
x,y,z
1/2-x,1/2-y,z
1/2+x,-y,-z
-x,1/2+y,-z
-x,-y,-z
1/2+x,1/2+y,-z
1/2-x,y,z
x,1/2-y,z
loop_
_atom_site_type_symbol
_atom_site_label
_atom_site_fract_x
_atom_site_fract_y
_atom_site_fract_z
Si Si1 0.932009 0.416301 0.446413
Si Si2 0.566863 0.325538 0.328201
Si Si3 0.433137 0.825538 0.171799
Si Si4 0.932009 0.083699 0.946413
Si Si5 0.069212 0.556226 0.409001
Si Si6 0.430788 0.943774 0.909001
Si Si7 0.069206 0.070125 0.228152
Si Si8 0.569206 0.570125 0.271848
O O1 0.750000 0.429698 0.442035
O O2 0.966794 0.355622 0.399470
O O3 0.967570 0.407972 0.522693
O O4 0.019027 0.480615 0.420557
O O5 0.750000 0.328246 0.319925
O O6 0.518184 0.250000 0.322329
O O7 0.492029 0.373261 0.275459
O O8 0.250000 0.828246 0.180075
O O9 0.481816 0.750000 0.177671
O O10 0.466794 0.855622 0.100530
O O11 0.507971 0.873261 0.224541
O O12 0.750000 0.070302 0.942035
O O13 0.967570 0.092028 0.022693
O O14 0.019027 0.019385 0.920557
O O15 0.250000 0.559272 0.398116
O O16 0.983732 0.582237 0.345790
O O17 0.250000 0.940728 0.898116
O O18 0.516268 0.917763 0.845790
O O19 0.250000 0.065844 0.231953
O O20 1.000000 0.000000 0.250000
O O21 0.750000 0.565844 0.268047
#
# Coordination Sequence:
#
# PCOD9448422 Si02
#       8
#     8   8   8   8   8   8   8   8
#     4   9  18  33  54  81 112 145 183 227 279 337
#     4  10  21  38  59  83 113 149 188 233 286 344
#     4  10  21  38  59  83 113 149 188 233 286 344
#     4   9  18  33  54  81 112 145 183 227 279 337
#     4  10  19  32  54  84 113 144 184 231 281 330
#     4  10  19  32  54  84 113 144 184 231 281 330
#     4  12  23  36  56  83 114 150 192 238 287 336
#     4  12  23  36  56  83 114 150 192 238 287 336
#
# _framework density 17.440349000000001
#
# number of rings (size 3 to 8) (size 9 to 14) (size 15 to 20)
#    0.000    1.750    2.500    3.000    0.000    1.500 
#    0.000    1.250    0.000    4.500    0.000    0.000 
#    0.000    0.000    0.000    0.000    0.000    0.000 
#
# Total GULP energy -357317.504800 kJ/mol
# GULP energy per Si atom -5583.086013 kJ/mol
# Density = 1.740065 g / cm^3
# Si number density = 17.440349 Si / 1000 Ang^3
#
#
#
# Elastic Constant Matrix: (Units=GPa)
#
#
# Indices 1 2 3 4 5 6 
#
# 1 62.3859 55.7037 61.0367 0.0000 0.0000 0.0000
# 2 55.7037 129.8881 89.0706 0.0000 0.0000 0.0000
# 3 61.0367 89.0706 154.9536 0.0000 0.0000 0.0000
# 4 0.0000 0.0000 0.0000 23.9220 0.0000 0.0000
# 5 0.0000 0.0000 0.0000 0.0000 29.2619 0.0000
# 6 0.0000 0.0000 0.0000 0.0000 0.0000 21.8967
#
#
#
# Elastic Compliance Matrix: (Units=1/GPa)
#
#
# Indices 1 2 3 4 5 6 
#
# 1 0.030358 -0.007955 -0.007386 0.000000 0.000000 0.000000
# 2 -0.007955 0.014793 -0.005370 0.000000 0.000000 0.000000
# 3 -0.007386 -0.005370 0.012449 0.000000 0.000000 0.000000
# 4 0.000000 0.000000 0.000000 0.041803 0.000000 0.000000
# 5 0.000000 0.000000 0.000000 0.000000 0.034174 0.000000
# 6 0.000000 0.000000 0.000000 0.000000 0.000000 0.045669
#
#
# Mechanical properties :
#
#
# Convention : Reuss Voigt Hill
#
# Bulk Modulus (GPa) = 61.80498 84.31663 73.06081
# Shear Modulus (GPa) = 22.11817 24.44387 23.28102
#
# Velocity S-wave (km/s) = 3.56507 3.74782 3.65758
# Velocity P-wave (km/s) = 7.24301 8.19627 7.73434
#
# Compressibility (1/GPa) = 0.01617993
#
# Stress axis : x y z
#
# Youngs Moduli (GPa) = 32.94069 67.60116 80.32510
#
# Poissons Ratio (x) = 0.53773 0.59324
# Poissons Ratio (y) = 0.26203 0.43133
# Poissons Ratio (z) = 0.24328 0.36301
#
# Static dielectric constant tensor:
#      x y z
#    x 1.586270 0.000000 0.000000 
#    y 0.000000 1.557790 0.000000 
#    z 0.000000 0.000000 1.611740 
# 
# From -- ./inp_files/29376.got.cif
#   From: 2010.05.17/outbox.cif.g08.bks.cpg/sg59_15_cif.got.tgz:29376.got - 2010.06.03 14:40:33.
