data_PCOD9448331
_publ_section_title
;
Structure prediction by ZEFSAII (Michael W. Deem and Ramdas Pophale) SiO2 
 PCOD9448331
Probable space group: P M M N
;
_chemical_formula_sum "Si O2"
_cell_formula_units_Z 48
_cell_length_a 7.427490
_cell_length_b 24.734156
_cell_length_c 9.886842
_cell_angle_alpha 90.000000
_cell_angle_beta 90.000000
_cell_angle_gamma 90.000000
_cell_volume 1816.338402
_symmetry_space_group_name_H-M "P M M N"
_symmetry_group_IT_number 59
_space_group.IT_coordinate_system_code '2'
_symmetry_cell_setting 'orthorhombic'
loop_
_space_group_symop_operation_xyz
x,y,z
1/2-x,1/2-y,z
1/2+x,-y,-z
-x,1/2+y,-z
-x,-y,-z
1/2+x,1/2+y,-z
1/2-x,y,z
x,1/2-y,z
loop_
_atom_site_type_symbol
_atom_site_label
_atom_site_fract_x
_atom_site_fract_y
_atom_site_fract_z
Si Si1 0.541505 0.160155 0.108020
Si Si2 0.542607 0.429197 0.768406
Si Si3 0.956031 0.807849 0.594400
Si Si4 0.531248 0.921641 0.526189
Si Si5 0.030495 0.691238 0.186767
Si Si6 0.967550 0.542032 0.826043
O O1 0.750000 0.172861 0.127752
O O2 0.449923 0.178881 0.245719
O O3 0.523209 0.095179 0.091101
O O4 0.482431 0.189139 0.972250
O O5 0.750000 0.423585 0.811187
O O6 0.538263 0.447484 0.610941
O O7 0.463760 0.368502 0.768431
O O8 0.465134 0.480765 0.850128
O O9 0.750000 0.805437 0.547665
O O10 0.042471 0.750000 0.572445
O O11 0.037993 0.859763 0.524707
O O12 0.750000 0.923012 0.523404
O O13 0.474589 0.943030 0.672373
O O14 0.250000 0.690880 0.199128
O O15 0.970532 0.750000 0.243080
O O16 0.750000 0.540549 0.828892
#
# Coordination Sequence:
#
# PCOD9448331 Si02
#       6
#     8   8   8   8   8   8
#     4  10  19  32  53  78 101 129 168 211 255 302
#     4  10  20  34  53  74  99 137 176 205 243 302
#     4   9  18  33  52  74 103 137 169 208 260 306
#     4   9  18  32  49  72 103 134 164 207 258 298
#     4   9  19  35  52  73 104 136 164 203 254 298
#     4   9  19  35  53  75 103 132 165 209 260 305
#
# _framework density 26.426796
#
# number of rings (size 3 to 8) (size 9 to 14) (size 15 to 20)
#    0.000    2.667    0.000    2.500    0.000    5.667 
#    0.000    1.667    0.000    2.000    0.000    0.000 
#    0.000    0.000    0.000    0.000    0.000    0.000 
#
# Total GULP energy -268175.485809 kJ/mol
# GULP energy per Si atom -5586.989288 kJ/mol
# Density = 2.636665 g / cm^3
# Si number density = 26.426796 Si / 1000 Ang^3
#
#
#
# Elastic Constant Matrix: (Units=GPa)
#
#
# Indices 1 2 3 4 5 6 
#
# 1 92.4554 7.0746 -4.0790 0.0000 0.0000 0.0000
# 2 7.0746 200.6048 11.6580 0.0000 0.0000 0.0000
# 3 -4.0790 11.6580 67.2867 0.0000 0.0000 0.0000
# 4 0.0000 0.0000 0.0000 22.2337 0.0000 0.0000
# 5 0.0000 0.0000 0.0000 0.0000 16.6588 0.0000
# 6 0.0000 0.0000 0.0000 0.0000 0.0000 -4.8125
#
#
#
# Elastic Compliance Matrix: (Units=1/GPa)
#
#
# Indices 1 2 3 4 5 6 
#
# 1 0.010881 -0.000426 0.000733 0.000000 0.000000 0.000000
# 2 -0.000426 0.005052 -0.000901 0.000000 0.000000 0.000000
# 3 0.000733 -0.000901 0.015062 0.000000 0.000000 0.000000
# 4 0.000000 0.000000 0.000000 0.044977 0.000000 0.000000
# 5 0.000000 0.000000 0.000000 0.000000 0.060028 0.000000
# 6 0.000000 0.000000 0.000000 0.000000 0.000000 -0.207791
#
#
# Mechanical properties :
#
#
# Convention : Reuss Voigt Hill
#
# Bulk Modulus (GPa) = 33.54852 43.29489 38.42171
# Shear Modulus (GPa) = -82.41836 29.86222 -26.27807
#
# Velocity S-wave (km/s) = -5.59063 3.36519 -3.15679
# Velocity P-wave (km/s) = 5.38062 5.61408 1.13287
#
# Compressibility (1/GPa) = 0.02980757
#
# Stress axis : x y z
#
# Youngs Moduli (GPa) = 91.90321 197.92827 66.39055
#
# Poissons Ratio (x) = 0.08439 -0.04870
# Poissons Ratio (y) = 0.03918 0.05983
# Poissons Ratio (z) = -0.06741 0.17837
#
# Static dielectric constant tensor:
#      x y z
#    x 1.962860 0.000000 0.000000 
#    y 0.000000 2.147400 0.000000 
#    z 0.000000 0.000000 2.032540 
# 
# From -- ./inp_files/14349.got.cif
#   From: 2010.05.17/outbox.cif.g08.bks.cpg/sg59_8_cif.got.tgz:14349.got - 2010.06.03 14:40:33.
