data_PCOD9448048
_publ_section_title
;
Structure prediction by ZEFSAII (Michael W. Deem and Ramdas Pophale) SiO2 
 PCOD9448048
Probable space group: P M M N
;
_chemical_formula_sum "Si O2"
_cell_formula_units_Z 64
_cell_length_a 9.257285
_cell_length_b 29.302060
_cell_length_c 12.603633
_cell_angle_alpha 90.000000
_cell_angle_beta 90.000000
_cell_angle_gamma 90.000000
_cell_volume 3418.830237
_symmetry_space_group_name_H-M "P M M N"
_symmetry_group_IT_number 59
_space_group.IT_coordinate_system_code '2'
_symmetry_cell_setting 'orthorhombic'
loop_
_space_group_symop_operation_xyz
x,y,z
1/2-x,1/2-y,z
1/2+x,-y,-z
-x,1/2+y,-z
-x,-y,-z
1/2+x,1/2+y,-z
1/2-x,y,z
x,1/2-y,z
loop_
_atom_site_type_symbol
_atom_site_label
_atom_site_fract_x
_atom_site_fract_y
_atom_site_fract_z
Si Si1 0.421416 0.701519 0.670898
Si Si2 0.078424 0.536856 0.753662
Si Si3 0.576383 0.803079 0.020098
Si Si4 0.080812 0.553802 0.279557
Si Si5 0.924554 0.132010 0.149358
Si Si6 0.417986 0.922974 0.519201
Si Si7 0.920422 0.830669 0.474824
Si Si8 0.422654 0.149284 0.758231
O O1 0.250000 0.698568 0.656229
O O2 0.454322 0.750000 0.725140
O O3 0.465003 0.659502 0.743848
O O4 0.497054 0.699949 0.558277
O O5 0.250000 0.529283 0.766548
O O6 0.036039 0.579307 0.829255
O O7 0.056780 0.551947 0.630409
O O8 0.992787 0.490360 0.771223
O O9 0.750000 0.805162 0.003849
O O10 0.532008 0.750000 0.004754
O O11 0.499151 0.839533 0.943716
O O12 0.546227 0.820085 0.139739
O O13 0.250000 0.556020 0.254665
O O14 0.067600 0.549798 0.408535
O O15 0.004841 0.600895 0.244516
O O16 0.750000 0.134157 0.137831
O O17 0.250000 0.906312 0.522661
O O18 0.527972 0.881491 0.505710
O O19 0.750000 0.825265 0.486821
O O20 0.959115 0.825067 0.351557
O O21 0.250000 0.140099 0.755847
#
# Coordination Sequence:
#
# PCOD9448048 Si02
#       8
#     8   8   8   8   8   8   8   8
#     4  10  20  35  54  76 109 149 182 220 280 346
#     4  10  19  33  54  78 112 155 190 222 272 337
#     4  10  22  41  64  86 108 140 185 239 292 336
#     4  10  20  32  53  85 116 147 188 236 275 320
#     4  10  21  38  59  82 110 147 189 230 276 335
#     4   9  17  32  51  74 111 154 188 221 266 325
#     4  10  19  31  52  81 111 143 181 227 273 327
#     4   9  20  39  59  80 112 151 186 226 282 341
#
# _framework density 18.719853000000001
#
# number of rings (size 3 to 8) (size 9 to 14) (size 15 to 20)
#    0.000    2.250    1.250    1.500    0.000    4.500 
#    0.000    1.875    0.000    0.000    0.000    0.000 
#    0.000    0.000    0.000    0.000    0.000    0.000 
#
# Total GULP energy -356900.634287 kJ/mol
# GULP energy per Si atom -5576.572411 kJ/mol
# Density = 1.867725 g / cm^3
# Si number density = 18.719853 Si / 1000 Ang^3
#
#
#
# Elastic Constant Matrix: (Units=GPa)
#
#
# Indices 1 2 3 4 5 6 
#
# 1 12.5011 10.0737 21.7912 0.0000 0.0000 0.0000
# 2 10.0737 41.7856 11.3813 0.0000 0.0000 0.0000
# 3 21.7912 11.3813 68.8727 0.0000 0.0000 0.0000
# 4 0.0000 0.0000 0.0000 17.2956 0.0000 0.0000
# 5 0.0000 0.0000 0.0000 0.0000 26.9935 0.0000
# 6 0.0000 0.0000 0.0000 0.0000 0.0000 7.7509
#
#
#
# Elastic Compliance Matrix: (Units=1/GPa)
#
#
# Indices 1 2 3 4 5 6 
#
# 1 0.219465 -0.035598 -0.063556 0.000000 0.000000 0.000000
# 2 -0.035598 0.030834 0.006168 0.000000 0.000000 0.000000
# 3 -0.063556 0.006168 0.033609 0.000000 0.000000 0.000000
# 4 0.000000 0.000000 0.000000 0.057818 0.000000 0.000000
# 5 0.000000 0.000000 0.000000 0.000000 0.037046 0.000000
# 6 0.000000 0.000000 0.000000 0.000000 0.000000 0.129017
#
#
# Mechanical properties :
#
#
# Convention : Reuss Voigt Hill
#
# Bulk Modulus (GPa) = 10.21072 23.29464 16.75268
# Shear Modulus (GPa) = 6.88321 15.73555 11.30938
#
# Velocity S-wave (km/s) = 1.91962 2.90242 2.46059
# Velocity P-wave (km/s) = 3.22174 4.86856 4.12810
#
# Compressibility (1/GPa) = 0.09793629
#
# Stress axis : x y z
#
# Youngs Moduli (GPa) = 4.55654 32.43206 29.75370
#
# Poissons Ratio (x) = 1.15451 1.89102
# Poissons Ratio (y) = 0.16220 -0.18351
# Poissons Ratio (z) = 0.28959 -0.20003
#
# Static dielectric constant tensor:
#      x y z
#    x 1.623910 0.000000 0.000000 
#    y 0.000000 1.655590 0.000000 
#    z 0.000000 0.000000 1.658310 
# 
# From -- ./inp_files/15032.got.cif
#   From: 2010.05.17/outbox.cif.g08.bks.cpg/sg59_8_cif.got.tgz:15032.got - 2010.06.03 14:40:33.
