data_PCOD9448688
_publ_section_title
;
Structure prediction by ZEFSAII (Michael W. Deem and Ramdas Pophale) SiO2 
 PCOD9448688
Probable space group: P M M N
;
_chemical_formula_sum "Si O2"
_cell_formula_units_Z 56
_cell_length_a 20.153052
_cell_length_b 8.979174
_cell_length_c 17.602376
_cell_angle_alpha 90.000000
_cell_angle_beta 90.000000
_cell_angle_gamma 90.000000
_cell_volume 3185.286541
_symmetry_space_group_name_H-M "P M M N"
_symmetry_group_IT_number 59
_space_group.IT_coordinate_system_code '2'
_symmetry_cell_setting 'orthorhombic'
loop_
_space_group_symop_operation_xyz
x,y,z
1/2-x,1/2-y,z
1/2+x,-y,-z
-x,1/2+y,-z
-x,-y,-z
1/2+x,1/2+y,-z
1/2-x,y,z
x,1/2-y,z
loop_
_atom_site_type_symbol
_atom_site_label
_atom_site_fract_x
_atom_site_fract_y
_atom_site_fract_z
Si Si1 0.050460 0.428116 0.896590
Si Si2 0.673402 0.071760 0.377387
Si Si3 0.673414 0.071552 0.556216
Si Si4 0.674594 0.571067 0.822302
Si Si5 0.581232 0.928765 0.681411
Si Si6 0.402171 0.927199 0.044588
Si Si7 0.058390 0.428577 0.720823
O O1 0.058330 0.250000 0.903943
O O2 0.063975 0.471158 0.809847
O O3 0.973909 0.463761 0.917522
O O4 0.094927 0.507961 0.959813
O O5 0.750000 0.034179 0.359428
O O6 0.665597 0.250000 0.367522
O O7 0.662903 0.040044 0.466927
O O8 0.621113 0.986375 0.326021
O O9 0.750000 0.031402 0.574845
O O10 0.666873 0.250000 0.566659
O O11 0.621821 0.987012 0.609039
O O12 0.750000 0.529676 0.802477
O O13 0.671316 0.750000 0.829093
O O14 0.624055 0.526268 0.755710
O O15 0.652375 0.498992 0.901198
O O16 0.576336 0.750000 0.679702
O O17 0.508766 0.999801 0.688045
O O18 0.395292 0.750000 0.042752
O O19 0.053436 0.250000 0.716977
#
# Coordination Sequence:
#
# PCOD9448688 Si02
#       7
#     8   8   8   8   8   8   8
#     4   9  19  35  54  78 109 141 178 223 272 325
#     4   9  20  40  62  83 109 143 184 230 283 338
#     4   9  19  37  59  81 110 149 188 229 279 332
#     4  10  21  36  53  77 113 152 186 226 278 330
#     4  11  22  35  55  83 115 149 189 231 276 330
#     4  10  19  33  55  80 105 139 184 226 268 321
#     4  11  22  37  58  85 115 145 184 231 280 333
#
# _framework density 17.580836000000001
#
# number of rings (size 3 to 8) (size 9 to 14) (size 15 to 20)
#    0.000    2.143    1.429    2.571    0.000    4.857 
#    0.000    2.143    0.000    0.857    0.000    0.000 
#    0.000    0.000    0.000    0.000    0.000    0.000 
#
# Total GULP energy -312627.292990 kJ/mol
# GULP energy per Si atom -5582.630232 kJ/mol
# Density = 1.754082 g / cm^3
# Si number density = 17.580836 Si / 1000 Ang^3
#
#
#
# Elastic Constant Matrix: (Units=GPa)
#
#
# Indices 1 2 3 4 5 6 
#
# 1 116.0975 51.5948 82.0138 0.0000 0.0000 0.0000
# 2 51.5948 37.1087 51.9910 0.0000 0.0000 0.0000
# 3 82.0138 51.9910 118.4127 0.0000 0.0000 0.0000
# 4 0.0000 0.0000 0.0000 30.1339 0.0000 0.0000
# 5 0.0000 0.0000 0.0000 0.0000 28.2552 0.0000
# 6 0.0000 0.0000 0.0000 0.0000 0.0000 27.0070
#
#
#
# Elastic Compliance Matrix: (Units=1/GPa)
#
#
# Indices 1 2 3 4 5 6 
#
# 1 0.023649 -0.025808 -0.005048 0.000000 0.000000 0.000000
# 2 -0.025808 0.098187 -0.025235 0.000000 0.000000 0.000000
# 3 -0.005048 -0.025235 0.023021 0.000000 0.000000 0.000000
# 4 0.000000 0.000000 0.000000 0.033185 0.000000 0.000000
# 5 0.000000 0.000000 0.000000 0.000000 0.035392 0.000000
# 6 0.000000 0.000000 0.000000 0.000000 0.000000 0.037027
#
#
# Mechanical properties :
#
#
# Convention : Reuss Voigt Hill
#
# Bulk Modulus (GPa) = 30.60560 71.42423 51.01491
# Shear Modulus (GPa) = 13.38561 22.81384 18.09973
#
# Velocity S-wave (km/s) = 2.76230 3.60620 3.21209
# Velocity P-wave (km/s) = 5.25547 7.61932 6.54500
#
# Compressibility (1/GPa) = 0.03267376
#
# Stress axis : x y z
#
# Youngs Moduli (GPa) = 42.28550 10.18468 43.43808
#
# Poissons Ratio (x) = 0.26285 0.21927
# Poissons Ratio (y) = 1.09131 1.09618
# Poissons Ratio (z) = 0.21345 0.25701
#
# Static dielectric constant tensor:
#      x y z
#    x 1.579360 0.000000 0.000000 
#    y 0.000000 1.582520 0.000000 
#    z 0.000000 0.000000 1.584750 
# 
# From -- ./inp_files/20985.got.cif
#   From: 2010.05.17/outbox.cif.g08.bks.cpg/sg59_11_cif.got.tgz:20985.got - 2010.06.03 14:40:33.
