data_PCOD9448395
_publ_section_title
;
Structure prediction by ZEFSAII (Michael W. Deem and Ramdas Pophale) SiO2 
 PCOD9448395
Probable space group: P M M N
;
_chemical_formula_sum "Si O2"
_cell_formula_units_Z 48
_cell_length_a 8.407939
_cell_length_b 31.363346
_cell_length_c 9.782414
_cell_angle_alpha 90.000000
_cell_angle_beta 90.000000
_cell_angle_gamma 90.000000
_cell_volume 2579.633332
_symmetry_space_group_name_H-M "P M M N"
_symmetry_group_IT_number 59
_space_group.IT_coordinate_system_code '2'
_symmetry_cell_setting 'orthorhombic'
loop_
_space_group_symop_operation_xyz
x,y,z
1/2-x,1/2-y,z
1/2+x,-y,-z
-x,1/2+y,-z
-x,-y,-z
1/2+x,1/2+y,-z
1/2-x,y,z
x,1/2-y,z
loop_
_atom_site_type_symbol
_atom_site_label
_atom_site_fract_x
_atom_site_fract_y
_atom_site_fract_z
Si Si1 0.941994 0.750000 0.154198
Si Si2 0.062309 0.750000 0.846089
Si Si3 0.557929 0.825421 0.656037
Si Si4 0.941981 0.576614 0.659756
Si Si5 0.055993 0.075728 0.652903
Si Si6 0.943949 0.827267 0.342836
Si Si7 0.939886 0.499396 0.154343
O O1 0.750000 0.750000 0.161370
O O2 0.989471 0.750000 0.997035
O O3 0.998662 0.792032 0.235417
O O4 0.250000 0.750000 0.858926
O O5 0.008693 0.708681 0.760660
O O6 0.750000 0.823215 0.660337
O O7 0.511814 0.874294 0.687428
O O8 0.509546 0.816356 0.498819
O O9 0.750000 0.574816 0.663991
O O10 0.991958 0.566205 0.503678
O O11 0.009192 0.543131 0.766304
O O12 0.250000 0.075647 0.653963
O O13 0.005731 0.124120 0.686742
O O14 0.999820 0.040060 0.758261
O O15 0.750000 0.827311 0.341393
O O16 0.750000 0.501703 0.152270
O O17 0.000000 0.500000 0.000000
#
# Coordination Sequence:
#
# PCOD9448395 Si02
#       7
#     4   4   8   8   8   8   8
#     4  10  19  32  54  80 104 136 177 218 262 310
#     4  12  25  36  48  74 114 148 173 208 256 312
#     4   9  18  36  61  82 100 129 173 220 264 313
#     4   9  18  35  59  82 102 129 171 222 269 312
#     4   8  16  32  54  79 104 132 170 218 267 311
#     4   8  15  31  57  83 100 123 173 230 265 300
#     4  11  22  34  50  75 110 147 179 213 258 313
#
# _framework density 18.607295000000001
#
# number of rings (size 3 to 8) (size 9 to 14) (size 15 to 20)
#    0.000    2.667    0.000    4.250    0.000    3.333 
#    0.000    5.833    0.000    4.000    0.000    0.000 
#    0.000    0.000    0.000    0.000    0.000    0.000 
#
# Total GULP energy -267821.869647 kJ/mol
# GULP energy per Si atom -5579.622284 kJ/mol
# Density = 1.856494 g / cm^3
# Si number density = 18.607295 Si / 1000 Ang^3
#
#
#
# Elastic Constant Matrix: (Units=GPa)
#
#
# Indices 1 2 3 4 5 6 
#
# 1 14.5993 26.6460 23.8631 0.0000 0.0000 0.0000
# 2 26.6460 152.9351 134.5628 0.0000 0.0000 0.0000
# 3 23.8631 134.5628 171.1831 0.0000 0.0000 0.0000
# 4 0.0000 0.0000 0.0000 -6.2717 0.0000 0.0000
# 5 0.0000 0.0000 0.0000 0.0000 13.0433 0.0000
# 6 0.0000 0.0000 0.0000 0.0000 0.0000 22.1928
#
#
#
# Elastic Compliance Matrix: (Units=1/GPa)
#
#
# Indices 1 2 3 4 5 6 
#
# 1 0.100468 -0.016804 -0.000796 0.000000 0.000000 0.000000
# 2 -0.016804 0.024016 -0.016536 0.000000 0.000000 0.000000
# 3 -0.000796 -0.016536 0.018951 0.000000 0.000000 0.000000
# 4 0.000000 0.000000 0.000000 -0.159445 0.000000 0.000000
# 5 0.000000 0.000000 0.000000 0.000000 0.076668 0.000000
# 6 0.000000 0.000000 0.000000 0.000000 0.000000 0.045060
#
#
# Mechanical properties :
#
#
# Convention : Reuss Voigt Hill
#
# Bulk Modulus (GPa) = 13.30448 78.76236 46.03342
# Shear Modulus (GPa) = 25.12029 16.03591 20.57810
#
# Velocity S-wave (km/s) = 3.67825 2.93884 3.32914
# Velocity P-wave (km/s) = 5.02046 7.34414 6.29053
#
# Compressibility (1/GPa) = 0.07516266
#
# Stress axis : x y z
#
# Youngs Moduli (GPa) = 9.95346 41.63941 52.76804
#
# Poissons Ratio (x) = 0.69972 0.04199
# Poissons Ratio (y) = 0.16726 0.87255
# Poissons Ratio (z) = 0.00792 0.68853
#
# Static dielectric constant tensor:
#      x y z
#    x 1.653270 0.000000 0.000000 
#    y 0.000000 1.641950 0.000000 
#    z 0.000000 0.000000 1.616500 
# 
# From -- ./inp_files/6443.got.cif
#   From: 2010.05.17/outbox.cif.g08.bks.cpg/sg59_4_cif.got.tgz:6443.got - 2010.06.03 14:40:33.
