data_PCOD9448446
_publ_section_title
;
Structure prediction by ZEFSAII (Michael W. Deem and Ramdas Pophale) SiO2 
 PCOD9448446
Probable space group: P M M N
;
_chemical_formula_sum "Si O2"
_cell_formula_units_Z 48
_cell_length_a 14.471415
_cell_length_b 17.958386
_cell_length_c 9.960216
_cell_angle_alpha 90.000000
_cell_angle_beta 90.000000
_cell_angle_gamma 90.000000
_cell_volume 2588.493370
_symmetry_space_group_name_H-M "P M M N"
_symmetry_group_IT_number 59
_space_group.IT_coordinate_system_code '2'
_symmetry_cell_setting 'orthorhombic'
loop_
_space_group_symop_operation_xyz
x,y,z
1/2-x,1/2-y,z
1/2+x,-y,-z
-x,1/2+y,-z
-x,-y,-z
1/2+x,1/2+y,-z
1/2-x,y,z
x,1/2-y,z
loop_
_atom_site_type_symbol
_atom_site_label
_atom_site_fract_x
_atom_site_fract_y
_atom_site_fract_z
Si Si1 0.051637 0.166624 0.448501
Si Si2 0.647192 0.428051 0.781150
Si Si3 0.970576 0.577894 0.068029
Si Si4 0.353984 0.891561 0.534608
Si Si5 0.358294 0.444591 0.661246
Si Si6 0.142605 0.107453 0.180363
O O1 0.073299 0.250000 0.493314
O O2 0.086361 0.107661 0.558555
O O3 0.102812 0.148351 0.309803
O O4 0.941777 0.157573 0.428285
O O5 0.750000 0.409051 0.830757
O O6 0.565124 0.392019 0.866859
O O7 0.640880 0.406217 0.625386
O O8 0.637929 0.518095 0.789719
O O9 0.901665 0.562797 0.191524
O O10 0.918633 0.622395 0.951371
O O11 0.000000 0.500000 0.000000
O O12 0.250000 0.863511 0.564225
O O13 0.365769 0.970803 0.608843
O O14 0.250000 0.424653 0.660437
O O15 0.250000 0.125645 0.158500
#
# Coordination Sequence:
#
# PCOD9448446 Si02
#       6
#     8   8   8   8   8   8
#     4  12  24  38  58  84 117 157 198 239 288 347
#     4   9  16  30  56  86 113 142 185 237 287 337
#     4  10  19  32  55  86 120 149 186 241 292 345
#     4  10  19  35  61  88 113 145 189 246 297 339
#     4  11  21  36  61  90 117 148 195 246 291 341
#     4  10  20  35  53  80 117 154 186 228 289 346
#
# _framework density 18.543606
#
# number of rings (size 3 to 8) (size 9 to 14) (size 15 to 20)
#    0.000    1.667    3.333    3.500    0.000    2.333 
#    0.000    1.667    0.000    2.000    0.000    0.000 
#    0.000    0.000    0.000    0.000    0.000    0.000 
#
# Total GULP energy -267892.485713 kJ/mol
# GULP energy per Si atom -5581.093452 kJ/mol
# Density = 1.850140 g / cm^3
# Si number density = 18.543606 Si / 1000 Ang^3
#
#
#
# Elastic Constant Matrix: (Units=GPa)
#
#
# Indices 1 2 3 4 5 6 
#
# 1 106.8443 15.0583 14.3155 0.0000 0.0000 0.0000
# 2 15.0583 19.9473 3.6779 0.0000 0.0000 0.0000
# 3 14.3155 3.6779 69.3769 0.0000 0.0000 0.0000
# 4 0.0000 0.0000 0.0000 1.1154 0.0000 0.0000
# 5 0.0000 0.0000 0.0000 0.0000 39.1554 0.0000
# 6 0.0000 0.0000 0.0000 0.0000 0.0000 1.6367
#
#
#
# Elastic Compliance Matrix: (Units=1/GPa)
#
#
# Indices 1 2 3 4 5 6 
#
# 1 0.010691 -0.007739 -0.001796 0.000000 0.000000 0.000000
# 2 -0.007739 0.056230 -0.001384 0.000000 0.000000 0.000000
# 3 -0.001796 -0.001384 0.014858 0.000000 0.000000 0.000000
# 4 0.000000 0.000000 0.000000 0.896538 0.000000 0.000000
# 5 0.000000 0.000000 0.000000 0.000000 0.025539 0.000000
# 6 0.000000 0.000000 0.000000 0.000000 0.000000 0.611002
#
#
# Mechanical properties :
#
#
# Convention : Reuss Voigt Hill
#
# Bulk Modulus (GPa) = 16.68324 29.14133 22.91228
# Shear Modulus (GPa) = 3.01809 19.25595 11.13702
#
# Velocity S-wave (km/s) = 1.27714 3.22594 2.45334
# Velocity P-wave (km/s) = 3.34531 5.44286 4.51751
#
# Compressibility (1/GPa) = 0.05994041
#
# Stress axis : x y z
#
# Youngs Moduli (GPa) = 93.53844 17.78415 67.30421
#
# Poissons Ratio (x) = 0.13764 0.12086
# Poissons Ratio (y) = 0.72394 0.09314
# Poissons Ratio (z) = 0.16797 0.02461
#
# Static dielectric constant tensor:
#      x y z
#    x 1.678020 0.000000 0.000000 
#    y 0.000000 1.614900 0.000000 
#    z 0.000000 0.000000 1.615290 
# 
# From -- ./inp_files/9001.got.cif
#   From: 2010.05.17/outbox.cif.g08.bks.cpg/sg59_5_cif.got.tgz:9001.got - 2010.06.03 14:40:33.
