data_PCOD9448980
_publ_section_title
;
Structure prediction by ZEFSAII (Michael W. Deem and Ramdas Pophale) SiO2 
 PCOD9448980
Probable space group: P M M N
;
_chemical_formula_sum "Si O2"
_cell_formula_units_Z 64
_cell_length_a 23.759359
_cell_length_b 15.888652
_cell_length_c 9.182790
_cell_angle_alpha 90.000000
_cell_angle_beta 90.000000
_cell_angle_gamma 90.000000
_cell_volume 3466.541672
_symmetry_space_group_name_H-M "P M M N"
_symmetry_group_IT_number 59
_space_group.IT_coordinate_system_code '2'
_symmetry_cell_setting 'orthorhombic'
loop_
_space_group_symop_operation_xyz
x,y,z
1/2-x,1/2-y,z
1/2+x,-y,-z
-x,1/2+y,-z
-x,-y,-z
1/2+x,1/2+y,-z
1/2-x,y,z
x,1/2-y,z
loop_
_atom_site_type_symbol
_atom_site_label
_atom_site_fract_x
_atom_site_fract_y
_atom_site_fract_z
Si Si1 0.968803 0.611231 0.378520
Si Si2 0.601015 0.345939 0.118200
Si Si3 0.344831 0.343123 0.721436
Si Si4 0.000596 0.577190 0.700365
Si Si5 0.381186 0.019943 0.221547
Si Si6 0.916524 0.341808 0.771340
Si Si7 0.186257 0.156610 0.392221
Si Si8 0.316576 0.997336 0.919083
O O1 0.910481 0.647265 0.321035
O O2 0.970691 0.511039 0.346778
O O3 0.979185 0.620836 0.551458
O O4 0.021000 0.650814 0.292280
O O5 0.618863 0.250000 0.149573
O O6 0.546355 0.369891 0.212297
O O7 0.649653 0.415618 0.140337
O O8 0.584238 0.349306 0.946791
O O9 0.335026 0.250000 0.786446
O O10 0.313999 0.346999 0.566398
O O11 0.326231 0.420718 0.819811
O O12 0.945697 0.551398 0.794665
O O13 0.351769 0.083480 0.330485
O O14 0.384396 0.924839 0.283031
O O15 0.346195 0.017416 0.073265
O O16 0.892764 0.250000 0.732891
O O17 0.250000 0.147561 0.338226
O O18 0.165311 0.250000 0.350399
O O19 0.250000 0.981007 0.934486
#
# Coordination Sequence:
#
# PCOD9448980 Si02
#       8
#     8   8   8   8   8   8   8   8
#     4  10  19  34  57  86 118 150 183 228 285 348
#     4  10  22  39  60  85 117 154 193 239 291 345
#     4  11  22  37  58  83 113 150 191 235 286 342
#     4  10  20  35  58  88 118 146 186 233 288 346
#     4  10  21  37  61  83 115 151 189 237 288 341
#     4   9  20  35  55  86 118 149 184 227 280 341
#     4  10  21  38  57  78 108 148 194 238 283 338
#     4  11  24  40  59  84 115 152 199 245 286 337
#
# _framework density 18.462204
#
# number of rings (size 3 to 8) (size 9 to 14) (size 15 to 20)
#    0.000    1.875    2.500    1.125    1.750    4.500 
#    0.000    0.000    0.000    1.125    0.000    0.000 
#    0.000    0.000    0.000    0.000    0.000    0.000 
#
# Total GULP energy -357110.229127 kJ/mol
# GULP energy per Si atom -5579.847330 kJ/mol
# Density = 1.842018 g / cm^3
# Si number density = 18.462204 Si / 1000 Ang^3
#
#
#
# Elastic Constant Matrix: (Units=GPa)
#
#
# Indices 1 2 3 4 5 6 
#
# 1 107.4607 59.1672 35.9004 0.0000 0.0000 0.0000
# 2 59.1672 147.0851 42.9149 0.0000 0.0000 0.0000
# 3 35.9004 42.9149 31.5660 0.0000 0.0000 0.0000
# 4 0.0000 0.0000 0.0000 15.2742 0.0000 0.0000
# 5 0.0000 0.0000 0.0000 0.0000 11.5273 0.0000
# 6 0.0000 0.0000 0.0000 0.0000 0.0000 8.4442
#
#
#
# Elastic Compliance Matrix: (Units=1/GPa)
#
#
# Indices 1 2 3 4 5 6 
#
# 1 0.015286 -0.001784 -0.014958 0.000000 0.000000 0.000000
# 2 -0.001784 0.011477 -0.013574 0.000000 0.000000 0.000000
# 3 -0.014958 -0.013574 0.067146 0.000000 0.000000 0.000000
# 4 0.000000 0.000000 0.000000 0.065470 0.000000 0.000000
# 5 0.000000 0.000000 0.000000 0.000000 0.086751 0.000000
# 6 0.000000 0.000000 0.000000 0.000000 0.000000 0.118425
#
#
# Mechanical properties :
#
#
# Convention : Reuss Voigt Hill
#
# Bulk Modulus (GPa) = 30.05246 62.45298 46.25272
# Shear Modulus (GPa) = 11.46055 16.92442 14.19248
#
# Velocity S-wave (km/s) = 2.49420 3.03100 2.77561
# Velocity P-wave (km/s) = 4.96063 6.79339 5.94803
#
# Compressibility (1/GPa) = 0.03327515
#
# Stress axis : x y z
#
# Youngs Moduli (GPa) = 65.42140 87.13047 14.89292
#
# Poissons Ratio (x) = 0.15548 0.22277
# Poissons Ratio (y) = 0.11674 0.20215
# Poissons Ratio (z) = 0.97860 1.18270
#
# Static dielectric constant tensor:
#      x y z
#    x 1.622520 0.000000 0.000000 
#    y 0.000000 1.662450 0.000000 
#    z 0.000000 0.000000 1.626240 
# 
# From -- ./inp_files/9596.got.cif
#   From: 2010.05.17/outbox.cif.g08.bks.cpg/sg59_5_cif.got.tgz:9596.got - 2010.06.03 14:40:33.
