data_PCOD9448796
_publ_section_title
;
Structure prediction by ZEFSAII (Michael W. Deem and Ramdas Pophale) SiO2 
 PCOD9448796
Probable space group: P M M N
;
_chemical_formula_sum "Si O2"
_cell_formula_units_Z 40
_cell_length_a 14.748717
_cell_length_b 7.653647
_cell_length_c 17.885273
_cell_angle_alpha 90.000000
_cell_angle_beta 90.000000
_cell_angle_gamma 90.000000
_cell_volume 2018.915972
_symmetry_space_group_name_H-M "P M M N"
_symmetry_group_IT_number 59
_space_group.IT_coordinate_system_code '2'
_symmetry_cell_setting 'orthorhombic'
loop_
_space_group_symop_operation_xyz
x,y,z
1/2-x,1/2-y,z
1/2+x,-y,-z
-x,1/2+y,-z
-x,-y,-z
1/2+x,1/2+y,-z
1/2-x,y,z
x,1/2-y,z
loop_
_atom_site_type_symbol
_atom_site_label
_atom_site_fract_x
_atom_site_fract_y
_atom_site_fract_z
Si Si1 0.054162 0.042038 0.784047
Si Si2 0.250000 0.541100 0.846591
Si Si3 0.646694 0.539655 0.513287
Si Si4 0.556934 0.460077 0.925740
Si Si5 0.750000 0.464132 0.980474
Si Si6 0.984530 0.959846 0.381470
O O1 0.037641 0.250000 0.781323
O O2 0.993513 0.970522 0.852206
O O3 0.030628 0.971496 0.702028
O O4 0.158953 0.016475 0.805194
O O5 0.250000 0.750000 0.848975
O O6 0.250000 0.478436 0.932813
O O7 0.750000 0.474761 0.517408
O O8 0.650717 0.750000 0.507958
O O9 0.590778 0.474289 0.440721
O O10 0.583073 0.497476 0.583899
O O11 0.560749 0.250000 0.919394
O O12 0.658861 0.523100 0.939614
O O13 0.500000 0.500000 0.000000
O O14 0.750000 0.250000 0.981370
O O15 0.974400 0.750000 0.379212
#
# Coordination Sequence:
#
# PCOD9448796 Si02
#       6
#     8   4   8   8   4   8
#     4  10  21  35  54  80 107 137 173 217 265 310
#     4  11  21  33  53  79 106 139 174 216 265 307
#     4   9  18  34  56  77 103 140 173 209 262 316
#     4  10  19  34  53  74 102 137 174 213 258 306
#     4   9  18  33  51  71 100 137 174 212 257 305
#     4   9  19  35  54  79 107 136 172 216 261 309
#
# _framework density 19.812612999999999
#
# number of rings (size 3 to 8) (size 9 to 14) (size 15 to 20)
#    0.000    2.400    2.000    0.300    1.400    1.200 
#    1.800    0.500    0.000    0.000    0.000    0.000 
#    0.000    0.000    0.000    0.000    0.000    0.000 
#
# Total GULP energy -223262.306783 kJ/mol
# GULP energy per Si atom -5581.557670 kJ/mol
# Density = 1.976752 g / cm^3
# Si number density = 19.812613 Si / 1000 Ang^3
#
#
#
# Elastic Constant Matrix: (Units=GPa)
#
#
# Indices 1 2 3 4 5 6 
#
# 1 209.4170 -4.7501 122.0903 0.0000 0.0000 0.0000
# 2 -4.7501 35.3139 6.1613 0.0000 0.0000 0.0000
# 3 122.0903 6.1613 203.4175 0.0000 0.0000 0.0000
# 4 0.0000 0.0000 0.0000 9.2543 0.0000 0.0000
# 5 0.0000 0.0000 0.0000 0.0000 -15.5033 0.0000
# 6 0.0000 0.0000 0.0000 0.0000 0.0000 14.2105
#
#
#
# Elastic Compliance Matrix: (Units=1/GPa)
#
#
# Indices 1 2 3 4 5 6 
#
# 1 0.007457 0.001793 -0.004530 0.000000 0.000000 0.000000
# 2 0.001793 0.028899 -0.001952 0.000000 0.000000 0.000000
# 3 -0.004530 -0.001952 0.007694 0.000000 0.000000 0.000000
# 4 0.000000 0.000000 0.000000 0.108058 0.000000 0.000000
# 5 0.000000 0.000000 0.000000 0.000000 -0.064502 0.000000
# 6 0.000000 0.000000 0.000000 0.000000 0.000000 0.070371
#
#
# Mechanical properties :
#
#
# Convention : Reuss Voigt Hill
#
# Bulk Modulus (GPa) = 28.84045 77.23905 53.03975
# Shear Modulus (GPa) = 27.94700 23.23542 25.59121
#
# Velocity S-wave (km/s) = 3.75983 3.42827 3.59787
# Velocity P-wave (km/s) = 5.78244 7.39866 6.63991
#
# Compressibility (1/GPa) = 0.03467352
#
# Stress axis : x y z
#
# Youngs Moduli (GPa) = 134.10713 34.60301 129.97335
#
# Poissons Ratio (x) = -0.06205 0.58875
# Poissons Ratio (y) = -0.24050 0.25367
# Poissons Ratio (z) = 0.60748 0.06753
#
# Static dielectric constant tensor:
#      x y z
#    x 1.674130 0.000000 0.000000 
#    y 0.000000 1.734590 0.000000 
#    z 0.000000 0.000000 1.690800 
# 
# From -- ./inp_files/19897.got.cif
#   From: 2010.05.17/outbox.cif.g08.bks.cpg/sg59_10_cif.got.tgz:19897.got - 2010.06.03 14:40:33.
