data_PCOD9448025
_publ_section_title
;
Structure prediction by ZEFSAII (Michael W. Deem and Ramdas Pophale) SiO2 
 PCOD9448025
Probable space group: P M M N
;
_chemical_formula_sum "Si O2"
_cell_formula_units_Z 64
_cell_length_a 30.693978
_cell_length_b 7.560379
_cell_length_c 12.928149
_cell_angle_alpha 90.000000
_cell_angle_beta 90.000000
_cell_angle_gamma 90.000000
_cell_volume 3000.081780
_symmetry_space_group_name_H-M "P M M N"
_symmetry_group_IT_number 59
_space_group.IT_coordinate_system_code '2'
_symmetry_cell_setting 'orthorhombic'
loop_
_space_group_symop_operation_xyz
x,y,z
1/2-x,1/2-y,z
1/2+x,-y,-z
-x,1/2+y,-z
-x,-y,-z
1/2+x,1/2+y,-z
1/2-x,y,z
x,1/2-y,z
loop_
_atom_site_type_symbol
_atom_site_label
_atom_site_fract_x
_atom_site_fract_y
_atom_site_fract_z
Si Si1 0.797482 0.464204 0.937921
Si Si2 0.816573 0.045591 0.166909
Si Si3 0.412287 0.461293 0.889592
Si Si4 0.438371 0.464350 0.327088
Si Si5 0.035929 0.538644 0.696234
Si Si6 0.797106 0.033062 0.394892
Si Si7 0.105901 0.458707 0.118177
Si Si8 0.890864 0.459775 0.460190
O O1 0.750000 0.518472 0.896650
O O2 0.798451 0.250000 0.940094
O O3 0.841764 0.519553 0.881729
O O4 0.801563 0.530145 0.056940
O O5 0.802764 0.250000 0.165657
O O6 0.800343 0.972623 0.275229
O O7 0.868921 0.037083 0.164208
O O8 0.407180 0.250000 0.892645
O O9 0.452536 0.504586 0.815970
O O10 0.411743 0.528947 0.007796
O O11 0.439214 0.250000 0.323852
O O12 0.488224 0.528354 0.333731
O O13 0.416424 0.530588 0.221034
O O14 0.410781 0.514718 0.427001
O O15 0.035019 0.750000 0.681986
O O16 0.074737 0.466725 0.623853
O O17 0.750000 0.978737 0.437875
O O18 0.797467 0.250000 0.395201
O O19 0.841570 0.971943 0.448829
O O20 0.096586 0.250000 0.116878
O O21 0.888018 0.250000 0.439763
#
# Coordination Sequence:
#
# PCOD9448025 Si02
#       8
#     8   8   8   8   8   8   8   8
#     4   9  17  29  50  80 106 134 178 224 260 304
#     4   9  15  28  49  74 107 141 169 205 257 314
#     4  10  19  31  51  79 110 139 169 211 260 312
#     4  10  22  39  57  74 100 140 183 222 262 312
#     4  10  20  36  57  81 105 134 173 218 270 322
#     4   9  16  28  50  78 106 136 167 204 256 313
#     4   9  20  37  52  73 107 145 178 213 263 317
#     4  10  20  35  55  80 108 134 172 219 264 314
#
# _framework density 21.332751999999999
#
# number of rings (size 3 to 8) (size 9 to 14) (size 15 to 20)
#    0.000    2.500    1.250    1.125    0.000    4.250 
#    0.000    0.625    0.000    4.500    0.000    0.000 
#    0.000    0.000    0.000    0.000    0.000    0.000 
#
# Total GULP energy -357148.738486 kJ/mol
# GULP energy per Si atom -5580.449039 kJ/mol
# Density = 2.128420 g / cm^3
# Si number density = 21.332752 Si / 1000 Ang^3
#
#
#
# Elastic Constant Matrix: (Units=GPa)
#
#
# Indices 1 2 3 4 5 6 
#
# 1 177.3947 8.2696 88.6683 0.0000 0.0000 0.0000
# 2 8.2696 47.6330 -2.3852 0.0000 0.0000 0.0000
# 3 88.6683 -2.3852 109.0097 0.0000 0.0000 0.0000
# 4 0.0000 0.0000 0.0000 14.1959 0.0000 0.0000
# 5 0.0000 0.0000 0.0000 0.0000 40.2794 0.0000
# 6 0.0000 0.0000 0.0000 0.0000 0.0000 12.3585
#
#
#
# Elastic Compliance Matrix: (Units=1/GPa)
#
#
# Indices 1 2 3 4 5 6 
#
# 1 0.009701 -0.002082 -0.007936 0.000000 0.000000 0.000000
# 2 -0.002082 0.021464 0.002163 0.000000 0.000000 0.000000
# 3 -0.007936 0.002163 0.015676 0.000000 0.000000 0.000000
# 4 0.000000 0.000000 0.000000 0.070443 0.000000 0.000000
# 5 0.000000 0.000000 0.000000 0.000000 0.024827 0.000000
# 6 0.000000 0.000000 0.000000 0.000000 0.000000 0.080916
#
#
# Mechanical properties :
#
#
# Convention : Reuss Voigt Hill
#
# Bulk Modulus (GPa) = 32.12282 58.12697 45.12490
# Shear Modulus (GPa) = 20.07118 29.33241 24.70179
#
# Velocity S-wave (km/s) = 3.07068 3.71211 3.40653
# Velocity P-wave (km/s) = 5.25954 6.75870 6.05569
#
# Compressibility (1/GPa) = 0.03113051
#
# Stress axis : x y z
#
# Youngs Moduli (GPa) = 103.08131 46.59060 63.79074
#
# Poissons Ratio (x) = 0.09698 0.50627
# Poissons Ratio (y) = 0.21458 -0.13797
# Poissons Ratio (z) = 0.81809 -0.10077
#
# Static dielectric constant tensor:
#      x y z
#    x 1.786210 0.000000 0.000000 
#    y 0.000000 1.813900 0.000000 
#    z 0.000000 0.000000 1.748040 
# 
# From -- ./inp_files/15031.got.cif
#   From: 2010.05.17/outbox.cif.g08.bks.cpg/sg59_8_cif.got.tgz:15031.got - 2010.06.03 14:40:33.
