data_PCOD9448583
_publ_section_title
;
Structure prediction by ZEFSAII (Michael W. Deem and Ramdas Pophale) SiO2 
 PCOD9448583
Probable space group: P M M N
;
_chemical_formula_sum "Si O2"
_cell_formula_units_Z 48
_cell_length_a 30.808374
_cell_length_b 10.004873
_cell_length_c 8.810797
_cell_angle_alpha 90.000000
_cell_angle_beta 90.000000
_cell_angle_gamma 90.000000
_cell_volume 2715.786050
_symmetry_space_group_name_H-M "P M M N"
_symmetry_group_IT_number 59
_space_group.IT_coordinate_system_code '2'
_symmetry_cell_setting 'orthorhombic'
loop_
_space_group_symop_operation_xyz
x,y,z
1/2-x,1/2-y,z
1/2+x,-y,-z
-x,1/2+y,-z
-x,-y,-z
1/2+x,1/2+y,-z
1/2-x,y,z
x,1/2-y,z
loop_
_atom_site_type_symbol
_atom_site_label
_atom_site_fract_x
_atom_site_fract_y
_atom_site_fract_z
Si Si1 0.972859 0.400282 0.702616
Si Si2 0.145285 0.101389 0.444915
Si Si3 0.199719 0.907564 0.642943
Si Si4 0.906416 0.591977 0.862039
Si Si5 0.624087 0.400386 0.126078
Si Si6 0.564318 0.493469 0.385650
O O1 0.964979 0.250000 0.759236
O O2 0.948798 0.512272 0.802480
O O3 0.953780 0.413787 0.531520
O O4 0.023802 0.430416 0.687775
O O5 0.163465 0.250000 0.459932
O O6 0.128694 0.080244 0.274005
O O7 0.178386 0.992919 0.508573
O O8 0.101599 0.088771 0.546337
O O9 0.250000 0.941058 0.666857
O O10 0.196406 0.750000 0.607329
O O11 0.169923 0.929022 0.791465
O O12 0.914691 0.750000 0.887010
O O13 0.888466 0.513574 0.006750
O O14 0.625058 0.250000 0.060673
O O15 0.588403 0.405821 0.260174
#
# Coordination Sequence:
#
# PCOD9448583 Si02
#       6
#     8   8   8   8   8   8
#     4  10  19  33  54  76 101 137 180 218 257 305
#     4   9  18  34  54  76 103 134 168 206 253 304
#     4   9  19  36  58  83 105 126 161 210 257 304
#     4  10  22  36  50  73 107 141 172 212 254 297
#     4  10  20  35  55  76 103 138 172 207 254 310
#     4   9  19  32  52  78 104 131 172 223 262 295
#
# _framework density 17.674439
#
# number of rings (size 3 to 8) (size 9 to 14) (size 15 to 20)
#    0.000    2.500    0.000    1.500    0.000   13.667 
#    0.000    0.833    0.000    3.000    0.000    0.000 
#    0.000    0.000    0.000    0.000    0.000    0.000 
#
# Total GULP energy -267644.276890 kJ/mol
# GULP energy per Si atom -5575.922435 kJ/mol
# Density = 1.763421 g / cm^3
# Si number density = 17.674439 Si / 1000 Ang^3
#
#
#
# Elastic Constant Matrix: (Units=GPa)
#
#
# Indices 1 2 3 4 5 6 
#
# 1 118.0853 48.4935 36.9996 0.0000 0.0000 0.0000
# 2 48.4935 102.8962 39.5811 0.0000 0.0000 0.0000
# 3 36.9996 39.5811 48.0543 0.0000 0.0000 0.0000
# 4 0.0000 0.0000 0.0000 23.1793 0.0000 0.0000
# 5 0.0000 0.0000 0.0000 0.0000 10.2348 0.0000
# 6 0.0000 0.0000 0.0000 0.0000 0.0000 16.9098
#
#
#
# Elastic Compliance Matrix: (Units=1/GPa)
#
#
# Indices 1 2 3 4 5 6 
#
# 1 0.011768 -0.003016 -0.006576 0.000000 0.000000 0.000000
# 2 -0.003016 0.014999 -0.010032 0.000000 0.000000 0.000000
# 3 -0.006576 -0.010032 0.034136 0.000000 0.000000 0.000000
# 4 0.000000 0.000000 0.000000 0.043142 0.000000 0.000000
# 5 0.000000 0.000000 0.000000 0.000000 0.097706 0.000000
# 6 0.000000 0.000000 0.000000 0.000000 0.000000 0.059137
#
#
# Mechanical properties :
#
#
# Convention : Reuss Voigt Hill
#
# Bulk Modulus (GPa) = 46.18048 57.68715 51.93381
# Shear Modulus (GPa) = 16.26788 19.66224 17.96506
#
# Velocity S-wave (km/s) = 3.03713 3.33899 3.19163
# Velocity P-wave (km/s) = 6.20355 6.89744 6.55968
#
# Compressibility (1/GPa) = 0.02165417
#
# Stress axis : x y z
#
# Youngs Moduli (GPa) = 84.97898 66.67093 29.29453
#
# Poissons Ratio (x) = 0.20110 0.19264
# Poissons Ratio (y) = 0.25632 0.29388
# Poissons Ratio (z) = 0.55883 0.66884
#
# Static dielectric constant tensor:
#      x y z
#    x 1.586510 0.000000 0.000000 
#    y 0.000000 1.608420 0.000000 
#    z 0.000000 0.000000 1.598690 
# 
# From -- ./inp_files/12915.got.cif
#   From: 2010.05.17/outbox.cif.g08.bks.cpg/sg59_7_cif.got.tgz:12915.got - 2010.06.03 14:40:33.
