data_PCOD9448739
_publ_section_title
;
Structure prediction by ZEFSAII (Michael W. Deem and Ramdas Pophale) SiO2 
 PCOD9448739
Probable space group: P M M N
;
_chemical_formula_sum "Si O2"
_cell_formula_units_Z 48
_cell_length_a 19.267159
_cell_length_b 8.039197
_cell_length_c 15.152532
_cell_angle_alpha 90.000000
_cell_angle_beta 90.000000
_cell_angle_gamma 90.000000
_cell_volume 2347.013363
_symmetry_space_group_name_H-M "P M M N"
_symmetry_group_IT_number 59
_space_group.IT_coordinate_system_code '2'
_symmetry_cell_setting 'orthorhombic'
loop_
_space_group_symop_operation_xyz
x,y,z
1/2-x,1/2-y,z
1/2+x,-y,-z
-x,1/2+y,-z
-x,-y,-z
1/2+x,1/2+y,-z
1/2-x,y,z
x,1/2-y,z
loop_
_atom_site_type_symbol
_atom_site_label
_atom_site_fract_x
_atom_site_fract_y
_atom_site_fract_z
Si Si1 0.903917 0.950695 0.943114
Si Si2 0.945371 0.053748 0.127369
Si Si3 0.327391 0.048694 0.228419
Si Si4 0.418676 0.053599 0.677108
Si Si5 0.672571 0.447590 0.473328
Si Si6 0.431485 0.947825 0.379681
O O1 0.906242 0.750000 0.949536
O O2 0.845771 0.996712 0.872206
O O3 0.977742 0.007690 0.901365
O O4 0.898581 0.019748 0.041550
O O5 0.950798 0.250000 0.142579
O O6 0.920723 0.974890 0.218288
O O7 0.250000 0.994017 0.253271
O O8 0.330427 0.250000 0.234277
O O9 0.385203 0.977618 0.293135
O O10 0.415788 0.250000 0.660965
O O11 0.491332 0.984282 0.636795
O O12 0.354837 0.974290 0.625288
O O13 0.750000 0.516461 0.487556
O O14 0.676108 0.250000 0.490282
O O15 0.613829 0.517792 0.539366
O O16 0.439438 0.750000 0.392792
#
# Coordination Sequence:
#
# PCOD9448739 Si02
#       6
#     8   8   8   8   8   8
#     4   9  18  33  52  78 111 145 183 229 277 328
#     4  10  19  33  56  81 107 144 186 230 278 326
#     4  10  20  34  54  82 116 151 185 227 283 340
#     4  11  22  36  58  87 114 145 188 235 280 332
#     4  10  22  40  59  80 111 150 188 230 283 337
#     4  10  21  37  58  84 113 147 187 231 279 334
#
# _framework density 20.451525
#
# number of rings (size 3 to 8) (size 9 to 14) (size 15 to 20)
#    0.000    2.000    1.667    2.000    0.000    4.000 
#    0.000    0.833    0.000    3.000    0.000    0.000 
#    0.000    0.000    0.000    0.000    0.000    0.000 
#
# Total GULP energy -268016.088121 kJ/mol
# GULP energy per Si atom -5583.668503 kJ/mol
# Density = 2.040498 g / cm^3
# Si number density = 20.451525 Si / 1000 Ang^3
#
#
#
# Elastic Constant Matrix: (Units=GPa)
#
#
# Indices 1 2 3 4 5 6 
#
# 1 36.9676 -2.8802 13.8225 0.0000 0.0000 0.0000
# 2 -2.8802 13.0471 -6.7387 0.0000 0.0000 0.0000
# 3 13.8225 -6.7387 92.2232 0.0000 0.0000 0.0000
# 4 0.0000 0.0000 0.0000 21.8116 0.0000 0.0000
# 5 0.0000 0.0000 0.0000 0.0000 15.1298 0.0000
# 6 0.0000 0.0000 0.0000 0.0000 0.0000 6.4551
#
#
#
# Elastic Compliance Matrix: (Units=1/GPa)
#
#
# Indices 1 2 3 4 5 6 
#
# 1 0.028887 0.004303 -0.004015 0.000000 0.000000 0.000000
# 2 0.004303 0.080293 0.005222 0.000000 0.000000 0.000000
# 3 -0.004015 0.005222 0.011827 0.000000 0.000000 0.000000
# 4 0.000000 0.000000 0.000000 0.045847 0.000000 0.000000
# 5 0.000000 0.000000 0.000000 0.000000 0.066095 0.000000
# 6 0.000000 0.000000 0.000000 0.000000 0.000000 0.154917
#
#
# Mechanical properties :
#
#
# Convention : Reuss Voigt Hill
#
# Bulk Modulus (GPa) = 7.57425 16.73834 12.15629
# Shear Modulus (GPa) = 11.88060 17.88158 14.88109
#
# Velocity S-wave (km/s) = 2.41283 2.96013 2.70038
# Velocity P-wave (km/s) = 3.38732 4.45930 3.95975
#
# Compressibility (1/GPa) = 0.13202634
#
# Stress axis : x y z
#
# Youngs Moduli (GPa) = 34.61730 12.45445 84.55503
#
# Poissons Ratio (x) = -0.05359 0.33951
# Poissons Ratio (y) = -0.14896 -0.44154
# Poissons Ratio (z) = 0.13900 -0.06504
#
# Static dielectric constant tensor:
#      x y z
#    x 1.727180 0.000000 0.000000 
#    y 0.000000 1.724940 0.000000 
#    z 0.000000 0.000000 1.724590 
# 
# From -- ./inp_files/20765.got.cif
#   From: 2010.05.17/outbox.cif.g08.bks.cpg/sg59_11_cif.got.tgz:20765.got - 2010.06.03 14:40:33.
