data_PCOD9448693
_publ_section_title
;
Structure prediction by ZEFSAII (Michael W. Deem and Ramdas Pophale) SiO2 
 PCOD9448693
Probable space group: P M M N
;
_chemical_formula_sum "Si O2"
_cell_formula_units_Z 40
_cell_length_a 18.585891
_cell_length_b 8.933757
_cell_length_c 13.811125
_cell_angle_alpha 90.000000
_cell_angle_beta 90.000000
_cell_angle_gamma 90.000000
_cell_volume 2293.224522
_symmetry_space_group_name_H-M "P M M N"
_symmetry_group_IT_number 59
_space_group.IT_coordinate_system_code '2'
_symmetry_cell_setting 'orthorhombic'
loop_
_space_group_symop_operation_xyz
x,y,z
1/2-x,1/2-y,z
1/2+x,-y,-z
-x,1/2+y,-z
-x,-y,-z
1/2+x,1/2+y,-z
1/2-x,y,z
x,1/2-y,z
loop_
_atom_site_type_symbol
_atom_site_label
_atom_site_fract_x
_atom_site_fract_y
_atom_site_fract_z
Si Si1 0.457472 0.570771 0.300139
Si Si2 0.968826 0.571709 0.096643
Si Si3 0.405028 0.571860 0.604475
Si Si4 0.667801 0.428331 0.188278
Si Si5 0.665513 0.929167 0.585478
O O1 0.455972 0.750000 0.310996
O O2 0.482869 0.533974 0.191165
O O3 0.518257 0.502293 0.371075
O O4 0.381713 0.499723 0.328801
O O5 0.967430 0.750000 0.087535
O O6 0.889506 0.511258 0.121361
O O7 0.000000 0.500000 0.000000
O O8 0.413559 0.750000 0.589706
O O9 0.356555 0.547683 0.700457
O O10 0.367037 0.497964 0.512862
O O11 0.750000 0.476411 0.174446
O O12 0.663130 0.250000 0.170706
O O13 0.750000 0.964639 0.592982
O O14 0.657194 0.750000 0.584363
#
# Coordination Sequence:
#
# PCOD9448693 Si02
#       5
#     8   8   8   8   8
#     4  10  21  37  56  78 104 136 176 218 261 311
#     4  10  21  37  58  81 104 135 174 217 266 316
#     4  10  19  33  55  80 108 142 177 213 257 309
#     4   9  18  33  54  81 110 138 171 214 262 310
#     4  11  23  36  51  75 108 144 180 218 259 304
#
# _framework density 17.442688
#
# number of rings (size 3 to 8) (size 9 to 14) (size 15 to 20)
#    0.000    2.000    0.000    3.600    0.000    6.000 
#    0.000    1.000    0.000    1.200    0.000    0.000 
#    0.000    0.000    0.000    0.000    0.000    0.000 
#
# Total GULP energy -223439.970810 kJ/mol
# GULP energy per Si atom -5585.999270 kJ/mol
# Density = 1.740299 g / cm^3
# Si number density = 17.442688 Si / 1000 Ang^3
#
#
#
# Elastic Constant Matrix: (Units=GPa)
#
#
# Indices 1 2 3 4 5 6 
#
# 1 147.7606 71.3283 80.9813 0.0000 0.0000 0.0000
# 2 71.3283 70.1380 55.3851 0.0000 0.0000 0.0000
# 3 80.9813 55.3851 95.6157 0.0000 0.0000 0.0000
# 4 0.0000 0.0000 0.0000 30.2532 0.0000 0.0000
# 5 0.0000 0.0000 0.0000 0.0000 18.9536 0.0000
# 6 0.0000 0.0000 0.0000 0.0000 0.0000 32.2729
#
#
#
# Elastic Compliance Matrix: (Units=1/GPa)
#
#
# Indices 1 2 3 4 5 6 
#
# 1 0.015747 -0.010105 -0.007484 0.000000 0.000000 0.000000
# 2 -0.010105 0.032761 -0.010418 0.000000 0.000000 0.000000
# 3 -0.007484 -0.010418 0.022832 0.000000 0.000000 0.000000
# 4 0.000000 0.000000 0.000000 0.033054 0.000000 0.000000
# 5 0.000000 0.000000 0.000000 0.000000 0.052760 0.000000
# 6 0.000000 0.000000 0.000000 0.000000 0.000000 0.030986
#
#
# Mechanical properties :
#
#
# Convention : Reuss Voigt Hill
#
# Bulk Modulus (GPa) = 65.24975 80.98929 73.11952
# Shear Modulus (GPa) = 20.05915 23.35056 21.70485
#
# Velocity S-wave (km/s) = 3.39485 3.66280 3.53137
# Velocity P-wave (km/s) = 7.27021 8.02624 7.65756
#
# Compressibility (1/GPa) = 0.01532573
#
# Stress axis : x y z
#
# Youngs Moduli (GPa) = 63.50381 30.52436 43.79845
#
# Poissons Ratio (x) = 0.30844 0.32778
# Poissons Ratio (y) = 0.64168 0.45631
# Poissons Ratio (z) = 0.47525 0.31802
#
# Static dielectric constant tensor:
#      x y z
#    x 1.579190 0.000000 0.000000 
#    y 0.000000 1.579590 0.000000 
#    z 0.000000 0.000000 1.576020 
# 
# From -- ./inp_files/13875.got.cif
#   From: 2010.05.17/outbox.cif.g08.bks.cpg/sg59_7_cif.got.tgz:13875.got - 2010.06.03 14:40:33.
