data_PCOD9448508
_publ_section_title
;
Structure prediction by ZEFSAII (Michael W. Deem and Ramdas Pophale) SiO2 
 PCOD9448508
Probable space group: P M M N
;
_chemical_formula_sum "Si O2"
_cell_formula_units_Z 40
_cell_length_a 7.753365
_cell_length_b 21.245221
_cell_length_c 11.839091
_cell_angle_alpha 90.000000
_cell_angle_beta 90.000000
_cell_angle_gamma 90.000000
_cell_volume 1950.158190
_symmetry_space_group_name_H-M "P M M N"
_symmetry_group_IT_number 59
_space_group.IT_coordinate_system_code '2'
_symmetry_cell_setting 'orthorhombic'
loop_
_space_group_symop_operation_xyz
x,y,z
1/2-x,1/2-y,z
1/2+x,-y,-z
-x,1/2+y,-z
-x,-y,-z
1/2+x,1/2+y,-z
1/2-x,y,z
x,1/2-y,z
loop_
_atom_site_type_symbol
_atom_site_label
_atom_site_fract_x
_atom_site_fract_y
_atom_site_fract_z
Si Si1 0.455864 0.623125 0.245695
Si Si2 0.461469 0.375542 0.239543
Si Si3 0.541823 0.750000 0.631348
Si Si4 0.042185 0.750000 0.364732
Si Si5 0.957146 0.999433 0.630472
Si Si6 0.044394 0.425281 0.998888
O O1 0.250000 0.624293 0.263733
O O2 0.523764 0.687467 0.300700
O O3 0.526827 0.561900 0.309947
O O4 0.484113 0.609939 0.113797
O O5 0.250000 0.374082 0.238779
O O6 0.518985 0.312028 0.301536
O O7 0.519353 0.435826 0.311288
O O8 0.518564 0.389635 0.111576
O O9 0.750000 0.750000 0.635642
O O10 0.495854 0.750000 0.498622
O O11 0.250000 0.750000 0.354557
O O12 0.750000 0.999664 0.644197
O O13 0.000000 0.000000 0.500000
O O14 0.250000 0.422649 0.000491
O O15 0.000000 0.500000 0.000000
#
# Coordination Sequence:
#
# PCOD9448508 Si02
#       6
#     8   8   4   4   8   8
#     4  10  21  38  57  80 115 153 188 234 288 337
#     4   9  19  35  55  80 111 145 179 228 285 328
#     4  10  20  37  60  82 112 149 187 230 279 342
#     4  10  22  39  58  82 118 155 185 232 291 336
#     4  10  19  33  52  76 108 142 184 232 277 329
#     4  11  21  37  60  85 115 149 191 239 289 344
#
# _framework density 20.511157000000001
#
# number of rings (size 3 to 8) (size 9 to 14) (size 15 to 20)
#    0.000    2.000    2.000    1.800    0.000    2.400 
#    0.000    3.000    0.000    0.000    0.000    0.000 
#    0.000    0.000    0.000    0.000    0.000    0.000 
#
# Total GULP energy -223364.930464 kJ/mol
# GULP energy per Si atom -5584.123262 kJ/mol
# Density = 2.046447 g / cm^3
# Si number density = 20.511157 Si / 1000 Ang^3
#
#
#
# Elastic Constant Matrix: (Units=GPa)
#
#
# Indices 1 2 3 4 5 6 
#
# 1 25.2940 12.6294 -13.8681 0.0000 0.0000 0.0000
# 2 12.6294 239.2998 141.1291 0.0000 0.0000 0.0000
# 3 -13.8681 141.1291 216.9126 0.0000 0.0000 0.0000
# 4 0.0000 0.0000 0.0000 37.8149 0.0000 0.0000
# 5 0.0000 0.0000 0.0000 0.0000 30.8619 0.0000
# 6 0.0000 0.0000 0.0000 0.0000 0.0000 -0.3394
#
#
#
# Elastic Compliance Matrix: (Units=1/GPa)
#
#
# Indices 1 2 3 4 5 6 
#
# 1 0.047107 -0.006916 0.007512 0.000000 0.000000 0.000000
# 2 -0.006916 0.007796 -0.005515 0.000000 0.000000 0.000000
# 3 0.007512 -0.005515 0.008678 0.000000 0.000000 0.000000
# 4 0.000000 0.000000 0.000000 0.026445 0.000000 0.000000
# 5 0.000000 0.000000 0.000000 0.000000 0.032402 0.000000
# 6 0.000000 0.000000 0.000000 0.000000 0.000000 -2.946623
#
#
# Mechanical properties :
#
#
# Convention : Reuss Voigt Hill
#
# Bulk Modulus (GPa) = 18.60711 84.58747 51.59729
# Shear Modulus (GPa) = -1.78799 36.44188 17.32695
#
# Velocity S-wave (km/s) = -0.93467 4.21965 2.90962
# Velocity P-wave (km/s) = 2.81542 8.06659 6.04137
#
# Compressibility (1/GPa) = 0.05374291
#
# Stress axis : x y z
#
# Youngs Moduli (GPa) = 21.22838 128.26901 115.22994
#
# Poissons Ratio (x) = 0.88713 -0.86556
# Poissons Ratio (y) = 0.14682 0.63544
# Poissons Ratio (z) = -0.15946 0.70734
#
# Static dielectric constant tensor:
#      x y z
#    x 1.749240 0.000000 0.000000 
#    y 0.000000 1.726820 0.000000 
#    z 0.000000 0.000000 1.747390 
# 
# From -- ./inp_files/14137.got.cif
#   From: 2010.05.17/outbox.cif.g08.bks.cpg/sg59_8_cif.got.tgz:14137.got - 2010.06.03 14:40:33.
