data_PCOD9448127
_publ_section_title
;
Structure prediction by ZEFSAII (Michael W. Deem and Ramdas Pophale) SiO2 
 PCOD9448127
Probable space group: P M M N
;
_chemical_formula_sum "Si O2"
_cell_formula_units_Z 48
_cell_length_a 31.831650
_cell_length_b 7.672932
_cell_length_c 9.896672
_cell_angle_alpha 90.000000
_cell_angle_beta 90.000000
_cell_angle_gamma 90.000000
_cell_volume 2417.183813
_symmetry_space_group_name_H-M "P M M N"
_symmetry_group_IT_number 59
_space_group.IT_coordinate_system_code '2'
_symmetry_cell_setting 'orthorhombic'
loop_
_space_group_symop_operation_xyz
x,y,z
1/2-x,1/2-y,z
1/2+x,-y,-z
-x,1/2+y,-z
-x,-y,-z
1/2+x,1/2+y,-z
1/2-x,y,z
x,1/2-y,z
loop_
_atom_site_type_symbol
_atom_site_label
_atom_site_fract_x
_atom_site_fract_y
_atom_site_fract_z
Si Si1 0.986543 0.539709 0.846435
Si Si2 0.391330 0.040334 0.179173
Si Si3 0.869396 0.458473 0.523936
Si Si4 0.436782 0.951532 0.676415
Si Si5 0.365334 0.042211 0.886910
Si Si6 0.202525 0.539999 0.676202
O O1 0.986333 0.750000 0.835450
O O2 0.939456 0.475532 0.820493
O O3 0.020919 0.470458 0.739697
O O4 0.000000 0.500000 0.000000
O O5 0.392829 0.250000 0.173859
O O6 0.369127 0.992241 0.318074
O O7 0.369383 0.981267 0.040867
O O8 0.870269 0.250000 0.503290
O O9 0.911939 0.529023 0.451894
O O10 0.828827 0.524364 0.441954
O O11 0.446290 0.750000 0.644139
O O12 0.401944 0.958568 0.795592
O O13 0.372550 0.250000 0.882608
O O14 0.321300 0.003740 0.815153
O O15 0.250000 0.473373 0.668481
O O16 0.204304 0.750000 0.666238
#
# Coordination Sequence:
#
# PCOD9448127 Si02
#       6
#     8   8   8   8   8   8
#     4  10  19  32  50  73 103 139 181 223 259 298
#     4  10  21  34  48  74 110 142 171 211 261 305
#     4   9  19  34  52  76 103 135 173 212 259 309
#     4   9  18  33  52  73 100 137 181 222 254 294
#     4  10  19  32  52  78 107 134 167 209 255 307
#     4   9  19  38  61  81 101 128 167 213 258 310
#
# _framework density 19.85782
#
# number of rings (size 3 to 8) (size 9 to 14) (size 15 to 20)
#    0.000    2.500    1.667    1.500    0.000    5.667 
#    0.000    0.833    0.000    3.000    0.000    0.000 
#    0.000    0.000    0.000    0.000    0.000    0.000 
#
# Total GULP energy -267773.595789 kJ/mol
# GULP energy per Si atom -5578.616579 kJ/mol
# Density = 1.981262 g / cm^3
# Si number density = 19.857820 Si / 1000 Ang^3
#
#
#
# Elastic Constant Matrix: (Units=GPa)
#
#
# Indices 1 2 3 4 5 6 
#
# 1 111.6198 -1.0547 44.3465 0.0000 0.0000 0.0000
# 2 -1.0547 36.9611 -12.1705 0.0000 0.0000 0.0000
# 3 44.3465 -12.1705 122.8933 0.0000 0.0000 0.0000
# 4 0.0000 0.0000 0.0000 -389.3902 0.0000 0.0000
# 5 0.0000 0.0000 0.0000 0.0000 17.5455 0.0000
# 6 0.0000 0.0000 0.0000 0.0000 0.0000 11.1484
#
#
#
# Elastic Compliance Matrix: (Units=1/GPa)
#
#
# Indices 1 2 3 4 5 6 
#
# 1 0.010493 -0.000979 -0.003883 0.000000 0.000000 0.000000
# 2 -0.000979 0.028059 0.003132 0.000000 0.000000 0.000000
# 3 -0.003883 0.003132 0.009849 0.000000 0.000000 0.000000
# 4 0.000000 0.000000 0.000000 -0.002568 0.000000 0.000000
# 5 0.000000 0.000000 0.000000 0.000000 0.056995 0.000000
# 6 0.000000 0.000000 0.000000 0.000000 0.000000 0.089699
#
#
# Mechanical properties :
#
#
# Convention : Reuss Voigt Hill
#
# Bulk Modulus (GPa) = 22.25226 37.07966 29.66596
# Shear Modulus (GPa) = 23.70050 -56.11574 -16.20762
#
# Velocity S-wave (km/s) = 3.45847 -5.32166 -2.85999
# Velocity P-wave (km/s) = 5.21326 4.36429 2.01632
#
# Compressibility (1/GPa) = 0.04493925
#
# Stress axis : x y z
#
# Youngs Moduli (GPa) = 95.30578 35.63932 101.53715
#
# Poissons Ratio (x) = 0.03490 0.39429
# Poissons Ratio (y) = 0.09333 -0.31803
# Poissons Ratio (z) = 0.37010 -0.11163
#
# Static dielectric constant tensor:
#      x y z
#    x 1.700870 0.000000 0.000000 
#    y 0.000000 1.747360 0.000000 
#    z 0.000000 0.000000 1.689660 
# 
# From -- ./inp_files/6236.got.cif
#   From: 2010.05.17/outbox.cif.g08.bks.cpg/sg59_4_cif.got.tgz:6236.got - 2010.06.03 14:40:33.
