data_PCOD9448903
_publ_section_title
;
Structure prediction by ZEFSAII (Michael W. Deem and Ramdas Pophale) SiO2 
 PCOD9448903
Probable space group: P M M N
;
_chemical_formula_sum "Si O2"
_cell_formula_units_Z 48
_cell_length_a 17.548455
_cell_length_b 7.613513
_cell_length_c 16.597118
_cell_angle_alpha 90.000000
_cell_angle_beta 90.000000
_cell_angle_gamma 90.000000
_cell_volume 2217.464428
_symmetry_space_group_name_H-M "P M M N"
_symmetry_group_IT_number 59
_space_group.IT_coordinate_system_code '2'
_symmetry_cell_setting 'orthorhombic'
loop_
_space_group_symop_operation_xyz
x,y,z
1/2-x,1/2-y,z
1/2+x,-y,-z
-x,1/2+y,-z
-x,-y,-z
1/2+x,1/2+y,-z
1/2-x,y,z
x,1/2-y,z
loop_
_atom_site_type_symbol
_atom_site_label
_atom_site_fract_x
_atom_site_fract_y
_atom_site_fract_z
Si Si1 0.250000 0.036627 0.193820
Si Si2 0.916859 0.446750 0.035720
Si Si3 0.163847 0.035267 0.637025
Si Si4 0.250000 0.952425 0.008877
Si Si5 0.413659 0.039544 0.475145
Si Si6 0.398692 0.463111 0.292587
Si Si7 0.940755 0.955261 0.216763
O O1 0.250000 0.250000 0.186093
O O2 0.175977 0.984939 0.244178
O O3 0.250000 0.958728 0.105227
O O4 0.908039 0.250000 0.004158
O O5 0.926348 0.454029 0.131880
O O6 0.833335 0.531839 0.016372
O O7 0.000000 0.500000 0.000000
O O8 0.250000 0.984493 0.653304
O O9 0.159594 0.250000 0.635759
O O10 0.137589 0.973567 0.548904
O O11 0.109407 0.975507 0.708878
O O12 0.250000 0.750000 0.977826
O O13 0.403557 0.250000 0.471954
O O14 0.398186 0.973362 0.385133
O O15 0.500000 0.000000 0.500000
O O16 0.401885 0.250000 0.294190
O O17 0.472748 0.527395 0.245746
O O18 0.922430 0.750000 0.204682
#
# Coordination Sequence:
#
# PCOD9448903 Si02
#       7
#     4   8   8   4   8   8   8
#     4  10  22  38  58  87 116 148 193 240 285 341
#     4  11  24  43  65  91 121 155 195 241 297 357
#     4   9  19  34  54  82 115 152 195 240 281 332
#     4  10  24  44  64  87 118 156 191 236 299 357
#     4  10  19  34  56  80 111 151 193 238 286 335
#     4  10  21  36  57  85 118 155 196 242 289 340
#     4  11  22  37  60  88 117 153 195 239 290 346
#
# _framework density 21.646345
#
# number of rings (size 3 to 8) (size 9 to 14) (size 15 to 20)
#    0.000    1.833    1.667    2.000    2.333    4.667 
#    0.000    0.000    0.000    2.500    0.000    0.000 
#    0.000    0.000    0.000    0.000    0.000    0.000 
#
# Total GULP energy -267995.848820 kJ/mol
# GULP energy per Si atom -5583.246850 kJ/mol
# Density = 2.159708 g / cm^3
# Si number density = 21.646345 Si / 1000 Ang^3
#
#
#
# Elastic Constant Matrix: (Units=GPa)
#
#
# Indices 1 2 3 4 5 6 
#
# 1 195.1644 0.0076 80.5440 0.0000 0.0000 0.0000
# 2 0.0076 43.8951 -6.2014 0.0000 0.0000 0.0000
# 3 80.5440 -6.2014 159.3534 0.0000 0.0000 0.0000
# 4 0.0000 0.0000 0.0000 14.3480 0.0000 0.0000
# 5 0.0000 0.0000 0.0000 0.0000 17.0134 0.0000
# 6 0.0000 0.0000 0.0000 0.0000 0.0000 19.9015
#
#
#
# Elastic Compliance Matrix: (Units=1/GPa)
#
#
# Indices 1 2 3 4 5 6 
#
# 1 0.006484 -0.000467 -0.003295 0.000000 0.000000 0.000000
# 2 -0.000467 0.022941 0.001129 0.000000 0.000000 0.000000
# 3 -0.003295 0.001129 0.007985 0.000000 0.000000 0.000000
# 4 0.000000 0.000000 0.000000 0.069696 0.000000 0.000000
# 5 0.000000 0.000000 0.000000 0.000000 0.058777 0.000000
# 6 0.000000 0.000000 0.000000 0.000000 0.000000 0.050247
#
#
# Mechanical properties :
#
#
# Convention : Reuss Voigt Hill
#
# Bulk Modulus (GPa) = 31.11090 60.79036 45.95063
# Shear Modulus (GPa) = 21.54136 31.85679 26.69908
#
# Velocity S-wave (km/s) = 3.15802 3.84043 3.51582
# Velocity P-wave (km/s) = 5.26318 6.91445 6.14453
#
# Compressibility (1/GPa) = 0.03214307
#
# Stress axis : x y z
#
# Youngs Moduli (GPa) = 154.22795 43.58989 125.23607
#
# Poissons Ratio (x) = 0.02034 0.41270
# Poissons Ratio (y) = 0.07198 -0.14135
# Poissons Ratio (z) = 0.50824 -0.04920
#
# Static dielectric constant tensor:
#      x y z
#    x 1.729630 0.000000 0.000000 
#    y 0.000000 1.857650 0.000000 
#    z 0.000000 0.000000 1.740040 
# 
# From -- ./inp_files/20600.got.cif
#   From: 2010.05.17/outbox.cif.g08.bks.cpg/sg59_11_cif.got.tgz:20600.got - 2010.06.03 14:40:33.
