data_PCOD9448549
_publ_section_title
;
Structure prediction by ZEFSAII (Michael W. Deem and Ramdas Pophale) SiO2 
 PCOD9448549
Probable space group: P M M N
;
_chemical_formula_sum "Si O2"
_cell_formula_units_Z 64
_cell_length_a 31.400869
_cell_length_b 8.870299
_cell_length_c 12.460757
_cell_angle_alpha 90.000000
_cell_angle_beta 90.000000
_cell_angle_gamma 90.000000
_cell_volume 3470.758158
_symmetry_space_group_name_H-M "P M M N"
_symmetry_group_IT_number 59
_space_group.IT_coordinate_system_code '2'
_symmetry_cell_setting 'orthorhombic'
loop_
_space_group_symop_operation_xyz
x,y,z
1/2-x,1/2-y,z
1/2+x,-y,-z
-x,1/2+y,-z
-x,-y,-z
1/2+x,1/2+y,-z
1/2-x,y,z
x,1/2-y,z
loop_
_atom_site_type_symbol
_atom_site_label
_atom_site_fract_x
_atom_site_fract_y
_atom_site_fract_z
Si Si1 0.452532 0.567971 0.990624
Si Si2 0.065075 0.930927 0.749126
Si Si3 0.200074 0.069552 0.980196
Si Si4 0.612333 0.567915 0.643408
Si Si5 0.699254 0.077707 0.247447
Si Si6 0.136982 0.069684 0.596519
Si Si7 0.871762 0.430874 0.868195
Si Si8 0.484845 0.430582 0.388335
O O1 0.456569 0.750000 0.993716
O O2 0.417528 0.521912 0.079705
O O3 0.500000 0.500000 0.000000
O O4 0.433123 0.526693 0.873889
O O5 0.070758 0.750000 0.741287
O O6 0.018281 0.969155 0.704200
O O7 0.098575 0.009309 0.670723
O O8 0.250000 0.028226 0.000077
O O9 0.197014 0.250000 0.984576
O O10 0.166942 0.995902 0.061740
O O11 0.188667 0.011533 0.861124
O O12 0.614846 0.750000 0.653846
O O13 0.631403 0.525461 0.527653
O O14 0.631961 0.491504 0.747533
O O15 0.562759 0.521983 0.638973
O O16 0.750000 0.078968 0.256878
O O17 0.683832 0.250000 0.237801
O O18 0.678547 0.999104 0.349269
O O19 0.137266 0.250000 0.601161
O O20 0.870425 0.250000 0.870836
O O21 0.500000 0.500000 0.500000
O O22 0.484570 0.250000 0.400518
#
# Coordination Sequence:
#
# PCOD9448549 Si02
#       8
#     8   8   8   8   8   8   8   8
#     4  10  22  38  55  80 113 150 192 236 285 343
#     4  10  20  34  55  80 110 146 183 232 289 339
#     4  10  21  39  65  94 120 149 189 236 289 350
#     4  10  22  39  56  79 114 155 198 241 286 341
#     4  10  21  38  61  88 118 148 179 224 282 342
#     4  11  22  36  57  84 112 145 188 234 281 336
#     4  11  23  38  59  87 118 155 198 244 296 351
#     4  10  19  33  53  77 108 148 192 239 286 335
#
# _framework density 18.439775000000001
#
# number of rings (size 3 to 8) (size 9 to 14) (size 15 to 20)
#    0.000    1.750    1.250    3.000    0.000    6.500 
#    0.000    0.625    0.000    0.750    0.000    0.000 
#    0.000    0.000    0.000    0.000    0.000    0.000 
#
# Total GULP energy -357475.660908 kJ/mol
# GULP energy per Si atom -5585.557202 kJ/mol
# Density = 1.839781 g / cm^3
# Si number density = 18.439775 Si / 1000 Ang^3
#
#
#
# Elastic Constant Matrix: (Units=GPa)
#
#
# Indices 1 2 3 4 5 6 
#
# 1 72.8685 31.7516 57.4349 0.0000 0.0000 0.0000
# 2 31.7516 43.3848 46.8756 0.0000 0.0000 0.0000
# 3 57.4349 46.8756 147.3033 0.0000 0.0000 0.0000
# 4 0.0000 0.0000 0.0000 30.6102 0.0000 0.0000
# 5 0.0000 0.0000 0.0000 0.0000 35.4012 0.0000
# 6 0.0000 0.0000 0.0000 0.0000 0.0000 31.6839
#
#
#
# Elastic Compliance Matrix: (Units=1/GPa)
#
#
# Indices 1 2 3 4 5 6 
#
# 1 0.022678 -0.010734 -0.005426 0.000000 0.000000 0.000000
# 2 -0.010734 0.040208 -0.008610 0.000000 0.000000 0.000000
# 3 -0.005426 -0.008610 0.011644 0.000000 0.000000 0.000000
# 4 0.000000 0.000000 0.000000 0.032669 0.000000 0.000000
# 5 0.000000 0.000000 0.000000 0.000000 0.028248 0.000000
# 6 0.000000 0.000000 0.000000 0.000000 0.000000 0.031562
#
#
# Mechanical properties :
#
#
# Convention : Reuss Voigt Hill
#
# Bulk Modulus (GPa) = 40.01673 59.52009 49.76841
# Shear Modulus (GPa) = 22.23426 28.03871 25.13649
#
# Velocity S-wave (km/s) = 3.47620 3.90366 3.69611
# Velocity P-wave (km/s) = 6.15308 7.25715 6.72780
#
# Compressibility (1/GPa) = 0.02498955
#
# Stress axis : x y z
#
# Youngs Moduli (GPa) = 44.09644 24.87078 85.87798
#
# Poissons Ratio (x) = 0.26696 0.46601
# Poissons Ratio (y) = 0.47332 0.73940
# Poissons Ratio (z) = 0.23929 0.21414
#
# Static dielectric constant tensor:
#      x y z
#    x 1.641990 0.000000 0.000000 
#    y 0.000000 1.614250 0.000000 
#    z 0.000000 0.000000 1.622270 
# 
# From -- ./inp_files/15042.got.cif
#   From: 2010.05.17/outbox.cif.g08.bks.cpg/sg59_8_cif.got.tgz:15042.got - 2010.06.03 14:40:33.
