data_PCOD9448736
_publ_section_title
;
Structure prediction by ZEFSAII (Michael W. Deem and Ramdas Pophale) SiO2 
 PCOD9448736
Probable space group: P M M N
;
_chemical_formula_sum "Si O2"
_cell_formula_units_Z 64
_cell_length_a 17.922325
_cell_length_b 9.905626
_cell_length_c 20.358642
_cell_angle_alpha 90.000000
_cell_angle_beta 90.000000
_cell_angle_gamma 90.000000
_cell_volume 3614.307347
_symmetry_space_group_name_H-M "P M M N"
_symmetry_group_IT_number 59
_space_group.IT_coordinate_system_code '2'
_symmetry_cell_setting 'orthorhombic'
loop_
_space_group_symop_operation_xyz
x,y,z
1/2-x,1/2-y,z
1/2+x,-y,-z
-x,1/2+y,-z
-x,-y,-z
1/2+x,1/2+y,-z
1/2-x,y,z
x,1/2-y,z
loop_
_atom_site_type_symbol
_atom_site_label
_atom_site_fract_x
_atom_site_fract_y
_atom_site_fract_z
Si Si1 0.901776 0.596085 0.454375
Si Si2 0.081519 0.593730 0.428880
Si Si3 0.596511 0.091784 0.859799
Si Si4 0.073936 0.405908 0.903848
Si Si5 0.834636 0.907145 0.965768
Si Si6 0.443868 0.912508 0.285570
Si Si7 0.665719 0.093931 0.192266
Si Si8 0.879730 0.589890 0.306261
O O1 0.882804 0.750000 0.471814
O O2 0.884266 0.495848 0.513510
O O3 0.867129 0.564358 0.383405
O O4 0.991581 0.592830 0.441154
O O5 0.105406 0.750000 0.432766
O O6 0.091840 0.540448 0.354400
O O7 0.618126 0.250000 0.859138
O O8 0.514401 0.084074 0.893006
O O9 0.588251 0.042396 0.784355
O O10 0.650011 0.002687 0.904303
O O11 0.094804 0.250000 0.886544
O O12 0.112739 0.512245 0.856306
O O13 0.105315 0.431355 0.976634
O O14 0.750000 0.927308 0.990994
O O15 0.841632 0.750000 0.946519
O O16 0.436473 0.750000 0.286334
O O17 0.532735 0.936502 0.289854
O O18 0.750000 0.092190 0.165992
O O19 0.643134 0.250000 0.200991
O O20 0.664031 0.010975 0.259947
O O21 0.865716 0.750000 0.293884
#
# Coordination Sequence:
#
# PCOD9448736 Si02
#       8
#     8   8   8   8   8   8   8   8
#     4   8  14  23  38  61  89 122 160 200 237 282
#     4   8  13  22  38  60  91 126 154 189 241 291
#     4  10  19  33  56  81 103 131 170 213 253 299
#     4  10  20  37  59  77  97 133 173 207 250 307
#     4  10  22  38  54  76 106 136 168 206 250 305
#     4   8  14  27  46  70  98 126 161 203 245 293
#     4  11  23  34  46  71 104 133 167 215 262 304
#     4   9  16  30  48  64  91 132 171 205 245 296
#
# _framework density 17.707404
#
# number of rings (size 3 to 8) (size 9 to 14) (size 15 to 20)
#    0.000    2.750    1.250    2.625    0.000    3.250 
#    0.000    2.500    0.000    0.000    0.000    0.875 
#    0.000    1.000    0.000    0.000    0.000    0.000 
#
# Total GULP energy -356539.098157 kJ/mol
# GULP energy per Si atom -5570.923409 kJ/mol
# Density = 1.766710 g / cm^3
# Si number density = 17.707404 Si / 1000 Ang^3
#
#
#
# Elastic Constant Matrix: (Units=GPa)
#
#
# Indices 1 2 3 4 5 6 
#
# 1 7.3042 16.5199 11.0956 0.0000 0.0000 0.0000
# 2 16.5199 69.0778 54.0099 0.0000 0.0000 0.0000
# 3 11.0956 54.0099 109.8523 0.0000 0.0000 0.0000
# 4 0.0000 0.0000 0.0000 32.7677 0.0000 0.0000
# 5 0.0000 0.0000 0.0000 0.0000 1.1784 0.0000
# 6 0.0000 0.0000 0.0000 0.0000 0.0000 17.4085
#
#
#
# Elastic Compliance Matrix: (Units=1/GPa)
#
#
# Indices 1 2 3 4 5 6 
#
# 1 0.302626 -0.078744 0.008149 0.000000 0.000000 0.000000
# 2 -0.078744 0.044006 -0.013682 0.000000 0.000000 0.000000
# 3 0.008149 -0.013682 0.015007 0.000000 0.000000 0.000000
# 4 0.000000 0.000000 0.000000 0.030518 0.000000 0.000000
# 5 0.000000 0.000000 0.000000 0.000000 0.848607 0.000000
# 6 0.000000 0.000000 0.000000 0.000000 0.000000 0.057443
#
#
# Mechanical properties :
#
#
# Convention : Reuss Voigt Hill
#
# Bulk Modulus (GPa) = 5.17910 38.83166 22.00538
# Shear Modulus (GPa) = 3.26558 17.24485 10.25522
#
# Velocity S-wave (km/s) = 1.35948 3.12409 2.40916
# Velocity P-wave (km/s) = 2.32281 5.91527 4.49366
#
# Compressibility (1/GPa) = 0.19308369
#
# Stress axis : x y z
#
# Youngs Moduli (GPa) = 3.30441 22.72430 66.63494
#
# Poissons Ratio (x) = 1.78940 -0.54298
# Poissons Ratio (y) = 0.26020 0.91172
# Poissons Ratio (z) = -0.02693 0.31092
#
# Static dielectric constant tensor:
#      x y z
#    x 1.601130 0.000000 0.000000 
#    y 0.000000 1.588010 0.000000 
#    z 0.000000 0.000000 1.629220 
# 
# From -- ./inp_files/30795.got.cif
#   From: 2010.05.17/outbox.cif.g08.bks.cpg/sg59_16_cif.got.tgz:30795.got - 2010.06.03 14:40:33.
