data_PCOD9448074
_publ_section_title
;
Structure prediction by ZEFSAII (Michael W. Deem and Ramdas Pophale) SiO2 
 PCOD9448074
Probable space group: P M M N
;
_chemical_formula_sum "Si O2"
_cell_formula_units_Z 40
_cell_length_a 20.277106
_cell_length_b 18.932849
_cell_length_c 4.936556
_cell_angle_alpha 90.000000
_cell_angle_beta 90.000000
_cell_angle_gamma 90.000000
_cell_volume 1895.160564
_symmetry_space_group_name_H-M "P M M N"
_symmetry_group_IT_number 59
_space_group.IT_coordinate_system_code '2'
_symmetry_cell_setting 'orthorhombic'
loop_
_space_group_symop_operation_xyz
x,y,z
1/2-x,1/2-y,z
1/2+x,-y,-z
-x,1/2+y,-z
-x,-y,-z
1/2+x,1/2+y,-z
1/2-x,y,z
x,1/2-y,z
loop_
_atom_site_type_symbol
_atom_site_label
_atom_site_fract_x
_atom_site_fract_y
_atom_site_fract_z
Si Si1 0.474657 0.830891 0.265185
Si Si2 0.250000 0.375188 0.891838
Si Si3 0.393813 0.024888 0.381424
Si Si4 0.032376 0.571849 0.788530
Si Si5 0.250000 0.470394 0.379342
Si Si6 0.120668 0.325596 0.640010
O O1 0.450141 0.750000 0.255549
O O2 0.444885 0.887554 0.057317
O O3 0.472011 0.865361 0.562400
O O4 0.552510 0.828898 0.194342
O O5 0.250000 0.400477 0.196250
O O6 0.250000 0.444760 0.692885
O O7 0.184598 0.332865 0.823186
O O8 0.460082 0.033616 0.199447
O O9 0.321209 0.994904 0.308124
O O10 0.379463 0.106087 0.453718
O O11 0.418663 0.983835 0.648367
O O12 0.120644 0.250000 0.495031
#
# Coordination Sequence:
#
# PCOD9448074 Si02
#       6
#     8   4   8   8   4   8
#     4  10  20  34  53  77 102 131 169 213 261 311
#     4  10  19  32  48  68 100 140 174 204 240 284
#     4   9  20  34  53  77 105 138 175 212 255 300
#     4  10  20  34  54  77 105 135 168 213 259 305
#     4  10  20  34  51  72 101 134 171 210 245 296
#     4   9  18  32  49  72 104 140 176 211 246 293
#
# _framework density 21.106390999999999
#
# number of rings (size 3 to 8) (size 9 to 14) (size 15 to 20)
#    0.000    2.400    0.000    2.100    0.000   11.200 
#    0.000   12.000    0.000    0.000    0.000    4.200 
#    0.000    0.000    0.000    0.000    0.000    0.000 
#
# Total GULP energy -223036.330779 kJ/mol
# GULP energy per Si atom -5575.908269 kJ/mol
# Density = 2.105835 g / cm^3
# Si number density = 21.106391 Si / 1000 Ang^3
#
#
#
# Elastic Constant Matrix: (Units=GPa)
#
#
# Indices 1 2 3 4 5 6 
#
# 1 107.6410 14.0362 -2.0107 0.0000 0.0000 0.0000
# 2 14.0362 93.9129 14.2881 0.0000 0.0000 0.0000
# 3 -2.0107 14.2881 43.3686 0.0000 0.0000 0.0000
# 4 0.0000 0.0000 0.0000 24.8980 0.0000 0.0000
# 5 0.0000 0.0000 0.0000 0.0000 16.3259 0.0000
# 6 0.0000 0.0000 0.0000 0.0000 0.0000 23.1650
#
#
#
# Elastic Compliance Matrix: (Units=1/GPa)
#
#
# Indices 1 2 3 4 5 6 
#
# 1 0.009512 -0.001567 0.000957 0.000000 0.000000 0.000000
# 2 -0.001567 0.011468 -0.003851 0.000000 0.000000 0.000000
# 3 0.000957 -0.003851 0.024371 0.000000 0.000000 0.000000
# 4 0.000000 0.000000 0.000000 0.040164 0.000000 0.000000
# 5 0.000000 0.000000 0.000000 0.000000 0.061252 0.000000
# 6 0.000000 0.000000 0.000000 0.000000 0.000000 0.043169
#
#
# Mechanical properties :
#
#
# Convention : Reuss Voigt Hill
#
# Bulk Modulus (GPa) = 27.44986 33.06108 30.25547
# Shear Modulus (GPa) = 23.69645 27.45171 25.57408
#
# Velocity S-wave (km/s) = 3.35433 3.61034 3.48469
# Velocity P-wave (km/s) = 5.29488 5.75130 5.52780
#
# Compressibility (1/GPa) = 0.03643006
#
# Stress axis : x y z
#
# Youngs Moduli (GPa) = 105.12581 87.19674 41.03194
#
# Poissons Ratio (x) = 0.13667 -0.03928
# Poissons Ratio (y) = 0.16477 0.15801
# Poissons Ratio (z) = -0.10065 0.33579
#
# Static dielectric constant tensor:
#      x y z
#    x 1.817850 0.000000 0.000000 
#    y 0.000000 1.775950 0.000000 
#    z 0.000000 0.000000 1.798940 
# 
# From -- ./inp_files/2765.got.cif
#   From: 2010.05.17/outbox.cif.g08.bks.cpg/sg59_2_cif.got.tgz:2765.got - 2010.06.03 14:40:33.
