data_PCOD9448664
_publ_section_title
;
Structure prediction by ZEFSAII (Michael W. Deem and Ramdas Pophale) SiO2 
 PCOD9448664
Probable space group: P M M N
;
_chemical_formula_sum "Si O2"
_cell_formula_units_Z 64
_cell_length_a 14.343372
_cell_length_b 15.310378
_cell_length_c 12.172193
_cell_angle_alpha 90.000000
_cell_angle_beta 90.000000
_cell_angle_gamma 90.000000
_cell_volume 2673.043370
_symmetry_space_group_name_H-M "P M M N"
_symmetry_group_IT_number 59
_space_group.IT_coordinate_system_code '2'
_symmetry_cell_setting 'orthorhombic'
loop_
_space_group_symop_operation_xyz
x,y,z
1/2-x,1/2-y,z
1/2+x,-y,-z
-x,1/2+y,-z
-x,-y,-z
1/2+x,1/2+y,-z
1/2-x,y,z
x,1/2-y,z
loop_
_atom_site_type_symbol
_atom_site_label
_atom_site_fract_x
_atom_site_fract_y
_atom_site_fract_z
Si Si1 0.462326 0.348302 0.863493
Si Si2 0.047550 0.919790 0.434496
Si Si3 0.352588 0.146299 0.610604
Si Si4 0.851321 0.924556 0.636297
Si Si5 0.358756 0.152942 0.092694
Si Si6 0.550120 0.347887 0.334731
Si Si7 0.359313 0.954763 0.097016
Si Si8 0.141094 0.979108 0.837454
O O1 0.623804 0.471755 0.636992
O O2 0.429816 0.343267 0.991105
O O3 0.566392 0.386297 0.857355
O O4 0.392034 0.421991 0.819963
O O5 0.080643 0.861590 0.537597
O O6 0.963245 0.876017 0.367793
O O7 0.000000 0.000000 0.500000
O O8 0.250000 0.125780 0.664274
O O9 0.450843 0.250000 0.820666
O O10 0.343025 0.100418 0.492074
O O11 0.750000 0.903769 0.686377
O O12 0.852130 0.750000 0.403021
O O13 0.939463 0.866260 0.670142
O O14 0.250000 0.147413 0.053257
O O15 0.365594 0.250000 0.146562
O O16 0.375874 0.054626 0.139498
O O17 0.572157 0.250000 0.300014
O O18 0.593873 0.417455 0.252126
O O19 0.250000 0.933669 0.112604
O O20 0.379289 0.957902 0.965186
O O21 0.250000 0.969260 0.824514
#
# Coordination Sequence:
#
# PCOD9448664 Si02
#       8
#     8   8   8   8   8   8   8   8
#     4  10  19  33  55  77 100 139 189 233 271 316
#     4   8  15  28  47  74 104 136 178 223 263 312
#     4   8  12  20  39  67  96 125 159 203 253 301
#     4   9  17  31  52  75 101 139 184 226 265 308
#     4   8  13  23  43  71  99 128 165 209 257 308
#     4  10  20  34  54  81 114 151 186 223 277 344
#     4   9  18  33  53  79 110 143 182 227 276 332
#     4  10  21  36  54  80 115 148 180 224 280 342
#
# _framework density 23.942746
#
# number of rings (size 3 to 8) (size 9 to 14) (size 15 to 20)
#    0.000    3.250    0.000    4.125    0.000    3.000 
#    0.000    4.375    0.000   16.125    0.000   14.000 
#    0.000    0.000    0.000    0.000    0.000    0.000 
#
# Total GULP energy -356988.964277 kJ/mol
# GULP energy per Si atom -5577.952567 kJ/mol
# Density = 2.388825 g / cm^3
# Si number density = 23.942746 Si / 1000 Ang^3
#
#
#
# Elastic Constant Matrix: (Units=GPa)
#
#
# Indices 1 2 3 4 5 6 
#
# 1 113.9046 64.0681 35.6910 0.0000 0.0000 0.0000
# 2 64.0681 154.8575 22.1578 0.0000 0.0000 0.0000
# 3 35.6910 22.1578 48.5671 0.0000 0.0000 0.0000
# 4 0.0000 0.0000 0.0000 30.7696 0.0000 0.0000
# 5 0.0000 0.0000 0.0000 0.0000 39.3389 0.0000
# 6 0.0000 0.0000 0.0000 0.0000 0.0000 33.5537
#
#
#
# Elastic Compliance Matrix: (Units=1/GPa)
#
#
# Indices 1 2 3 4 5 6 
#
# 1 0.013908 -0.004591 -0.008126 0.000000 0.000000 0.000000
# 2 -0.004591 0.008424 -0.000469 0.000000 0.000000 0.000000
# 3 -0.008126 -0.000469 0.026776 0.000000 0.000000 0.000000
# 4 0.000000 0.000000 0.000000 0.032500 0.000000 0.000000
# 5 0.000000 0.000000 0.000000 0.000000 0.025420 0.000000
# 6 0.000000 0.000000 0.000000 0.000000 0.000000 0.029803
#
#
# Mechanical properties :
#
#
# Convention : Reuss Voigt Hill
#
# Bulk Modulus (GPa) = 43.98556 62.35147 53.16851
# Shear Modulus (GPa) = 29.27704 33.75992 31.51848
#
# Velocity S-wave (km/s) = 3.50064 3.75911 3.63217
# Velocity P-wave (km/s) = 5.89494 6.70370 6.31229
#
# Compressibility (1/GPa) = 0.02273473
#
# Stress axis : x y z
#
# Youngs Moduli (GPa) = 71.90118 118.70497 37.34717
#
# Poissons Ratio (x) = 0.54502 0.30348
# Poissons Ratio (y) = 0.33012 0.01753
# Poissons Ratio (z) = 0.58427 0.05571
#
# Static dielectric constant tensor:
#      x y z
#    x 1.931070 0.000000 0.000000 
#    y 0.000000 1.882510 0.000000 
#    z 0.000000 0.000000 2.180470 
# 
# From -- ./inp_files/17207.got.cif
#   From: 2010.05.17/outbox.cif.g08.bks.cpg/sg59_9_cif.got.tgz:17207.got - 2010.06.03 14:40:33.
