data_PCOD9448741
_publ_section_title
;
Structure prediction by ZEFSAII (Michael W. Deem and Ramdas Pophale) SiO2 
 PCOD9448741
Probable space group: P M M N
;
_chemical_formula_sum "Si O2"
_cell_formula_units_Z 48
_cell_length_a 28.416222
_cell_length_b 7.523031
_cell_length_c 10.033557
_cell_angle_alpha 90.000000
_cell_angle_beta 90.000000
_cell_angle_gamma 90.000000
_cell_volume 2144.934875
_symmetry_space_group_name_H-M "P M M N"
_symmetry_group_IT_number 59
_space_group.IT_coordinate_system_code '2'
_symmetry_cell_setting 'orthorhombic'
loop_
_space_group_symop_operation_xyz
x,y,z
1/2-x,1/2-y,z
1/2+x,-y,-z
-x,1/2+y,-z
-x,-y,-z
1/2+x,1/2+y,-z
1/2-x,y,z
x,1/2-y,z
loop_
_atom_site_type_symbol
_atom_site_label
_atom_site_fract_x
_atom_site_fract_y
_atom_site_fract_z
Si Si1 0.396659 0.965982 0.928436
Si Si2 0.547086 0.958219 0.321714
Si Si3 0.904096 0.541497 0.581826
Si Si4 0.698325 0.464227 0.621114
Si Si5 0.457856 0.953421 0.167859
Si Si6 0.801968 0.466495 0.930609
O O1 0.397069 0.750000 0.931533
O O2 0.346152 0.026082 0.982766
O O3 0.410112 0.025443 0.781500
O O4 0.436777 0.030778 0.032444
O O5 0.536696 0.750000 0.344360
O O6 0.562793 0.032005 0.464240
O O7 0.502176 0.037328 0.244391
O O8 0.913515 0.750000 0.598200
O O9 0.849125 0.521281 0.548375
O O10 0.916422 0.453204 0.722408
O O11 0.750000 0.523702 0.572700
O O12 0.698613 0.250000 0.620071
O O13 0.693714 0.521844 0.775972
O O14 0.470904 0.750000 0.136494
O O15 0.750000 0.520846 0.978220
O O16 0.802832 0.250000 0.930127
#
# Coordination Sequence:
#
# PCOD9448741 Si02
#       6
#     8   8   8   8   8   8
#     4  10  19  33  56  82 104 135 178 224 270 315
#     4  10  23  38  51  74 112 149 177 217 271 323
#     4  11  22  35  53  80 112 145 178 217 269 319
#     4   9  17  33  58  82 105 137 177 222 268 313
#     4  10  20  37  58  78 103 139 187 230 265 313
#     4   8  14  28  52  80 105 128 164 217 267 308
#
# _framework density 22.378302999999999
#
# number of rings (size 3 to 8) (size 9 to 14) (size 15 to 20)
#    0.000    2.333    1.667    2.500    0.000    3.000 
#    0.000    0.833    0.000    3.500    0.000    0.000 
#    0.000    0.000    0.000    0.000    0.000    0.000 
#
# Total GULP energy -268049.801020 kJ/mol
# GULP energy per Si atom -5584.370855 kJ/mol
# Density = 2.232737 g / cm^3
# Si number density = 22.378303 Si / 1000 Ang^3
#
#
#
# Elastic Constant Matrix: (Units=GPa)
#
#
# Indices 1 2 3 4 5 6 
#
# 1 100.7309 1.8342 -6.9413 0.0000 0.0000 0.0000
# 2 1.8342 64.5417 -2.6530 0.0000 0.0000 0.0000
# 3 -6.9413 -2.6530 53.5518 0.0000 0.0000 0.0000
# 4 0.0000 0.0000 0.0000 10.0441 0.0000 0.0000
# 5 0.0000 0.0000 0.0000 0.0000 18.6251 0.0000
# 6 0.0000 0.0000 0.0000 0.0000 0.0000 7.0563
#
#
#
# Elastic Compliance Matrix: (Units=1/GPa)
#
#
# Indices 1 2 3 4 5 6 
#
# 1 0.010020 -0.000232 0.001287 0.000000 0.000000 0.000000
# 2 -0.000232 0.015531 0.000739 0.000000 0.000000 0.000000
# 3 0.001287 0.000739 0.018877 0.000000 0.000000 0.000000
# 4 0.000000 0.000000 0.000000 0.099561 0.000000 0.000000
# 5 0.000000 0.000000 0.000000 0.000000 0.053691 0.000000
# 6 0.000000 0.000000 0.000000 0.000000 0.000000 0.141717
#
#
# Mechanical properties :
#
#
# Convention : Reuss Voigt Hill
#
# Bulk Modulus (GPa) = 20.82556 22.58935 21.70745
# Shear Modulus (GPa) = 14.21209 22.25073 18.23141
#
# Velocity S-wave (km/s) = 2.52282 3.15667 2.85738
# Velocity P-wave (km/s) = 4.22049 4.83760 4.53954
#
# Compressibility (1/GPa) = 0.04801792
#
# Stress axis : x y z
#
# Youngs Moduli (GPa) = 99.79668 64.38798 52.97448
#
# Poissons Ratio (x) = 0.01493 -0.06820
# Poissons Ratio (y) = 0.02314 -0.03917
# Poissons Ratio (z) = -0.12847 -0.04761
#
# Static dielectric constant tensor:
#      x y z
#    x 1.875950 0.000000 0.000000 
#    y 0.000000 1.856200 0.000000 
#    z 0.000000 0.000000 1.779210 
# 
# From -- ./inp_files/6327.got.cif
#   From: 2010.05.17/outbox.cif.g08.bks.cpg/sg59_4_cif.got.tgz:6327.got - 2010.06.03 14:40:33.
