data_PCOD9448656
_publ_section_title
;
Structure prediction by ZEFSAII (Michael W. Deem and Ramdas Pophale) SiO2 
 PCOD9448656
Probable space group: P M M N
;
_chemical_formula_sum "Si O2"
_cell_formula_units_Z 64
_cell_length_a 8.775640
_cell_length_b 20.209237
_cell_length_c 20.676709
_cell_angle_alpha 90.000000
_cell_angle_beta 90.000000
_cell_angle_gamma 90.000000
_cell_volume 3666.993428
_symmetry_space_group_name_H-M "P M M N"
_symmetry_group_IT_number 59
_space_group.IT_coordinate_system_code '2'
_symmetry_cell_setting 'orthorhombic'
loop_
_space_group_symop_operation_xyz
x,y,z
1/2-x,1/2-y,z
1/2+x,-y,-z
-x,1/2+y,-z
-x,-y,-z
1/2+x,1/2+y,-z
1/2-x,y,z
x,1/2-y,z
loop_
_atom_site_type_symbol
_atom_site_label
_atom_site_fract_x
_atom_site_fract_y
_atom_site_fract_z
Si Si1 0.433014 0.574814 0.725241
Si Si2 0.065838 0.326248 0.663565
Si Si3 0.430869 0.593159 0.947662
Si Si4 0.432086 0.591795 0.451725
Si Si5 0.932135 0.559153 0.586364
Si Si6 0.567292 0.561242 0.081439
Si Si7 0.064581 0.071273 0.773427
Si Si8 0.567718 0.673175 0.831165
O O1 0.250000 0.576179 0.724839
O O2 0.495689 0.583470 0.653011
O O3 0.482376 0.501834 0.750112
O O4 0.494445 0.629394 0.774512
O O5 0.250000 0.330395 0.659795
O O6 0.024076 0.250000 0.673986
O O7 0.014882 0.373464 0.722430
O O8 0.997077 0.354697 0.597593
O O9 0.250000 0.602939 0.943847
O O10 0.463383 0.517557 0.924928
O O11 0.513229 0.642695 0.899132
O O12 0.487630 0.596717 0.021357
O O13 0.250000 0.596023 0.456025
O O14 0.471770 0.518718 0.423615
O O15 0.503669 0.595352 0.522968
O O16 0.750000 0.564836 0.588598
O O17 0.750000 0.569757 0.075772
O O18 0.516336 0.583114 0.152699
O O19 0.250000 0.071181 0.774050
O O20 0.750000 0.668529 0.826853
O O21 0.523333 0.750000 0.825981
#
# Coordination Sequence:
#
# PCOD9448656 Si02
#       8
#     8   8   8   8   8   8   8   8
#     4  11  20  35  59  85 113 146 186 235 282 331
#     4  10  20  35  56  81 112 151 189 229 280 336
#     4  10  19  33  54  82 110 143 184 229 278 329
#     4  10  20  34  54  81 111 146 184 228 277 328
#     4  10  20  34  55  84 113 142 181 230 281 331
#     4   9  17  32  53  80 112 144 180 228 279 325
#     4   9  17  32  54  81 112 146 187 230 274 328
#     4  11  24  40  57  80 113 151 188 230 284 346
#
# _framework density 17.452991000000001
#
# number of rings (size 3 to 8) (size 9 to 14) (size 15 to 20)
#    0.000    2.000    2.500    1.875    0.000    2.750 
#    0.000    1.875    0.000    6.000    0.000    0.000 
#    0.000    0.000    0.000    0.000    0.000    0.000 
#
# Total GULP energy -357276.103038 kJ/mol
# GULP energy per Si atom -5582.439110 kJ/mol
# Density = 1.741327 g / cm^3
# Si number density = 17.452991 Si / 1000 Ang^3
#
#
#
# Elastic Constant Matrix: (Units=GPa)
#
#
# Indices 1 2 3 4 5 6 
#
# 1 34.5697 43.3529 44.1549 0.0000 0.0000 0.0000
# 2 43.3529 112.1103 83.7692 0.0000 0.0000 0.0000
# 3 44.1549 83.7692 177.4803 0.0000 0.0000 0.0000
# 4 0.0000 0.0000 0.0000 24.0522 0.0000 0.0000
# 5 0.0000 0.0000 0.0000 0.0000 29.9121 0.0000
# 6 0.0000 0.0000 0.0000 0.0000 0.0000 21.7927
#
#
#
# Elastic Compliance Matrix: (Units=1/GPa)
#
#
# Indices 1 2 3 4 5 6 
#
# 1 0.060237 -0.018686 -0.006167 0.000000 0.000000 0.000000
# 2 -0.018686 0.019576 -0.004591 0.000000 0.000000 0.000000
# 3 -0.006167 -0.004591 0.009335 0.000000 0.000000 0.000000
# 4 0.000000 0.000000 0.000000 0.041576 0.000000 0.000000
# 5 0.000000 0.000000 0.000000 0.000000 0.033431 0.000000
# 6 0.000000 0.000000 0.000000 0.000000 0.000000 0.045887
#
#
# Mechanical properties :
#
#
# Convention : Reuss Voigt Hill
#
# Bulk Modulus (GPa) = 33.04513 74.07936 53.56225
# Shear Modulus (GPa) = 17.92009 25.34363 21.63186
#
# Velocity S-wave (km/s) = 3.20779 3.81479 3.52438
# Velocity P-wave (km/s) = 5.71794 7.87024 6.87879
#
# Compressibility (1/GPa) = 0.03026165
#
# Stress axis : x y z
#
# Youngs Moduli (GPa) = 16.60111 51.08335 107.11856
#
# Poissons Ratio (x) = 0.95453 0.66056
# Poissons Ratio (y) = 0.31021 0.49176
# Poissons Ratio (z) = 0.10237 0.23452
#
# Static dielectric constant tensor:
#      x y z
#    x 1.581210 0.000000 0.000000 
#    y 0.000000 1.577030 0.000000 
#    z 0.000000 0.000000 1.580770 
# 
# From -- ./inp_files/29424.got.cif
#   From: 2010.05.17/outbox.cif.g08.bks.cpg/sg59_15_cif.got.tgz:29424.got - 2010.06.03 14:40:33.
