data_PCOD9448672
_publ_section_title
;
Structure prediction by ZEFSAII (Michael W. Deem and Ramdas Pophale) SiO2 
 PCOD9448672
Probable space group: P M M N
;
_chemical_formula_sum "Si O2"
_cell_formula_units_Z 64
_cell_length_a 8.588189
_cell_length_b 14.731383
_cell_length_c 26.440394
_cell_angle_alpha 90.000000
_cell_angle_beta 90.000000
_cell_angle_gamma 90.000000
_cell_volume 3345.130281
_symmetry_space_group_name_H-M "P M M N"
_symmetry_group_IT_number 59
_space_group.IT_coordinate_system_code '2'
_symmetry_cell_setting 'orthorhombic'
loop_
_space_group_symop_operation_xyz
x,y,z
1/2-x,1/2-y,z
1/2+x,-y,-z
-x,1/2+y,-z
-x,-y,-z
1/2+x,1/2+y,-z
1/2-x,y,z
x,1/2-y,z
loop_
_atom_site_type_symbol
_atom_site_label
_atom_site_fract_x
_atom_site_fract_y
_atom_site_fract_z
Si Si1 0.063930 0.097412 0.985023
Si Si2 0.439537 0.353576 0.871706
Si Si3 0.062105 0.035163 0.774224
Si Si4 0.440045 0.355065 0.675103
Si Si5 0.080239 0.853764 0.912655
Si Si6 0.938158 0.354954 0.475116
Si Si7 0.561532 0.541823 0.426395
Si Si8 0.934686 0.644917 0.808258
O O1 0.250000 0.102796 0.985347
O O2 0.008812 0.122602 0.928770
O O3 0.998361 0.150423 0.032944
O O4 0.000000 0.000000 0.000000
O O5 0.250000 0.357544 0.872621
O O6 0.483544 0.250000 0.860628
O O7 0.492803 0.418114 0.826501
O O8 0.250000 0.035731 0.775085
O O9 0.010590 0.095389 0.726675
O O10 0.008017 0.931135 0.772519
O O11 0.250000 0.353556 0.675339
O O12 0.491184 0.250000 0.672145
O O13 0.488195 0.414577 0.626715
O O14 0.250000 0.900958 0.915085
O O15 0.103292 0.750000 0.898782
O O16 0.980681 0.886990 0.865382
O O17 0.750000 0.352968 0.475565
O O18 0.990611 0.250000 0.466452
O O19 0.985128 0.436366 0.436306
O O20 0.997164 0.394614 0.528652
O O21 0.750000 0.544583 0.428660
O O22 0.750000 0.643411 0.804178
O O23 0.984654 0.750000 0.799118
#
# Coordination Sequence:
#
# PCOD9448672 Si02
#       8
#     8   8   8   8   8   8   8   8
#     4  11  21  32  48  70  98 131 167 207 253 307
#     4   9  18  32  50  72  98 130 166 202 245 300
#     4  10  19  33  55  79 101 128 167 214 257 298
#     4   9  17  30  51  79 107 135 171 215 259 303
#     4  10  20  34  52  73  96 122 156 200 249 304
#     4   9  17  29  46  71 105 142 178 219 267 313
#     4   9  17  30  49  74 104 140 181 220 259 308
#     4  10  21  37  56  76 100 132 167 205 254 311
#
# _framework density 19.132289
#
# number of rings (size 3 to 8) (size 9 to 14) (size 15 to 20)
#    0.000    2.375    0.000    3.000    0.000    5.250 
#    0.000    1.875    0.000    6.000    0.000    0.000 
#    0.000    0.000    0.000    0.000    0.000    0.000 
#
# Total GULP energy -356508.546429 kJ/mol
# GULP energy per Si atom -5570.446038 kJ/mol
# Density = 1.908874 g / cm^3
# Si number density = 19.132289 Si / 1000 Ang^3
#
#
#
# Elastic Constant Matrix: (Units=GPa)
#
#
# Indices 1 2 3 4 5 6 
#
# 1 12.3133 16.5750 10.1267 0.0000 0.0000 0.0000
# 2 16.5750 177.0734 80.5568 0.0000 0.0000 0.0000
# 3 10.1267 80.5568 105.4479 0.0000 0.0000 0.0000
# 4 0.0000 0.0000 0.0000 30.4179 0.0000 0.0000
# 5 0.0000 0.0000 0.0000 0.0000 17.5794 0.0000
# 6 0.0000 0.0000 0.0000 0.0000 0.0000 21.4460
#
#
#
# Elastic Compliance Matrix: (Units=1/GPa)
#
#
# Indices 1 2 3 4 5 6 
#
# 1 0.093769 -0.007174 -0.003525 0.000000 0.000000 0.000000
# 2 -0.007174 0.009204 -0.006343 0.000000 0.000000 0.000000
# 3 -0.003525 -0.006343 0.014667 0.000000 0.000000 0.000000
# 4 0.000000 0.000000 0.000000 0.032875 0.000000 0.000000
# 5 0.000000 0.000000 0.000000 0.000000 0.056885 0.000000
# 6 0.000000 0.000000 0.000000 0.000000 0.000000 0.046629
#
#
# Mechanical properties :
#
#
# Convention : Reuss Voigt Hill
#
# Bulk Modulus (GPa) = 11.96773 56.59459 34.28116
# Shear Modulus (GPa) = 15.82456 26.39372 21.10914
#
# Velocity S-wave (km/s) = 2.87908 3.71824 3.32524
# Velocity P-wave (km/s) = 4.16184 6.93388 5.71837
#
# Compressibility (1/GPa) = 0.08355807
#
# Stress axis : x y z
#
# Youngs Moduli (GPa) = 10.66455 108.64345 68.17837
#
# Poissons Ratio (x) = 0.77938 0.24031
# Poissons Ratio (y) = 0.07650 0.43244
# Poissons Ratio (z) = 0.03759 0.68910
#
# Static dielectric constant tensor:
#      x y z
#    x 1.669980 0.000000 0.000000 
#    y 0.000000 1.673770 0.000000 
#    z 0.000000 0.000000 1.715120 
# 
# From -- ./inp_files/31656.got.cif
#   From: 2010.05.17/outbox.cif.g08.bks.cpg/sg59_16_cif.got.tgz:31656.got - 2010.06.03 14:40:33.
