data_PCOD9448403
_publ_section_title
;
Structure prediction by ZEFSAII (Michael W. Deem and Ramdas Pophale) SiO2 
 PCOD9448403
Probable space group: P M M N
;
_chemical_formula_sum "Si O2"
_cell_formula_units_Z 64
_cell_length_a 7.713011
_cell_length_b 16.092217
_cell_length_c 24.614384
_cell_angle_alpha 90.000000
_cell_angle_beta 90.000000
_cell_angle_gamma 90.000000
_cell_volume 3055.123724
_symmetry_space_group_name_H-M "P M M N"
_symmetry_group_IT_number 59
_space_group.IT_coordinate_system_code '2'
_symmetry_cell_setting 'orthorhombic'
loop_
_space_group_symop_operation_xyz
x,y,z
1/2-x,1/2-y,z
1/2+x,-y,-z
-x,1/2+y,-z
-x,-y,-z
1/2+x,1/2+y,-z
1/2-x,y,z
x,1/2-y,z
loop_
_atom_site_type_symbol
_atom_site_label
_atom_site_fract_x
_atom_site_fract_y
_atom_site_fract_z
Si Si1 0.041618 0.343372 0.562761
Si Si2 0.042187 0.002078 0.757359
Si Si3 0.040997 0.159411 0.173092
Si Si4 0.040857 0.404647 0.057543
Si Si5 0.463064 0.499922 0.633209
Si Si6 0.546099 0.659861 0.176441
Si Si7 0.958443 0.156639 0.436901
Si Si8 0.454771 0.903828 0.061420
O O1 0.250000 0.341084 0.567856
O O2 0.976143 0.250000 0.575290
O O3 0.979182 0.417341 0.601260
O O4 0.000297 0.361194 0.499816
O O5 0.250000 0.010408 0.754833
O O6 0.972348 0.080422 0.791767
O O7 0.978888 0.000652 0.695552
O O8 0.007159 0.916852 0.788801
O O9 0.250000 0.161122 0.171270
O O10 0.979275 0.250000 0.191719
O O11 0.980594 0.142136 0.111379
O O12 0.250000 0.405751 0.057991
O O13 0.978905 0.500606 0.061423
O O14 0.987368 0.370052 0.998991
O O15 0.250000 0.500193 0.632624
O O16 0.521250 0.582799 0.601660
O O17 0.750000 0.663046 0.189746
O O18 0.469571 0.750000 0.190059
O O19 0.532439 0.644356 0.112034
O O20 0.750000 0.158826 0.432045
O O21 0.023830 0.250000 0.424309
O O22 0.250000 0.906406 0.070675
#
# Coordination Sequence:
#
# PCOD9448403 Si02
#       8
#     8   8   8   8   8   8   8   8
#     4   9  17  30  50  76 105 134 166 207 252 298
#     4  10  21  37  56  77 103 136 180 226 260 301
#     4  10  21  38  58  78 104 139 174 211 263 320
#     4   9  18  33  53  78 108 138 167 205 259 319
#     4   9  18  32  51  75 101 133 171 210 254 300
#     4  10  21  36  54  76 104 139 176 216 266 318
#     4   9  17  30  49  73 103 136 167 202 248 302
#     4  10  19  32  54  81 107 135 170 213 260 313
#
# _framework density 20.948416000000002
#
# number of rings (size 3 to 8) (size 9 to 14) (size 15 to 20)
#    0.000    2.500    1.250    0.750    0.000    3.000 
#    0.000    6.250    0.000    1.500    0.000    1.750 
#    0.000    0.000    0.000    0.000    0.000    0.000 
#
# Total GULP energy -357272.176014 kJ/mol
# GULP energy per Si atom -5582.377750 kJ/mol
# Density = 2.090074 g / cm^3
# Si number density = 20.948416 Si / 1000 Ang^3
#
#
#
# Elastic Constant Matrix: (Units=GPa)
#
#
# Indices 1 2 3 4 5 6 
#
# 1 32.8964 8.0772 0.7980 0.0000 0.0000 0.0000
# 2 8.0772 188.6547 125.8818 0.0000 0.0000 0.0000
# 3 0.7980 125.8818 159.9868 0.0000 0.0000 0.0000
# 4 0.0000 0.0000 0.0000 -9.0385 0.0000 0.0000
# 5 0.0000 0.0000 0.0000 0.0000 -16.5999 0.0000
# 6 0.0000 0.0000 0.0000 0.0000 0.0000 8.0112
#
#
#
# Elastic Compliance Matrix: (Units=1/GPa)
#
#
# Indices 1 2 3 4 5 6 
#
# 1 0.030985 -0.002576 0.001872 0.000000 0.000000 0.000000
# 2 -0.002576 0.011374 -0.008936 0.000000 0.000000 0.000000
# 3 0.001872 -0.008936 0.013273 0.000000 0.000000 0.000000
# 4 0.000000 0.000000 0.000000 -0.110637 0.000000 0.000000
# 5 0.000000 0.000000 0.000000 0.000000 -0.060241 0.000000
# 6 0.000000 0.000000 0.000000 0.000000 0.000000 0.124825
#
#
# Mechanical properties :
#
#
# Convention : Reuss Voigt Hill
#
# Bulk Modulus (GPa) = 27.50896 72.33912 49.92404
# Shear Modulus (GPa) = 122.02222 12.92661 67.47441
#
# Velocity S-wave (km/s) = 7.64038 2.48678 5.68152
# Velocity P-wave (km/s) = 9.53908 6.54618 8.18066
#
# Compressibility (1/GPa) = 0.03635179
#
# Stress axis : x y z
#
# Youngs Moduli (GPa) = 32.27317 87.92043 75.34312
#
# Poissons Ratio (x) = 0.22648 -0.14106
# Poissons Ratio (y) = 0.08313 0.67330
# Poissons Ratio (z) = -0.06042 0.78570
#
# Static dielectric constant tensor:
#      x y z
#    x 1.775230 0.000000 0.000000 
#    y 0.000000 1.772930 0.000000 
#    z 0.000000 0.000000 1.710900 
# 
# From -- ./inp_files/31702.got.cif
#   From: 2010.05.17/outbox.cif.g08.bks.cpg/sg59_16_cif.got.tgz:31702.got - 2010.06.03 14:40:33.
