data_PCOD9448166
_publ_section_title
;
Structure prediction by ZEFSAII (Michael W. Deem and Ramdas Pophale) SiO2 
 PCOD9448166
Probable space group: P M M N
;
_chemical_formula_sum "Si O2"
_cell_formula_units_Z 64
_cell_length_a 9.027414
_cell_length_b 21.013400
_cell_length_c 20.981360
_cell_angle_alpha 90.000000
_cell_angle_beta 90.000000
_cell_angle_gamma 90.000000
_cell_volume 3980.093943
_symmetry_space_group_name_H-M "P M M N"
_symmetry_group_IT_number 59
_space_group.IT_coordinate_system_code '2'
_symmetry_cell_setting 'orthorhombic'
loop_
_space_group_symop_operation_xyz
x,y,z
1/2-x,1/2-y,z
1/2+x,-y,-z
-x,1/2+y,-z
-x,-y,-z
1/2+x,1/2+y,-z
1/2-x,y,z
x,1/2-y,z
loop_
_atom_site_type_symbol
_atom_site_label
_atom_site_fract_x
_atom_site_fract_y
_atom_site_fract_z
Si Si1 0.581365 0.991372 0.810306
Si Si2 0.927870 0.322285 0.483933
Si Si3 0.928340 0.554753 0.455691
Si Si4 0.571355 0.037540 0.058427
Si Si5 0.075373 0.005320 0.681918
Si Si6 0.076325 0.853605 0.661315
Si Si7 0.927498 0.318363 0.082032
Si Si8 0.917575 0.660034 0.787345
O O1 0.750000 0.013036 0.821411
O O2 0.510705 0.021603 0.746823
O O3 0.486455 0.992825 0.875109
O O4 0.585096 0.916460 0.793243
O O5 0.750000 0.332160 0.489879
O O6 0.961983 0.250000 0.503841
O O7 0.963322 0.330187 0.408880
O O8 0.013150 0.377139 0.521261
O O9 0.750000 0.550360 0.460646
O O10 0.969754 0.542253 0.381942
O O11 0.000000 0.500000 0.500000
O O12 0.750000 0.035094 0.056610
O O13 0.523404 0.112511 0.055957
O O14 0.500000 0.000000 0.000000
O O15 0.250000 0.015391 0.693262
O O16 0.057801 0.930238 0.665044
O O17 0.250000 0.839807 0.672220
O O18 0.981354 0.824714 0.718256
O O19 0.750000 0.319132 0.078859
O O20 0.978546 0.250000 0.053664
O O21 0.978903 0.318270 0.155325
O O22 0.750000 0.681790 0.796142
#
# Coordination Sequence:
#
# PCOD9448166 Si02
#       8
#     8   8   8   8   8   8   8   8
#     4   9  17  29  46  71 100 127 159 199 241 288
#     4  10  21  36  50  67  95 130 168 210 258 311
#     4  11  21  34  53  75  99 127 167 213 260 308
#     4  10  19  32  51  74 102 134 165 201 241 287
#     4   9  17  30  48  70  96 126 161 205 250 295
#     4   9  16  29  45  63  91 128 166 199 238 289
#     4   9  18  32  48  66  91 128 169 200 231 277
#     4   9  17  27  41  65  94 123 158 200 239 274
#
# _framework density 16.080023000000001
#
# number of rings (size 3 to 8) (size 9 to 14) (size 15 to 20)
#    0.000    2.500    1.250    1.500    0.000    6.000 
#    0.000    1.250    0.000    0.000    0.000    0.875 
#    0.000    5.000    0.000    0.000    0.000    0.000 
#
# Total GULP energy -356625.271907 kJ/mol
# GULP energy per Si atom -5572.269874 kJ/mol
# Density = 1.604342 g / cm^3
# Si number density = 16.080023 Si / 1000 Ang^3
#
#
#
# Elastic Constant Matrix: (Units=GPa)
#
#
# Indices 1 2 3 4 5 6 
#
# 1 41.9807 30.6900 45.1712 0.0000 0.0000 0.0000
# 2 30.6900 78.6965 55.6252 0.0000 0.0000 0.0000
# 3 45.1712 55.6252 112.0813 0.0000 0.0000 0.0000
# 4 0.0000 0.0000 0.0000 5.8897 0.0000 0.0000
# 5 0.0000 0.0000 0.0000 0.0000 29.1612 0.0000
# 6 0.0000 0.0000 0.0000 0.0000 0.0000 10.5544
#
#
#
# Elastic Compliance Matrix: (Units=1/GPa)
#
#
# Indices 1 2 3 4 5 6 
#
# 1 0.044570 -0.007216 -0.014381 0.000000 0.000000 0.000000
# 2 -0.007216 0.020742 -0.007386 0.000000 0.000000 0.000000
# 3 -0.014381 -0.007386 0.018384 0.000000 0.000000 0.000000
# 4 0.000000 0.000000 0.000000 0.169788 0.000000 0.000000
# 5 0.000000 0.000000 0.000000 0.000000 0.034292 0.000000
# 6 0.000000 0.000000 0.000000 0.000000 0.000000 0.094747
#
#
# Mechanical properties :
#
#
# Convention : Reuss Voigt Hill
#
# Bulk Modulus (GPa) = 38.86682 55.08125 46.97404
# Shear Modulus (GPa) = 11.13423 15.87253 13.50338
#
# Velocity S-wave (km/s) = 2.63425 3.14522 2.90101
# Velocity P-wave (km/s) = 5.78582 6.89338 6.36374
#
# Compressibility (1/GPa) = 0.02572889
#
# Stress axis : x y z
#
# Youngs Moduli (GPa) = 22.43652 48.21223 54.39642
#
# Poissons Ratio (x) = 0.34791 0.78230
# Poissons Ratio (y) = 0.16191 0.40175
# Poissons Ratio (z) = 0.32267 0.35608
#
# Static dielectric constant tensor:
#      x y z
#    x 1.547310 0.000000 0.000000 
#    y 0.000000 1.562920 0.000000 
#    z 0.000000 0.000000 1.517680 
# 
# From -- ./inp_files/29775.got.cif
#   From: 2010.05.17/outbox.cif.g08.bks.cpg/sg59_15_cif.got.tgz:29775.got - 2010.06.03 14:40:33.
