data_PCOD9448738
_publ_section_title
;
Structure prediction by ZEFSAII (Michael W. Deem and Ramdas Pophale) SiO2 
 PCOD9448738
Probable space group: P M M N
;
_chemical_formula_sum "Si O2"
_cell_formula_units_Z 64
_cell_length_a 9.033281
_cell_length_b 22.514258
_cell_length_c 17.977194
_cell_angle_alpha 90.000000
_cell_angle_beta 90.000000
_cell_angle_gamma 90.000000
_cell_volume 3656.158912
_symmetry_space_group_name_H-M "P M M N"
_symmetry_group_IT_number 59
_space_group.IT_coordinate_system_code '2'
_symmetry_cell_setting 'orthorhombic'
loop_
_space_group_symop_operation_xyz
x,y,z
1/2-x,1/2-y,z
1/2+x,-y,-z
-x,1/2+y,-z
-x,-y,-z
1/2+x,1/2+y,-z
1/2-x,y,z
x,1/2-y,z
loop_
_atom_site_type_symbol
_atom_site_label
_atom_site_fract_x
_atom_site_fract_y
_atom_site_fract_z
Si Si1 0.414042 0.879329 0.757549
Si Si2 0.572458 0.457312 0.934191
Si Si3 0.579904 0.519662 0.225088
Si Si4 0.573264 0.469622 0.620665
Si Si5 0.927253 0.815922 0.627174
Si Si6 0.072294 0.415601 0.478915
Si Si7 0.582754 0.817208 0.878351
Si Si8 0.924070 0.316709 0.967999
O O1 0.250000 0.857781 0.739331
O O2 0.526333 0.851879 0.699430
O O3 0.464721 0.857375 0.837626
O O4 0.415439 0.949620 0.758325
O O5 0.750000 0.467840 0.936419
O O6 0.504171 0.472846 0.853294
O O7 0.551135 0.384721 0.938896
O O8 0.500000 0.500000 0.000000
O O9 0.750000 0.541292 0.218941
O O10 0.499553 0.543625 0.299466
O O11 0.750000 0.465912 0.627459
O O12 0.537820 0.534716 0.584536
O O13 0.510385 0.428294 0.555336
O O14 0.750000 0.813346 0.625787
O O15 0.988609 0.750000 0.629426
O O16 0.973172 0.853089 0.555468
O O17 0.250000 0.418361 0.490661
O O18 0.750000 0.839412 0.868969
O O19 0.576196 0.750000 0.847331
O O20 0.535943 0.814084 0.963366
O O21 0.750000 0.316759 0.990475
O O22 0.942775 0.250000 0.929429
#
# Coordination Sequence:
#
# PCOD9448738 Si02
#       8
#     8   8   8   8   8   8   8   8
#     4  11  22  33  47  70 103 142 181 219 263 316
#     4  11  23  38  58  85 116 149 186 233 288 341
#     4  11  23  37  54  78 110 144 181 227 278 329
#     4  10  19  33  56  81 104 136 176 222 271 318
#     4  10  20  34  52  75 106 144 181 216 260 318
#     4   9  18  33  53  78 108 138 172 217 266 315
#     4  10  20  32  48  71  99 135 178 221 264 315
#     4   9  19  37  58  78 103 138 181 227 278 336
#
# _framework density 17.504708999999998
#
# number of rings (size 3 to 8) (size 9 to 14) (size 15 to 20)
#    0.000    1.875    1.250    3.000    0.000    9.000 
#    0.000    0.000    0.000    0.750    0.000    0.000 
#    0.000    0.000    0.000    0.000    0.000    0.000 
#
# Total GULP energy -356290.520995 kJ/mol
# GULP energy per Si atom -5567.039391 kJ/mol
# Density = 1.746487 g / cm^3
# Si number density = 17.504709 Si / 1000 Ang^3
#
#
#
# Elastic Constant Matrix: (Units=GPa)
#
#
# Indices 1 2 3 4 5 6 
#
# 1 40.0797 27.8200 41.4565 0.0000 0.0000 0.0000
# 2 27.8200 82.4375 35.6988 0.0000 0.0000 0.0000
# 3 41.4565 35.6988 110.0778 0.0000 0.0000 0.0000
# 4 0.0000 0.0000 0.0000 53.4412 0.0000 0.0000
# 5 0.0000 0.0000 0.0000 0.0000 21.7384 0.0000
# 6 0.0000 0.0000 0.0000 0.0000 0.0000 16.9598
#
#
#
# Elastic Compliance Matrix: (Units=1/GPa)
#
#
# Indices 1 2 3 4 5 6 
#
# 1 0.046403 -0.009414 -0.014423 0.000000 0.000000 0.000000
# 2 -0.009414 0.016022 -0.001651 0.000000 0.000000 0.000000
# 3 -0.014423 -0.001651 0.015052 0.000000 0.000000 0.000000
# 4 0.000000 0.000000 0.000000 0.018712 0.000000 0.000000
# 5 0.000000 0.000000 0.000000 0.000000 0.046002 0.000000
# 6 0.000000 0.000000 0.000000 0.000000 0.000000 0.058963
#
#
# Mechanical properties :
#
#
# Convention : Reuss Voigt Hill
#
# Bulk Modulus (GPa) = 37.73325 49.17173 43.45249
# Shear Modulus (GPa) = 19.15989 26.93586 23.04788
#
# Velocity S-wave (km/s) = 3.31200 3.92698 3.63253
# Velocity P-wave (km/s) = 6.01902 6.97948 6.51697
#
# Compressibility (1/GPa) = 0.02650182
#
# Stress axis : x y z
#
# Youngs Moduli (GPa) = 21.55039 62.41388 66.43809
#
# Poissons Ratio (x) = 0.58755 0.95823
# Poissons Ratio (y) = 0.20287 0.10967
# Poissons Ratio (z) = 0.31082 0.10303
#
# Static dielectric constant tensor:
#      x y z
#    x 1.596620 0.000000 0.000000 
#    y 0.000000 1.607400 0.000000 
#    z 0.000000 0.000000 1.585150 
# 
# From -- ./inp_files/26176.got.cif
#   From: 2010.05.17/outbox.cif.g08.bks.cpg/sg59_14_cif.got.tgz:26176.got - 2010.06.03 14:40:33.
