data_PCOD9448384
_publ_section_title
;
Structure prediction by ZEFSAII (Michael W. Deem and Ramdas Pophale) SiO2 
 PCOD9448384
Probable space group: P M M N
;
_chemical_formula_sum "Si O2"
_cell_formula_units_Z 56
_cell_length_a 18.651085
_cell_length_b 15.397238
_cell_length_c 8.580295
_cell_angle_alpha 90.000000
_cell_angle_beta 90.000000
_cell_angle_gamma 90.000000
_cell_volume 2464.047887
_symmetry_space_group_name_H-M "P M M N"
_symmetry_group_IT_number 59
_space_group.IT_coordinate_system_code '2'
_symmetry_cell_setting 'orthorhombic'
loop_
_space_group_symop_operation_xyz
x,y,z
1/2-x,1/2-y,z
1/2+x,-y,-z
-x,1/2+y,-z
-x,-y,-z
1/2+x,1/2+y,-z
1/2-x,y,z
x,1/2-y,z
loop_
_atom_site_type_symbol
_atom_site_label
_atom_site_fract_x
_atom_site_fract_y
_atom_site_fract_z
Si Si1 0.391105 0.990948 0.486085
Si Si2 0.421354 0.349666 0.960601
Si Si3 0.827709 0.944504 0.826266
Si Si4 0.668104 0.371327 0.943323
Si Si5 0.336151 0.657199 0.709077
Si Si6 0.333382 0.148709 0.658505
Si Si7 0.539753 0.148772 0.718859
O O1 0.338938 0.012096 0.341089
O O2 0.388523 0.085467 0.569287
O O3 0.361263 0.925169 0.614499
O O4 0.452717 0.929804 0.406583
O O5 0.438852 0.250000 0.988699
O O6 0.354179 0.355479 0.840930
O O7 0.487283 0.383637 0.857779
O O8 0.396092 0.389792 0.122205
O O9 0.750000 0.899704 0.830864
O O10 0.828538 0.024597 0.945061
O O11 0.750000 0.342168 0.921523
O O12 0.639572 0.344148 0.111685
O O13 0.616977 0.344541 0.803133
O O14 0.250000 0.654983 0.714026
O O15 0.358393 0.750000 0.636711
O O16 0.250000 0.123415 0.634657
O O17 0.341136 0.250000 0.611339
O O18 0.519617 0.250000 0.673158
#
# Coordination Sequence:
#
# PCOD9448384 Si02
#       7
#     8   8   8   8   8   8   8
#     4  11  22  36  58  86 120 154 189 234 297 354
#     4  10  22  40  61  85 114 155 203 244 292 354
#     4  10  20  35  58  86 113 144 189 245 297 346
#     4   9  19  35  57  84 114 153 199 242 289 346
#     4  10  19  32  53  82 115 151 191 233 280 342
#     4  10  21  39  62  86 115 152 196 248 301 354
#     4  10  22  40  60  86 123 160 197 243 291 347
#
# _framework density 22.726831000000001
#
# number of rings (size 3 to 8) (size 9 to 14) (size 15 to 20)
#    0.000    2.000    0.000    3.429    0.000    7.429 
#    0.000    1.429    0.000    3.429    0.000    0.000 
#    0.000    0.000    0.000    0.000    0.000    0.000 
#
# Total GULP energy -312116.929868 kJ/mol
# GULP energy per Si atom -5573.516605 kJ/mol
# Density = 2.267510 g / cm^3
# Si number density = 22.726831 Si / 1000 Ang^3
#
#
#
# Elastic Constant Matrix: (Units=GPa)
#
#
# Indices 1 2 3 4 5 6 
#
# 1 61.3909 -3.8444 1.0997 0.0000 0.0000 0.0000
# 2 -3.8444 77.2796 19.0791 0.0000 0.0000 0.0000
# 3 1.0997 19.0791 54.0077 0.0000 0.0000 0.0000
# 4 0.0000 0.0000 0.0000 20.4279 0.0000 0.0000
# 5 0.0000 0.0000 0.0000 0.0000 12.0669 0.0000
# 6 0.0000 0.0000 0.0000 0.0000 0.0000 13.8205
#
#
#
# Elastic Compliance Matrix: (Units=1/GPa)
#
#
# Indices 1 2 3 4 5 6 
#
# 1 0.016363 0.000982 -0.000680 0.000000 0.000000 0.000000
# 2 0.000982 0.014235 -0.005049 0.000000 0.000000 0.000000
# 3 -0.000680 -0.005049 0.020313 0.000000 0.000000 0.000000
# 4 0.000000 0.000000 0.000000 0.048953 0.000000 0.000000
# 5 0.000000 0.000000 0.000000 0.000000 0.082872 0.000000
# 6 0.000000 0.000000 0.000000 0.000000 0.000000 0.072356
#
#
# Mechanical properties :
#
#
# Convention : Reuss Voigt Hill
#
# Bulk Modulus (GPa) = 24.14445 25.03854 24.59149
# Shear Modulus (GPa) = 17.96033 21.01933 19.48983
#
# Velocity S-wave (km/s) = 2.81422 3.04446 2.93161
# Velocity P-wave (km/s) = 4.60507 4.83730 4.72261
#
# Compressibility (1/GPa) = 0.04141739
#
# Stress axis : x y z
#
# Youngs Moduli (GPa) = 61.11450 70.24764 49.22882
#
# Poissons Ratio (x) = -0.06898 0.03348
# Poissons Ratio (y) = -0.06001 0.24855
# Poissons Ratio (z) = 0.04156 0.35467
#
# Static dielectric constant tensor:
#      x y z
#    x 1.880850 0.000000 0.000000 
#    y 0.000000 1.919750 0.000000 
#    z 0.000000 0.000000 1.843870 
# 
# From -- ./inp_files/11459.got.cif
#   From: 2010.05.17/outbox.cif.g08.bks.cpg/sg59_6_cif.got.tgz:11459.got - 2010.06.03 14:40:33.
