data_PCOD9448923
_publ_section_title
;
Structure prediction by ZEFSAII (Michael W. Deem and Ramdas Pophale) SiO2 
 PCOD9448923
Probable space group: P M M N
;
_chemical_formula_sum "Si O2"
_cell_formula_units_Z 64
_cell_length_a 20.116373
_cell_length_b 8.336849
_cell_length_c 19.273722
_cell_angle_alpha 90.000000
_cell_angle_beta 90.000000
_cell_angle_gamma 90.000000
_cell_volume 3232.341259
_symmetry_space_group_name_H-M "P M M N"
_symmetry_group_IT_number 59
_space_group.IT_coordinate_system_code '2'
_symmetry_cell_setting 'orthorhombic'
loop_
_space_group_symop_operation_xyz
x,y,z
1/2-x,1/2-y,z
1/2+x,-y,-z
-x,1/2+y,-z
-x,-y,-z
1/2+x,1/2+y,-z
1/2-x,y,z
x,1/2-y,z
loop_
_atom_site_type_symbol
_atom_site_label
_atom_site_fract_x
_atom_site_fract_y
_atom_site_fract_z
Si Si1 0.323184 0.436196 0.671803
Si Si2 0.638866 0.061081 0.188234
Si Si3 0.937704 0.441007 0.640677
Si Si4 0.072045 0.934146 0.574228
Si Si5 0.672937 0.559287 0.544233
Si Si6 0.824089 0.445737 0.032572
Si Si7 0.945330 0.056622 0.944329
Si Si8 0.990890 0.054987 0.791822
O O1 0.250000 0.475603 0.642897
O O2 0.337492 0.250000 0.655639
O O3 0.322436 0.462873 0.753754
O O4 0.381851 0.543638 0.641944
O O5 0.654953 0.250000 0.194280
O O6 0.653997 0.008199 0.110029
O O7 0.562095 0.028286 0.203885
O O8 0.931280 0.250000 0.638860
O O9 0.868965 0.514162 0.612813
O O10 0.955229 0.489734 0.719730
O O11 0.001128 0.485520 0.591606
O O12 0.058243 0.750000 0.558501
O O13 0.122328 0.000704 0.515894
O O14 0.750000 0.498119 0.541396
O O15 0.676935 0.750000 0.538237
O O16 0.750000 0.501206 0.019159
O O17 0.824533 0.250000 0.031979
O O18 0.875853 0.501211 0.975428
O O19 0.946778 0.250000 0.945315
O O20 0.956305 0.009667 0.864545
O O21 0.000000 0.000000 0.000000
O O22 0.999544 0.250000 0.790426
#
# Coordination Sequence:
#
# PCOD9448923 Si02
#       8
#     8   8   8   8   8   8   8   8
#     4  11  23  37  53  79 120 164 199 238 292 352
#     4  11  20  32  54  81 112 152 197 243 291 353
#     4  11  23  41  64  90 123 160 202 251 299 354
#     4  12  24  39  63  93 123 157 199 245 293 352
#     4  11  25  45  67  91 121 158 199 247 305 360
#     4   9  18  32  51  79 114 149 190 241 294 347
#     4  10  19  34  56  82 112 150 194 240 291 344
#     4  10  21  36  57  85 118 153 196 247 298 354
#
# _framework density 19.799889
#
# number of rings (size 3 to 8) (size 9 to 14) (size 15 to 20)
#    0.000    1.375    2.500    3.750    0.000    4.500 
#    0.000    0.625    0.000    3.375    0.000    0.000 
#    0.000    0.000    0.000    0.000    0.000    0.000 
#
# Total GULP energy -357365.651577 kJ/mol
# GULP energy per Si atom -5583.838306 kJ/mol
# Density = 1.975482 g / cm^3
# Si number density = 19.799889 Si / 1000 Ang^3
#
#
#
# Elastic Constant Matrix: (Units=GPa)
#
#
# Indices 1 2 3 4 5 6 
#
# 1 115.8523 12.3959 71.4284 0.0000 0.0000 0.0000
# 2 12.3959 27.4850 9.8231 0.0000 0.0000 0.0000
# 3 71.4284 9.8231 111.5923 0.0000 0.0000 0.0000
# 4 0.0000 0.0000 0.0000 23.3894 0.0000 0.0000
# 5 0.0000 0.0000 0.0000 0.0000 20.0238 0.0000
# 6 0.0000 0.0000 0.0000 0.0000 0.0000 22.2071
#
#
#
# Elastic Compliance Matrix: (Units=1/GPa)
#
#
# Indices 1 2 3 4 5 6 
#
# 1 0.014550 -0.003339 -0.009019 0.000000 0.000000 0.000000
# 2 -0.003339 0.038331 -0.001237 0.000000 0.000000 0.000000
# 3 -0.009019 -0.001237 0.014843 0.000000 0.000000 0.000000
# 4 0.000000 0.000000 0.000000 0.042754 0.000000 0.000000
# 5 0.000000 0.000000 0.000000 0.000000 0.049941 0.000000
# 6 0.000000 0.000000 0.000000 0.000000 0.000000 0.045031
#
#
# Mechanical properties :
#
#
# Convention : Reuss Voigt Hill
#
# Bulk Modulus (GPa) = 24.67048 49.13604 36.90326
# Shear Modulus (GPa) = 20.31277 23.87622 22.09449
#
# Velocity S-wave (km/s) = 3.20645 3.47634 3.34412
# Velocity P-wave (km/s) = 5.11814 6.40183 5.79564
#
# Compressibility (1/GPa) = 0.04053427
#
# Stress axis : x y z
#
# Youngs Moduli (GPa) = 68.73059 26.08834 67.37160
#
# Poissons Ratio (x) = 0.08710 0.60763
# Poissons Ratio (y) = 0.22946 0.08336
# Poissons Ratio (z) = 0.61989 0.03228
#
# Static dielectric constant tensor:
#      x y z
#    x 1.712740 0.000000 0.000000 
#    y 0.000000 1.685780 0.000000 
#    z 0.000000 0.000000 1.738830 
# 
# From -- ./inp_files/28266.got.cif
#   From: 2010.05.17/outbox.cif.g08.bks.cpg/sg59_15_cif.got.tgz:28266.got - 2010.06.03 14:40:33.
