data_PCOD9448646
_publ_section_title
;
Structure prediction by ZEFSAII (Michael W. Deem and Ramdas Pophale) SiO2 
 PCOD9448646
Probable space group: P M M N
;
_chemical_formula_sum "Si O2"
_cell_formula_units_Z 56
_cell_length_a 8.907483
_cell_length_b 15.050569
_cell_length_c 22.127418
_cell_angle_alpha 90.000000
_cell_angle_beta 90.000000
_cell_angle_gamma 90.000000
_cell_volume 2966.461125
_symmetry_space_group_name_H-M "P M M N"
_symmetry_group_IT_number 59
_space_group.IT_coordinate_system_code '2'
_symmetry_cell_setting 'orthorhombic'
loop_
_space_group_symop_operation_xyz
x,y,z
1/2-x,1/2-y,z
1/2+x,-y,-z
-x,1/2+y,-z
-x,-y,-z
1/2+x,1/2+y,-z
1/2-x,y,z
x,1/2-y,z
loop_
_atom_site_type_symbol
_atom_site_label
_atom_site_fract_x
_atom_site_fract_y
_atom_site_fract_z
Si Si1 0.432669 0.847767 0.304580
Si Si2 0.431126 0.146088 0.994219
Si Si3 0.429278 0.012489 0.224015
Si Si4 0.076220 0.606924 0.438759
Si Si5 0.429777 0.983907 0.907762
Si Si6 0.078466 0.852807 0.686793
Si Si7 0.078164 0.391737 0.437833
O O1 0.250000 0.852783 0.307146
O O2 0.476020 0.750000 0.283808
O O3 0.482846 0.862179 0.373723
O O4 0.481644 0.923960 0.259197
O O5 0.250000 0.145179 0.000179
O O6 0.476950 0.250000 0.987818
O O7 0.502384 0.095657 0.051661
O O8 0.469756 0.079198 0.938813
O O9 0.250000 0.009220 0.216295
O O10 0.506702 0.020855 0.159476
O O11 0.473921 0.091544 0.268912
O O12 0.250000 0.635151 0.445160
O O13 0.074783 0.499480 0.437251
O O14 0.984662 0.636856 0.497196
O O15 0.250000 0.976642 0.907792
O O16 0.250000 0.885602 0.690733
O O17 0.075557 0.750000 0.704223
O O18 0.021222 0.860929 0.618168
O O19 0.250000 0.363573 0.429504
#
# Coordination Sequence:
#
# PCOD9448646 Si02
#       7
#     8   8   8   8   8   8   8
#     4   9  18  34  56  81 109 143 186 233 280 335
#     4   9  19  38  63  90 121 156 193 232 273 320
#     4  11  22  39  60  84 115 152 192 232 279 334
#     4   9  17  32  53  79 109 144 183 227 283 343
#     4  10  21  37  59  89 121 155 190 230 279 328
#     4  11  24  40  58  80 107 145 192 240 293 347
#     4  10  19  33  54  81 109 141 183 233 289 347
#
# _framework density 18.877713
#
# number of rings (size 3 to 8) (size 9 to 14) (size 15 to 20)
#    0.000    2.143    1.429    1.714    0.000    4.286 
#    0.000    1.429    0.000    3.000    0.000    0.000 
#    0.000    0.000    0.000    0.000    0.000    0.000 
#
# Total GULP energy -312609.631621 kJ/mol
# GULP energy per Si atom -5582.314850 kJ/mol
# Density = 1.883475 g / cm^3
# Si number density = 18.877713 Si / 1000 Ang^3
#
#
#
# Elastic Constant Matrix: (Units=GPa)
#
#
# Indices 1 2 3 4 5 6 
#
# 1 25.9416 11.4454 5.5688 0.0000 0.0000 0.0000
# 2 11.4454 87.3285 15.6307 0.0000 0.0000 0.0000
# 3 5.5688 15.6307 82.6956 0.0000 0.0000 0.0000
# 4 0.0000 0.0000 0.0000 -155.4035 0.0000 0.0000
# 5 0.0000 0.0000 0.0000 0.0000 16.4030 0.0000
# 6 0.0000 0.0000 0.0000 0.0000 0.0000 19.6741
#
#
#
# Elastic Compliance Matrix: (Units=1/GPa)
#
#
# Indices 1 2 3 4 5 6 
#
# 1 0.041175 -0.005072 -0.001814 0.000000 0.000000 0.000000
# 2 -0.005072 0.012477 -0.002017 0.000000 0.000000 0.000000
# 3 -0.001814 -0.002017 0.012596 0.000000 0.000000 0.000000
# 4 0.000000 0.000000 0.000000 -0.006435 0.000000 0.000000
# 5 0.000000 0.000000 0.000000 0.000000 0.060964 0.000000
# 6 0.000000 0.000000 0.000000 0.000000 0.000000 0.050828
#
#
# Mechanical properties :
#
#
# Convention : Reuss Voigt Hill
#
# Bulk Modulus (GPa) = 20.64304 29.02838 24.83571
# Shear Modulus (GPa) = 24.32402 -12.97721 5.67340
#
# Velocity S-wave (km/s) = 3.59347 -2.62474 1.73547
# Velocity P-wave (km/s) = 5.30813 2.49494 4.14735
#
# Compressibility (1/GPa) = 0.04844248
#
# Stress axis : x y z
#
# Youngs Moduli (GPa) = 24.28648 80.14943 79.39096
#
# Poissons Ratio (x) = 0.40650 0.14403
# Poissons Ratio (y) = 0.12318 0.16011
# Poissons Ratio (z) = 0.04406 0.16164
#
# Static dielectric constant tensor:
#      x y z
#    x 1.639320 0.000000 0.000000 
#    y 0.000000 1.673250 0.000000 
#    z 0.000000 0.000000 1.615540 
# 
# From -- ./inp_files/29134.got.cif
#   From: 2010.05.17/outbox.cif.g08.bks.cpg/sg59_15_cif.got.tgz:29134.got - 2010.06.03 14:40:33.
