data_PCOD9448991
_publ_section_title
;
Structure prediction by ZEFSAII (Michael W. Deem and Ramdas Pophale) SiO2 
 PCOD9448991
Probable space group: P M M N
;
_chemical_formula_sum "Si O2"
_cell_formula_units_Z 40
_cell_length_a 7.966368
_cell_length_b 9.190086
_cell_length_c 29.777284
_cell_angle_alpha 90.000000
_cell_angle_beta 90.000000
_cell_angle_gamma 90.000000
_cell_volume 2180.042815
_symmetry_space_group_name_H-M "P M M N"
_symmetry_group_IT_number 59
_space_group.IT_coordinate_system_code '2'
_symmetry_cell_setting 'orthorhombic'
loop_
_space_group_symop_operation_xyz
x,y,z
1/2-x,1/2-y,z
1/2+x,-y,-z
-x,1/2+y,-z
-x,-y,-z
1/2+x,1/2+y,-z
1/2-x,y,z
x,1/2-y,z
loop_
_atom_site_type_symbol
_atom_site_label
_atom_site_fract_x
_atom_site_fract_y
_atom_site_fract_z
Si Si1 0.750000 0.925053 0.887708
Si Si2 0.948355 0.417448 0.634221
Si Si3 0.435135 0.072922 0.730753
Si Si4 0.250000 0.926567 0.208765
Si Si5 0.049088 0.915715 0.545004
Si Si6 0.444253 0.574962 0.953720
O O1 0.750000 0.750000 0.881631
O O2 0.582701 0.963662 0.916166
O O3 0.750000 0.004582 0.840228
O O4 0.750000 0.415464 0.643789
O O5 0.002963 0.250000 0.626498
O O6 0.036042 0.474661 0.679303
O O7 0.981553 0.507390 0.589570
O O8 0.250000 0.029018 0.746306
O O9 0.441290 0.250000 0.729276
O O10 0.585529 0.027507 0.763098
O O11 0.250000 0.750000 0.205768
O O12 0.250000 0.914702 0.547953
O O13 0.987862 0.750000 0.542402
O O14 0.000000 0.000000 0.500000
O O15 0.250000 0.536205 0.943033
O O16 0.451156 0.750000 0.959273
O O17 0.500000 0.500000 0.000000
#
# Coordination Sequence:
#
# PCOD9448991 Si02
#       6
#     4   8   8   4   8   8
#     4  10  22  38  54  80 118 154 184 230 293 340
#     4  10  19  34  58  85 109 138 179 226 277 334
#     4   9  17  32  56  83 111 142 180 232 284 325
#     4  10  20  36  56  82 112 146 194 238 271 330
#     4  11  24  39  54  77 109 143 181 225 273 332
#     4  10  20  35  57  83 112 148 191 236 282 337
#
# _framework density 18.348261999999998
#
# number of rings (size 3 to 8) (size 9 to 14) (size 15 to 20)
#    0.000    2.000    2.000    1.800    0.000    6.800 
#    0.000    1.000    0.000    1.200    0.000    0.000 
#    0.000    0.000    0.000    0.000    0.000    0.000 
#
# Total GULP energy -223269.371547 kJ/mol
# GULP energy per Si atom -5581.734289 kJ/mol
# Density = 1.830650 g / cm^3
# Si number density = 18.348262 Si / 1000 Ang^3
#
#
#
# Elastic Constant Matrix: (Units=GPa)
#
#
# Indices 1 2 3 4 5 6 
#
# 1 148.8951 29.6815 80.7754 0.0000 0.0000 0.0000
# 2 29.6815 43.6633 46.4227 0.0000 0.0000 0.0000
# 3 80.7754 46.4227 160.1640 0.0000 0.0000 0.0000
# 4 0.0000 0.0000 0.0000 33.7119 0.0000 0.0000
# 5 0.0000 0.0000 0.0000 0.0000 27.5963 0.0000
# 6 0.0000 0.0000 0.0000 0.0000 0.0000 17.6849
#
#
#
# Elastic Compliance Matrix: (Units=1/GPa)
#
#
# Indices 1 2 3 4 5 6 
#
# 1 0.009358 -0.001942 -0.004157 0.000000 0.000000 0.000000
# 2 -0.001942 0.033507 -0.008732 0.000000 0.000000 0.000000
# 3 -0.004157 -0.008732 0.010871 0.000000 0.000000 0.000000
# 4 0.000000 0.000000 0.000000 0.029663 0.000000 0.000000
# 5 0.000000 0.000000 0.000000 0.000000 0.036237 0.000000
# 6 0.000000 0.000000 0.000000 0.000000 0.000000 0.056545
#
#
# Mechanical properties :
#
#
# Convention : Reuss Voigt Hill
#
# Bulk Modulus (GPa) = 41.53900 74.05351 57.79625
# Shear Modulus (GPa) = 23.37886 28.85482 26.11684
#
# Velocity S-wave (km/s) = 3.57343 3.96993 3.77688
# Velocity P-wave (km/s) = 6.30192 7.83973 7.11251
#
# Compressibility (1/GPa) = 0.02407376
#
# Stress axis : x y z
#
# Youngs Moduli (GPa) = 106.85666 29.84458 91.98801
#
# Poissons Ratio (x) = 0.05796 0.38237
# Poissons Ratio (y) = 0.20754 0.80327
# Poissons Ratio (z) = 0.44418 0.26061
#
# Static dielectric constant tensor:
#      x y z
#    x 1.656230 0.000000 0.000000 
#    y 0.000000 1.623930 0.000000 
#    z 0.000000 0.000000 1.596850 
# 
# From -- ./inp_files/32399.got.cif
#   From: 2010.05.17/outbox.cif.g08.bks.cpg/sg59_17_cif.got.tgz:32399.got - 2010.06.03 14:40:33.
