data_PCOD9448497
_publ_section_title
;
Structure prediction by ZEFSAII (Michael W. Deem and Ramdas Pophale) SiO2 
 PCOD9448497
Probable space group: P M M N
;
_chemical_formula_sum "Si O2"
_cell_formula_units_Z 48
_cell_length_a 31.876842
_cell_length_b 7.382437
_cell_length_c 9.242108
_cell_angle_alpha 90.000000
_cell_angle_beta 90.000000
_cell_angle_gamma 90.000000
_cell_volume 2174.933980
_symmetry_space_group_name_H-M "P M M N"
_symmetry_group_IT_number 59
_space_group.IT_coordinate_system_code '2'
_symmetry_cell_setting 'orthorhombic'
loop_
_space_group_symop_operation_xyz
x,y,z
1/2-x,1/2-y,z
1/2+x,-y,-z
-x,1/2+y,-z
-x,-y,-z
1/2+x,1/2+y,-z
1/2-x,y,z
x,1/2-y,z
loop_
_atom_site_type_symbol
_atom_site_label
_atom_site_fract_x
_atom_site_fract_y
_atom_site_fract_z
Si Si1 0.750000 0.971190 0.652881
Si Si2 0.087026 0.040837 0.666546
Si Si3 0.750000 0.529309 0.319363
Si Si4 0.665989 0.970905 0.818992
Si Si5 0.833870 0.971732 0.152360
Si Si6 0.919454 0.528256 0.660337
Si Si7 0.997974 0.464708 0.170682
O O1 0.750000 0.750000 0.653197
O O2 0.750000 0.028918 0.486015
O O3 0.707916 0.028739 0.735591
O O4 0.098803 0.250000 0.641551
O O5 0.125279 0.964323 0.760174
O O6 0.080150 0.965432 0.505949
O O7 0.044400 0.036607 0.757604
O O8 0.750000 0.750000 0.320247
O O9 0.708251 0.473025 0.235018
O O10 0.666240 0.750000 0.818496
O O11 0.623589 0.026858 0.737850
O O12 0.665889 0.029435 0.985666
O O13 0.834468 0.750000 0.149363
O O14 0.920496 0.750000 0.662461
O O15 0.960432 0.467007 0.748012
O O16 0.996559 0.250000 0.191591
O O17 0.000000 0.500000 0.000000
#
# Coordination Sequence:
#
# PCOD9448497 Si02
#       7
#     4   8   4   8   8   8   8
#     4   9  15  21  33  53  85 125 162 197 238 287
#     4  10  19  33  52  74  99 130 164 204 251 298
#     4   9  15  23  35  59  92 127 164 201 240 287
#     4   9  15  24  37  58  88 124 160 196 239 290
#     4   9  16  25  41  64  94 128 163 201 245 293
#     4   9  18  31  48  69  96 128 164 202 246 296
#     4  11  22  36  53  74  99 130 166 206 248 298
#
# _framework density 22.069635999999999
#
# number of rings (size 3 to 8) (size 9 to 14) (size 15 to 20)
#    0.000    2.500    0.000    3.500    0.000    8.667 
#    0.000    0.833    0.000    0.000    0.000    0.583 
#    0.000    0.000    0.000    8.417    0.000    6.333 
#
# Total GULP energy -268346.777748 kJ/mol
# GULP energy per Si atom -5590.557870 kJ/mol
# Density = 2.201940 g / cm^3
# Si number density = 22.069636 Si / 1000 Ang^3
#
#
#
# Elastic Constant Matrix: (Units=GPa)
#
#
# Indices 1 2 3 4 5 6 
#
# 1 235.4026 -10.0069 144.6004 0.0000 0.0000 0.0000
# 2 -10.0069 73.8588 -7.0725 0.0000 0.0000 0.0000
# 3 144.6004 -7.0725 255.3231 0.0000 0.0000 0.0000
# 4 0.0000 0.0000 0.0000 -3.8196 0.0000 0.0000
# 5 0.0000 0.0000 0.0000 0.0000 53.7388 0.0000
# 6 0.0000 0.0000 0.0000 0.0000 0.0000 3.9183
#
#
#
# Elastic Compliance Matrix: (Units=1/GPa)
#
#
# Indices 1 2 3 4 5 6 
#
# 1 0.006535 0.000532 -0.003686 0.000000 0.000000 0.000000
# 2 0.000532 0.013619 0.000076 0.000000 0.000000 0.000000
# 3 -0.003686 0.000076 0.006006 0.000000 0.000000 0.000000
# 4 0.000000 0.000000 0.000000 -0.261807 0.000000 0.000000
# 5 0.000000 0.000000 0.000000 0.000000 0.018609 0.000000
# 6 0.000000 0.000000 0.000000 0.000000 0.000000 0.255216
#
#
# Mechanical properties :
#
#
# Convention : Reuss Voigt Hill
#
# Bulk Modulus (GPa) = 49.99045 91.06961 70.53003
# Shear Modulus (GPa) = 98.03564 39.90506 68.97035
#
# Velocity S-wave (km/s) = 6.67214 4.25684 5.59635
# Velocity P-wave (km/s) = 9.05853 8.09414 8.58988
#
# Compressibility (1/GPa) = 0.02000382
#
# Stress axis : x y z
#
# Youngs Moduli (GPa) = 153.02018 73.42829 166.48793
#
# Poissons Ratio (x) = -0.03910 0.61373
# Poissons Ratio (y) = -0.08147 -0.01260
# Poissons Ratio (z) = 0.56409 -0.00556
#
# Static dielectric constant tensor:
#      x y z
#    x 1.737820 0.000000 0.000000 
#    y 0.000000 1.939050 0.000000 
#    z 0.000000 0.000000 1.740920 
# 
# From -- ./inp_files/12997.got.cif
#   From: 2010.05.17/outbox.cif.g08.bks.cpg/sg59_7_cif.got.tgz:12997.got - 2010.06.03 14:40:33.
