data_PCOD9448370
_publ_section_title
;
Structure prediction by ZEFSAII (Michael W. Deem and Ramdas Pophale) SiO2 
 PCOD9448370
Probable space group: P M M N
;
_chemical_formula_sum "Si O2"
_cell_formula_units_Z 48
_cell_length_a 21.326518
_cell_length_b 7.741332
_cell_length_c 14.514153
_cell_angle_alpha 90.000000
_cell_angle_beta 90.000000
_cell_angle_gamma 90.000000
_cell_volume 2396.223614
_symmetry_space_group_name_H-M "P M M N"
_symmetry_group_IT_number 59
_space_group.IT_coordinate_system_code '2'
_symmetry_cell_setting 'orthorhombic'
loop_
_space_group_symop_operation_xyz
x,y,z
1/2-x,1/2-y,z
1/2+x,-y,-z
-x,1/2+y,-z
-x,-y,-z
1/2+x,1/2+y,-z
1/2-x,y,z
x,1/2-y,z
loop_
_atom_site_type_symbol
_atom_site_label
_atom_site_fract_x
_atom_site_fract_y
_atom_site_fract_z
Si Si1 0.250000 0.037706 0.101494
Si Si2 0.927229 0.044746 0.396554
Si Si3 0.996568 0.043214 0.892547
Si Si4 0.877521 0.953596 0.205255
Si Si5 0.750000 0.962224 0.112079
Si Si6 0.928893 0.541684 0.603020
Si Si7 0.129304 0.452721 0.212082
O O1 0.250000 0.250000 0.099741
O O2 0.311851 0.976860 0.155534
O O3 0.250000 0.985336 0.994784
O O4 0.929178 0.250000 0.386373
O O5 0.999096 0.977620 0.386447
O O6 0.884794 0.974719 0.314546
O O7 0.906952 0.002883 0.500431
O O8 0.993605 0.250000 0.881304
O O9 0.059112 0.975432 0.841668
O O10 0.934040 0.968862 0.846964
O O11 0.000000 0.000000 0.000000
O O12 0.877590 0.750000 0.183907
O O13 0.813127 0.022988 0.162997
O O14 0.750000 0.750000 0.114691
O O15 0.931363 0.750000 0.609512
O O16 0.886718 0.474602 0.686830
O O17 0.143025 0.250000 0.225257
#
# Coordination Sequence:
#
# PCOD9448370 Si02
#       7
#     4   8   8   8   4   8   8
#     4   9  18  34  58  81 108 144 183 225 272 325
#     4  10  19  32  53  80 110 142 176 221 273 323
#     4  11  22  34  53  80 109 141 179 229 277 323
#     4  10  20  35  55  78 105 139 181 224 270 321
#     4   9  18  34  54  77 104 140 181 221 266 321
#     4   9  18  32  52  79 111 144 178 219 269 324
#     4  10  19  35  57  82 109 141 182 226 272 324
#
# _framework density 20.031517999999998
#
# number of rings (size 3 to 8) (size 9 to 14) (size 15 to 20)
#    0.000    2.167    1.667    2.000    0.000    4.667 
#    0.000    1.667    0.000    4.000    0.000    0.000 
#    0.000    0.000    0.000    0.000    0.000    0.000 
#
# Total GULP energy -267982.993553 kJ/mol
# GULP energy per Si atom -5582.979032 kJ/mol
# Density = 1.998593 g / cm^3
# Si number density = 20.031518 Si / 1000 Ang^3
#
#
#
# Elastic Constant Matrix: (Units=GPa)
#
#
# Indices 1 2 3 4 5 6 
#
# 1 158.8827 -3.1843 102.4786 0.0000 0.0000 0.0000
# 2 -3.1843 24.9199 -15.7148 0.0000 0.0000 0.0000
# 3 102.4786 -15.7148 171.9823 0.0000 0.0000 0.0000
# 4 0.0000 0.0000 0.0000 19.8168 0.0000 0.0000
# 5 0.0000 0.0000 0.0000 0.0000 35.2120 0.0000
# 6 0.0000 0.0000 0.0000 0.0000 0.0000 11.8478
#
#
#
# Elastic Compliance Matrix: (Units=1/GPa)
#
#
# Indices 1 2 3 4 5 6 
#
# 1 0.010396 -0.002736 -0.006444 0.000000 0.000000 0.000000
# 2 -0.002736 0.043302 0.005587 0.000000 0.000000 0.000000
# 3 -0.006444 0.005587 0.010165 0.000000 0.000000 0.000000
# 4 0.000000 0.000000 0.000000 0.050462 0.000000 0.000000
# 5 0.000000 0.000000 0.000000 0.000000 0.028399 0.000000
# 6 0.000000 0.000000 0.000000 0.000000 0.000000 0.084404
#
#
# Mechanical properties :
#
#
# Convention : Reuss Voigt Hill
#
# Bulk Modulus (GPa) = 17.64406 58.10488 37.87447
# Shear Modulus (GPa) = 19.74665 31.52232 25.63449
#
# Velocity S-wave (km/s) = 3.14312 3.97121 3.58118
# Velocity P-wave (km/s) = 4.69037 7.07793 6.00402
#
# Compressibility (1/GPa) = 0.05667630
#
# Stress axis : x y z
#
# Youngs Moduli (GPa) = 96.19293 23.09360 98.37595
#
# Poissons Ratio (x) = 0.06317 0.63398
# Poissons Ratio (y) = 0.26314 -0.54960
# Poissons Ratio (z) = 0.61991 -0.12902
#
# Static dielectric constant tensor:
#      x y z
#    x 1.693810 0.000000 0.000000 
#    y 0.000000 1.744120 0.000000 
#    z 0.000000 0.000000 1.685540 
# 
# From -- ./inp_files/23712.got.cif
#   From: 2010.05.17/outbox.cif.g08.bks.cpg/sg59_12_cif.got.tgz:23712.got - 2010.06.03 14:40:33.
