data_PCOD9448225
_publ_section_title
;
Structure prediction by ZEFSAII (Michael W. Deem and Ramdas Pophale) SiO2 
 PCOD9448225
Probable space group: P M M N
;
_chemical_formula_sum "Si O2"
_cell_formula_units_Z 40
_cell_length_a 7.878794
_cell_length_b 8.900756
_cell_length_c 30.330356
_cell_angle_alpha 90.000000
_cell_angle_beta 90.000000
_cell_angle_gamma 90.000000
_cell_volume 2126.983638
_symmetry_space_group_name_H-M "P M M N"
_symmetry_group_IT_number 59
_space_group.IT_coordinate_system_code '2'
_symmetry_cell_setting 'orthorhombic'
loop_
_space_group_symop_operation_xyz
x,y,z
1/2-x,1/2-y,z
1/2+x,-y,-z
-x,1/2+y,-z
-x,-y,-z
1/2+x,1/2+y,-z
1/2-x,y,z
x,1/2-y,z
loop_
_atom_site_type_symbol
_atom_site_label
_atom_site_fract_x
_atom_site_fract_y
_atom_site_fract_z
Si Si1 0.750000 0.432776 0.297537
Si Si2 0.250000 0.430179 0.799574
Si Si3 0.062358 0.432964 0.359325
Si Si4 0.453691 0.081389 0.044843
Si Si5 0.049640 0.432881 0.142488
Si Si6 0.547540 0.423473 0.454343
O O1 0.750000 0.250000 0.292680
O O2 0.750000 0.509112 0.250235
O O3 0.585612 0.477385 0.326160
O O4 0.250000 0.250000 0.801036
O O5 0.417750 0.494944 0.823845
O O6 0.250000 0.476190 0.344303
O O7 0.054560 0.250000 0.361490
O O8 0.031696 0.487397 0.409376
O O9 0.250000 0.089317 0.046714
O O10 0.523369 0.250000 0.042417
O O11 0.501907 0.017217 0.092702
O O12 0.500000 0.000000 0.000000
O O13 0.250000 0.469233 0.150052
O O14 0.037449 0.250000 0.143789
O O15 0.500000 0.500000 0.500000
O O16 0.750000 0.427847 0.448531
O O17 0.493442 0.250000 0.457739
#
# Coordination Sequence:
#
# PCOD9448225 Si02
#       6
#     4   4   8   8   8   8
#     4  10  20  38  60  82 106 142 196 244 283 346
#     4  12  26  40  60  90 122 156 192 244 311 368
#     4   9  17  32  56  82 108 140 183 237 286 329
#     4   9  19  34  53  81 115 149 189 234 283 339
#     4   9  20  41  64  85 115 156 203 249 288 344
#     4  10  19  32  51  79 114 149 187 231 277 332
#
# _framework density 18.805973999999999
#
# number of rings (size 3 to 8) (size 9 to 14) (size 15 to 20)
#    0.000    2.400    1.000    2.700    1.400    3.600 
#    0.000    5.000    0.000    1.200    0.000    0.000 
#    0.000    0.000    0.000    0.000    0.000    0.000 
#
# Total GULP energy -223072.758864 kJ/mol
# GULP energy per Si atom -5576.818972 kJ/mol
# Density = 1.876317 g / cm^3
# Si number density = 18.805974 Si / 1000 Ang^3
#
#
#
# Elastic Constant Matrix: (Units=GPa)
#
#
# Indices 1 2 3 4 5 6 
#
# 1 120.7806 34.2206 95.3573 0.0000 0.0000 0.0000
# 2 34.2206 33.3444 46.5943 0.0000 0.0000 0.0000
# 3 95.3573 46.5943 190.3001 0.0000 0.0000 0.0000
# 4 0.0000 0.0000 0.0000 28.8823 0.0000 0.0000
# 5 0.0000 0.0000 0.0000 0.0000 33.5248 0.0000
# 6 0.0000 0.0000 0.0000 0.0000 0.0000 17.8142
#
#
#
# Elastic Compliance Matrix: (Units=1/GPa)
#
#
# Indices 1 2 3 4 5 6 
#
# 1 0.014791 -0.007331 -0.005617 0.000000 0.000000 0.000000
# 2 -0.007331 0.049221 -0.008378 0.000000 0.000000 0.000000
# 3 -0.005617 -0.008378 0.010121 0.000000 0.000000 0.000000
# 4 0.000000 0.000000 0.000000 0.034623 0.000000 0.000000
# 5 0.000000 0.000000 0.000000 0.000000 0.029829 0.000000
# 6 0.000000 0.000000 0.000000 0.000000 0.000000 0.056135
#
#
# Mechanical properties :
#
#
# Convention : Reuss Voigt Hill
#
# Bulk Modulus (GPa) = 31.76523 77.41883 54.59203
# Shear Modulus (GPa) = 20.17231 27.26113 23.71672
#
# Velocity S-wave (km/s) = 3.27869 3.81149 3.55509
# Velocity P-wave (km/s) = 5.59114 7.78630 6.77817
#
# Compressibility (1/GPa) = 0.03148096
#
# Stress axis : x y z
#
# Youngs Moduli (GPa) = 67.60901 20.31656 98.80861
#
# Poissons Ratio (x) = 0.14894 0.55496
# Poissons Ratio (y) = 0.49565 0.82782
# Poissons Ratio (z) = 0.37973 0.17021
#
# Static dielectric constant tensor:
#      x y z
#    x 1.629990 0.000000 0.000000 
#    y 0.000000 1.661480 0.000000 
#    z 0.000000 0.000000 1.648980 
# 
# From -- ./inp_files/32382.got.cif
#   From: 2010.05.17/outbox.cif.g08.bks.cpg/sg59_17_cif.got.tgz:32382.got - 2010.06.03 14:40:33.
