data_PCOD9448609
_publ_section_title
;
Structure prediction by ZEFSAII (Michael W. Deem and Ramdas Pophale) SiO2 
 PCOD9448609
Probable space group: P M M N
;
_chemical_formula_sum "Si O2"
_cell_formula_units_Z 64
_cell_length_a 7.521565
_cell_length_b 18.768230
_cell_length_c 20.716846
_cell_angle_alpha 90.000000
_cell_angle_beta 90.000000
_cell_angle_gamma 90.000000
_cell_volume 2924.523851
_symmetry_space_group_name_H-M "P M M N"
_symmetry_group_IT_number 59
_space_group.IT_coordinate_system_code '2'
_symmetry_cell_setting 'orthorhombic'
loop_
_space_group_symop_operation_xyz
x,y,z
1/2-x,1/2-y,z
1/2+x,-y,-z
-x,1/2+y,-z
-x,-y,-z
1/2+x,1/2+y,-z
1/2-x,y,z
x,1/2-y,z
loop_
_atom_site_type_symbol
_atom_site_label
_atom_site_fract_x
_atom_site_fract_y
_atom_site_fract_z
Si Si1 0.454174 0.909125 0.325356
Si Si2 0.958030 0.433820 0.912206
Si Si3 0.042246 0.933799 0.703882
Si Si4 0.534695 0.591988 0.944943
Si Si5 0.968556 0.331173 0.799486
Si Si6 0.036647 0.577526 0.469950
Si Si7 0.464803 0.170783 0.180621
Si Si8 0.032532 0.669032 0.589280
O O1 0.250000 0.885795 0.333695
O O2 0.531258 0.858220 0.270501
O O3 0.533726 0.913368 0.397258
O O4 0.454476 0.989154 0.296959
O O5 0.750000 0.443798 0.897796
O O6 0.031240 0.513667 0.922176
O O7 0.031164 0.385666 0.854795
O O8 0.974982 0.396512 0.981877
O O9 0.250000 0.947016 0.691984
O O10 0.973367 0.883835 0.645998
O O11 0.022183 0.889358 0.769202
O O12 0.750000 0.590439 0.946337
O O13 0.479315 0.648796 0.891406
O O14 0.750000 0.332974 0.799572
O O15 0.020892 0.250000 0.812172
O O16 0.250000 0.582832 0.466653
O O17 0.974828 0.636567 0.520940
O O18 0.000000 0.500000 0.500000
O O19 0.250000 0.171469 0.181684
O O20 0.527674 0.250000 0.198570
O O21 0.250000 0.669222 0.590515
O O22 0.974176 0.750000 0.599297
#
# Coordination Sequence:
#
# PCOD9448609 Si02
#       8
#     8   8   8   8   8   8   8   8
#     4  10  20  34  56  81 105 138 179 223 265 316
#     4   9  17  31  52  75 101 135 174 219 261 307
#     4  11  21  34  54  77 106 143 178 219 264 315
#     4   9  18  33  52  74 103 137 174 216 262 314
#     4   9  18  33  53  79 109 139 176 223 273 319
#     4  10  19  33  54  78 105 137 174 217 261 312
#     4  10  21  36  53  75 106 141 175 215 263 314
#     4   9  18  32  50  75 106 137 170 212 263 311
#
# _framework density 21.883904000000001
#
# number of rings (size 3 to 8) (size 9 to 14) (size 15 to 20)
#    0.000    2.375    1.250    1.500    0.000    4.250 
#    0.000    5.625    0.000    2.250    0.000    1.750 
#    0.000    0.000    0.000    0.000    0.000    0.000 
#
# Total GULP energy -357483.361426 kJ/mol
# GULP energy per Si atom -5585.677522 kJ/mol
# Density = 2.183410 g / cm^3
# Si number density = 21.883904 Si / 1000 Ang^3
#
#
#
# Elastic Constant Matrix: (Units=GPa)
#
#
# Indices 1 2 3 4 5 6 
#
# 1 57.7575 -3.4942 -3.7701 0.0000 0.0000 0.0000
# 2 -3.4942 41.4416 9.2964 0.0000 0.0000 0.0000
# 3 -3.7701 9.2964 103.3621 0.0000 0.0000 0.0000
# 4 0.0000 0.0000 0.0000 16.3860 0.0000 0.0000
# 5 0.0000 0.0000 0.0000 0.0000 7.2290 0.0000
# 6 0.0000 0.0000 0.0000 0.0000 0.0000 5.4147
#
#
#
# Elastic Compliance Matrix: (Units=1/GPa)
#
#
# Indices 1 2 3 4 5 6 
#
# 1 0.017429 0.001354 0.000514 0.000000 0.000000 0.000000
# 2 0.001354 0.024732 -0.002175 0.000000 0.000000 0.000000
# 3 0.000514 -0.002175 0.009889 0.000000 0.000000 0.000000
# 4 0.000000 0.000000 0.000000 0.061028 0.000000 0.000000
# 5 0.000000 0.000000 0.000000 0.000000 0.138331 0.000000
# 6 0.000000 0.000000 0.000000 0.000000 0.000000 0.184681
#
#
# Mechanical properties :
#
#
# Convention : Reuss Voigt Hill
#
# Bulk Modulus (GPa) = 19.44121 22.95836 21.19978
# Shear Modulus (GPa) = 11.01685 19.17456 15.09571
#
# Velocity S-wave (km/s) = 2.24614 2.96327 2.62927
# Velocity P-wave (km/s) = 3.95347 4.71399 4.35038
#
# Compressibility (1/GPa) = 0.05143714
#
# Stress axis : x y z
#
# Youngs Moduli (GPa) = 57.37481 40.43276 101.12145
#
# Poissons Ratio (x) = -0.05476 -0.05197
# Poissons Ratio (y) = -0.07770 0.21994
# Poissons Ratio (z) = -0.02949 0.08794
#
# Static dielectric constant tensor:
#      x y z
#    x 1.850500 0.000000 0.000000 
#    y 0.000000 1.761050 0.000000 
#    z 0.000000 0.000000 1.792370 
# 
# From -- ./inp_files/29554.got.cif
#   From: 2010.05.17/outbox.cif.g08.bks.cpg/sg59_15_cif.got.tgz:29554.got - 2010.06.03 14:40:33.
