data_PCOD9448468
_publ_section_title
;
Structure prediction by ZEFSAII (Michael W. Deem and Ramdas Pophale) SiO2 
 PCOD9448468
Probable space group: P M M N
;
_chemical_formula_sum "Si O2"
_cell_formula_units_Z 64
_cell_length_a 12.713338
_cell_length_b 18.516474
_cell_length_c 14.523800
_cell_angle_alpha 90.000000
_cell_angle_beta 90.000000
_cell_angle_gamma 90.000000
_cell_volume 3418.992459
_symmetry_space_group_name_H-M "P M M N"
_symmetry_group_IT_number 59
_space_group.IT_coordinate_system_code '2'
_symmetry_cell_setting 'orthorhombic'
loop_
_space_group_symop_operation_xyz
x,y,z
1/2-x,1/2-y,z
1/2+x,-y,-z
-x,1/2+y,-z
-x,-y,-z
1/2+x,1/2+y,-z
1/2-x,y,z
x,1/2-y,z
loop_
_atom_site_type_symbol
_atom_site_label
_atom_site_fract_x
_atom_site_fract_y
_atom_site_fract_z
Si Si1 0.997382 0.166730 0.411208
Si Si2 0.876187 0.931939 0.075202
Si Si3 0.871159 0.532224 0.356292
Si Si4 0.876491 0.669151 0.247617
Si Si5 0.076689 0.038528 0.307578
Si Si6 0.526572 0.932159 0.881216
Si Si7 0.368092 0.563492 0.468018
Si Si8 0.632731 0.333442 0.226361
O O1 0.028660 0.250000 0.428123
O O2 0.948322 0.124704 0.498254
O O3 0.906919 0.167114 0.332268
O O4 0.084089 0.113398 0.364613
O O5 0.750000 0.945087 0.079914
O O6 0.903477 0.872292 0.152961
O O7 0.911247 0.909876 0.972607
O O8 0.946747 0.002303 0.096040
O O9 0.750000 0.522312 0.328587
O O10 0.900510 0.614039 0.330921
O O11 0.881130 0.503595 0.460238
O O12 0.952050 0.481603 0.302979
O O13 0.750000 0.675316 0.247396
O O14 0.920579 0.750000 0.255250
O O15 0.106212 0.045721 0.201634
O O16 0.120105 0.972918 0.368391
O O17 0.453767 0.870251 0.837809
O O18 0.250000 0.591531 0.479006
O O19 0.750000 0.365407 0.219427
O O20 0.638439 0.250000 0.198976
#
# Coordination Sequence:
#
# PCOD9448468 Si02
#       8
#     8   8   8   8   8   8   8   8
#     4   9  17  30  50  76 103 133 171 216 262 300
#     4  10  20  34  51  74  99 126 168 216 260 303
#     4   9  16  29  49  72  97 127 162 204 254 294
#     4   9  17  30  50  74  98 124 159 207 259 304
#     4  10  19  33  50  72 104 135 173 209 251 306
#     4  10  20  32  52  73  98 133 168 208 258 306
#     4  10  20  32  49  72 104 143 177 210 245 301
#     4   9  17  29  48  76 105 130 159 201 253 304
#
# _framework density 18.718966000000002
#
# number of rings (size 3 to 8) (size 9 to 14) (size 15 to 20)
#    0.000    2.500    1.250    2.250    0.000    4.750 
#    0.000    2.500    0.000    1.125    0.000    3.500 
#    0.000    0.000    0.000    0.000    0.000    0.000 
#
# Total GULP energy -356397.237623 kJ/mol
# GULP energy per Si atom -5568.706838 kJ/mol
# Density = 1.867636 g / cm^3
# Si number density = 18.718966 Si / 1000 Ang^3
#
#
#
# Elastic Constant Matrix: (Units=GPa)
#
#
# Indices 1 2 3 4 5 6 
#
# 1 28.4949 11.2157 11.6363 0.0000 0.0000 0.0000
# 2 11.2157 109.3641 16.0827 0.0000 0.0000 0.0000
# 3 11.6363 16.0827 82.7253 0.0000 0.0000 0.0000
# 4 0.0000 0.0000 0.0000 20.4436 0.0000 0.0000
# 5 0.0000 0.0000 0.0000 0.0000 14.2055 0.0000
# 6 0.0000 0.0000 0.0000 0.0000 0.0000 17.4913
#
#
#
# Elastic Compliance Matrix: (Units=1/GPa)
#
#
# Indices 1 2 3 4 5 6 
#
# 1 0.038309 -0.003229 -0.004761 0.000000 0.000000 0.000000
# 2 -0.003229 0.009685 -0.001429 0.000000 0.000000 0.000000
# 3 -0.004761 -0.001429 0.013036 0.000000 0.000000 0.000000
# 4 0.000000 0.000000 0.000000 0.048915 0.000000 0.000000
# 5 0.000000 0.000000 0.000000 0.000000 0.070395 0.000000
# 6 0.000000 0.000000 0.000000 0.000000 0.000000 0.057171
#
#
# Mechanical properties :
#
#
# Convention : Reuss Voigt Hill
#
# Bulk Modulus (GPa) = 23.70060 33.16155 28.43107
# Shear Modulus (GPa) = 18.49028 22.53803 20.51416
#
# Velocity S-wave (km/s) = 3.14631 3.47367 3.31403
# Velocity P-wave (km/s) = 5.08801 5.81742 5.46490
#
# Compressibility (1/GPa) = 0.04219302
#
# Stress axis : x y z
#
# Youngs Moduli (GPa) = 26.10356 103.25268 76.71272
#
# Poissons Ratio (x) = 0.33336 0.36523
# Poissons Ratio (y) = 0.08428 0.10960
# Poissons Ratio (z) = 0.12428 0.14752
#
# Static dielectric constant tensor:
#      x y z
#    x 1.686070 0.000000 0.000000 
#    y 0.000000 1.680430 0.000000 
#    z 0.000000 0.000000 1.688630 
# 
# From -- ./inp_files/23491.got.cif
#   From: 2010.05.17/outbox.cif.g08.bks.cpg/sg59_12_cif.got.tgz:23491.got - 2010.06.03 14:40:33.
