data_PCOD9448922
_publ_section_title
;
Structure prediction by ZEFSAII (Michael W. Deem and Ramdas Pophale) SiO2 
 PCOD9448922
Probable space group: P M M N
;
_chemical_formula_sum "Si O2"
_cell_formula_units_Z 64
_cell_length_a 32.408937
_cell_length_b 8.912855
_cell_length_c 11.998545
_cell_angle_alpha 90.000000
_cell_angle_beta 90.000000
_cell_angle_gamma 90.000000
_cell_volume 3465.853589
_symmetry_space_group_name_H-M "P M M N"
_symmetry_group_IT_number 59
_space_group.IT_coordinate_system_code '2'
_symmetry_cell_setting 'orthorhombic'
loop_
_space_group_symop_operation_xyz
x,y,z
1/2-x,1/2-y,z
1/2+x,-y,-z
-x,1/2+y,-z
-x,-y,-z
1/2+x,1/2+y,-z
1/2-x,y,z
x,1/2-y,z
loop_
_atom_site_type_symbol
_atom_site_label
_atom_site_fract_x
_atom_site_fract_y
_atom_site_fract_z
Si Si1 0.062320 0.577415 0.524825
Si Si2 0.201944 0.928856 0.002934
Si Si3 0.876173 0.931481 0.872319
Si Si4 0.968939 0.569553 0.909662
Si Si5 0.501450 0.576838 0.316747
Si Si6 0.368792 0.430067 0.381489
Si Si7 0.203539 0.067058 0.527703
Si Si8 0.299865 0.421269 0.769662
O O1 0.071699 0.750000 0.549400
O O2 0.030133 0.574447 0.421013
O O3 0.100818 0.490696 0.475021
O O4 0.042070 0.499111 0.631609
O O5 0.250000 0.977906 0.026078
O O6 0.200862 0.750000 0.014766
O O7 0.192113 0.976669 0.875745
O O8 0.165532 0.001908 0.075514
O O9 0.873062 0.750000 0.875850
O O10 0.920477 0.972655 0.926587
O O11 0.878704 0.981138 0.742983
O O12 0.971337 0.750000 0.912615
O O13 0.983038 0.511674 0.787917
O O14 0.000000 0.500000 0.000000
O O15 0.508629 0.750000 0.285471
O O16 0.371468 0.250000 0.380624
O O17 0.323719 0.476487 0.423010
O O18 0.250000 0.011619 0.516773
O O19 0.204578 0.250000 0.531675
O O20 0.185542 0.022981 0.648675
O O21 0.250000 0.413778 0.758366
O O22 0.314416 0.250000 0.789857
#
# Coordination Sequence:
#
# PCOD9448922 Si02
#       8
#     8   8   8   8   8   8   8   8
#     4  10  20  34  56  84 113 145 182 229 280 336
#     4  10  21  36  56  83 114 150 193 239 286 335
#     4  10  22  38  58  83 113 150 193 235 282 347
#     4  11  23  41  62  86 116 151 194 240 293 353
#     4  10  20  36  60  85 109 144 187 231 280 334
#     4  10  19  34  56  82 112 146 184 234 285 337
#     4   8  15  29  52  82 111 142 180 222 272 328
#     4   8  14  29  53  76 101 136 178 223 272 328
#
# _framework density 18.465869000000001
#
# number of rings (size 3 to 8) (size 9 to 14) (size 15 to 20)
#    0.000    2.375    1.250    2.250    0.000    3.750 
#    2.250    1.875    0.000    1.125    0.000    0.000 
#    0.000    0.000    0.000    0.000    0.000    0.000 
#
# Total GULP energy -356659.995780 kJ/mol
# GULP energy per Si atom -5572.812434 kJ/mol
# Density = 1.842384 g / cm^3
# Si number density = 18.465869 Si / 1000 Ang^3
#
#
#
# Elastic Constant Matrix: (Units=GPa)
#
#
# Indices 1 2 3 4 5 6 
#
# 1 109.6600 34.2391 54.1329 0.0000 0.0000 0.0000
# 2 34.2391 43.0816 28.4750 0.0000 0.0000 0.0000
# 3 54.1329 28.4750 58.8671 0.0000 0.0000 0.0000
# 4 0.0000 0.0000 0.0000 21.5059 0.0000 0.0000
# 5 0.0000 0.0000 0.0000 0.0000 32.9431 0.0000
# 6 0.0000 0.0000 0.0000 0.0000 0.0000 24.4443
#
#
#
# Elastic Compliance Matrix: (Units=1/GPa)
#
#
# Indices 1 2 3 4 5 6 
#
# 1 0.017341 -0.004766 -0.013641 0.000000 0.000000 0.000000
# 2 -0.004766 0.035430 -0.012756 0.000000 0.000000 0.000000
# 3 -0.013641 -0.012756 0.035702 0.000000 0.000000 0.000000
# 4 0.000000 0.000000 0.000000 0.046499 0.000000 0.000000
# 5 0.000000 0.000000 0.000000 0.000000 0.030355 0.000000
# 6 0.000000 0.000000 0.000000 0.000000 0.000000 0.040909
#
#
# Mechanical properties :
#
#
# Convention : Reuss Voigt Hill
#
# Bulk Modulus (GPa) = 38.24423 49.47807 43.86115
# Shear Modulus (GPa) = 18.03248 22.09612 20.06430
#
# Velocity S-wave (km/s) = 3.12834 3.46293 3.29988
# Velocity P-wave (km/s) = 5.81415 6.54536 6.19056
#
# Compressibility (1/GPa) = 0.02614774
#
# Stress axis : x y z
#
# Youngs Moduli (GPa) = 57.66724 28.22449 28.00983
#
# Poissons Ratio (x) = 0.13450 0.38209
# Poissons Ratio (y) = 0.27481 0.35729
# Poissons Ratio (z) = 0.78665 0.36003
#
# Static dielectric constant tensor:
#      x y z
#    x 1.660410 0.000000 0.000000 
#    y 0.000000 1.628250 0.000000 
#    z 0.000000 0.000000 1.635770 
# 
# From -- ./inp_files/19304.got.cif
#   From: 2010.05.17/outbox.cif.g08.bks.cpg/sg59_10_cif.got.tgz:19304.got - 2010.06.03 14:40:33.
