data_PCOD9448972
_publ_section_title
;
Structure prediction by ZEFSAII (Michael W. Deem and Ramdas Pophale) SiO2 
 PCOD9448972
Probable space group: P M M N
;
_chemical_formula_sum "Si O2"
_cell_formula_units_Z 56
_cell_length_a 14.447825
_cell_length_b 8.820516
_cell_length_c 22.356965
_cell_angle_alpha 90.000000
_cell_angle_beta 90.000000
_cell_angle_gamma 90.000000
_cell_volume 2849.110620
_symmetry_space_group_name_H-M "P M M N"
_symmetry_group_IT_number 59
_space_group.IT_coordinate_system_code '2'
_symmetry_cell_setting 'orthorhombic'
loop_
_space_group_symop_operation_xyz
x,y,z
1/2-x,1/2-y,z
1/2+x,-y,-z
-x,1/2+y,-z
-x,-y,-z
1/2+x,1/2+y,-z
1/2-x,y,z
x,1/2-y,z
loop_
_atom_site_type_symbol
_atom_site_label
_atom_site_fract_x
_atom_site_fract_y
_atom_site_fract_z
Si Si1 0.644970 0.080092 0.126508
Si Si2 0.142699 0.067505 0.164507
Si Si3 0.947964 0.565981 0.709196
Si Si4 0.848769 0.428086 0.270427
Si Si5 0.453792 0.569410 0.412162
Si Si6 0.014539 0.925011 0.064298
Si Si7 0.642431 0.067888 0.461811
O O1 0.750000 0.070293 0.104669
O O2 0.608506 0.250000 0.112079
O O3 0.647648 0.069669 0.198239
O O4 0.581169 0.953278 0.099171
O O5 0.250000 0.025582 0.163370
O O6 0.134941 0.250000 0.162122
O O7 0.098738 0.019772 0.228258
O O8 0.089982 0.001097 0.107516
O O9 0.947315 0.750000 0.708074
O O10 0.909625 0.502458 0.647357
O O11 0.054036 0.507747 0.709537
O O12 0.750000 0.494877 0.289941
O O13 0.847770 0.250000 0.287917
O O14 0.460253 0.750000 0.406278
O O15 0.389680 0.536060 0.469886
O O16 0.557575 0.503802 0.424167
O O17 0.036415 0.750000 0.056762
O O18 0.000000 0.000000 0.000000
O O19 0.750000 0.020421 0.451035
O O20 0.639415 0.250000 0.452589
#
# Coordination Sequence:
#
# PCOD9448972 Si02
#       7
#     8   8   8   8   8   8   8
#     4   9  17  34  60  85 110 142 182 228 280 339
#     4  10  22  42  65  88 118 156 200 248 292 340
#     4  10  19  34  57  84 118 156 194 231 281 351
#     4   8  14  27  51  79 105 138 179 222 270 331
#     4  10  21  35  54  85 119 149 190 243 293 339
#     4  12  25  40  61  86 117 153 193 241 294 351
#     4   9  19  38  60  79 107 153 201 241 288 346
#
# _framework density 19.655256000000001
#
# number of rings (size 3 to 8) (size 9 to 14) (size 15 to 20)
#    0.000    2.286    1.429    2.571    0.000    3.714 
#    0.000    1.429    0.000    0.000    0.000    0.000 
#    0.000    0.000    0.000    0.000    0.000    0.000 
#
# Total GULP energy -312302.879468 kJ/mol
# GULP energy per Si atom -5576.837133 kJ/mol
# Density = 1.961052 g / cm^3
# Si number density = 19.655256 Si / 1000 Ang^3
#
#
#
# Elastic Constant Matrix: (Units=GPa)
#
#
# Indices 1 2 3 4 5 6 
#
# 1 90.0621 24.3480 45.8125 0.0000 0.0000 0.0000
# 2 24.3480 24.6170 34.4449 0.0000 0.0000 0.0000
# 3 45.8125 34.4449 132.2668 0.0000 0.0000 0.0000
# 4 0.0000 0.0000 0.0000 28.8718 0.0000 0.0000
# 5 0.0000 0.0000 0.0000 0.0000 -3.4475 0.0000
# 6 0.0000 0.0000 0.0000 0.0000 0.0000 17.4282
#
#
#
# Elastic Compliance Matrix: (Units=1/GPa)
#
#
# Indices 1 2 3 4 5 6 
#
# 1 0.015543 -0.012335 -0.002171 0.000000 0.000000 0.000000
# 2 -0.012335 0.073700 -0.014921 0.000000 0.000000 0.000000
# 3 -0.002171 -0.014921 0.012198 0.000000 0.000000 0.000000
# 4 0.000000 0.000000 0.000000 0.034636 0.000000 0.000000
# 5 0.000000 0.000000 0.000000 0.000000 -0.290065 0.000000
# 6 0.000000 0.000000 0.000000 0.000000 0.000000 0.057378
#
#
# Mechanical properties :
#
#
# Convention : Reuss Voigt Hill
#
# Bulk Modulus (GPa) = 23.48113 50.68408 37.08261
# Shear Modulus (GPa) = -212.20924 18.05986 -97.07469
#
# Velocity S-wave (km/s) = -10.40192 3.03451 -7.03533
# Velocity P-wave (km/s) = 11.50193 6.17415 6.86200
#
# Compressibility (1/GPa) = 0.04258738
#
# Stress axis : x y z
#
# Youngs Moduli (GPa) = 64.33965 13.56860 81.97998
#
# Poissons Ratio (x) = 0.16736 0.17799
# Poissons Ratio (y) = 0.79361 1.22319
# Poissons Ratio (z) = 0.13969 0.20245
#
# Static dielectric constant tensor:
#      x y z
#    x 1.709850 0.000000 0.000000 
#    y 0.000000 1.654430 0.000000 
#    z 0.000000 0.000000 1.716260 
# 
# From -- ./inp_files/30313.got.cif
#   From: 2010.05.17/outbox.cif.g08.bks.cpg/sg59_16_cif.got.tgz:30313.got - 2010.06.03 14:40:33.
