data_PCOD9448043
_publ_section_title
;
Structure prediction by ZEFSAII (Michael W. Deem and Ramdas Pophale) SiO2 
 PCOD9448043
Probable space group: P M M N
;
_chemical_formula_sum "Si O2"
_cell_formula_units_Z 64
_cell_length_a 8.344844
_cell_length_b 16.367098
_cell_length_c 23.763305
_cell_angle_alpha 90.000000
_cell_angle_beta 90.000000
_cell_angle_gamma 90.000000
_cell_volume 3245.613098
_symmetry_space_group_name_H-M "P M M N"
_symmetry_group_IT_number 59
_space_group.IT_coordinate_system_code '2'
_symmetry_cell_setting 'orthorhombic'
loop_
_space_group_symop_operation_xyz
x,y,z
1/2-x,1/2-y,z
1/2+x,-y,-z
-x,1/2+y,-z
-x,-y,-z
1/2+x,1/2+y,-z
1/2-x,y,z
x,1/2-y,z
loop_
_atom_site_type_symbol
_atom_site_label
_atom_site_fract_x
_atom_site_fract_y
_atom_site_fract_z
Si Si1 0.435040 0.928954 0.580049
Si Si2 0.554755 0.158606 0.078401
Si Si3 0.556750 0.158292 0.947080
Si Si4 0.056044 0.488661 0.740913
Si Si5 0.063671 0.342050 0.523158
Si Si6 0.443486 0.488346 0.868195
Si Si7 0.057604 0.838819 0.691097
Si Si8 0.432955 0.910317 0.369031
O O1 0.250000 0.955484 0.587888
O O2 0.463971 0.901428 0.516818
O O3 0.464799 0.856379 0.624695
O O4 0.546798 0.002115 0.600087
O O5 0.750000 0.159163 0.080940
O O6 0.502723 0.250000 0.097118
O O7 0.499774 0.078451 0.111968
O O8 0.510057 0.148725 0.012687
O O9 0.750000 0.156915 0.945357
O O10 0.504855 0.250000 0.928948
O O11 0.494688 0.083956 0.909749
O O12 0.250000 0.488712 0.738694
O O13 0.003825 0.471102 0.804329
O O14 0.000196 0.580201 0.723296
O O15 0.995998 0.426061 0.693656
O O16 0.250000 0.357382 0.511837
O O17 0.022889 0.250000 0.506863
O O18 0.031033 0.352998 0.589110
O O19 0.250000 0.491285 0.868222
O O20 0.250000 0.836424 0.700499
O O21 0.991772 0.750000 0.707047
O O22 0.250000 0.884105 0.367928
#
# Coordination Sequence:
#
# PCOD9448043 Si02
#       8
#     8   8   8   8   8   8   8   8
#     4  10  19  33  54  79 107 134 165 205 249 304
#     4   8  15  29  50  79 113 143 171 207 255 312
#     4   9  18  33  52  74 104 142 179 216 262 313
#     4   9  19  34  50  72 102 133 169 213 260 308
#     4  11  23  37  54  78 106 131 159 204 261 312
#     4  10  19  31  52  80 106 136 176 221 265 309
#     4   8  14  26  46  71  98 129 163 200 243 294
#     4  11  22  37  56  74  97 133 174 210 249 301
#
# _framework density 19.718924000000001
#
# number of rings (size 3 to 8) (size 9 to 14) (size 15 to 20)
#    0.000    2.500    0.000    4.500    0.000    2.750 
#    0.000    3.125    0.000    5.250    0.000    3.500 
#    0.000    0.000    0.000    0.000    0.000    0.000 
#
# Total GULP energy -356900.974748 kJ/mol
# GULP energy per Si atom -5576.577730 kJ/mol
# Density = 1.967404 g / cm^3
# Si number density = 19.718924 Si / 1000 Ang^3
#
#
#
# Elastic Constant Matrix: (Units=GPa)
#
#
# Indices 1 2 3 4 5 6 
#
# 1 -28.1021 35.3800 26.3616 0.0000 0.0000 0.0000
# 2 35.3800 26.6227 9.4078 0.0000 0.0000 0.0000
# 3 26.3616 9.4078 80.7091 0.0000 0.0000 0.0000
# 4 0.0000 0.0000 0.0000 11.1431 0.0000 0.0000
# 5 0.0000 0.0000 0.0000 0.0000 20.6412 0.0000
# 6 0.0000 0.0000 0.0000 0.0000 0.0000 17.7936
#
#
#
# Elastic Compliance Matrix: (Units=1/GPa)
#
#
# Indices 1 2 3 4 5 6 
#
# 1 -0.012886 0.016310 0.002308 0.000000 0.000000 0.000000
# 2 0.016310 0.018533 -0.007487 0.000000 0.000000 0.000000
# 3 0.002308 -0.007487 0.012509 0.000000 0.000000 0.000000
# 4 0.000000 0.000000 0.000000 0.089742 0.000000 0.000000
# 5 0.000000 0.000000 0.000000 0.000000 0.048447 0.000000
# 6 0.000000 0.000000 0.000000 0.000000 0.000000 0.056200
#
#
# Mechanical properties :
#
#
# Convention : Reuss Voigt Hill
#
# Bulk Modulus (GPa) = 24.74257 24.61431 24.67844
# Shear Modulus (GPa) = 24.53903 10.45426 17.49665
#
# Velocity S-wave (km/s) = 3.53149 2.30503 2.98199
# Velocity P-wave (km/s) = 5.40402 4.42650 4.93950
#
# Compressibility (1/GPa) = 0.04041618
#
# Stress axis : x y z
#
# Youngs Moduli (GPa) = -77.60219 53.95668 79.94158
#
# Poissons Ratio (x) = -0.88001 -0.18449
# Poissons Ratio (y) = 1.26565 0.59856
# Poissons Ratio (z) = 0.17910 0.40400
#
# Static dielectric constant tensor:
#      x y z
#    x 1.683340 0.000000 0.000000 
#    y 0.000000 1.713940 0.000000 
#    z 0.000000 0.000000 1.714820 
# 
# From -- ./inp_files/31489.got.cif
#   From: 2010.05.17/outbox.cif.g08.bks.cpg/sg59_16_cif.got.tgz:31489.got - 2010.06.03 14:40:33.
