data_PCOD9448427
_publ_section_title
;
Structure prediction by ZEFSAII (Michael W. Deem and Ramdas Pophale) SiO2 
 PCOD9448427
Probable space group: P M M N
;
_chemical_formula_sum "Si O2"
_cell_formula_units_Z 64
_cell_length_a 26.373507
_cell_length_b 13.583703
_cell_length_c 10.012538
_cell_angle_alpha 90.000000
_cell_angle_beta 90.000000
_cell_angle_gamma 90.000000
_cell_volume 3586.990599
_symmetry_space_group_name_H-M "P M M N"
_symmetry_group_IT_number 59
_space_group.IT_coordinate_system_code '2'
_symmetry_cell_setting 'orthorhombic'
loop_
_space_group_symop_operation_xyz
x,y,z
1/2-x,1/2-y,z
1/2+x,-y,-z
-x,1/2+y,-z
-x,-y,-z
1/2+x,1/2+y,-z
1/2-x,y,z
x,1/2-y,z
loop_
_atom_site_type_symbol
_atom_site_label
_atom_site_fract_x
_atom_site_fract_y
_atom_site_fract_z
Si Si1 0.310223 0.135072 0.324247
Si Si2 0.474764 0.363463 0.240859
Si Si3 0.895298 0.491733 0.623851
Si Si4 0.117626 0.989179 0.869941
Si Si5 0.689423 0.861303 0.991143
Si Si6 0.470785 0.365099 0.922240
Si Si7 0.412236 0.865410 0.637508
Si Si8 0.588237 0.365584 0.872436
O O1 0.250000 0.116969 0.340002
O O2 0.319443 0.250000 0.358085
O O3 0.346056 0.059375 0.401101
O O4 0.323088 0.123528 0.165873
O O5 0.457674 0.250000 0.256391
O O6 0.439182 0.434679 0.325281
O O7 0.472176 0.385538 0.082146
O O8 0.532281 0.369071 0.292984
O O9 0.911869 0.425726 0.499510
O O10 0.886163 0.418687 0.747869
O O11 0.162995 0.059012 0.916677
O O12 0.124157 0.923572 0.739250
O O13 0.069397 0.062317 0.856380
O O14 0.105651 0.915915 0.991473
O O15 0.750000 0.865553 0.001751
O O16 0.672821 0.750000 0.025149
O O17 0.457181 0.250000 0.905908
O O18 0.527188 0.378339 0.865189
O O19 0.399646 0.750000 0.619344
O O20 0.598567 0.250000 0.874970
#
# Coordination Sequence:
#
# PCOD9448427 Si02
#       8
#     8   8   8   8   8   8   8   8
#     4   9  18  35  61  91 115 135 169 222 282 335
#     4  10  19  34  55  82 113 145 181 223 277 333
#     4  12  21  36  56  81 109 148 189 224 269 323
#     4  12  19  35  58  79 106 147 188 220 273 329
#     4   9  18  34  59  92 118 133 164 223 287 335
#     4  10  19  32  54  86 114 138 180 231 277 325
#     4  11  25  39  51  74 115 156 187 224 268 316
#     4  11  21  32  52  78 107 143 190 232 257 305
#
# _framework density 17.842255000000002
#
# number of rings (size 3 to 8) (size 9 to 14) (size 15 to 20)
#    0.000    1.500    3.750    3.750    0.000    2.000 
#    0.000    4.375    0.000    6.000    0.000    0.000 
#    0.000    0.000    0.000    0.000    0.000    0.000 
#
# Total GULP energy -357491.457326 kJ/mol
# GULP energy per Si atom -5585.804021 kJ/mol
# Density = 1.780165 g / cm^3
# Si number density = 17.842255 Si / 1000 Ang^3
#
#
#
# Elastic Constant Matrix: (Units=GPa)
#
#
# Indices 1 2 3 4 5 6 
#
# 1 35.6954 30.5280 -1.1886 0.0000 0.0000 0.0000
# 2 30.5280 127.1735 22.9728 0.0000 0.0000 0.0000
# 3 -1.1886 22.9728 35.0860 0.0000 0.0000 0.0000
# 4 0.0000 0.0000 0.0000 27.5597 0.0000 0.0000
# 5 0.0000 0.0000 0.0000 0.0000 11.6907 0.0000
# 6 0.0000 0.0000 0.0000 0.0000 0.0000 25.0779
#
#
#
# Elastic Compliance Matrix: (Units=1/GPa)
#
#
# Indices 1 2 3 4 5 6 
#
# 1 0.037154 -0.010373 0.008051 0.000000 0.000000 0.000000
# 2 -0.010373 0.011814 -0.008087 0.000000 0.000000 0.000000
# 3 0.008051 -0.008087 0.034069 0.000000 0.000000 0.000000
# 4 0.000000 0.000000 0.000000 0.036285 0.000000 0.000000
# 5 0.000000 0.000000 0.000000 0.000000 0.085538 0.000000
# 6 0.000000 0.000000 0.000000 0.000000 0.000000 0.039876
#
#
# Mechanical properties :
#
#
# Convention : Reuss Voigt Hill
#
# Bulk Modulus (GPa) = 16.07235 33.61992 24.84614
# Shear Modulus (GPa) = 17.46454 22.57519 20.01987
#
# Velocity S-wave (km/s) = 3.13202 3.56092 3.35333
# Velocity P-wave (km/s) = 4.70181 5.98252 5.38041
#
# Compressibility (1/GPa) = 0.06221864
#
# Stress axis : x y z
#
# Youngs Moduli (GPa) = 26.91478 84.64429 29.35222
#
# Poissons Ratio (x) = 0.87803 -0.23630
# Poissons Ratio (y) = 0.27919 0.23737
# Poissons Ratio (z) = -0.21668 0.68450
#
# Static dielectric constant tensor:
#      x y z
#    x 1.613820 0.000000 0.000000 
#    y 0.000000 1.625470 0.000000 
#    z 0.000000 0.000000 1.597050 
# 
# From -- ./inp_files/12232.got.cif
#   From: 2010.05.17/outbox.cif.g08.bks.cpg/sg59_7_cif.got.tgz:12232.got - 2010.06.03 14:40:33.
