data_PCOD9448703
_publ_section_title
;
Structure prediction by ZEFSAII (Michael W. Deem and Ramdas Pophale) SiO2 
 PCOD9448703
Probable space group: P M M N
;
_chemical_formula_sum "Si O2"
_cell_formula_units_Z 56
_cell_length_a 8.803321
_cell_length_b 20.120175
_cell_length_c 17.739314
_cell_angle_alpha 90.000000
_cell_angle_beta 90.000000
_cell_angle_gamma 90.000000
_cell_volume 3142.064623
_symmetry_space_group_name_H-M "P M M N"
_symmetry_group_IT_number 59
_space_group.IT_coordinate_system_code '2'
_symmetry_cell_setting 'orthorhombic'
loop_
_space_group_symop_operation_xyz
x,y,z
1/2-x,1/2-y,z
1/2+x,-y,-z
-x,1/2+y,-z
-x,-y,-z
1/2+x,1/2+y,-z
1/2-x,y,z
x,1/2-y,z
loop_
_atom_site_type_symbol
_atom_site_label
_atom_site_fract_x
_atom_site_fract_y
_atom_site_fract_z
Si Si1 0.432126 0.174466 0.312069
Si Si2 0.068412 0.327107 0.882011
Si Si3 0.068848 0.411997 0.450005
Si Si4 0.069401 0.047912 0.611872
Si Si5 0.567211 0.326455 0.046596
Si Si6 0.069243 0.938410 0.224999
Si Si7 0.067993 0.919919 0.814468
O O1 0.250000 0.170148 0.299727
O O2 0.480836 0.250000 0.298842
O O3 0.460693 0.151276 0.397790
O O4 0.513602 0.123833 0.256225
O O5 0.250000 0.334020 0.879746
O O6 0.029823 0.250000 0.865262
O O7 0.993656 0.377548 0.823808
O O8 0.009511 0.340773 0.966582
O O9 0.250000 0.426821 0.445469
O O10 0.031633 0.407510 0.538409
O O11 0.980610 0.474095 0.413809
O O12 0.250000 0.049597 0.624679
O O13 0.986201 0.066345 0.688627
O O14 0.750000 0.329380 0.037947
O O15 0.528501 0.250000 0.068464
O O16 0.523067 0.378740 0.110856
O O17 0.250000 0.940020 0.222496
O O18 0.004646 0.007577 0.191989
O O19 0.250000 0.926174 0.813331
#
# Coordination Sequence:
#
# PCOD9448703 Si02
#       7
#     8   8   8   8   8   8   8
#     4  10  20  34  53  80 116 154 190 231 282 341
#     4  10  22  41  64  87 110 141 185 234 285 342
#     4   9  18  33  53  78 109 147 188 229 281 337
#     4  10  19  33  55  81 109 144 188 235 280 331
#     4   9  19  37  59  83 114 151 188 228 280 339
#     4  12  24  38  58  84 116 151 188 234 289 342
#     4  11  22  36  56  84 116 151 193 237 281 331
#
# _framework density 17.822675
#
# number of rings (size 3 to 8) (size 9 to 14) (size 15 to 20)
#    0.000    1.857    1.429    3.000    0.000    4.000 
#    0.000    2.143    0.000    2.571    0.000    0.000 
#    0.000    0.000    0.000    0.000    0.000    0.000 
#
# Total GULP energy -312673.007045 kJ/mol
# GULP energy per Si atom -5583.446554 kJ/mol
# Density = 1.778211 g / cm^3
# Si number density = 17.822675 Si / 1000 Ang^3
#
#
#
# Elastic Constant Matrix: (Units=GPa)
#
#
# Indices 1 2 3 4 5 6 
#
# 1 63.6945 55.6863 63.8826 0.0000 0.0000 0.0000
# 2 55.6863 110.6454 92.7132 0.0000 0.0000 0.0000
# 3 63.8826 92.7132 151.1335 0.0000 0.0000 0.0000
# 4 0.0000 0.0000 0.0000 23.6206 0.0000 0.0000
# 5 0.0000 0.0000 0.0000 0.0000 30.9187 0.0000
# 6 0.0000 0.0000 0.0000 0.0000 0.0000 20.7358
#
#
#
# Elastic Compliance Matrix: (Units=1/GPa)
#
#
# Indices 1 2 3 4 5 6 
#
# 1 0.031615 -0.009700 -0.007413 0.000000 0.000000 0.000000
# 2 -0.009700 0.021574 -0.009134 0.000000 0.000000 0.000000
# 3 -0.007413 -0.009134 0.015354 0.000000 0.000000 0.000000
# 4 0.000000 0.000000 0.000000 0.042336 0.000000 0.000000
# 5 0.000000 0.000000 0.000000 0.000000 0.032343 0.000000
# 6 0.000000 0.000000 0.000000 0.000000 0.000000 0.048226
#
#
# Mechanical properties :
#
#
# Convention : Reuss Voigt Hill
#
# Bulk Modulus (GPa) = 62.31350 83.33749 72.82550
# Shear Modulus (GPa) = 20.05690 22.60111 21.32900
#
# Velocity S-wave (km/s) = 3.35828 3.56492 3.46314
# Velocity P-wave (km/s) = 7.07646 7.98784 7.54592
#
# Compressibility (1/GPa) = 0.01604789
#
# Stress axis : x y z
#
# Youngs Moduli (GPa) = 31.63038 46.35279 65.13148
#
# Poissons Ratio (x) = 0.44962 0.48282
# Poissons Ratio (y) = 0.30681 0.59493
# Poissons Ratio (z) = 0.23448 0.42340
#
# Static dielectric constant tensor:
#      x y z
#    x 1.601040 0.000000 0.000000 
#    y 0.000000 1.586260 0.000000 
#    z 0.000000 0.000000 1.602840 
# 
# From -- ./inp_files/20995.got.cif
#   From: 2010.05.17/outbox.cif.g08.bks.cpg/sg59_11_cif.got.tgz:20995.got - 2010.06.03 14:40:33.
