data_PCOD9448904
_publ_section_title
;
Structure prediction by ZEFSAII (Michael W. Deem and Ramdas Pophale) SiO2 
 PCOD9448904
Probable space group: P M M N
;
_chemical_formula_sum "Si O2"
_cell_formula_units_Z 48
_cell_length_a 8.461392
_cell_length_b 32.369895
_cell_length_c 9.285844
_cell_angle_alpha 90.000000
_cell_angle_beta 90.000000
_cell_angle_gamma 90.000000
_cell_volume 2543.340398
_symmetry_space_group_name_H-M "P M M N"
_symmetry_group_IT_number 59
_space_group.IT_coordinate_system_code '2'
_symmetry_cell_setting 'orthorhombic'
loop_
_space_group_symop_operation_xyz
x,y,z
1/2-x,1/2-y,z
1/2+x,-y,-z
-x,1/2+y,-z
-x,-y,-z
1/2+x,1/2+y,-z
1/2-x,y,z
x,1/2-y,z
loop_
_atom_site_type_symbol
_atom_site_label
_atom_site_fract_x
_atom_site_fract_y
_atom_site_fract_z
Si Si1 0.058963 0.250000 0.832998
Si Si2 0.439545 0.998025 0.835335
Si Si3 0.057633 0.411596 0.830975
Si Si4 0.940984 0.250000 0.158746
Si Si5 0.560949 0.910635 0.833633
Si Si6 0.441276 0.331169 0.658494
Si Si7 0.439159 0.669066 0.666533
O O1 0.250000 0.250000 0.835052
O O2 0.006662 0.208916 0.748631
O O3 0.999880 0.250000 0.995790
O O4 0.250000 0.995702 0.834277
O O5 0.507625 0.955411 0.774995
O O6 0.488396 0.042840 0.773929
O O7 0.500000 0.000000 0.000000
O O8 0.250000 0.410875 0.832138
O O9 0.002959 0.373173 0.736241
O O10 0.007922 0.407281 0.998463
O O11 0.750000 0.250000 0.157832
O O12 0.994782 0.291100 0.242532
O O13 0.750000 0.909142 0.832616
O O14 0.494828 0.872746 0.743301
O O15 0.250000 0.331609 0.659053
O O16 0.498002 0.328798 0.495391
O O17 0.250000 0.669834 0.663483
#
# Coordination Sequence:
#
# PCOD9448904 Si02
#       7
#     4   8   8   4   8   8   8
#     4  10  21  36  60  88 110 136 179 224 264 314
#     4   9  16  29  50  78 109 142 180 226 273 321
#     4   8  16  31  53  78 106 138 177 222 268 314
#     4  10  23  40  58  80 110 142 175 216 266 318
#     4  10  19  34  56  81 107 140 180 228 277 322
#     4  10  20  36  55  79 109 142 177 218 265 316
#     4  11  23  38  54  78 110 145 180 218 265 323
#
# _framework density 18.872817999999999
#
# number of rings (size 3 to 8) (size 9 to 14) (size 15 to 20)
#    0.000    2.333    0.000    4.000    0.000    3.333 
#    0.000    5.833    0.000    0.000    0.000    0.000 
#    0.000    0.000    0.000    0.000    0.000    0.000 
#
# Total GULP energy -267827.090965 kJ/mol
# GULP energy per Si atom -5579.731062 kJ/mol
# Density = 1.882986 g / cm^3
# Si number density = 18.872818 Si / 1000 Ang^3
#
#
#
# Elastic Constant Matrix: (Units=GPa)
#
#
# Indices 1 2 3 4 5 6 
#
# 1 19.1472 27.2068 16.9523 0.0000 0.0000 0.0000
# 2 27.2068 228.7205 106.3550 0.0000 0.0000 0.0000
# 3 16.9523 106.3550 129.5158 0.0000 0.0000 0.0000
# 4 0.0000 0.0000 0.0000 -8.5148 0.0000 0.0000
# 5 0.0000 0.0000 0.0000 0.0000 22.8438 0.0000
# 6 0.0000 0.0000 0.0000 0.0000 0.0000 16.0895
#
#
#
# Elastic Compliance Matrix: (Units=1/GPa)
#
#
# Indices 1 2 3 4 5 6 
#
# 1 0.063776 -0.005993 -0.003426 0.000000 0.000000 0.000000
# 2 -0.005993 0.007636 -0.005486 0.000000 0.000000 0.000000
# 3 -0.003426 -0.005486 0.012675 0.000000 0.000000 0.000000
# 4 0.000000 0.000000 0.000000 -0.117442 0.000000 0.000000
# 5 0.000000 0.000000 0.000000 0.000000 0.043776 0.000000
# 6 0.000000 0.000000 0.000000 0.000000 0.000000 0.062152
#
#
# Mechanical properties :
#
#
# Convention : Reuss Voigt Hill
#
# Bulk Modulus (GPa) = 18.42438 75.37906 46.90172
# Shear Modulus (GPa) = 41.50228 21.20833 31.35530
#
# Velocity S-wave (km/s) = 4.69449 3.35587 4.08045
# Velocity P-wave (km/s) = 6.25843 7.41910 6.86335
#
# Compressibility (1/GPa) = 0.05427591
#
# Stress axis : x y z
#
# Youngs Moduli (GPa) = 15.67983 130.95721 78.89805
#
# Poissons Ratio (x) = 0.78484 0.27032
# Poissons Ratio (y) = 0.09397 0.43284
# Poissons Ratio (z) = 0.05372 0.71845
#
# Static dielectric constant tensor:
#      x y z
#    x 1.644000 0.000000 0.000000 
#    y 0.000000 1.680130 0.000000 
#    z 0.000000 0.000000 1.607160 
# 
# From -- ./inp_files/6373.got.cif
#   From: 2010.05.17/outbox.cif.g08.bks.cpg/sg59_4_cif.got.tgz:6373.got - 2010.06.03 14:40:33.
