data_PCOD9448944
_publ_section_title
;
Structure prediction by ZEFSAII (Michael W. Deem and Ramdas Pophale) SiO2 
 PCOD9448944
Probable space group: P M M N
;
_chemical_formula_sum "Si O2"
_cell_formula_units_Z 40
_cell_length_a 22.830205
_cell_length_b 16.327404
_cell_length_c 5.352849
_cell_angle_alpha 90.000000
_cell_angle_beta 90.000000
_cell_angle_gamma 90.000000
_cell_volume 1995.317183
_symmetry_space_group_name_H-M "P M M N"
_symmetry_group_IT_number 59
_space_group.IT_coordinate_system_code '2'
_symmetry_cell_setting 'orthorhombic'
loop_
_space_group_symop_operation_xyz
x,y,z
1/2-x,1/2-y,z
1/2+x,-y,-z
-x,1/2+y,-z
-x,-y,-z
1/2+x,1/2+y,-z
1/2-x,y,z
x,1/2-y,z
loop_
_atom_site_type_symbol
_atom_site_label
_atom_site_fract_x
_atom_site_fract_y
_atom_site_fract_z
Si Si1 0.182809 0.131621 0.093381
Si Si2 0.579567 0.151900 0.050581
Si Si3 0.009195 0.650762 0.447491
Si Si4 0.875716 0.611938 0.404526
Si Si5 0.817057 0.034544 0.159655
O O1 0.250000 0.158673 0.081672
O O2 0.151832 0.151965 0.350451
O O3 0.146166 0.156018 0.848721
O O4 0.184053 0.032529 0.063044
O O5 0.585806 0.250000 0.049048
O O6 0.539189 0.129712 0.288901
O O7 0.641862 0.109142 0.088537
O O8 0.548938 0.127289 0.790378
O O9 0.002152 0.750000 0.440694
O O10 0.945229 0.611929 0.422510
O O11 0.848330 0.520971 0.371716
O O12 0.750000 0.055108 0.223125
#
# Coordination Sequence:
#
# PCOD9448944 Si02
#       5
#     8   8   8   8   8
#     4   9  18  33  52  80 110 138 173 219 267 315
#     4  10  22  38  55  79 111 145 182 222 266 321
#     4  10  22  39  56  78 111 146 181 223 269 320
#     4  10  19  34  57  81 107 144 179 222 271 320
#     4   9  21  36  57  82 110 142 180 225 271 317
#
# _framework density 20.046939999999999
#
# number of rings (size 3 to 8) (size 9 to 14) (size 15 to 20)
#    1.200    1.200    0.000    2.400    2.800    2.000 
#    0.000    0.000    0.000   10.200    0.000    0.000 
#    0.000    0.000    0.000    0.000    0.000    0.000 
#
# Total GULP energy -223003.156220 kJ/mol
# GULP energy per Si atom -5575.078905 kJ/mol
# Density = 2.000131 g / cm^3
# Si number density = 20.046940 Si / 1000 Ang^3
#
#
#
# Elastic Constant Matrix: (Units=GPa)
#
#
# Indices 1 2 3 4 5 6 
#
# 1 116.3648 29.9258 2.2354 0.0000 0.0000 0.0000
# 2 29.9258 29.0061 11.8959 0.0000 0.0000 0.0000
# 3 2.2354 11.8959 100.1983 0.0000 0.0000 0.0000
# 4 0.0000 0.0000 0.0000 56.2927 0.0000 0.0000
# 5 0.0000 0.0000 0.0000 0.0000 19.4118 0.0000
# 6 0.0000 0.0000 0.0000 0.0000 0.0000 97.2616
#
#
#
# Elastic Compliance Matrix: (Units=1/GPa)
#
#
# Indices 1 2 3 4 5 6 
#
# 1 0.011844 -0.012731 0.001247 0.000000 0.000000 0.000000
# 2 -0.012731 0.049924 -0.005643 0.000000 0.000000 0.000000
# 3 0.001247 -0.005643 0.010622 0.000000 0.000000 0.000000
# 4 0.000000 0.000000 0.000000 0.017764 0.000000 0.000000
# 5 0.000000 0.000000 0.000000 0.000000 0.051515 0.000000
# 6 0.000000 0.000000 0.000000 0.000000 0.000000 0.010282
#
#
# Mechanical properties :
#
#
# Convention : Reuss Voigt Hill
#
# Bulk Modulus (GPa) = 26.22132 37.07594 31.64863
# Shear Modulus (GPa) = 25.13615 48.02735 36.58175
#
# Velocity S-wave (km/s) = 3.54484 4.89994 4.27641
# Velocity P-wave (km/s) = 5.46469 7.10966 6.34075
#
# Compressibility (1/GPa) = 0.03813690
#
# Stress axis : x y z
#
# Youngs Moduli (GPa) = 84.43321 20.03040 94.14107
#
# Poissons Ratio (x) = 0.25500 -0.11741
# Poissons Ratio (y) = 1.07489 0.53125
# Poissons Ratio (z) = -0.10530 0.11303
#
# Static dielectric constant tensor:
#      x y z
#    x 1.662530 0.000000 0.000000 
#    y 0.000000 1.726790 0.000000 
#    z 0.000000 0.000000 1.706910 
# 
# From -- ./inp_files/2743.got.cif
#   From: 2010.05.17/outbox.cif.g08.bks.cpg/sg59_2_cif.got.tgz:2743.got - 2010.06.03 14:40:33.
