data_PCOD9448385
_publ_section_title
;
Structure prediction by ZEFSAII (Michael W. Deem and Ramdas Pophale) SiO2 
 PCOD9448385
Probable space group: P M M N
;
_chemical_formula_sum "Si O2"
_cell_formula_units_Z 64
_cell_length_a 18.392149
_cell_length_b 13.700526
_cell_length_c 12.420009
_cell_angle_alpha 90.000000
_cell_angle_beta 90.000000
_cell_angle_gamma 90.000000
_cell_volume 3129.620143
_symmetry_space_group_name_H-M "P M M N"
_symmetry_group_IT_number 59
_space_group.IT_coordinate_system_code '2'
_symmetry_cell_setting 'orthorhombic'
loop_
_space_group_symop_operation_xyz
x,y,z
1/2-x,1/2-y,z
1/2+x,-y,-z
-x,1/2+y,-z
-x,-y,-z
1/2+x,1/2+y,-z
1/2-x,y,z
x,1/2-y,z
loop_
_atom_site_type_symbol
_atom_site_label
_atom_site_fract_x
_atom_site_fract_y
_atom_site_fract_z
Si Si1 0.434864 0.131977 0.919212
Si Si2 0.012943 0.633711 0.683594
Si Si3 0.667447 0.457333 0.574474
Si Si4 0.933923 0.985366 0.864000
Si Si5 0.171505 0.633561 0.662225
Si Si6 0.834278 0.633064 0.278539
Si Si7 0.918090 0.865547 0.494748
Si Si8 0.163125 0.643095 0.216144
O O1 0.445918 0.250000 0.917328
O O2 0.504049 0.067937 0.881995
O O3 0.368663 0.108277 0.837096
O O4 0.423859 0.090770 0.039201
O O5 0.004985 0.750000 0.702094
O O6 0.958779 0.574367 0.759099
O O7 0.995696 0.618073 0.555308
O O8 0.095265 0.604212 0.714297
O O9 0.750000 0.474751 0.608075
O O10 0.669212 0.408048 0.457969
O O11 0.631385 0.562003 0.563352
O O12 0.636040 0.383734 0.663147
O O13 0.862753 0.051107 0.851359
O O14 0.250000 0.608671 0.712355
O O15 0.169034 0.750000 0.654734
O O16 0.750000 0.599658 0.298578
O O17 0.830020 0.750000 0.281271
O O18 0.893559 0.608771 0.372610
O O19 0.903229 0.750000 0.506653
O O20 0.250000 0.649634 0.214862
O O21 0.134600 0.750000 0.183691
#
# Coordination Sequence:
#
# PCOD9448385 Si02
#       8
#     8   8   8   8   8   8   8   8
#     4  10  23  41  63  88 116 157 208 260 314 368
#     4  10  21  37  58  87 125 163 201 257 320 378
#     4  10  19  32  53  82 118 161 200 237 292 364
#     4  11  22  40  63  89 119 156 205 258 317 381
#     4   9  19  35  54  79 115 161 208 251 301 365
#     4   9  19  37  59  84 119 161 203 248 297 357
#     4  10  20  34  54  86 126 164 200 244 303 368
#     4  10  21  38  61  90 123 158 200 252 307 369
#
# _framework density 20.449766
#
# number of rings (size 3 to 8) (size 9 to 14) (size 15 to 20)
#    0.000    2.125    1.250    1.500    1.750    4.250 
#    0.000    2.500    0.000    1.875    0.000    7.000 
#    0.000    0.000    0.000    0.250    0.000    0.000 
#
# Total GULP energy -356390.472974 kJ/mol
# GULP energy per Si atom -5568.601140 kJ/mol
# Density = 2.040322 g / cm^3
# Si number density = 20.449766 Si / 1000 Ang^3
#
#
#
# Elastic Constant Matrix: (Units=GPa)
#
#
# Indices 1 2 3 4 5 6 
#
# 1 76.5830 29.3847 35.1841 0.0000 0.0000 0.0000
# 2 29.3847 115.4194 26.8792 0.0000 0.0000 0.0000
# 3 35.1841 26.8792 86.5430 0.0000 0.0000 0.0000
# 4 0.0000 0.0000 0.0000 22.6051 0.0000 0.0000
# 5 0.0000 0.0000 0.0000 0.0000 9.0640 0.0000
# 6 0.0000 0.0000 0.0000 0.0000 0.0000 14.7498
#
#
#
# Elastic Compliance Matrix: (Units=1/GPa)
#
#
# Indices 1 2 3 4 5 6 
#
# 1 0.016921 -0.002917 -0.005973 0.000000 0.000000 0.000000
# 2 -0.002917 0.009842 -0.001871 0.000000 0.000000 0.000000
# 3 -0.005973 -0.001871 0.014565 0.000000 0.000000 0.000000
# 4 0.000000 0.000000 0.000000 0.044238 0.000000 0.000000
# 5 0.000000 0.000000 0.000000 0.000000 0.110326 0.000000
# 6 0.000000 0.000000 0.000000 0.000000 0.000000 0.067797
#
#
# Mechanical properties :
#
#
# Convention : Reuss Voigt Hill
#
# Bulk Modulus (GPa) = 50.49097 51.27126 50.88111
# Shear Modulus (GPa) = 17.13419 21.75695 19.44557
#
# Velocity S-wave (km/s) = 2.89773 3.26532 3.08700
# Velocity P-wave (km/s) = 5.99497 6.27237 6.13524
#
# Compressibility (1/GPa) = 0.01980552
#
# Stress axis : x y z
#
# Youngs Moduli (GPa) = 59.09719 101.60111 68.65979
#
# Poissons Ratio (x) = 0.29636 0.41013
# Poissons Ratio (y) = 0.17238 0.12847
# Poissons Ratio (z) = 0.35301 0.19010
#
# Static dielectric constant tensor:
#      x y z
#    x 1.779090 0.000000 0.000000 
#    y 0.000000 1.725600 0.000000 
#    z 0.000000 0.000000 1.720970 
# 
# From -- ./inp_files/17827.got.cif
#   From: 2010.05.17/outbox.cif.g08.bks.cpg/sg59_9_cif.got.tgz:17827.got - 2010.06.03 14:40:33.
