data_PCOD9448299
_publ_section_title
;
Structure prediction by ZEFSAII (Michael W. Deem and Ramdas Pophale) SiO2 
 PCOD9448299
Probable space group: P M M N
;
_chemical_formula_sum "Si O2"
_cell_formula_units_Z 64
_cell_length_a 28.327654
_cell_length_b 12.596982
_cell_length_c 10.148889
_cell_angle_alpha 90.000000
_cell_angle_beta 90.000000
_cell_angle_gamma 90.000000
_cell_volume 3621.559465
_symmetry_space_group_name_H-M "P M M N"
_symmetry_group_IT_number 59
_space_group.IT_coordinate_system_code '2'
_symmetry_cell_setting 'orthorhombic'
loop_
_space_group_symop_operation_xyz
x,y,z
1/2-x,1/2-y,z
1/2+x,-y,-z
-x,1/2+y,-z
-x,-y,-z
1/2+x,1/2+y,-z
1/2-x,y,z
x,1/2-y,z
loop_
_atom_site_type_symbol
_atom_site_label
_atom_site_fract_x
_atom_site_fract_y
_atom_site_fract_z
Si Si1 0.804757 0.008401 0.642831
Si Si2 0.430431 0.518367 0.091294
Si Si3 0.031507 0.122450 0.854759
Si Si4 0.105342 0.129870 0.327094
Si Si5 0.950379 0.963442 0.439536
Si Si6 0.133643 0.623724 0.573377
Si Si7 0.830356 0.375844 0.909009
Si Si8 0.699068 0.121257 0.196383
O O1 0.750000 0.985870 0.612695
O O2 0.829386 0.087552 0.538316
O O3 0.808803 0.063991 0.785004
O O4 0.841129 0.909749 0.647506
O O5 0.477518 0.586430 0.116700
O O6 0.418510 0.445875 0.218136
O O7 0.385427 0.594681 0.077075
O O8 0.438582 0.442676 0.964474
O O9 0.036712 0.250000 0.866421
O O10 0.043925 0.083622 0.706888
O O11 0.104813 0.250000 0.280355
O O12 0.075381 0.117215 0.460791
O O13 0.915712 0.064900 0.441605
O O14 0.000000 0.000000 0.500000
O O15 0.128064 0.750000 0.570451
O O16 0.156745 0.587291 0.710843
O O17 0.824282 0.250000 0.892501
O O18 0.806856 0.410326 0.045761
O O19 0.750000 0.086100 0.248320
O O20 0.698484 0.250000 0.198790
#
# Coordination Sequence:
#
# PCOD9448299 Si02
#       8
#     8   8   8   8   8   8   8   8
#     4  10  21  35  54  82 112 143 186 227 272 339
#     4  10  21  37  54  82 110 141 191 231 278 335
#     4  11  22  37  58  79 109 148 188 235 285 331
#     4  10  21  39  58  78 110 146 186 235 284 330
#     4  11  22  39  54  83 109 145 190 234 280 340
#     4  10  21  35  54  79 110 144 179 226 279 329
#     4  10  19  32  52  78 111 145 176 222 276 330
#     4   9  17  30  49  74 104 139 174 208 260 323
#
# _framework density 17.671945000000001
#
# number of rings (size 3 to 8) (size 9 to 14) (size 15 to 20)
#    0.000    1.875    1.250    3.000    0.000    3.250 
#    0.000    0.625    0.000    0.000    0.000    0.000 
#    0.000   18.000    0.000    0.000    0.000    0.000 
#
# Total GULP energy -357077.970977 kJ/mol
# GULP energy per Si atom -5579.343297 kJ/mol
# Density = 1.763172 g / cm^3
# Si number density = 17.671945 Si / 1000 Ang^3
#
#
#
# Elastic Constant Matrix: (Units=GPa)
#
#
# Indices 1 2 3 4 5 6 
#
# 1 103.5024 1.7239 26.3792 0.0000 0.0000 0.0000
# 2 1.7239 39.1079 8.5069 0.0000 0.0000 0.0000
# 3 26.3792 8.5069 97.5614 0.0000 0.0000 0.0000
# 4 0.0000 0.0000 0.0000 16.6483 0.0000 0.0000
# 5 0.0000 0.0000 0.0000 0.0000 21.5207 0.0000
# 6 0.0000 0.0000 0.0000 0.0000 0.0000 0.1812
#
#
#
# Elastic Compliance Matrix: (Units=1/GPa)
#
#
# Indices 1 2 3 4 5 6 
#
# 1 0.010378 0.000156 -0.002820 0.000000 0.000000 0.000000
# 2 0.000156 0.026067 -0.002315 0.000000 0.000000 0.000000
# 3 -0.002820 -0.002315 0.011214 0.000000 0.000000 0.000000
# 4 0.000000 0.000000 0.000000 0.060066 0.000000 0.000000
# 5 0.000000 0.000000 0.000000 0.000000 0.046467 0.000000
# 6 0.000000 0.000000 0.000000 0.000000 0.000000 5.517837
#
#
# Mechanical properties :
#
#
# Convention : Reuss Voigt Hill
#
# Bulk Modulus (GPa) = 26.52427 34.82129 30.67278
# Shear Modulus (GPa) = 0.87803 21.24083 11.05943
#
# Velocity S-wave (km/s) = 0.70564 3.47068 2.50435
# Velocity P-wave (km/s) = 3.96305 5.98397 5.07512
#
# Compressibility (1/GPa) = 0.03770132
#
# Stress axis : x y z
#
# Youngs Moduli (GPa) = 96.36114 38.36269 89.17274
#
# Poissons Ratio (x) = -0.00598 0.25143
# Poissons Ratio (y) = -0.01502 0.20644
# Poissons Ratio (z) = 0.27170 0.08881
#
# Static dielectric constant tensor:
#      x y z
#    x 1.599590 0.000000 0.000000 
#    y 0.000000 1.568600 0.000000 
#    z 0.000000 0.000000 1.610170 
# 
# From -- ./inp_files/13206.got.cif
#   From: 2010.05.17/outbox.cif.g08.bks.cpg/sg59_7_cif.got.tgz:13206.got - 2010.06.03 14:40:33.
