data_PCOD9448483
_publ_section_title
;
Structure prediction by ZEFSAII (Michael W. Deem and Ramdas Pophale) SiO2 
 PCOD9448483
Probable space group: P M M N
;
_chemical_formula_sum "Si O2"
_cell_formula_units_Z 64
_cell_length_a 21.550714
_cell_length_b 22.725191
_cell_length_c 5.607319
_cell_angle_alpha 90.000000
_cell_angle_beta 90.000000
_cell_angle_gamma 90.000000
_cell_volume 2746.151351
_symmetry_space_group_name_H-M "P M M N"
_symmetry_group_IT_number 59
_space_group.IT_coordinate_system_code '2'
_symmetry_cell_setting 'orthorhombic'
loop_
_space_group_symop_operation_xyz
x,y,z
1/2-x,1/2-y,z
1/2+x,-y,-z
-x,1/2+y,-z
-x,-y,-z
1/2+x,1/2+y,-z
1/2-x,y,z
x,1/2-y,z
loop_
_atom_site_type_symbol
_atom_site_label
_atom_site_fract_x
_atom_site_fract_y
_atom_site_fract_z
Si Si1 0.928976 0.391606 0.325967
Si Si2 0.629817 0.184943 0.933395
Si Si3 0.385064 0.178841 0.941523
Si Si4 0.003814 0.685229 0.352326
Si Si5 0.913770 0.516622 0.754283
Si Si6 0.047949 0.473921 0.754497
Si Si7 0.819574 0.077537 0.684874
Si Si8 0.677847 0.821671 0.560697
O O1 0.943338 0.454988 0.214512
O O2 0.868114 0.406161 0.480347
O O3 0.989906 0.365358 0.453514
O O4 0.906497 0.339009 0.160048
O O5 0.656612 0.250000 0.963784
O O6 0.574224 0.188507 0.741077
O O7 0.676422 0.133494 0.859823
O O8 0.377270 0.250000 0.953498
O O9 0.456796 0.170602 0.860343
O O10 0.347675 0.159687 0.700908
O O11 0.360240 0.158418 0.201637
O O12 0.985628 0.750000 0.447467
O O13 0.916365 0.542711 0.487335
O O14 0.850654 0.480748 0.793260
O O15 0.973257 0.471032 0.730811
O O16 0.927143 0.551525 0.997423
O O17 0.750000 0.067851 0.603915
O O18 0.750000 0.839004 0.586834
O O19 0.675483 0.750000 0.558458
#
# Coordination Sequence:
#
# PCOD9448483 Si02
#       8
#     8   8   8   8   8   8   8   8
#     4  10  19  33  51  76 103 144 184 237 287 341
#     4  10  20  34  50  70 103 149 197 246 290 328
#     4   9  17  27  41  62  87 120 160 208 262 313
#     4   9  19  31  46  68  99 137 185 240 289 330
#     4   9  17  33  53  83 107 137 165 223 276 336
#     4   9  17  31  56  79 110 131 171 218 284 335
#     4  10  21  36  52  76 111 147 190 235 280 336
#     4   9  16  26  40  60  87 115 147 193 253 319
#
# _framework density 23.305342
#
# number of rings (size 3 to 8) (size 9 to 14) (size 15 to 20)
#    0.000    2.625    1.250    0.750    1.750    2.750 
#    0.000    0.000    0.000    0.000    0.000    1.750 
#    0.000    0.000    0.000    0.000    0.000    0.000 
#
# Total GULP energy -356941.020646 kJ/mol
# GULP energy per Si atom -5577.203448 kJ/mol
# Density = 2.325230 g / cm^3
# Si number density = 23.305342 Si / 1000 Ang^3
#
#
#
# Elastic Constant Matrix: (Units=GPa)
#
#
# Indices 1 2 3 4 5 6 
#
# 1 111.7927 18.8741 22.4329 0.0000 0.0000 0.0000
# 2 18.8741 67.7342 16.6624 0.0000 0.0000 0.0000
# 3 22.4329 16.6624 126.8680 0.0000 0.0000 0.0000
# 4 0.0000 0.0000 0.0000 18.8507 0.0000 0.0000
# 5 0.0000 0.0000 0.0000 0.0000 19.1785 0.0000
# 6 0.0000 0.0000 0.0000 0.0000 0.0000 17.1899
#
#
#
# Elastic Compliance Matrix: (Units=1/GPa)
#
#
# Indices 1 2 3 4 5 6 
#
# 1 0.009619 -0.002338 -0.001394 0.000000 0.000000 0.000000
# 2 -0.002338 0.015825 -0.001665 0.000000 0.000000 0.000000
# 3 -0.001394 -0.001665 0.008347 0.000000 0.000000 0.000000
# 4 0.000000 0.000000 0.000000 0.053049 0.000000 0.000000
# 5 0.000000 0.000000 0.000000 0.000000 0.052142 0.000000
# 6 0.000000 0.000000 0.000000 0.000000 0.000000 0.058174
#
#
# Mechanical properties :
#
#
# Convention : Reuss Voigt Hill
#
# Bulk Modulus (GPa) = 43.48129 46.92597 45.20363
# Shear Modulus (GPa) = 23.18954 27.60551 25.39753
#
# Velocity S-wave (km/s) = 3.15783 3.44541 3.30475
# Velocity P-wave (km/s) = 5.65629 6.00057 5.83097
#
# Compressibility (1/GPa) = 0.02299840
#
# Stress axis : x y z
#
# Youngs Moduli (GPa) = 103.95559 63.19296 119.79835
#
# Poissons Ratio (x) = 0.14772 0.16699
# Poissons Ratio (y) = 0.24300 0.19947
# Poissons Ratio (z) = 0.14491 0.10522
#
# Static dielectric constant tensor:
#      x y z
#    x 1.831280 0.000000 0.000000 
#    y 0.000000 1.995320 0.000000 
#    z 0.000000 0.000000 1.991880 
# 
# From -- ./inp_files/3556.got.cif
#   From: 2010.05.17/outbox.cif.g08.bks.cpg/sg59_2_cif.got.tgz:3556.got - 2010.06.03 14:40:33.
