data_PCOD9448213
_publ_section_title
;
Structure prediction by ZEFSAII (Michael W. Deem and Ramdas Pophale) SiO2 
 PCOD9448213
Probable space group: P M M N
;
_chemical_formula_sum "Si O2"
_cell_formula_units_Z 48
_cell_length_a 31.399473
_cell_length_b 8.467050
_cell_length_c 9.888992
_cell_angle_alpha 90.000000
_cell_angle_beta 90.000000
_cell_angle_gamma 90.000000
_cell_volume 2629.096391
_symmetry_space_group_name_H-M "P M M N"
_symmetry_group_IT_number 59
_space_group.IT_coordinate_system_code '2'
_symmetry_cell_setting 'orthorhombic'
loop_
_space_group_symop_operation_xyz
x,y,z
1/2-x,1/2-y,z
1/2+x,-y,-z
-x,1/2+y,-z
-x,-y,-z
1/2+x,1/2+y,-z
1/2-x,y,z
x,1/2-y,z
loop_
_atom_site_type_symbol
_atom_site_label
_atom_site_fract_x
_atom_site_fract_y
_atom_site_fract_z
Si Si1 0.642655 0.061595 0.095643
Si Si2 0.112568 0.438344 0.184033
Si Si3 0.933354 0.441620 0.296574
Si Si4 0.299027 0.438483 0.677394
Si Si5 0.370385 0.938588 0.476179
Si Si6 0.515323 0.941253 0.853829
O O1 0.646343 0.250000 0.106772
O O2 0.599429 0.013781 0.176346
O O3 0.681224 0.984014 0.177509
O O4 0.637899 0.011674 0.941280
O O5 0.112958 0.250000 0.169140
O O6 0.130378 0.485240 0.329530
O O7 0.063323 0.494344 0.175113
O O8 0.934030 0.250000 0.300699
O O9 0.911446 0.494843 0.435815
O O10 0.980431 0.495716 0.256501
O O11 0.250000 0.488393 0.665891
O O12 0.301349 0.250000 0.660620
O O13 0.329480 0.518051 0.566329
O O14 0.372871 0.750000 0.462759
O O15 0.515028 0.750000 0.854992
O O16 0.500000 0.000000 0.000000
#
# Coordination Sequence:
#
# PCOD9448213 Si02
#       6
#     8   8   8   8   8   8
#     4  10  19  34  58  82 110 145 183 227 269 325
#     4  11  22  34  52  81 116 151 188 234 282 326
#     4   8  16  32  52  75 105 142 187 230 269 313
#     4  10  21  39  63  88 113 139 172 221 278 337
#     4  10  21  37  57  80 111 151 189 229 276 333
#     4  10  19  32  51  77 109 147 193 237 276 322
#
# _framework density 18.257221999999999
#
# number of rings (size 3 to 8) (size 9 to 14) (size 15 to 20)
#    0.000    2.167    1.667    3.000    0.000    2.667 
#    0.000    1.667    0.000    5.000    0.000    0.000 
#    0.000    0.000    0.000    0.000    0.000    0.000 
#
# Total GULP energy -267895.052755 kJ/mol
# GULP energy per Si atom -5581.146932 kJ/mol
# Density = 1.821567 g / cm^3
# Si number density = 18.257222 Si / 1000 Ang^3
#
#
#
# Elastic Constant Matrix: (Units=GPa)
#
#
# Indices 1 2 3 4 5 6 
#
# 1 71.0372 -3.0692 10.0646 0.0000 0.0000 0.0000
# 2 -3.0692 15.5107 -10.5174 0.0000 0.0000 0.0000
# 3 10.0646 -10.5174 87.6186 0.0000 0.0000 0.0000
# 4 0.0000 0.0000 0.0000 29.1084 0.0000 0.0000
# 5 0.0000 0.0000 0.0000 0.0000 15.4873 0.0000
# 6 0.0000 0.0000 0.0000 0.0000 0.0000 19.8415
#
#
#
# Elastic Compliance Matrix: (Units=1/GPa)
#
#
# Indices 1 2 3 4 5 6 
#
# 1 0.014360 0.001876 -0.001424 0.000000 0.000000 0.000000
# 2 0.001876 0.070429 0.008239 0.000000 0.000000 0.000000
# 3 -0.001424 0.008239 0.012566 0.000000 0.000000 0.000000
# 4 0.000000 0.000000 0.000000 0.034354 0.000000 0.000000
# 5 0.000000 0.000000 0.000000 0.000000 0.064569 0.000000
# 6 0.000000 0.000000 0.000000 0.000000 0.000000 0.050399
#
#
# Mechanical properties :
#
#
# Convention : Reuss Voigt Hill
#
# Bulk Modulus (GPa) = 8.71573 18.56915 13.64244
# Shear Modulus (GPa) = 18.68861 24.73336 21.71098
#
# Velocity S-wave (km/s) = 3.20289 3.68464 3.45218
# Velocity P-wave (km/s) = 4.29677 5.31931 4.83514
#
# Compressibility (1/GPa) = 0.11473503
#
# Stress axis : x y z
#
# Youngs Moduli (GPa) = 69.63798 14.19861 79.58202
#
# Poissons Ratio (x) = -0.02663 0.11335
# Poissons Ratio (y) = -0.13062 -0.65565
# Poissons Ratio (z) = 0.09919 -0.11698
#
# Static dielectric constant tensor:
#      x y z
#    x 1.628280 0.000000 0.000000 
#    y 0.000000 1.621820 0.000000 
#    z 0.000000 0.000000 1.603990 
# 
# From -- ./inp_files/6322.got.cif
#   From: 2010.05.17/outbox.cif.g08.bks.cpg/sg59_4_cif.got.tgz:6322.got - 2010.06.03 14:40:33.
