data_PCOD9448603
_publ_section_title
;
Structure prediction by ZEFSAII (Michael W. Deem and Ramdas Pophale) SiO2 
 PCOD9448603
Probable space group: P M M N
;
_chemical_formula_sum "Si O2"
_cell_formula_units_Z 64
_cell_length_a 8.641359
_cell_length_b 15.987427
_cell_length_c 23.606973
_cell_angle_alpha 90.000000
_cell_angle_beta 90.000000
_cell_angle_gamma 90.000000
_cell_volume 3261.376412
_symmetry_space_group_name_H-M "P M M N"
_symmetry_group_IT_number 59
_space_group.IT_coordinate_system_code '2'
_symmetry_cell_setting 'orthorhombic'
loop_
_space_group_symop_operation_xyz
x,y,z
1/2-x,1/2-y,z
1/2+x,-y,-z
-x,1/2+y,-z
-x,-y,-z
1/2+x,1/2+y,-z
1/2-x,y,z
x,1/2-y,z
loop_
_atom_site_type_symbol
_atom_site_label
_atom_site_fract_x
_atom_site_fract_y
_atom_site_fract_z
Si Si1 0.575263 0.654115 0.978878
Si Si2 0.563696 0.015387 0.243391
Si Si3 0.930428 0.091070 0.128905
Si Si4 0.071289 0.925760 0.083632
Si Si5 0.933805 0.158448 0.800759
Si Si6 0.564815 0.155186 0.583465
Si Si7 0.935701 0.482993 0.370919
Si Si8 0.934497 0.654579 0.543162
O O1 0.750000 0.621865 0.985051
O O2 0.572118 0.750000 0.997082
O O3 0.523960 0.648878 0.913781
O O4 0.463589 0.604482 0.020769
O O5 0.750000 0.015216 0.241039
O O6 0.508109 0.921737 0.228853
O O7 0.515951 0.038484 0.306673
O O8 0.511476 0.077524 0.193109
O O9 0.750000 0.113965 0.129240
O O10 0.957017 0.999998 0.100813
O O11 0.250000 0.953355 0.089142
O O12 0.047479 0.855187 0.131580
O O13 0.750000 0.156187 0.789137
O O14 0.993782 0.250000 0.784043
O O15 0.750000 0.149504 0.588708
O O16 0.517967 0.250000 0.601242
O O17 0.488776 0.077725 0.615928
O O18 0.516504 0.145987 0.517689
O O19 0.750000 0.478963 0.375160
O O20 0.007488 0.416998 0.414697
O O21 0.750000 0.646474 0.535034
O O22 0.965961 0.750000 0.563597
#
# Coordination Sequence:
#
# PCOD9448603 Si02
#       8
#     8   8   8   8   8   8   8   8
#     4  11  23  36  51  75 104 131 164 209 261 315
#     4   9  21  38  54  75 102 138 182 221 260 311
#     4  10  20  37  57  74  98 133 173 213 256 308
#     4  10  19  33  54  78 104 133 167 207 256 316
#     4   9  18  32  51  76 105 137 173 215 263 314
#     4  10  21  37  58  86 120 155 188 223 268 323
#     4  11  22  37  58  83 114 150 188 231 276 324
#     4  10  21  38  60  86 115 147 186 231 278 328
#
# _framework density 19.623616999999999
#
# number of rings (size 3 to 8) (size 9 to 14) (size 15 to 20)
#    0.000    2.000    0.000    3.375    0.000    5.750 
#    0.000    3.125    0.000    3.750    0.000    0.000 
#    0.000    0.000    0.000    0.000    0.000    0.000 
#
# Total GULP energy -357209.429889 kJ/mol
# GULP energy per Si atom -5581.397342 kJ/mol
# Density = 1.957895 g / cm^3
# Si number density = 19.623617 Si / 1000 Ang^3
#
#
#
# Elastic Constant Matrix: (Units=GPa)
#
#
# Indices 1 2 3 4 5 6 
#
# 1 31.5855 -1.2488 3.3620 0.0000 0.0000 0.0000
# 2 -1.2488 29.7971 2.2403 0.0000 0.0000 0.0000
# 3 3.3620 2.2403 62.5887 0.0000 0.0000 0.0000
# 4 0.0000 0.0000 0.0000 8.9798 0.0000 0.0000
# 5 0.0000 0.0000 0.0000 0.0000 23.0474 0.0000
# 6 0.0000 0.0000 0.0000 0.0000 0.0000 21.0221
#
#
#
# Elastic Compliance Matrix: (Units=1/GPa)
#
#
# Indices 1 2 3 4 5 6 
#
# 1 0.031906 0.001470 -0.001766 0.000000 0.000000 0.000000
# 2 0.001470 0.033719 -0.001286 0.000000 0.000000 0.000000
# 3 -0.001766 -0.001286 0.016118 0.000000 0.000000 0.000000
# 4 0.000000 0.000000 0.000000 0.111361 0.000000 0.000000
# 5 0.000000 0.000000 0.000000 0.000000 0.043389 0.000000
# 6 0.000000 0.000000 0.000000 0.000000 0.000000 0.047569
#
#
# Mechanical properties :
#
#
# Convention : Reuss Voigt Hill
#
# Bulk Modulus (GPa) = 12.72615 14.74203 13.73409
# Shear Modulus (GPa) = 15.95307 18.58438 17.26872
#
# Velocity S-wave (km/s) = 2.85433 3.08074 2.96969
# Velocity P-wave (km/s) = 4.16678 4.49259 4.33275
#
# Compressibility (1/GPa) = 0.07857838
#
# Stress axis : x y z
#
# Youngs Moduli (GPa) = 31.34183 29.65724 62.04152
#
# Poissons Ratio (x) = -0.04360 0.10960
# Poissons Ratio (y) = -0.04607 0.07978
# Poissons Ratio (z) = 0.05537 0.03814
#
# Static dielectric constant tensor:
#      x y z
#    x 1.666630 0.000000 0.000000 
#    y 0.000000 1.693450 0.000000 
#    z 0.000000 0.000000 1.697110 
# 
# From -- ./inp_files/29427.got.cif
#   From: 2010.05.17/outbox.cif.g08.bks.cpg/sg59_15_cif.got.tgz:29427.got - 2010.06.03 14:40:33.
