data_PCOD9448763
_publ_section_title
;
Structure prediction by ZEFSAII (Michael W. Deem and Ramdas Pophale) SiO2 
 PCOD9448763
Probable space group: P M M N
;
_chemical_formula_sum "Si O2"
_cell_formula_units_Z 48
_cell_length_a 8.367469
_cell_length_b 19.601450
_cell_length_c 15.578626
_cell_angle_alpha 90.000000
_cell_angle_beta 90.000000
_cell_angle_gamma 90.000000
_cell_volume 2555.120947
_symmetry_space_group_name_H-M "P M M N"
_symmetry_group_IT_number 59
_space_group.IT_coordinate_system_code '2'
_symmetry_cell_setting 'orthorhombic'
loop_
_space_group_symop_operation_xyz
x,y,z
1/2-x,1/2-y,z
1/2+x,-y,-z
-x,1/2+y,-z
-x,-y,-z
1/2+x,1/2+y,-z
1/2-x,y,z
x,1/2-y,z
loop_
_atom_site_type_symbol
_atom_site_label
_atom_site_fract_x
_atom_site_fract_y
_atom_site_fract_z
Si Si1 0.939907 0.074998 0.472667
Si Si2 0.943220 0.828018 0.376693
Si Si3 0.056737 0.425250 0.971671
Si Si4 0.058283 0.425364 0.281008
Si Si5 0.443439 0.074641 0.776745
Si Si6 0.554709 0.828243 0.874103
O O1 0.750000 0.074474 0.475785
O O2 0.004508 0.130102 0.539888
O O3 0.995890 0.089455 0.376035
O O4 0.000000 0.000000 0.500000
O O5 0.750000 0.827126 0.374999
O O6 0.999823 0.750000 0.377569
O O7 0.997850 0.869533 0.292463
O O8 0.250000 0.425237 0.972270
O O9 0.003550 0.411428 0.874208
O O10 0.002809 0.369667 0.041356
O O11 0.000000 0.500000 0.000000
O O12 0.250000 0.425425 0.282847
O O13 0.004643 0.370415 0.210065
O O14 0.000888 0.500152 0.252221
O O15 0.250000 0.074206 0.775987
O O16 0.750000 0.827830 0.874439
O O17 0.501204 0.750000 0.873474
#
# Coordination Sequence:
#
# PCOD9448763 Si02
#       6
#     8   8   8   8   8   8
#     4  12  24  39  61  88 117 152 197 243 293 350
#     4  10  22  40  60  86 120 155 193 240 295 350
#     4  10  19  33  56  85 114 150 194 238 285 336
#     4  11  21  35  59  87 114 152 195 239 289 345
#     4  10  20  34  57  86 116 151 192 241 288 342
#     4   9  19  35  55  83 118 153 192 237 285 339
#
# _framework density 18.785803999999999
#
# number of rings (size 3 to 8) (size 9 to 14) (size 15 to 20)
#    0.000    1.667    3.333    2.000    0.000    1.667 
#    0.000    5.000    0.000    4.000    0.000    2.333 
#    0.000    0.000    0.000    0.000    0.000    0.000 
#
# Total GULP energy -268144.262494 kJ/mol
# GULP energy per Si atom -5586.338802 kJ/mol
# Density = 1.874305 g / cm^3
# Si number density = 18.785804 Si / 1000 Ang^3
#
#
#
# Elastic Constant Matrix: (Units=GPa)
#
#
# Indices 1 2 3 4 5 6 
#
# 1 16.4795 20.1829 23.0037 0.0000 0.0000 0.0000
# 2 20.1829 202.9067 126.2176 0.0000 0.0000 0.0000
# 3 23.0037 126.2176 222.8492 0.0000 0.0000 0.0000
# 4 0.0000 0.0000 0.0000 34.4077 0.0000 0.0000
# 5 0.0000 0.0000 0.0000 0.0000 21.4724 0.0000
# 6 0.0000 0.0000 0.0000 0.0000 0.0000 25.7206
#
#
#
# Elastic Compliance Matrix: (Units=1/GPa)
#
#
# Indices 1 2 3 4 5 6 
#
# 1 0.072910 -0.003969 -0.005278 0.000000 0.000000 0.000000
# 2 -0.003969 0.007825 -0.004022 0.000000 0.000000 0.000000
# 3 -0.005278 -0.004022 0.007310 0.000000 0.000000 0.000000
# 4 0.000000 0.000000 0.000000 0.029063 0.000000 0.000000
# 5 0.000000 0.000000 0.000000 0.000000 0.046571 0.000000
# 6 0.000000 0.000000 0.000000 0.000000 0.000000 0.038879
#
#
# Mechanical properties :
#
#
# Convention : Reuss Voigt Hill
#
# Bulk Modulus (GPa) = 16.25843 86.78263 51.52053
# Shear Modulus (GPa) = 20.03198 34.50890 27.27044
#
# Velocity S-wave (km/s) = 3.26902 4.29063 3.81419
# Velocity P-wave (km/s) = 4.78770 8.41678 6.84705
#
# Compressibility (1/GPa) = 0.06150654
#
# Stress axis : x y z
#
# Youngs Moduli (GPa) = 13.71554 127.79086 136.79152
#
# Poissons Ratio (x) = 0.50720 0.72201
# Poissons Ratio (y) = 0.05444 0.55023
# Poissons Ratio (z) = 0.07239 0.51403
#
# Static dielectric constant tensor:
#      x y z
#    x 1.656990 0.000000 0.000000 
#    y 0.000000 1.615510 0.000000 
#    z 0.000000 0.000000 1.644780 
# 
# From -- ./inp_files/20292.got.cif
#   From: 2010.05.17/outbox.cif.g08.bks.cpg/sg59_11_cif.got.tgz:20292.got - 2010.06.03 14:40:33.
