data_PCOD9448541
_publ_section_title
;
Structure prediction by ZEFSAII (Michael W. Deem and Ramdas Pophale) SiO2 
 PCOD9448541
Probable space group: P M M N
;
_chemical_formula_sum "Si O2"
_cell_formula_units_Z 56
_cell_length_a 16.625108
_cell_length_b 9.745689
_cell_length_c 19.271328
_cell_angle_alpha 90.000000
_cell_angle_beta 90.000000
_cell_angle_gamma 90.000000
_cell_volume 3122.400923
_symmetry_space_group_name_H-M "P M M N"
_symmetry_group_IT_number 59
_space_group.IT_coordinate_system_code '2'
_symmetry_cell_setting 'orthorhombic'
loop_
_space_group_symop_operation_xyz
x,y,z
1/2-x,1/2-y,z
1/2+x,-y,-z
-x,1/2+y,-z
-x,-y,-z
1/2+x,1/2+y,-z
1/2-x,y,z
x,1/2-y,z
loop_
_atom_site_type_symbol
_atom_site_label
_atom_site_fract_x
_atom_site_fract_y
_atom_site_fract_z
Si Si1 0.750000 0.916622 0.020996
Si Si2 0.544785 0.908659 0.801208
Si Si3 0.845188 0.901409 0.674879
Si Si4 0.405846 0.415317 0.731640
Si Si5 0.599176 0.095026 0.553962
Si Si6 0.750000 0.916036 0.180352
Si Si7 0.072394 0.084771 0.036441
Si Si8 0.405995 0.094628 0.570611
O O1 0.750000 0.750000 0.019273
O O2 0.750000 0.964414 0.101088
O O3 0.663406 0.956056 0.987435
O O4 0.516591 0.750000 0.797102
O O5 0.622715 0.920073 0.752484
O O6 0.563262 0.937981 0.881142
O O7 0.480332 0.008446 0.766437
O O8 0.750000 0.901623 0.674211
O O9 0.874482 0.750000 0.650905
O O10 0.875892 0.016092 0.623051
O O11 0.416731 0.250000 0.734507
O O12 0.328442 0.455110 0.776568
O O13 0.395018 0.449747 0.650382
O O14 0.629636 0.250000 0.552134
O O15 0.501973 0.100582 0.556774
O O16 0.626646 0.008807 0.486995
O O17 0.750000 0.750000 0.177206
O O18 0.063738 0.250000 0.022860
O O19 0.000000 0.000000 0.000000
O O20 0.373885 0.250000 0.562576
#
# Coordination Sequence:
#
# PCOD9448541 Si02
#       8
#     4   8   8   8   8   4   8   8
#     4   9  18  34  57  83 112 147 184 224 273 331
#     4  10  21  35  56  83 110 141 181 226 276 329
#     4  10  21  36  54  77 107 144 183 228 278 327
#     4  10  19  35  57  81 110 143 183 226 270 323
#     4  10  19  33  53  77 104 139 181 227 272 322
#     4   9  18  32  55  83 106 137 180 222 263 317
#     4  10  21  37  58  85 115 148 187 231 280 338
#     4   9  18  32  52  77 105 139 178 220 268 321
#
# _framework density 17.934916000000001
#
# number of rings (size 3 to 8) (size 9 to 14) (size 15 to 20)
#    0.000    2.286    1.429    1.286    1.000    3.143 
#    1.286    0.714    0.000    2.571    0.000    0.000 
#    0.000    0.000    0.000    0.000    0.000    0.000 
#
# Total GULP energy -312197.920268 kJ/mol
# GULP energy per Si atom -5574.962862 kJ/mol
# Density = 1.789409 g / cm^3
# Si number density = 17.934916 Si / 1000 Ang^3
#
#
#
# Elastic Constant Matrix: (Units=GPa)
#
#
# Indices 1 2 3 4 5 6 
#
# 1 37.8128 30.4174 23.6222 0.0000 0.0000 0.0000
# 2 30.4174 75.4607 70.0645 0.0000 0.0000 0.0000
# 3 23.6222 70.0645 147.5481 0.0000 0.0000 0.0000
# 4 0.0000 0.0000 0.0000 25.7415 0.0000 0.0000
# 5 0.0000 0.0000 0.0000 0.0000 5.9188 0.0000
# 6 0.0000 0.0000 0.0000 0.0000 0.0000 7.4175
#
#
#
# Elastic Compliance Matrix: (Units=1/GPa)
#
#
# Indices 1 2 3 4 5 6 
#
# 1 0.039536 -0.017993 0.002214 0.000000 0.000000 0.000000
# 2 -0.017993 0.031891 -0.012263 0.000000 0.000000 0.000000
# 3 0.002214 -0.012263 0.012246 0.000000 0.000000 0.000000
# 4 0.000000 0.000000 0.000000 0.038848 0.000000 0.000000
# 5 0.000000 0.000000 0.000000 0.000000 0.168952 0.000000
# 6 0.000000 0.000000 0.000000 0.000000 0.000000 0.134816
#
#
# Mechanical properties :
#
#
# Convention : Reuss Voigt Hill
#
# Bulk Modulus (GPa) = 36.24433 56.55887 46.40160
# Shear Modulus (GPa) = 10.17151 16.93006 13.55078
#
# Velocity S-wave (km/s) = 2.38404 3.07575 2.75171
# Velocity P-wave (km/s) = 5.27550 6.64964 6.00202
#
# Compressibility (1/GPa) = 0.02759052
#
# Stress axis : x y z
#
# Youngs Moduli (GPa) = 25.29309 31.35721 81.65856
#
# Poissons Ratio (x) = 0.56420 -0.18081
# Poissons Ratio (y) = 0.45509 1.00137
# Poissons Ratio (z) = -0.05600 0.38453
#
# Static dielectric constant tensor:
#      x y z
#    x 1.619280 0.000000 0.000000 
#    y 0.000000 1.626090 0.000000 
#    z 0.000000 0.000000 1.596880 
# 
# From -- ./inp_files/30514.got.cif
#   From: 2010.05.17/outbox.cif.g08.bks.cpg/sg59_16_cif.got.tgz:30514.got - 2010.06.03 14:40:33.
