data_PCOD9448630
_publ_section_title
;
Structure prediction by ZEFSAII (Michael W. Deem and Ramdas Pophale) SiO2 
 PCOD9448630
Probable space group: P M M N
;
_chemical_formula_sum "Si O2"
_cell_formula_units_Z 32
_cell_length_a 9.396144
_cell_length_b 16.100946
_cell_length_c 11.661423
_cell_angle_alpha 90.000000
_cell_angle_beta 90.000000
_cell_angle_gamma 90.000000
_cell_volume 1764.219453
_symmetry_space_group_name_H-M "P M M N"
_symmetry_group_IT_number 59
_space_group.IT_coordinate_system_code '2'
_symmetry_cell_setting 'orthorhombic'
loop_
_space_group_symop_operation_xyz
x,y,z
1/2-x,1/2-y,z
1/2+x,-y,-z
-x,1/2+y,-z
-x,-y,-z
1/2+x,1/2+y,-z
1/2-x,y,z
x,1/2-y,z
loop_
_atom_site_type_symbol
_atom_site_label
_atom_site_fract_x
_atom_site_fract_y
_atom_site_fract_z
Si Si1 0.580784 0.250000 0.383253
Si Si2 0.407689 0.976989 0.322064
Si Si3 0.077628 0.250000 0.138539
Si Si4 0.418728 0.435454 0.080966
Si Si5 0.090805 0.115058 0.518116
O O1 0.750000 0.250000 0.369055
O O2 0.501191 0.250000 0.260956
O O3 0.523823 0.327058 0.456845
O O4 0.250000 0.939020 0.304786
O O5 0.529109 0.913062 0.359432
O O6 0.440961 0.031991 0.210975
O O7 0.396859 0.037781 0.431069
O O8 0.250000 0.250000 0.157535
O O9 0.041188 0.162503 0.076692
O O10 0.250000 0.440088 0.057069
O O11 0.500000 0.500000 0.000000
O O12 0.250000 0.150913 0.526724
#
# Coordination Sequence:
#
# PCOD9448630 Si02
#       5
#     4   8   4   8   8
#     4  12  22  32  53  86 117 146 189 241 287 345
#     4   9  18  34  54  79 109 144 185 233 285 337
#     4  10  20  40  61  82 113 154 197 243 293 349
#     4  10  21  38  61  85 116 155 199 245 294 347
#     4  10  19  33  54  79 112 147 182 225 284 348
#
# _framework density 18.138332999999999
#
# number of rings (size 3 to 8) (size 9 to 14) (size 15 to 20)
#    0.000    2.000    2.500    1.875    0.000    3.000 
#    0.000    1.250    0.000    6.000    0.000    0.000 
#    0.000    0.000    0.000    0.000    0.000    0.000 
#
# Total GULP energy -178218.256478 kJ/mol
# GULP energy per Si atom -5569.320515 kJ/mol
# Density = 1.809705 g / cm^3
# Si number density = 18.138333 Si / 1000 Ang^3
#
#
#
# Elastic Constant Matrix: (Units=GPa)
#
#
# Indices 1 2 3 4 5 6 
#
# 1 82.7293 54.1266 34.2838 0.0000 0.0000 0.0000
# 2 54.1266 101.9989 45.2382 0.0000 0.0000 0.0000
# 3 34.2838 45.2382 60.0650 0.0000 0.0000 0.0000
# 4 0.0000 0.0000 0.0000 22.2911 0.0000 0.0000
# 5 0.0000 0.0000 0.0000 0.0000 29.1876 0.0000
# 6 0.0000 0.0000 0.0000 0.0000 0.0000 29.4654
#
#
#
# Elastic Compliance Matrix: (Units=1/GPa)
#
#
# Indices 1 2 3 4 5 6 
#
# 1 0.019468 -0.008112 -0.005002 0.000000 0.000000 0.000000
# 2 -0.008112 0.018102 -0.009003 0.000000 0.000000 0.000000
# 3 -0.005002 -0.009003 0.026285 0.000000 0.000000 0.000000
# 4 0.000000 0.000000 0.000000 0.044861 0.000000 0.000000
# 5 0.000000 0.000000 0.000000 0.000000 0.034261 0.000000
# 6 0.000000 0.000000 0.000000 0.000000 0.000000 0.033938
#
#
# Mechanical properties :
#
#
# Convention : Reuss Voigt Hill
#
# Bulk Modulus (GPa) = 50.97038 56.89895 53.93466
# Shear Modulus (GPa) = 21.95965 23.59845 22.77905
#
# Velocity S-wave (km/s) = 3.48325 3.61089 3.54764
# Velocity P-wave (km/s) = 6.65878 6.98729 6.82501
#
# Compressibility (1/GPa) = 0.01961924
#
# Stress axis : x y z
#
# Youngs Moduli (GPa) = 51.36583 55.24231 38.04521
#
# Poissons Ratio (x) = 0.44815 0.19030
# Poissons Ratio (y) = 0.41670 0.34253
# Poissons Ratio (z) = 0.25694 0.49736
#
# Static dielectric constant tensor:
#      x y z
#    x 1.651760 0.000000 0.000000 
#    y 0.000000 1.767120 0.000000 
#    z 0.000000 0.000000 1.587560 
# 
# From -- ./inp_files/13761.got.cif
#   From: 2010.05.17/outbox.cif.g08.bks.cpg/sg59_7_cif.got.tgz:13761.got - 2010.06.03 14:40:33.
