data_PCOD9448592
_publ_section_title
;
Structure prediction by ZEFSAII (Michael W. Deem and Ramdas Pophale) SiO2 
 PCOD9448592
Probable space group: P M M N
;
_chemical_formula_sum "Si O2"
_cell_formula_units_Z 64
_cell_length_a 8.731780
_cell_length_b 19.337216
_cell_length_c 22.229601
_cell_angle_alpha 90.000000
_cell_angle_beta 90.000000
_cell_angle_gamma 90.000000
_cell_volume 3753.430693
_symmetry_space_group_name_H-M "P M M N"
_symmetry_group_IT_number 59
_space_group.IT_coordinate_system_code '2'
_symmetry_cell_setting 'orthorhombic'
loop_
_space_group_symop_operation_xyz
x,y,z
1/2-x,1/2-y,z
1/2+x,-y,-z
-x,1/2+y,-z
-x,-y,-z
1/2+x,1/2+y,-z
1/2-x,y,z
x,1/2-y,z
loop_
_atom_site_type_symbol
_atom_site_label
_atom_site_fract_x
_atom_site_fract_y
_atom_site_fract_z
Si Si1 0.434867 0.470111 0.438477
Si Si2 0.068154 0.592045 0.847880
Si Si3 0.565662 0.669305 0.098910
Si Si4 0.933322 0.831651 0.960850
Si Si5 0.575268 0.862712 0.728228
Si Si6 0.434632 0.943671 0.187364
Si Si7 0.575331 0.476912 0.685815
Si Si8 0.932458 0.173790 0.395572
O O1 0.500000 0.500000 0.500000
O O2 0.250000 0.472014 0.438036
O O3 0.492795 0.515173 0.380772
O O4 0.487255 0.391171 0.427268
O O5 0.250000 0.589331 0.842005
O O6 0.018651 0.623545 0.911369
O O7 0.999251 0.638627 0.793793
O O8 0.000534 0.515132 0.839224
O O9 0.750000 0.662917 0.103896
O O10 0.526937 0.750000 0.108358
O O11 0.486249 0.619260 0.146059
O O12 0.524938 0.651133 0.029807
O O13 0.750000 0.841332 0.954442
O O14 0.964547 0.750000 0.952025
O O15 0.750000 0.837399 0.729392
O O16 0.480639 0.828767 0.674576
O O17 0.580493 0.943888 0.709646
O O18 0.250000 0.949031 0.189182
O O19 0.492101 0.936983 0.256842
O O20 0.750000 0.452070 0.677932
O O21 0.750000 0.165564 0.400401
O O22 0.975179 0.250000 0.419319
#
# Coordination Sequence:
#
# PCOD9448592 Si02
#       8
#     8   8   8   8   8   8   8   8
#     4  10  19  33  54  78 106 140 177 214 256 307
#     4  11  21  32  49  74 103 133 168 211 256 301
#     4   9  19  36  55  74  97 126 163 210 265 318
#     4   9  19  36  53  67  91 130 170 208 255 312
#     4   9  17  31  49  69  97 132 167 202 245 298
#     4  10  19  33  54  77 101 130 166 207 251 304
#     4   7  14  29  48  71  97 124 155 194 237 284
#     4  10  20  33  50  75 106 138 176 219 257 298
#
# _framework density 17.051067
#
# number of rings (size 3 to 8) (size 9 to 14) (size 15 to 20)
#    0.000    2.625    0.000    4.875    0.000    3.000 
#    0.000    3.125    0.000    0.750    0.000    1.750 
#    0.000    0.000    0.000    0.000    0.000    0.000 
#
# Total GULP energy -356651.038346 kJ/mol
# GULP energy per Si atom -5572.672474 kJ/mol
# Density = 1.701226 g / cm^3
# Si number density = 17.051067 Si / 1000 Ang^3
#
#
#
# Elastic Constant Matrix: (Units=GPa)
#
#
# Indices 1 2 3 4 5 6 
#
# 1 55.8360 29.4078 44.5098 0.0000 0.0000 0.0000
# 2 29.4078 63.5203 66.3186 0.0000 0.0000 0.0000
# 3 44.5098 66.3186 150.2149 0.0000 0.0000 0.0000
# 4 0.0000 0.0000 0.0000 12.9881 0.0000 0.0000
# 5 0.0000 0.0000 0.0000 0.0000 28.9231 0.0000
# 6 0.0000 0.0000 0.0000 0.0000 0.0000 22.9269
#
#
#
# Elastic Compliance Matrix: (Units=1/GPa)
#
#
# Indices 1 2 3 4 5 6 
#
# 1 0.025083 -0.007148 -0.004277 0.000000 0.000000 0.000000
# 2 -0.007148 0.031241 -0.011675 0.000000 0.000000 0.000000
# 3 -0.004277 -0.011675 0.013079 0.000000 0.000000 0.000000
# 4 0.000000 0.000000 0.000000 0.076994 0.000000 0.000000
# 5 0.000000 0.000000 0.000000 0.000000 0.034574 0.000000
# 6 0.000000 0.000000 0.000000 0.000000 0.000000 0.043617
#
#
# Mechanical properties :
#
#
# Convention : Reuss Voigt Hill
#
# Bulk Modulus (GPa) = 43.09436 61.11596 52.10516
# Shear Modulus (GPa) = 17.95192 21.58995 19.77094
#
# Velocity S-wave (km/s) = 3.24826 3.56222 3.40886
# Velocity P-wave (km/s) = 6.27669 7.26911 6.79105
#
# Compressibility (1/GPa) = 0.02320489
#
# Stress axis : x y z
#
# Youngs Moduli (GPa) = 39.86707 32.00894 76.46001
#
# Poissons Ratio (x) = 0.22879 0.32700
# Poissons Ratio (y) = 0.28495 0.89266
# Poissons Ratio (z) = 0.17050 0.37370
#
# Static dielectric constant tensor:
#      x y z
#    x 1.579090 0.000000 0.000000 
#    y 0.000000 1.569540 0.000000 
#    z 0.000000 0.000000 1.589960 
# 
# From -- ./inp_files/29621.got.cif
#   From: 2010.05.17/outbox.cif.g08.bks.cpg/sg59_15_cif.got.tgz:29621.got - 2010.06.03 14:40:33.
