data_PCOD9448041
_publ_section_title
;
Structure prediction by ZEFSAII (Michael W. Deem and Ramdas Pophale) SiO2 
 PCOD9448041
Probable space group: P M M N
;
_chemical_formula_sum "Si O2"
_cell_formula_units_Z 64
_cell_length_a 24.699695
_cell_length_b 7.524565
_cell_length_c 15.818540
_cell_angle_alpha 90.000000
_cell_angle_beta 90.000000
_cell_angle_gamma 90.000000
_cell_volume 2939.946218
_symmetry_space_group_name_H-M "P M M N"
_symmetry_group_IT_number 59
_space_group.IT_coordinate_system_code '2'
_symmetry_cell_setting 'orthorhombic'
loop_
_space_group_symop_operation_xyz
x,y,z
1/2-x,1/2-y,z
1/2+x,-y,-z
-x,1/2+y,-z
-x,-y,-z
1/2+x,1/2+y,-z
1/2-x,y,z
x,1/2-y,z
loop_
_atom_site_type_symbol
_atom_site_label
_atom_site_fract_x
_atom_site_fract_y
_atom_site_fract_z
Si Si1 0.517187 0.537839 0.596585
Si Si2 0.510643 0.467095 0.218857
Si Si3 0.812549 0.467650 0.306953
Si Si4 0.892240 0.546478 0.833481
Si Si5 0.311966 0.039891 0.025562
Si Si6 0.863667 0.452630 0.651723
Si Si7 0.814534 0.455835 0.486797
Si Si8 0.621771 0.035097 0.143557
O O1 0.500000 0.500000 0.500000
O O2 0.522822 0.750000 0.602116
O O3 0.482941 0.484542 0.681061
O O4 0.575511 0.454753 0.615450
O O5 0.509816 0.250000 0.218033
O O6 0.452273 0.530569 0.184057
O O7 0.560042 0.524205 0.159246
O O8 0.750000 0.520663 0.297193
O O9 0.813352 0.250000 0.310024
O O10 0.834711 0.530484 0.397763
O O11 0.846278 0.524300 0.226927
O O12 0.901934 0.750000 0.860565
O O13 0.851316 0.464196 0.901351
O O14 0.864352 0.545223 0.741750
O O15 0.250000 0.969132 0.021141
O O16 0.306576 0.250000 0.042964
O O17 0.344974 0.021024 0.938481
O O18 0.845471 0.250000 0.666934
O O19 0.830000 0.537766 0.575743
O O20 0.750000 0.453020 0.478996
O O21 0.833714 0.250000 0.491311
O O22 0.621381 0.250000 0.142394
#
# Coordination Sequence:
#
# PCOD9448041 Si02
#       8
#     8   8   8   8   8   8   8   8
#     4  10  20  34  52  76 109 147 185 223 260 312
#     4   8  17  33  53  77 105 137 175 217 268 322
#     4   8  14  25  43  68  98 131 165 205 254 311
#     4   9  19  38  56  71 103 145 180 217 266 329
#     4  10  22  39  57  77 104 142 182 220 274 335
#     4  10  19  31  52  79 106 137 175 225 275 314
#     4   8  15  27  44  70 103 137 173 212 259 318
#     4  10  19  32  55  82 104 130 172 225 271 318
#
# _framework density 21.769106000000001
#
# number of rings (size 3 to 8) (size 9 to 14) (size 15 to 20)
#    0.000    2.875    0.000    2.625    1.750    2.250 
#    0.000    3.125    0.000    1.125    0.000    1.750 
#    0.000    0.000    0.000    0.000    0.000    0.000 
#
# Total GULP energy -356682.497392 kJ/mol
# GULP energy per Si atom -5573.164022 kJ/mol
# Density = 2.171956 g / cm^3
# Si number density = 21.769106 Si / 1000 Ang^3
#
#
#
# Elastic Constant Matrix: (Units=GPa)
#
#
# Indices 1 2 3 4 5 6 
#
# 1 109.1821 5.6270 105.9741 0.0000 0.0000 0.0000
# 2 5.6270 58.8202 -7.5448 0.0000 0.0000 0.0000
# 3 105.9741 -7.5448 155.9210 0.0000 0.0000 0.0000
# 4 0.0000 0.0000 0.0000 19.3258 0.0000 0.0000
# 5 0.0000 0.0000 0.0000 0.0000 39.0529 0.0000
# 6 0.0000 0.0000 0.0000 0.0000 0.0000 4.7282
#
#
#
# Elastic Compliance Matrix: (Units=1/GPa)
#
#
# Indices 1 2 3 4 5 6 
#
# 1 0.028428 -0.005230 -0.019575 0.000000 0.000000 0.000000
# 2 -0.005230 0.018069 0.004429 0.000000 0.000000 0.000000
# 3 -0.019575 0.004429 0.019932 0.000000 0.000000 0.000000
# 4 0.000000 0.000000 0.000000 0.051744 0.000000 0.000000
# 5 0.000000 0.000000 0.000000 0.000000 0.025606 0.000000
# 6 0.000000 0.000000 0.000000 0.000000 0.000000 0.211497
#
#
# Mechanical properties :
#
#
# Convention : Reuss Voigt Hill
#
# Bulk Modulus (GPa) = 38.94383 59.11511 49.02947
# Shear Modulus (GPa) = 12.35823 27.27918 19.81871
#
# Velocity S-wave (km/s) = 2.38522 3.54378 3.02057
# Velocity P-wave (km/s) = 5.05114 6.63015 5.89377
#
# Compressibility (1/GPa) = 0.02567801
#
# Stress axis : x y z
#
# Youngs Moduli (GPa) = 35.17634 55.34199 50.17026
#
# Poissons Ratio (x) = 0.28946 0.98207
# Poissons Ratio (y) = 0.18399 -0.22222
# Poissons Ratio (z) = 0.68857 -0.24513
#
# Static dielectric constant tensor:
#      x y z
#    x 1.828190 0.000000 0.000000 
#    y 0.000000 1.846380 0.000000 
#    z 0.000000 0.000000 1.800140 
# 
# From -- ./inp_files/24805.got.cif
#   From: 2010.05.17/outbox.cif.g08.bks.cpg/sg59_13_cif.got.tgz:24805.got - 2010.06.03 14:40:33.
