data_PCOD9448587
_publ_section_title
;
Structure prediction by ZEFSAII (Michael W. Deem and Ramdas Pophale) SiO2 
 PCOD9448587
Probable space group: P M M N
;
_chemical_formula_sum "Si O2"
_cell_formula_units_Z 64
_cell_length_a 7.927532
_cell_length_b 18.150705
_cell_length_c 23.296742
_cell_angle_alpha 90.000000
_cell_angle_beta 90.000000
_cell_angle_gamma 90.000000
_cell_volume 3352.175072
_symmetry_space_group_name_H-M "P M M N"
_symmetry_group_IT_number 59
_space_group.IT_coordinate_system_code '2'
_symmetry_cell_setting 'orthorhombic'
loop_
_space_group_symop_operation_xyz
x,y,z
1/2-x,1/2-y,z
1/2+x,-y,-z
-x,1/2+y,-z
-x,-y,-z
1/2+x,1/2+y,-z
1/2-x,y,z
x,1/2-y,z
loop_
_atom_site_type_symbol
_atom_site_label
_atom_site_fract_x
_atom_site_fract_y
_atom_site_fract_z
Si Si1 0.453969 0.832801 0.559526
Si Si2 0.047335 0.568695 0.459548
Si Si3 0.554770 0.869789 0.071068
Si Si4 0.947136 0.521503 0.889729
Si Si5 0.946063 0.330644 0.052710
Si Si6 0.449951 0.988858 0.236819
Si Si7 0.045889 0.469798 0.360107
Si Si8 0.545782 0.831443 0.200009
O O1 0.250000 0.831297 0.558218
O O2 0.514282 0.750000 0.571825
O O3 0.513280 0.861491 0.496541
O O4 0.501666 0.894771 0.606273
O O5 0.250000 0.574996 0.455809
O O6 0.985818 0.540577 0.397640
O O7 0.000000 0.500000 0.500000
O O8 0.750000 0.848168 0.065213
O O9 0.493345 0.842124 0.133260
O O10 0.540111 0.958339 0.074247
O O11 0.460194 0.840345 0.015809
O O12 0.750000 0.500239 0.888794
O O13 0.015280 0.518432 0.824386
O O14 0.964583 0.601106 0.917320
O O15 0.750000 0.333876 0.068845
O O16 0.014338 0.250000 0.068200
O O17 0.250000 0.003286 0.236590
O O18 0.478206 0.900895 0.235031
O O19 0.519115 0.023979 0.295178
O O20 0.250000 0.473274 0.358761
O O21 0.750000 0.835405 0.200632
O O22 0.494339 0.750000 0.219636
#
# Coordination Sequence:
#
# PCOD9448587 Si02
#       8
#     8   8   8   8   8   8   8   8
#     4   9  17  29  46  71 100 127 158 196 238 283
#     4   8  14  26  45  67  92 121 150 185 228 274
#     4  10  19  33  54  76  98 124 156 194 240 296
#     4  10  20  35  53  71  95 127 162 199 240 288
#     4  11  23  36  50  71  98 125 157 200 247 293
#     4   9  19  34  51  72  96 126 165 203 237 278
#     4   9  17  31  50  71  95 125 164 202 236 279
#     4   9  18  32  50  73  99 126 157 194 237 286
#
# _framework density 19.092082000000001
#
# number of rings (size 3 to 8) (size 9 to 14) (size 15 to 20)
#    0.000    2.625    0.000    1.875    0.000    3.500 
#    0.000    1.250    0.000    6.000    0.000    0.000 
#    0.000    0.000    0.000    0.000    0.000    0.000 
#
# Total GULP energy -356700.203323 kJ/mol
# GULP energy per Si atom -5573.440677 kJ/mol
# Density = 1.904863 g / cm^3
# Si number density = 19.092082 Si / 1000 Ang^3
#
#
#
# Elastic Constant Matrix: (Units=GPa)
#
#
# Indices 1 2 3 4 5 6 
#
# 1 19.0057 -7.1013 0.1152 0.0000 0.0000 0.0000
# 2 -7.1013 105.2018 37.0819 0.0000 0.0000 0.0000
# 3 0.1152 37.0819 66.9510 0.0000 0.0000 0.0000
# 4 0.0000 0.0000 0.0000 17.2847 0.0000 0.0000
# 5 0.0000 0.0000 0.0000 0.0000 9.7958 0.0000
# 6 0.0000 0.0000 0.0000 0.0000 0.0000 19.3154
#
#
#
# Elastic Compliance Matrix: (Units=1/GPa)
#
#
# Indices 1 2 3 4 5 6 
#
# 1 0.054350 0.004600 -0.002641 0.000000 0.000000 0.000000
# 2 0.004600 0.012201 -0.006765 0.000000 0.000000 0.000000
# 3 -0.002641 -0.006765 0.018688 0.000000 0.000000 0.000000
# 4 0.000000 0.000000 0.000000 0.057855 0.000000 0.000000
# 5 0.000000 0.000000 0.000000 0.000000 0.102085 0.000000
# 6 0.000000 0.000000 0.000000 0.000000 0.000000 0.051772
#
#
# Mechanical properties :
#
#
# Convention : Reuss Voigt Hill
#
# Bulk Modulus (GPa) = 13.22311 27.92779 20.57545
# Shear Modulus (GPa) = 15.07055 20.01669 17.54362
#
# Velocity S-wave (km/s) = 2.81261 3.24146 3.03462
# Velocity P-wave (km/s) = 4.18195 5.35435 4.80405
#
# Compressibility (1/GPa) = 0.07562520
#
# Stress axis : x y z
#
# Youngs Moduli (GPa) = 18.39917 81.96226 53.51030
#
# Poissons Ratio (x) = -0.37700 0.14132
# Poissons Ratio (y) = -0.08463 0.36202
# Poissons Ratio (z) = 0.04859 0.55451
#
# Static dielectric constant tensor:
#      x y z
#    x 1.681150 0.000000 0.000000 
#    y 0.000000 1.666640 0.000000 
#    z 0.000000 0.000000 1.681380 
# 
# From -- ./inp_files/31719.got.cif
#   From: 2010.05.17/outbox.cif.g08.bks.cpg/sg59_16_cif.got.tgz:31719.got - 2010.06.03 14:40:33.
