data_PCOD9448544
_publ_section_title
;
Structure prediction by ZEFSAII (Michael W. Deem and Ramdas Pophale) SiO2 
 PCOD9448544
Probable space group: P M M N
;
_chemical_formula_sum "Si O2"
_cell_formula_units_Z 64
_cell_length_a 8.368923
_cell_length_b 34.838786
_cell_length_c 11.195168
_cell_angle_alpha 90.000000
_cell_angle_beta 90.000000
_cell_angle_gamma 90.000000
_cell_volume 3264.098082
_symmetry_space_group_name_H-M "P M M N"
_symmetry_group_IT_number 59
_space_group.IT_coordinate_system_code '2'
_symmetry_cell_setting 'orthorhombic'
loop_
_space_group_symop_operation_xyz
x,y,z
1/2-x,1/2-y,z
1/2+x,-y,-z
-x,1/2+y,-z
-x,-y,-z
1/2+x,1/2+y,-z
1/2-x,y,z
x,1/2-y,z
loop_
_atom_site_type_symbol
_atom_site_label
_atom_site_fract_x
_atom_site_fract_y
_atom_site_fract_z
Si Si1 0.438397 0.055923 0.189230
Si Si2 0.435121 0.484438 0.696057
Si Si3 0.943622 0.206787 0.955927
Si Si4 0.442954 0.293092 0.226798
Si Si5 0.941826 0.133875 0.817028
Si Si6 0.562716 0.444992 0.931052
Si Si7 0.058543 0.590563 0.419613
Si Si8 0.056610 0.127882 0.335926
O O1 0.250000 0.056742 0.166995
O O2 0.492838 0.097729 0.233215
O O3 0.474954 0.024819 0.291872
O O4 0.521261 0.044329 0.065544
O O5 0.250000 0.491845 0.675286
O O6 0.463787 0.465300 0.826738
O O7 0.497232 0.452647 0.603442
O O8 0.750000 0.205184 0.959056
O O9 0.990473 0.250000 0.920542
O O10 0.004058 0.174053 0.866350
O O11 0.004640 0.200167 0.090202
O O12 0.250000 0.292908 0.230442
O O13 0.498260 0.250000 0.261277
O O14 0.498599 0.328987 0.306308
O O15 0.750000 0.137912 0.803503
O O16 0.001167 0.116790 0.691670
O O17 0.967734 0.100382 0.913887
O O18 0.250000 0.547471 0.093920
O O19 0.250000 0.588904 0.414480
O O20 0.004607 0.610344 0.540856
O O21 0.250000 0.127827 0.338836
#
# Coordination Sequence:
#
# PCOD9448544 Si02
#       8
#     8   8   8   8   8   8   8   8
#     4  11  22  35  52  77 108 138 174 219 265 315
#     4  11  22  37  56  77 104 138 175 215 265 320
#     4   9  16  28  50  79 108 135 165 204 253 311
#     4   9  18  34  55  79 109 140 169 207 256 306
#     4   8  16  31  50  73 101 133 167 207 257 307
#     4  10  19  33  53  77 106 138 175 217 264 317
#     4  10  21  38  57  75 100 137 180 224 266 310
#     4  10  22  38  55  77 105 140 181 221 261 308
#
# _framework density 19.607254000000001
#
# number of rings (size 3 to 8) (size 9 to 14) (size 15 to 20)
#    0.000    2.250    0.000    4.125    0.000    2.000 
#    0.000    3.750    0.000    0.750    0.000    0.000 
#    0.000    0.000    0.000    0.000    0.000    0.000 
#
# Total GULP energy -357230.423787 kJ/mol
# GULP energy per Si atom -5581.725372 kJ/mol
# Density = 1.956263 g / cm^3
# Si number density = 19.607254 Si / 1000 Ang^3
#
#
#
# Elastic Constant Matrix: (Units=GPa)
#
#
# Indices 1 2 3 4 5 6 
#
# 1 10.5230 0.4457 -3.7136 0.0000 0.0000 0.0000
# 2 0.4457 74.7260 7.4126 0.0000 0.0000 0.0000
# 3 -3.7136 7.4126 40.2304 0.0000 0.0000 0.0000
# 4 0.0000 0.0000 0.0000 26.2347 0.0000 0.0000
# 5 0.0000 0.0000 0.0000 0.0000 23.8915 0.0000
# 6 0.0000 0.0000 0.0000 0.0000 0.0000 16.3314
#
#
#
# Elastic Compliance Matrix: (Units=1/GPa)
#
#
# Indices 1 2 3 4 5 6 
#
# 1 0.098398 -0.001516 0.009362 0.000000 0.000000 0.000000
# 2 -0.001516 0.013655 -0.002656 0.000000 0.000000 0.000000
# 3 0.009362 -0.002656 0.026210 0.000000 0.000000 0.000000
# 4 0.000000 0.000000 0.000000 0.038117 0.000000 0.000000
# 5 0.000000 0.000000 0.000000 0.000000 0.041856 0.000000
# 6 0.000000 0.000000 0.000000 0.000000 0.000000 0.061232
#
#
# Mechanical properties :
#
#
# Convention : Reuss Voigt Hill
#
# Bulk Modulus (GPa) = 6.72748 14.86320 10.79534
# Shear Modulus (GPa) = 15.69197 21.38051 18.53624
#
# Velocity S-wave (km/s) = 2.83205 3.30576 3.07803
# Velocity P-wave (km/s) = 3.75933 4.70826 4.26030
#
# Compressibility (1/GPa) = 0.14864418
#
# Stress axis : x y z
#
# Youngs Moduli (GPa) = 10.16284 73.23479 38.15288
#
# Poissons Ratio (x) = 0.11099 -0.35719
# Poissons Ratio (y) = 0.01540 0.10133
# Poissons Ratio (z) = -0.09515 0.19450
#
# Static dielectric constant tensor:
#      x y z
#    x 1.674740 0.000000 0.000000 
#    y 0.000000 1.722490 0.000000 
#    z 0.000000 0.000000 1.670720 
# 
# From -- ./inp_files/14985.got.cif
#   From: 2010.05.17/outbox.cif.g08.bks.cpg/sg59_8_cif.got.tgz:14985.got - 2010.06.03 14:40:33.
