data_PCOD9448308
_publ_section_title
;
Structure prediction by ZEFSAII (Michael W. Deem and Ramdas Pophale) SiO2 
 PCOD9448308
Probable space group: P M M N
;
_chemical_formula_sum "Si O2"
_cell_formula_units_Z 64
_cell_length_a 24.659952
_cell_length_b 14.818186
_cell_length_c 9.654099
_cell_angle_alpha 90.000000
_cell_angle_beta 90.000000
_cell_angle_gamma 90.000000
_cell_volume 3527.759880
_symmetry_space_group_name_H-M "P M M N"
_symmetry_group_IT_number 59
_space_group.IT_coordinate_system_code '2'
_symmetry_cell_setting 'orthorhombic'
loop_
_space_group_symop_operation_xyz
x,y,z
1/2-x,1/2-y,z
1/2+x,-y,-z
-x,1/2+y,-z
-x,-y,-z
1/2+x,1/2+y,-z
1/2-x,y,z
x,1/2-y,z
loop_
_atom_site_type_symbol
_atom_site_label
_atom_site_fract_x
_atom_site_fract_y
_atom_site_fract_z
Si Si1 0.051703 0.857467 0.938105
Si Si2 0.923148 0.642233 0.914077
Si Si3 0.612459 0.646712 0.607030
Si Si4 0.313044 0.474843 0.588515
Si Si5 0.188079 0.643356 0.406746
Si Si6 0.584104 0.143993 0.755524
Si Si7 0.898812 0.971631 0.183441
Si Si8 0.017262 0.411089 0.581877
O O1 0.062711 0.750000 0.921991
O O2 0.988087 0.871547 0.909171
O O3 0.086643 0.923972 0.843889
O O4 0.063888 0.889296 0.095735
O O5 0.914510 0.750000 0.936530
O O6 0.898459 0.617316 0.764883
O O7 0.900569 0.584662 0.041653
O O8 0.631684 0.750000 0.608215
O O9 0.653982 0.583838 0.524202
O O10 0.555340 0.643270 0.523876
O O11 0.250000 0.450140 0.591673
O O12 0.317444 0.578851 0.539121
O O13 0.342918 0.462406 0.734040
O O14 0.250000 0.632847 0.354837
O O15 0.179937 0.750000 0.436706
O O16 0.142078 0.611464 0.299392
O O17 0.590904 0.250000 0.776578
O O18 0.537834 0.130645 0.640731
O O19 0.945179 0.933305 0.286036
O O20 0.000000 0.500000 0.500000
#
# Coordination Sequence:
#
# PCOD9448308 Si02
#       8
#     8   8   8   8   8   8   8   8
#     4  10  21  34  53  84 121 157 188 224 276 348
#     4  10  21  37  57  85 120 155 188 229 287 350
#     4  10  22  38  59  85 117 154 193 239 294 349
#     4  10  23  42  61  84 110 148 199 249 300 351
#     4   9  19  36  57  80 109 146 190 241 291 343
#     4  10  19  32  52  79 113 149 190 231 280 341
#     4  11  22  35  58  81 116 153 191 238 291 347
#     4  11  21  32  53  85 116 152 194 234 286 345
#
# _framework density 18.141824
#
# number of rings (size 3 to 8) (size 9 to 14) (size 15 to 20)
#    0.000    1.875    1.250    3.000    3.500    2.750 
#    0.000    4.375    0.000    1.500    0.000    0.000 
#    0.000    0.000    0.000    0.000    0.000    0.000 
#
# Total GULP energy -357095.357974 kJ/mol
# GULP energy per Si atom -5579.614968 kJ/mol
# Density = 1.810053 g / cm^3
# Si number density = 18.141824 Si / 1000 Ang^3
#
#
#
# Elastic Constant Matrix: (Units=GPa)
#
#
# Indices 1 2 3 4 5 6 
#
# 1 116.6821 40.0868 58.7931 0.0000 0.0000 0.0000
# 2 40.0868 68.3093 50.2724 0.0000 0.0000 0.0000
# 3 58.7931 50.2724 124.9545 0.0000 0.0000 0.0000
# 4 0.0000 0.0000 0.0000 19.7721 0.0000 0.0000
# 5 0.0000 0.0000 0.0000 0.0000 19.5137 0.0000
# 6 0.0000 0.0000 0.0000 0.0000 0.0000 24.0662
#
#
#
# Elastic Compliance Matrix: (Units=1/GPa)
#
#
# Indices 1 2 3 4 5 6 
#
# 1 0.011990 -0.004098 -0.003993 0.000000 0.000000 0.000000
# 2 -0.004098 0.022198 -0.007003 0.000000 0.000000 0.000000
# 3 -0.003993 -0.007003 0.012699 0.000000 0.000000 0.000000
# 4 0.000000 0.000000 0.000000 0.050576 0.000000 0.000000
# 5 0.000000 0.000000 0.000000 0.000000 0.051246 0.000000
# 6 0.000000 0.000000 0.000000 0.000000 0.000000 0.041552
#
#
# Mechanical properties :
#
#
# Convention : Reuss Voigt Hill
#
# Bulk Modulus (GPa) = 59.87965 67.58340 63.73153
# Shear Modulus (GPa) = 22.12250 23.38996 22.75623
#
# Velocity S-wave (km/s) = 3.49581 3.59456 3.54553
# Velocity P-wave (km/s) = 7.02654 7.38657 7.20881
#
# Compressibility (1/GPa) = 0.01670016
#
# Stress axis : x y z
#
# Youngs Moduli (GPa) = 83.40298 45.04992 78.74646
#
# Poissons Ratio (x) = 0.18460 0.31443
# Poissons Ratio (y) = 0.34176 0.55143
# Poissons Ratio (z) = 0.33302 0.31547
#
# Static dielectric constant tensor:
#      x y z
#    x 1.591560 0.000000 0.000000 
#    y 0.000000 1.622090 0.000000 
#    z 0.000000 0.000000 1.613480 
# 
# From -- ./inp_files/12228.got.cif
#   From: 2010.05.17/outbox.cif.g08.bks.cpg/sg59_7_cif.got.tgz:12228.got - 2010.06.03 14:40:33.
