data_PCOD9448307
_publ_section_title
;
Structure prediction by ZEFSAII (Michael W. Deem and Ramdas Pophale) SiO2 
 PCOD9448307
Probable space group: P M M N
;
_chemical_formula_sum "Si O2"
_cell_formula_units_Z 48
_cell_length_a 28.726588
_cell_length_b 8.678872
_cell_length_c 10.407074
_cell_angle_alpha 90.000000
_cell_angle_beta 90.000000
_cell_angle_gamma 90.000000
_cell_volume 2594.633205
_symmetry_space_group_name_H-M "P M M N"
_symmetry_group_IT_number 59
_space_group.IT_coordinate_system_code '2'
_symmetry_cell_setting 'orthorhombic'
loop_
_space_group_symop_operation_xyz
x,y,z
1/2-x,1/2-y,z
1/2+x,-y,-z
-x,1/2+y,-z
-x,-y,-z
1/2+x,1/2+y,-z
1/2-x,y,z
x,1/2-y,z
loop_
_atom_site_type_symbol
_atom_site_label
_atom_site_fract_x
_atom_site_fract_y
_atom_site_fract_z
Si Si1 0.044098 0.933733 0.169248
Si Si2 0.558623 0.935380 0.114584
Si Si3 0.632466 0.565871 0.714551
Si Si4 0.803258 0.433842 0.937623
Si Si5 0.660370 0.935968 0.202751
Si Si6 0.697104 0.937979 0.481288
O O1 0.047284 0.750000 0.174426
O O2 0.989867 0.979349 0.182714
O O3 0.080329 0.003974 0.269202
O O4 0.058561 0.989131 0.026292
O O5 0.557949 0.750000 0.096628
O O6 0.605633 0.974680 0.189593
O O7 0.630992 0.750000 0.712725
O O8 0.661592 0.511956 0.838517
O O9 0.660580 0.510739 0.589217
O O10 0.750000 0.473594 0.904125
O O11 0.808854 0.250000 0.930923
O O12 0.814125 0.490288 0.081206
O O13 0.664789 0.750000 0.193546
O O14 0.681572 0.985092 0.338669
O O15 0.750000 0.987954 0.508987
O O16 0.696995 0.750000 0.482945
#
# Coordination Sequence:
#
# PCOD9448307 Si02
#       6
#     8   8   8   8   8   8
#     4  10  19  32  52  79 113 144 176 223 275 324
#     4   9  18  32  53  82 110 141 178 220 273 330
#     4  11  21  35  55  79 107 143 188 227 266 318
#     4  11  23  36  52  79 111 139 175 226 279 327
#     4  10  19  35  59  83 106 137 181 227 272 324
#     4   9  19  35  55  79 107 141 182 228 274 320
#
# _framework density 18.499725000000002
#
# number of rings (size 3 to 8) (size 9 to 14) (size 15 to 20)
#    0.000    2.000    1.667    2.500    0.000    3.333 
#    0.000    2.500    0.000    4.000    0.000    0.000 
#    0.000    0.000    0.000    0.000    0.000    0.000 
#
# Total GULP energy -267980.263482 kJ/mol
# GULP energy per Si atom -5582.922156 kJ/mol
# Density = 1.845762 g / cm^3
# Si number density = 18.499725 Si / 1000 Ang^3
#
#
#
# Elastic Constant Matrix: (Units=GPa)
#
#
# Indices 1 2 3 4 5 6 
#
# 1 62.0392 14.8536 -19.7091 0.0000 0.0000 0.0000
# 2 14.8536 14.3321 -2.8487 0.0000 0.0000 0.0000
# 3 -19.7091 -2.8487 31.6969 0.0000 0.0000 0.0000
# 4 0.0000 0.0000 0.0000 -2.0627 0.0000 0.0000
# 5 0.0000 0.0000 0.0000 0.0000 31.2373 0.0000
# 6 0.0000 0.0000 0.0000 0.0000 0.0000 24.6286
#
#
#
# Elastic Compliance Matrix: (Units=1/GPa)
#
#
# Indices 1 2 3 4 5 6 
#
# 1 0.026578 -0.024701 0.014306 0.000000 0.000000 0.000000
# 2 -0.024701 0.094000 -0.006911 0.000000 0.000000 0.000000
# 3 0.014306 -0.006911 0.039823 0.000000 0.000000 0.000000
# 4 0.000000 0.000000 0.000000 -0.484801 0.000000 0.000000
# 5 0.000000 0.000000 0.000000 0.000000 0.032013 0.000000
# 6 0.000000 0.000000 0.000000 0.000000 0.000000 0.040603
#
#
# Mechanical properties :
#
#
# Convention : Reuss Voigt Hill
#
# Bulk Modulus (GPa) = 7.94987 10.29553 9.12270
# Shear Modulus (GPa) = -28.53204 18.47880 -5.02662
#
# Velocity S-wave (km/s) = -3.93147 3.16392 -1.65016
# Velocity P-wave (km/s) = 4.03757 4.35023 1.14510
#
# Compressibility (1/GPa) = 0.12578827
#
# Stress axis : x y z
#
# Youngs Moduli (GPa) = 37.62550 10.63829 25.11101
#
# Poissons Ratio (x) = 0.26278 -0.35924
# Poissons Ratio (y) = 0.92940 0.17354
# Poissons Ratio (z) = -0.53827 0.07352
#
# Static dielectric constant tensor:
#      x y z
#    x 1.664160 0.000000 0.000000 
#    y 0.000000 1.628380 0.000000 
#    z 0.000000 0.000000 1.603160 
# 
# From -- ./inp_files/6315.got.cif
#   From: 2010.05.17/outbox.cif.g08.bks.cpg/sg59_4_cif.got.tgz:6315.got - 2010.06.03 14:40:33.
