data_PCOD9448632
_publ_section_title
;
Structure prediction by ZEFSAII (Michael W. Deem and Ramdas Pophale) SiO2 
 PCOD9448632
Probable space group: P M M N
;
_chemical_formula_sum "Si O2"
_cell_formula_units_Z 40
_cell_length_a 19.131690
_cell_length_b 11.214422
_cell_length_c 9.655916
_cell_angle_alpha 90.000000
_cell_angle_beta 90.000000
_cell_angle_gamma 90.000000
_cell_volume 2071.684939
_symmetry_space_group_name_H-M "P M M N"
_symmetry_group_IT_number 59
_space_group.IT_coordinate_system_code '2'
_symmetry_cell_setting 'orthorhombic'
loop_
_space_group_symop_operation_xyz
x,y,z
1/2-x,1/2-y,z
1/2+x,-y,-z
-x,1/2+y,-z
-x,-y,-z
1/2+x,1/2+y,-z
1/2-x,y,z
x,1/2-y,z
loop_
_atom_site_type_symbol
_atom_site_label
_atom_site_fract_x
_atom_site_fract_y
_atom_site_fract_z
Si Si1 0.968911 0.620032 0.074255
Si Si2 0.831091 0.505721 0.147163
Si Si3 0.948217 0.480126 0.689689
Si Si4 0.169662 0.886191 0.139756
Si Si5 0.078377 0.887697 0.617065
O O1 0.985988 0.750000 0.011931
O O2 0.886017 0.604173 0.093283
O O3 0.003085 0.613303 0.227075
O O4 0.000000 0.500000 0.000000
O O5 0.750000 0.540874 0.163225
O O6 0.865525 0.453705 0.286134
O O7 0.834302 0.407139 0.024741
O O8 0.879138 0.480452 0.782639
O O9 0.926396 0.441292 0.536707
O O10 0.000312 0.591960 0.679176
O O11 0.250000 0.901358 0.181095
O O12 0.148687 0.750000 0.172761
O O13 0.095918 0.750000 0.610306
#
# Coordination Sequence:
#
# PCOD9448632 Si02
#       5
#     8   8   8   8   8
#     4  11  22  37  62  91 120 159 203 251 303 359
#     4  10  22  38  56  86 120 152 193 245 299 356
#     4  10  21  37  56  84 117 151 197 245 296 358
#     4  10  19  33  54  79 112 150 189 239 294 348
#     4  10  21  36  57  83 116 156 196 244 297 358
#
# _framework density 19.307955
#
# number of rings (size 3 to 8) (size 9 to 14) (size 15 to 20)
#    0.000    1.800    2.000    2.400    0.000    5.600 
#    0.000    0.000    0.000    0.600    0.000    0.000 
#    0.000    0.000    0.000    0.000    0.000    0.000 
#
# Total GULP energy -222838.287538 kJ/mol
# GULP energy per Si atom -5570.957188 kJ/mol
# Density = 1.926401 g / cm^3
# Si number density = 19.307955 Si / 1000 Ang^3
#
#
#
# Elastic Constant Matrix: (Units=GPa)
#
#
# Indices 1 2 3 4 5 6 
#
# 1 147.5199 19.7392 41.1968 0.0000 0.0000 0.0000
# 2 19.7392 63.9621 12.7742 0.0000 0.0000 0.0000
# 3 41.1968 12.7742 98.4977 0.0000 0.0000 0.0000
# 4 0.0000 0.0000 0.0000 13.2849 0.0000 0.0000
# 5 0.0000 0.0000 0.0000 0.0000 26.9784 0.0000
# 6 0.0000 0.0000 0.0000 0.0000 0.0000 14.1816
#
#
#
# Elastic Compliance Matrix: (Units=1/GPa)
#
#
# Indices 1 2 3 4 5 6 
#
# 1 0.007876 -0.001820 -0.003058 0.000000 0.000000 0.000000
# 2 -0.001820 0.016470 -0.001375 0.000000 0.000000 0.000000
# 3 -0.003058 -0.001375 0.011610 0.000000 0.000000 0.000000
# 4 0.000000 0.000000 0.000000 0.075274 0.000000 0.000000
# 5 0.000000 0.000000 0.000000 0.000000 0.037067 0.000000
# 6 0.000000 0.000000 0.000000 0.000000 0.000000 0.070514
#
#
# Mechanical properties :
#
#
# Convention : Reuss Voigt Hill
#
# Bulk Modulus (GPa) = 42.64272 50.82222 46.73247
# Shear Modulus (GPa) = 20.90881 26.64030 23.77455
#
# Velocity S-wave (km/s) = 3.29433 3.71854 3.51284
# Velocity P-wave (km/s) = 6.05010 6.69446 6.38042
#
# Compressibility (1/GPa) = 0.02345066
#
# Stress axis : x y z
#
# Youngs Moduli (GPa) = 126.96289 60.71470 86.13299
#
# Poissons Ratio (x) = 0.11050 0.26342
# Poissons Ratio (y) = 0.23106 0.11842
# Poissons Ratio (z) = 0.38829 0.08348
#
# Static dielectric constant tensor:
#      x y z
#    x 1.701560 0.000000 0.000000 
#    y 0.000000 1.696530 0.000000 
#    z 0.000000 0.000000 1.705220 
# 
# From -- ./inp_files/7359.got.cif
#   From: 2010.05.17/outbox.cif.g08.bks.cpg/sg59_4_cif.got.tgz:7359.got - 2010.06.03 14:40:33.
