data_PCOD9448362
_publ_section_title
;
Structure prediction by ZEFSAII (Michael W. Deem and Ramdas Pophale) SiO2 
 PCOD9448362
Probable space group: P M M N
;
_chemical_formula_sum "Si O2"
_cell_formula_units_Z 64
_cell_length_a 22.510268
_cell_length_b 8.156363
_cell_length_c 18.400259
_cell_angle_alpha 90.000000
_cell_angle_beta 90.000000
_cell_angle_gamma 90.000000
_cell_volume 3378.322826
_symmetry_space_group_name_H-M "P M M N"
_symmetry_group_IT_number 59
_space_group.IT_coordinate_system_code '2'
_symmetry_cell_setting 'orthorhombic'
loop_
_space_group_symop_operation_xyz
x,y,z
1/2-x,1/2-y,z
1/2+x,-y,-z
-x,1/2+y,-z
-x,-y,-z
1/2+x,1/2+y,-z
1/2-x,y,z
x,1/2-y,z
loop_
_atom_site_type_symbol
_atom_site_label
_atom_site_fract_x
_atom_site_fract_y
_atom_site_fract_z
Si Si1 0.024643 0.064152 0.226935
Si Si2 0.409993 0.445377 0.531951
Si Si3 0.902789 0.570480 0.243899
Si Si4 0.472362 0.050914 0.384547
Si Si5 0.815699 0.059203 0.136561
Si Si6 0.315963 0.448257 0.027844
Si Si7 0.452633 0.051735 0.063832
Si Si8 0.682425 0.058700 0.365107
O O1 0.048084 0.250000 0.222175
O O2 0.047074 0.992156 0.304198
O O3 0.031209 0.991805 0.145859
O O4 0.954365 0.061685 0.242497
O O5 0.402147 0.250000 0.533227
O O6 0.463293 0.489153 0.588071
O O7 0.429750 0.495872 0.451228
O O8 0.351138 0.532863 0.559318
O O9 0.930203 0.750000 0.250824
O O10 0.865614 0.552606 0.170692
O O11 0.855751 0.539813 0.306867
O O12 0.475286 0.250000 0.381886
O O13 0.750000 0.021545 0.166925
O O14 0.828159 0.250000 0.151917
O O15 0.813726 0.028249 0.051404
O O16 0.250000 0.489452 0.062242
O O17 0.316620 0.250000 0.022563
O O18 0.382475 0.494654 0.055112
O O19 0.455908 0.250000 0.063278
O O20 0.500000 0.000000 0.000000
O O21 0.750000 0.003815 0.367561
O O22 0.680795 0.250000 0.344697
#
# Coordination Sequence:
#
# PCOD9448362 Si02
#       8
#     8   8   8   8   8   8   8   8
#     4  10  20  35  54  75 105 141 176 214 263 322
#     4  10  19  32  53  80 105 132 173 219 263 308
#     4  12  23  33  48  73 103 135 174 217 262 311
#     4   9  18  33  54  77 104 137 171 214 265 316
#     4  10  20  33  49  69  95 132 175 214 258 318
#     4   9  18  34  54  75 101 134 176 226 275 323
#     4  10  21  35  53  79 109 144 183 225 276 327
#     4  11  23  37  52  72 103 144 181 212 257 319
#
# _framework density 18.944312
#
# number of rings (size 3 to 8) (size 9 to 14) (size 15 to 20)
#    0.000    1.875    1.250    3.375    0.000    6.750 
#    0.000    0.000    0.000    0.750    0.000    3.500 
#    0.000    2.000    0.000    0.000    0.000    0.000 
#
# Total GULP energy -356522.296049 kJ/mol
# GULP energy per Si atom -5570.660876 kJ/mol
# Density = 1.890119 g / cm^3
# Si number density = 18.944312 Si / 1000 Ang^3
#
#
#
# Elastic Constant Matrix: (Units=GPa)
#
#
# Indices 1 2 3 4 5 6 
#
# 1 96.5220 7.0807 45.2226 0.0000 0.0000 0.0000
# 2 7.0807 22.6557 5.5820 0.0000 0.0000 0.0000
# 3 45.2226 5.5820 127.7484 0.0000 0.0000 0.0000
# 4 0.0000 0.0000 0.0000 18.1860 0.0000 0.0000
# 5 0.0000 0.0000 0.0000 0.0000 23.6075 0.0000
# 6 0.0000 0.0000 0.0000 0.0000 0.0000 15.6791
#
#
#
# Elastic Compliance Matrix: (Units=1/GPa)
#
#
# Indices 1 2 3 4 5 6 
#
# 1 0.012602 -0.002870 -0.004336 0.000000 0.000000 0.000000
# 2 -0.002870 0.045273 -0.000962 0.000000 0.000000 0.000000
# 3 -0.004336 -0.000962 0.009405 0.000000 0.000000 0.000000
# 4 0.000000 0.000000 0.000000 0.054987 0.000000 0.000000
# 5 0.000000 0.000000 0.000000 0.000000 0.042359 0.000000
# 6 0.000000 0.000000 0.000000 0.000000 0.000000 0.063779
#
#
# Mechanical properties :
#
#
# Convention : Reuss Voigt Hill
#
# Bulk Modulus (GPa) = 19.62948 40.29962 29.96455
# Shear Modulus (GPa) = 19.10409 24.09724 21.60066
#
# Velocity S-wave (km/s) = 3.17903 3.57039 3.38038
# Velocity P-wave (km/s) = 4.88458 6.18997 5.57561
#
# Compressibility (1/GPa) = 0.05094379
#
# Stress axis : x y z
#
# Youngs Moduli (GPa) = 79.35065 22.08810 106.32898
#
# Poissons Ratio (x) = 0.06340 0.46102
# Poissons Ratio (y) = 0.22777 0.10230
# Poissons Ratio (z) = 0.34405 0.02125
#
# Static dielectric constant tensor:
#      x y z
#    x 1.691860 0.000000 0.000000 
#    y 0.000000 1.682160 0.000000 
#    z 0.000000 0.000000 1.709230 
# 
# From -- ./inp_files/28292.got.cif
#   From: 2010.05.17/outbox.cif.g08.bks.cpg/sg59_15_cif.got.tgz:28292.got - 2010.06.03 14:40:33.
