data_PCOD9448179
_publ_section_title
;
Structure prediction by ZEFSAII (Michael W. Deem and Ramdas Pophale) SiO2 
 PCOD9448179
Probable space group: P M M N
;
_chemical_formula_sum "Si O2"
_cell_formula_units_Z 40
_cell_length_a 9.090482
_cell_length_b 14.952802
_cell_length_c 17.482325
_cell_angle_alpha 90.000000
_cell_angle_beta 90.000000
_cell_angle_gamma 90.000000
_cell_volume 2376.340574
_symmetry_space_group_name_H-M "P M M N"
_symmetry_group_IT_number 59
_space_group.IT_coordinate_system_code '2'
_symmetry_cell_setting 'orthorhombic'
loop_
_space_group_symop_operation_xyz
x,y,z
1/2-x,1/2-y,z
1/2+x,-y,-z
-x,1/2+y,-z
-x,-y,-z
1/2+x,1/2+y,-z
1/2-x,y,z
x,1/2-y,z
loop_
_atom_site_type_symbol
_atom_site_label
_atom_site_fract_x
_atom_site_fract_y
_atom_site_fract_z
Si Si1 0.415582 0.250000 0.254925
Si Si2 0.582746 0.750000 0.560291
Si Si3 0.927188 0.146880 0.007226
Si Si4 0.073509 0.022919 0.887275
Si Si5 0.426235 0.566263 0.559354
Si Si6 0.926226 0.066342 0.263186
O O1 0.250000 0.250000 0.224039
O O2 0.407675 0.250000 0.347415
O O3 0.501090 0.340686 0.236651
O O4 0.750000 0.750000 0.530433
O O5 0.491535 0.662871 0.539619
O O6 0.750000 0.147788 0.002440
O O7 0.974639 0.250000 0.021633
O O8 0.994685 0.104206 0.930196
O O9 0.965804 0.071414 0.070697
O O10 0.250000 0.033789 0.894320
O O11 0.035095 0.009358 0.798339
O O12 0.500000 0.500000 0.500000
O O13 0.250000 0.564598 0.553797
O O14 0.466148 0.547334 0.648591
O O15 0.750000 0.078659 0.260752
#
# Coordination Sequence:
#
# PCOD9448179 Si02
#       6
#     4   4   8   8   8   8
#     4   9  17  27  43  71 101 126 153 194 251 293
#     4   9  17  31  49  71  99 128 159 200 249 299
#     4   9  18  32  50  72  99 130 160 196 246 293
#     4   9  18  32  51  73  97 128 165 202 238 286
#     4  10  19  32  51  75 101 132 168 207 250 297
#     4   9  18  31  49  71  98 130 167 201 241 292
#
# _framework density 16.832604
#
# number of rings (size 3 to 8) (size 9 to 14) (size 15 to 20)
#    0.000    2.800    0.000    1.200    1.400    4.400 
#    0.000    0.000    2.200    0.000    0.000    0.000 
#    0.000    0.000    0.000    0.000    0.000    0.000 
#
# Total GULP energy -222791.528667 kJ/mol
# GULP energy per Si atom -5569.788217 kJ/mol
# Density = 1.679429 g / cm^3
# Si number density = 16.832604 Si / 1000 Ang^3
#
#
#
# Elastic Constant Matrix: (Units=GPa)
#
#
# Indices 1 2 3 4 5 6 
#
# 1 27.7874 17.8791 27.2703 0.0000 0.0000 0.0000
# 2 17.8791 80.6830 32.3353 0.0000 0.0000 0.0000
# 3 27.2703 32.3353 71.3598 0.0000 0.0000 0.0000
# 4 0.0000 0.0000 0.0000 26.0755 0.0000 0.0000
# 5 0.0000 0.0000 0.0000 0.0000 21.1619 0.0000
# 6 0.0000 0.0000 0.0000 0.0000 0.0000 30.5366
#
#
#
# Elastic Compliance Matrix: (Units=1/GPa)
#
#
# Indices 1 2 3 4 5 6 
#
# 1 0.059157 -0.004947 -0.020365 0.000000 0.000000 0.000000
# 2 -0.004947 0.015558 -0.005159 0.000000 0.000000 0.000000
# 3 -0.020365 -0.005159 0.024134 0.000000 0.000000 0.000000
# 4 0.000000 0.000000 0.000000 0.038350 0.000000 0.000000
# 5 0.000000 0.000000 0.000000 0.000000 0.047255 0.000000
# 6 0.000000 0.000000 0.000000 0.000000 0.000000 0.032748
#
#
# Mechanical properties :
#
#
# Convention : Reuss Voigt Hill
#
# Bulk Modulus (GPa) = 26.38138 37.19998 31.79068
# Shear Modulus (GPa) = 17.19512 22.37783 19.78648
#
# Velocity S-wave (km/s) = 3.19962 3.65010 3.43225
# Velocity P-wave (km/s) = 5.41820 6.31761 5.88511
#
# Compressibility (1/GPa) = 0.03790552
#
# Stress axis : x y z
#
# Youngs Moduli (GPa) = 16.90422 64.27494 41.43543
#
# Poissons Ratio (x) = 0.31798 0.84384
# Poissons Ratio (y) = 0.08363 0.21378
# Poissons Ratio (z) = 0.34426 0.33161
#
# Static dielectric constant tensor:
#      x y z
#    x 1.569020 0.000000 0.000000 
#    y 0.000000 1.531500 0.000000 
#    z 0.000000 0.000000 1.587260 
# 
# From -- ./inp_files/19896.got.cif
#   From: 2010.05.17/outbox.cif.g08.bks.cpg/sg59_10_cif.got.tgz:19896.got - 2010.06.03 14:40:33.
