data_PCOD9448119
_publ_section_title
;
Structure prediction by ZEFSAII (Michael W. Deem and Ramdas Pophale) SiO2 
 PCOD9448119
Probable space group: P M M N
;
_chemical_formula_sum "Si O2"
_cell_formula_units_Z 64
_cell_length_a 32.342451
_cell_length_b 7.650757
_cell_length_c 12.564625
_cell_angle_alpha 90.000000
_cell_angle_beta 90.000000
_cell_angle_gamma 90.000000
_cell_volume 3109.044001
_symmetry_space_group_name_H-M "P M M N"
_symmetry_group_IT_number 59
_space_group.IT_coordinate_system_code '2'
_symmetry_cell_setting 'orthorhombic'
loop_
_space_group_symop_operation_xyz
x,y,z
1/2-x,1/2-y,z
1/2+x,-y,-z
-x,1/2+y,-z
-x,-y,-z
1/2+x,1/2+y,-z
1/2-x,y,z
x,1/2-y,z
loop_
_atom_site_type_symbol
_atom_site_label
_atom_site_fract_x
_atom_site_fract_y
_atom_site_fract_z
Si Si1 0.296866 0.036588 0.262676
Si Si2 0.560082 0.037885 0.747793
Si Si3 0.863815 0.956158 0.899135
Si Si4 0.702812 0.538874 0.495503
Si Si5 0.391761 0.456691 0.877097
Si Si6 0.483924 0.459807 0.882115
Si Si7 0.877570 0.044446 0.357487
Si Si8 0.549106 0.460284 0.509392
O O1 0.250000 0.988863 0.237483
O O2 0.299063 0.250000 0.264640
O O3 0.328129 0.967669 0.174995
O O4 0.305915 0.979791 0.383311
O O5 0.561243 0.250000 0.748382
O O6 0.516103 0.976959 0.794063
O O7 0.564652 0.979100 0.626021
O O8 0.594467 0.975331 0.830570
O O9 0.854580 0.750000 0.909895
O O10 0.869476 0.029330 0.017852
O O11 0.750000 0.481591 0.467017
O O12 0.703735 0.750000 0.495073
O O13 0.664493 0.484363 0.423090
O O14 0.396362 0.250000 0.898314
O O15 0.438021 0.531435 0.869545
O O16 0.372101 0.474550 0.761674
O O17 0.482680 0.250000 0.870712
O O18 0.500000 0.500000 0.000000
O O19 0.884186 0.250000 0.346857
O O20 0.918616 0.973269 0.419367
O O21 0.500000 0.500000 0.500000
O O22 0.552014 0.250000 0.508448
#
# Coordination Sequence:
#
# PCOD9448119 Si02
#       8
#     8   8   8   8   8   8   8   8
#     4   8  15  30  54  83 109 130 160 209 264 314
#     4  10  20  33  51  74 103 136 168 214 272 316
#     4  10  19  32  53  79 103 133 175 216 256 308
#     4   9  18  35  60  86 110 140 178 220 272 333
#     4  10  21  36  52  74 107 145 184 224 263 316
#     4  10  19  32  50  72 101 137 174 215 260 309
#     4  11  23  37  55  80 110 146 186 230 278 326
#     4  10  22  38  54  77 108 143 183 225 274 330
#
# _framework density 20.585104999999999
#
# number of rings (size 3 to 8) (size 9 to 14) (size 15 to 20)
#    0.000    2.250    1.250    2.625    0.000    3.750 
#    0.000    0.625    0.000    3.375    0.000    0.000 
#    0.000    0.000    0.000    0.000    0.000    0.000 
#
# Total GULP energy -357176.674016 kJ/mol
# GULP energy per Si atom -5580.885532 kJ/mol
# Density = 2.053825 g / cm^3
# Si number density = 20.585105 Si / 1000 Ang^3
#
#
#
# Elastic Constant Matrix: (Units=GPa)
#
#
# Indices 1 2 3 4 5 6 
#
# 1 116.2188 -12.9254 76.3845 0.0000 0.0000 0.0000
# 2 -12.9254 29.7409 -10.6157 0.0000 0.0000 0.0000
# 3 76.3845 -10.6157 147.5538 0.0000 0.0000 0.0000
# 4 0.0000 0.0000 0.0000 9.4806 0.0000 0.0000
# 5 0.0000 0.0000 0.0000 0.0000 35.7594 0.0000
# 6 0.0000 0.0000 0.0000 0.0000 0.0000 17.8975
#
#
#
# Elastic Compliance Matrix: (Units=1/GPa)
#
#
# Indices 1 2 3 4 5 6 
#
# 1 0.013374 0.003429 -0.006677 0.000000 0.000000 0.000000
# 2 0.003429 0.035389 0.000771 0.000000 0.000000 0.000000
# 3 -0.006677 0.000771 0.010289 0.000000 0.000000 0.000000
# 4 0.000000 0.000000 0.000000 0.105478 0.000000 0.000000
# 5 0.000000 0.000000 0.000000 0.000000 0.027965 0.000000
# 6 0.000000 0.000000 0.000000 0.000000 0.000000 0.055874
#
#
# Mechanical properties :
#
#
# Convention : Reuss Voigt Hill
#
# Bulk Modulus (GPa) = 18.48459 44.35558 31.42009
# Shear Modulus (GPa) = 18.42603 28.67218 23.54911
#
# Velocity S-wave (km/s) = 2.99509 3.73615 3.38596
# Velocity P-wave (km/s) = 4.57819 6.34082 5.53018
#
# Compressibility (1/GPa) = 0.05409912
#
# Stress axis : x y z
#
# Youngs Moduli (GPa) = 74.77157 28.25716 97.19146
#
# Poissons Ratio (x) = -0.09690 0.64892
# Poissons Ratio (y) = -0.25641 -0.07492
# Poissons Ratio (z) = 0.49922 -0.02178
#
# Static dielectric constant tensor:
#      x y z
#    x 1.734320 0.000000 0.000000 
#    y 0.000000 1.756570 0.000000 
#    z 0.000000 0.000000 1.631110 
# 
# From -- ./inp_files/19318.got.cif
#   From: 2010.05.17/outbox.cif.g08.bks.cpg/sg59_10_cif.got.tgz:19318.got - 2010.06.03 14:40:33.
