data_PCOD9448686
_publ_section_title
;
Structure prediction by ZEFSAII (Michael W. Deem and Ramdas Pophale) SiO2 
 PCOD9448686
Probable space group: P M M N
;
_chemical_formula_sum "Si O2"
_cell_formula_units_Z 64
_cell_length_a 31.943742
_cell_length_b 9.157826
_cell_length_c 12.015553
_cell_angle_alpha 90.000000
_cell_angle_beta 90.000000
_cell_angle_gamma 90.000000
_cell_volume 3514.972573
_symmetry_space_group_name_H-M "P M M N"
_symmetry_group_IT_number 59
_space_group.IT_coordinate_system_code '2'
_symmetry_cell_setting 'orthorhombic'
loop_
_space_group_symop_operation_xyz
x,y,z
1/2-x,1/2-y,z
1/2+x,-y,-z
-x,1/2+y,-z
-x,-y,-z
1/2+x,1/2+y,-z
1/2-x,y,z
x,1/2-y,z
loop_
_atom_site_type_symbol
_atom_site_label
_atom_site_fract_x
_atom_site_fract_y
_atom_site_fract_z
Si Si1 0.201161 0.910717 0.178781
Si Si2 0.840752 0.921105 0.646934
Si Si3 0.887123 0.921862 0.431870
Si Si4 0.546255 0.426043 0.012971
Si Si5 0.918123 0.076439 0.768424
Si Si6 0.038193 0.921387 0.445361
Si Si7 0.701037 0.574752 0.042815
Si Si8 0.616153 0.574193 0.169304
O O1 0.250000 0.895573 0.160311
O O2 0.181429 0.750000 0.172534
O O3 0.195057 0.984056 0.297736
O O4 0.187431 0.012572 0.077316
O O5 0.835268 0.750000 0.668041
O O6 0.847857 0.941408 0.515329
O O7 0.880559 0.981116 0.717839
O O8 0.899072 0.750000 0.442775
O O9 0.883155 0.953724 0.301880
O O10 0.921539 0.022656 0.488664
O O11 0.541741 0.250000 0.028804
O O12 0.577369 0.494590 0.106669
O O13 0.500000 0.500000 0.000000
O O14 0.569984 0.450790 0.895148
O O15 0.909364 0.250000 0.754321
O O16 0.956498 0.043702 0.685081
O O17 0.033780 0.750000 0.456826
O O18 0.000000 0.000000 0.500000
O O19 0.750000 0.529409 0.068543
O O20 0.701999 0.750000 0.038986
O O21 0.662420 0.531917 0.122995
O O22 0.611265 0.750000 0.152922
#
# Coordination Sequence:
#
# PCOD9448686 Si02
#       8
#     8   8   8   8   8   8   8   8
#     4  10  20  33  52  79 111 144 175 216 272 328
#     4  10  19  33  55  80 105 135 176 222 267 319
#     4   9  20  37  54  76 107 144 182 222 273 328
#     4  11  24  39  55  79 109 145 186 229 278 334
#     4   9  20  37  54  73 102 137 171 213 268 320
#     4  10  20  34  54  78 102 134 176 223 272 320
#     4   9  18  34  58  87 114 144 186 231 275 328
#     4  10  21  38  58  80 113 152 186 229 282 332
#
# _framework density 18.207823000000001
#
# number of rings (size 3 to 8) (size 9 to 14) (size 15 to 20)
#    0.000    2.250    0.000    2.250    1.750    5.750 
#    0.000    0.625    0.000    2.250    0.000    1.750 
#    0.000    0.000    0.000    0.000    0.000    0.000 
#
# Total GULP energy -356424.180281 kJ/mol
# GULP energy per Si atom -5569.127817 kJ/mol
# Density = 1.816638 g / cm^3
# Si number density = 18.207823 Si / 1000 Ang^3
#
#
#
# Elastic Constant Matrix: (Units=GPa)
#
#
# Indices 1 2 3 4 5 6 
#
# 1 47.9114 14.5221 17.0215 0.0000 0.0000 0.0000
# 2 14.5221 36.9640 32.8942 0.0000 0.0000 0.0000
# 3 17.0215 32.8942 101.2593 0.0000 0.0000 0.0000
# 4 0.0000 0.0000 0.0000 21.5869 0.0000 0.0000
# 5 0.0000 0.0000 0.0000 0.0000 21.1020 0.0000
# 6 0.0000 0.0000 0.0000 0.0000 0.0000 24.4489
#
#
#
# Elastic Compliance Matrix: (Units=1/GPa)
#
#
# Indices 1 2 3 4 5 6 
#
# 1 0.023825 -0.008153 -0.001356 0.000000 0.000000 0.000000
# 2 -0.008153 0.040844 -0.011898 0.000000 0.000000 0.000000
# 3 -0.001356 -0.011898 0.013969 0.000000 0.000000 0.000000
# 4 0.000000 0.000000 0.000000 0.046324 0.000000 0.000000
# 5 0.000000 0.000000 0.000000 0.000000 0.047389 0.000000
# 6 0.000000 0.000000 0.000000 0.000000 0.000000 0.040902
#
#
# Mechanical properties :
#
#
# Convention : Reuss Voigt Hill
#
# Bulk Modulus (GPa) = 27.91478 35.00116 31.45797
# Shear Modulus (GPa) = 18.65612 21.54068 20.09840
#
# Velocity S-wave (km/s) = 3.20444 3.44327 3.32600
# Velocity P-wave (km/s) = 5.39034 5.92225 5.66254
#
# Compressibility (1/GPa) = 0.03582331
#
# Stress axis : x y z
#
# Youngs Moduli (GPa) = 41.97277 24.48324 71.58882
#
# Poissons Ratio (x) = 0.19961 0.09710
# Poissons Ratio (y) = 0.34221 0.85175
# Poissons Ratio (z) = 0.05693 0.29130
#
# Static dielectric constant tensor:
#      x y z
#    x 1.685340 0.000000 0.000000 
#    y 0.000000 1.632030 0.000000 
#    z 0.000000 0.000000 1.622950 
# 
# From -- ./inp_files/19214.got.cif
#   From: 2010.05.17/outbox.cif.g08.bks.cpg/sg59_10_cif.got.tgz:19214.got - 2010.06.03 14:40:33.
