data_PCOD9448971
_publ_section_title
;
Structure prediction by ZEFSAII (Michael W. Deem and Ramdas Pophale) SiO2 
 PCOD9448971
Probable space group: P M M N
;
_chemical_formula_sum "Si O2"
_cell_formula_units_Z 58
_cell_length_a 22.064800
_cell_length_b 7.872641
_cell_length_c 16.778711
_cell_angle_alpha 90.000000
_cell_angle_beta 90.000000
_cell_angle_gamma 90.000000
_cell_volume 2914.600511
_symmetry_space_group_name_H-M "P M M N"
_symmetry_group_IT_number 59
_space_group.IT_coordinate_system_code '2'
_symmetry_cell_setting 'orthorhombic'
loop_
_space_group_symop_operation_xyz
x,y,z
1/2-x,1/2-y,z
1/2+x,-y,-z
-x,1/2+y,-z
-x,-y,-z
1/2+x,1/2+y,-z
1/2-x,y,z
x,1/2-y,z
loop_
_atom_site_type_symbol
_atom_site_label
_atom_site_fract_x
_atom_site_fract_y
_atom_site_fract_z
Si Si1 0.405697 0.552836 0.313517
Si Si2 0.336934 0.055282 0.636891
Si Si3 0.090135 0.544833 0.037775
Si Si4 0.817582 0.953165 0.550460
Si Si5 0.034937 0.449624 0.877545
Si Si6 0.542296 0.439077 0.299351
Si Si7 0.819150 0.042122 0.828672
Si Si8 0.750000 0.250000 0.312908
O O1 0.415535 0.750000 0.294573
O O2 0.368689 0.533876 0.394899
O O3 0.472030 0.474413 0.316877
O O4 0.362418 0.483005 0.243242
O O5 0.316058 0.250000 0.651704
O O6 0.326492 0.016893 0.543280
O O7 0.407927 0.052395 0.657694
O O8 0.302325 0.903835 0.682494
O O9 0.088639 0.750000 0.033408
O O10 0.148592 0.493693 0.088491
O O11 0.029934 0.491318 0.086964
O O12 0.082553 0.476607 0.948746
O O13 0.750000 0.013959 0.573276
O O14 0.819825 0.750000 0.562545
O O15 0.029509 0.250000 0.859761
O O16 0.049807 0.541168 0.795775
O O17 0.555933 0.250000 0.325682
O O18 0.750000 0.983824 0.821197
O O19 0.818169 0.250000 0.826005
#
# Coordination Sequence:
#
# PCOD9448971 Si02
#       8
#     8   8   8   8   8   8   8   2
#     4  11  22  36  58  88 124 163 206 260 321 375
#     4  11  24  43  69  96 128 163 209 268 315 376
#     4   9  17  32  55  83 112 150 198 247 305 372
#     4  10  22  40  61  87 122 165 212 261 313 372
#     4  10  19  34  57  84 115 150 197 250 310 370
#     4  12  24  40  61  91 125 163 210 260 321 382
#     4   9  17  32  54  83 118 158 203 252 312 377
#     4  12  22  44  72 102 120 164 218 252 320 386
#
# _framework density 19.899811
#
# number of rings (size 3 to 8) (size 9 to 14) (size 15 to 20)
#    0.000    1.655    2.759    2.690    0.966    1.931 
#    0.000    0.000    1.517    2.069    0.000    0.000 
#    0.000    0.000    0.000    0.000    0.000    0.000 
#
# Total GULP energy -323333.298685 kJ/mol
# GULP energy per Si atom -5574.712046 kJ/mol
# Density = 1.985452 g / cm^3
# Si number density = 19.899811 Si / 1000 Ang^3
#
#
#
# Elastic Constant Matrix: (Units=GPa)
#
#
# Indices 1 2 3 4 5 6 
#
# 1 145.5757 22.0679 31.0732 0.0000 0.0000 0.0000
# 2 22.0679 62.0717 6.8865 0.0000 0.0000 0.0000
# 3 31.0732 6.8865 32.8136 0.0000 0.0000 0.0000
# 4 0.0000 0.0000 0.0000 18.2993 0.0000 0.0000
# 5 0.0000 0.0000 0.0000 0.0000 14.0209 0.0000
# 6 0.0000 0.0000 0.0000 0.0000 0.0000 24.5352
#
#
#
# Elastic Compliance Matrix: (Units=1/GPa)
#
#
# Indices 1 2 3 4 5 6 
#
# 1 0.008916 -0.002286 -0.007963 0.000000 0.000000 0.000000
# 2 -0.002286 0.017081 -0.001420 0.000000 0.000000 0.000000
# 3 -0.007963 -0.001420 0.038314 0.000000 0.000000 0.000000
# 4 0.000000 0.000000 0.000000 0.054647 0.000000 0.000000
# 5 0.000000 0.000000 0.000000 0.000000 0.071322 0.000000
# 6 0.000000 0.000000 0.000000 0.000000 0.000000 0.040758
#
#
# Mechanical properties :
#
#
# Convention : Reuss Voigt Hill
#
# Bulk Modulus (GPa) = 24.40671 40.05733 32.23202
# Shear Modulus (GPa) = 18.65453 23.39999 21.02726
#
# Velocity S-wave (km/s) = 3.06506 3.43285 3.25415
# Velocity P-wave (km/s) = 4.98172 5.99047 5.50923
#
# Compressibility (1/GPa) = 0.04097234
#
# Stress axis : x y z
#
# Youngs Moduli (GPa) = 112.16400 58.54552 26.10037
#
# Poissons Ratio (x) = 0.13385 0.20783
# Poissons Ratio (y) = 0.25643 0.03705
# Poissons Ratio (z) = 0.89314 0.08312
#
# Static dielectric constant tensor:
#      x y z
#    x 1.704200 0.000000 0.000000 
#    y 0.000000 1.714730 0.000000 
#    z 0.000000 0.000000 1.681410 
# 
# From -- ./inp_files/27893.got.cif
#   From: 2010.05.17/outbox.cif.g08.bks.cpg/sg59_14_cif.got.tgz:27893.got - 2010.06.03 14:40:33.
