data_PCOD9448616
_publ_section_title
;
Structure prediction by ZEFSAII (Michael W. Deem and Ramdas Pophale) SiO2 
 PCOD9448616
Probable space group: P M M N
;
_chemical_formula_sum "Si O2"
_cell_formula_units_Z 48
_cell_length_a 17.483324
_cell_length_b 7.730515
_cell_length_c 16.965061
_cell_angle_alpha 90.000000
_cell_angle_beta 90.000000
_cell_angle_gamma 90.000000
_cell_volume 2292.914489
_symmetry_space_group_name_H-M "P M M N"
_symmetry_group_IT_number 59
_space_group.IT_coordinate_system_code '2'
_symmetry_cell_setting 'orthorhombic'
loop_
_space_group_symop_operation_xyz
x,y,z
1/2-x,1/2-y,z
1/2+x,-y,-z
-x,1/2+y,-z
-x,-y,-z
1/2+x,1/2+y,-z
1/2-x,y,z
x,1/2-y,z
loop_
_atom_site_type_symbol
_atom_site_label
_atom_site_fract_x
_atom_site_fract_y
_atom_site_fract_z
Si Si1 0.547376 0.954508 0.220677
Si Si2 0.250000 0.955374 0.023202
Si Si3 0.163594 0.540323 0.642979
Si Si4 0.250000 0.961569 0.202154
Si Si5 0.412172 0.542283 0.482491
Si Si6 0.605472 0.037681 0.695259
Si Si7 0.920035 0.956116 0.046093
O O1 0.533974 0.750000 0.208831
O O2 0.470835 0.024792 0.261243
O O3 0.569295 0.026641 0.135244
O O4 0.612359 0.977220 0.285521
O O5 0.250000 0.750000 0.027133
O O6 0.334152 0.997469 0.985533
O O7 0.250000 0.025563 0.112708
O O8 0.250000 0.486373 0.655395
O O9 0.159839 0.750000 0.642320
O O10 0.134838 0.477605 0.557666
O O11 0.250000 0.750000 0.199474
O O12 0.176383 0.014599 0.251631
O O13 0.500000 0.500000 0.500000
O O14 0.403076 0.750000 0.480654
O O15 0.390659 0.478257 0.395385
O O16 0.603717 0.250000 0.692754
O O17 0.918622 0.750000 0.048111
O O18 0.000000 0.000000 0.000000
#
# Coordination Sequence:
#
# PCOD9448616 Si02
#       7
#     8   4   8   4   8   8   8
#     4  10  21  38  59  83 112 150 197 240 286 350
#     4  11  23  41  65  92 125 162 202 253 309 367
#     4  10  22  36  52  81 116 148 188 237 286 338
#     4   9  18  33  57  86 113 144 190 239 283 341
#     4  10  19  33  54  78 109 146 186 231 283 338
#     4   9  17  31  54  82 110 145 188 234 281 336
#     4  11  24  42  65  93 124 159 204 255 310 372
#
# _framework density 20.934056000000002
#
# number of rings (size 3 to 8) (size 9 to 14) (size 15 to 20)
#    0.000    2.000    1.667    1.750    2.333    4.333 
#    0.000    0.000    0.000    1.000    0.000    0.000 
#    0.000    0.000    0.000    0.000    0.000    0.000 
#
# Total GULP energy -267803.472340 kJ/mol
# GULP energy per Si atom -5579.239007 kJ/mol
# Density = 2.088641 g / cm^3
# Si number density = 20.934056 Si / 1000 Ang^3
#
#
#
# Elastic Constant Matrix: (Units=GPa)
#
#
# Indices 1 2 3 4 5 6 
#
# 1 176.2677 -3.2976 114.3419 0.0000 0.0000 0.0000
# 2 -3.2976 37.9946 4.5613 0.0000 0.0000 0.0000
# 3 114.3419 4.5613 229.8869 0.0000 0.0000 0.0000
# 4 0.0000 0.0000 0.0000 15.9815 0.0000 0.0000
# 5 0.0000 0.0000 0.0000 0.0000 4.5349 0.0000
# 6 0.0000 0.0000 0.0000 0.0000 0.0000 28.8343
#
#
#
# Elastic Compliance Matrix: (Units=1/GPa)
#
#
# Indices 1 2 3 4 5 6 
#
# 1 0.008433 0.001238 -0.004219 0.000000 0.000000 0.000000
# 2 0.001238 0.026564 -0.001143 0.000000 0.000000 0.000000
# 3 -0.004219 -0.001143 0.006471 0.000000 0.000000 0.000000
# 4 0.000000 0.000000 0.000000 0.062572 0.000000 0.000000
# 5 0.000000 0.000000 0.000000 0.000000 0.220513 0.000000
# 6 0.000000 0.000000 0.000000 0.000000 0.000000 0.034681
#
#
# Mechanical properties :
#
#
# Convention : Reuss Voigt Hill
#
# Bulk Modulus (GPa) = 30.10132 75.04006 52.57069
# Shear Modulus (GPa) = 13.20809 31.77304 22.49056
#
# Velocity S-wave (km/s) = 2.51457 3.90008 3.28129
# Velocity P-wave (km/s) = 4.77924 7.49697 6.28672
#
# Compressibility (1/GPa) = 0.03322114
#
# Stress axis : x y z
#
# Youngs Moduli (GPa) = 118.57856 37.64463 154.53169
#
# Poissons Ratio (x) = -0.04662 0.65199
# Poissons Ratio (y) = -0.14685 0.17664
# Poissons Ratio (z) = 0.50030 0.04303
#
# Static dielectric constant tensor:
#      x y z
#    x 1.737380 0.000000 0.000000 
#    y 0.000000 1.704370 0.000000 
#    z 0.000000 0.000000 1.767110 
# 
# From -- ./inp_files/23727.got.cif
#   From: 2010.05.17/outbox.cif.g08.bks.cpg/sg59_12_cif.got.tgz:23727.got - 2010.06.03 14:40:33.
