data_PCOD9448132
_publ_section_title
;
Structure prediction by ZEFSAII (Michael W. Deem and Ramdas Pophale) SiO2 
 PCOD9448132
Probable space group: P M M N
;
_chemical_formula_sum "Si O2"
_cell_formula_units_Z 48
_cell_length_a 26.432507
_cell_length_b 8.791907
_cell_length_c 12.111411
_cell_angle_alpha 90.000000
_cell_angle_beta 90.000000
_cell_angle_gamma 90.000000
_cell_volume 2814.596761
_symmetry_space_group_name_H-M "P M M N"
_symmetry_group_IT_number 59
_space_group.IT_coordinate_system_code '2'
_symmetry_cell_setting 'orthorhombic'
loop_
_space_group_symop_operation_xyz
x,y,z
1/2-x,1/2-y,z
1/2+x,-y,-z
-x,1/2+y,-z
-x,-y,-z
1/2+x,1/2+y,-z
1/2-x,y,z
x,1/2-y,z
loop_
_atom_site_type_symbol
_atom_site_label
_atom_site_fract_x
_atom_site_fract_y
_atom_site_fract_z
Si Si1 0.532574 0.073818 0.857242
Si Si2 0.808647 0.566867 0.829343
Si Si3 0.554564 0.930893 0.465433
Si Si4 0.885563 0.424970 0.661073
Si Si5 0.886600 0.567984 0.019679
Si Si6 0.070864 0.569141 0.773507
O O1 0.521031 0.250000 0.884817
O O2 0.568990 0.073275 0.750475
O O3 0.482714 0.983430 0.824835
O O4 0.564671 0.994864 0.953352
O O5 0.750000 0.523365 0.834613
O O6 0.811998 0.750000 0.817989
O O7 0.837763 0.491589 0.726750
O O8 0.839112 0.526868 0.941444
O O9 0.549123 0.750000 0.458233
O O10 0.500000 0.000000 0.500000
O O11 0.595093 0.977910 0.558160
O O12 0.571726 0.997085 0.347866
O O13 0.876990 0.250000 0.628237
O O14 0.889370 0.750000 0.028141
O O15 0.887857 0.495014 0.140640
O O16 0.073524 0.750000 0.766857
#
# Coordination Sequence:
#
# PCOD9448132 Si02
#       6
#     8   8   8   8   8   8
#     4  10  19  32  50  73 106 143 181 220 263 317
#     4   9  19  37  61  85 108 138 178 226 279 330
#     4  12  23  36  54  77 109 148 187 224 266 321
#     4  10  20  34  54  81 111 143 182 226 270 319
#     4  10  20  34  52  76 107 139 178 224 273 324
#     4  12  23  34  50  73 107 147 185 220 264 319
#
# _framework density 17.053953
#
# number of rings (size 3 to 8) (size 9 to 14) (size 15 to 20)
#    0.000    1.500    1.667    5.000    0.000    2.333 
#    0.000    0.000    0.000    1.000    0.000    2.333 
#    0.000    0.000    0.000    0.000    0.000    0.000 
#
# Total GULP energy -268145.707396 kJ/mol
# GULP energy per Si atom -5586.368904 kJ/mol
# Density = 1.701514 g / cm^3
# Si number density = 17.053953 Si / 1000 Ang^3
#
#
#
# Elastic Constant Matrix: (Units=GPa)
#
#
# Indices 1 2 3 4 5 6 
#
# 1 90.9078 42.2545 56.6281 0.0000 0.0000 0.0000
# 2 42.2545 133.9682 71.5041 0.0000 0.0000 0.0000
# 3 56.6281 71.5041 139.6919 0.0000 0.0000 0.0000
# 4 0.0000 0.0000 0.0000 31.1347 0.0000 0.0000
# 5 0.0000 0.0000 0.0000 0.0000 7.7819 0.0000
# 6 0.0000 0.0000 0.0000 0.0000 0.0000 20.8095
#
#
#
# Elastic Compliance Matrix: (Units=1/GPa)
#
#
# Indices 1 2 3 4 5 6 
#
# 1 0.015119 -0.002060 -0.005074 0.000000 0.000000 0.000000
# 2 -0.002060 0.010551 -0.004566 0.000000 0.000000 0.000000
# 3 -0.005074 -0.004566 0.011553 0.000000 0.000000 0.000000
# 4 0.000000 0.000000 0.000000 0.032118 0.000000 0.000000
# 5 0.000000 0.000000 0.000000 0.000000 0.128503 0.000000
# 6 0.000000 0.000000 0.000000 0.000000 0.000000 0.048055
#
#
# Mechanical properties :
#
#
# Convention : Reuss Voigt Hill
#
# Bulk Modulus (GPa) = 72.34732 78.37124 75.35928
# Shear Modulus (GPa) = 18.25442 24.89064 21.57253
#
# Velocity S-wave (km/s) = 3.27523 3.82452 3.56048
# Velocity P-wave (km/s) = 7.53774 8.09674 7.82224
#
# Compressibility (1/GPa) = 0.01382221
#
# Stress axis : x y z
#
# Youngs Moduli (GPa) = 66.14399 94.77662 86.56069
#
# Poissons Ratio (x) = 0.19526 0.43922
# Poissons Ratio (y) = 0.13627 0.39521
# Poissons Ratio (z) = 0.33563 0.43272
#
# Static dielectric constant tensor:
#      x y z
#    x 1.562300 0.000000 0.000000 
#    y 0.000000 1.574110 0.000000 
#    z 0.000000 0.000000 1.590720 
# 
# From -- ./inp_files/18585.got.cif
#   From: 2010.05.17/outbox.cif.g08.bks.cpg/sg59_10_cif.got.tgz:18585.got - 2010.06.03 14:40:33.
