data_PCOD9448875
_publ_section_title
;
Structure prediction by ZEFSAII (Michael W. Deem and Ramdas Pophale) SiO2 
 PCOD9448875
Probable space group: P M M N
;
_chemical_formula_sum "Si O2"
_cell_formula_units_Z 64
_cell_length_a 23.244312
_cell_length_b 18.072052
_cell_length_c 8.828194
_cell_angle_alpha 90.000000
_cell_angle_beta 90.000000
_cell_angle_gamma 90.000000
_cell_volume 3708.480775
_symmetry_space_group_name_H-M "P M M N"
_symmetry_group_IT_number 59
_space_group.IT_coordinate_system_code '2'
_symmetry_cell_setting 'orthorhombic'
loop_
_space_group_symop_operation_xyz
x,y,z
1/2-x,1/2-y,z
1/2+x,-y,-z
-x,1/2+y,-z
-x,-y,-z
1/2+x,1/2+y,-z
1/2-x,y,z
x,1/2-y,z
loop_
_atom_site_type_symbol
_atom_site_label
_atom_site_fract_x
_atom_site_fract_y
_atom_site_fract_z
Si Si1 0.439229 0.483137 0.574279
Si Si2 0.400004 0.923976 0.848985
Si Si3 0.816021 0.509456 0.927358
Si Si4 0.315436 0.661825 0.624222
Si Si5 0.816932 0.833613 0.037134
Si Si6 0.078359 0.165298 0.731334
Si Si7 0.633777 0.420950 0.652288
Si Si8 0.954074 0.162509 0.875648
O O1 0.500000 0.500000 0.500000
O O2 0.436082 0.524717 0.735779
O O3 0.426643 0.397343 0.604490
O O4 0.393475 0.520097 0.462737
O O5 0.360029 0.872729 0.743342
O O6 0.437469 0.876254 0.966340
O O7 0.358618 0.976042 0.948023
O O8 0.750000 0.496820 0.972040
O O9 0.828925 0.465635 0.773837
O O10 0.825120 0.598076 0.922469
O O11 0.250000 0.638744 0.660052
O O12 0.318859 0.750000 0.630996
O O13 0.331427 0.634501 0.455666
O O14 0.750000 0.837868 0.089661
O O15 0.825385 0.750000 0.976181
O O16 0.863485 0.843594 0.170704
O O17 0.076673 0.250000 0.674440
O O18 0.021434 0.155044 0.835416
O O19 0.584256 0.377217 0.745576
O O20 0.940459 0.250000 0.880404
#
# Coordination Sequence:
#
# PCOD9448875 Si02
#       8
#     8   8   8   8   8   8   8   8
#     4  11  21  37  53  81 111 148 181 220 274 328
#     4  10  21  34  54  80 108 143 185 231 273 321
#     4  10  19  34  55  81 108 139 183 230 274 322
#     4  10  20  35  53  75 108 149 187 224 270 326
#     4   9  18  34  57  82 107 136 174 224 277 325
#     4  10  20  36  57  82 110 141 183 225 273 330
#     4  10  21  34  53  78 111 145 181 224 275 329
#     4  10  20  35  55  80 108 141 181 231 276 323
#
# _framework density 17.257739999999998
#
# number of rings (size 3 to 8) (size 9 to 14) (size 15 to 20)
#    0.000    2.000    2.500    1.500    0.000    1.500 
#    0.000    1.875    0.000    6.000    0.000    0.000 
#    0.000    0.000    0.000    0.000    0.000    0.000 
#
# Total GULP energy -356858.637512 kJ/mol
# GULP energy per Si atom -5575.916211 kJ/mol
# Density = 1.721846 g / cm^3
# Si number density = 17.257740 Si / 1000 Ang^3
#
#
#
# Elastic Constant Matrix: (Units=GPa)
#
#
# Indices 1 2 3 4 5 6 
#
# 1 61.0161 35.6240 13.6617 0.0000 0.0000 0.0000
# 2 35.6240 113.0214 39.8976 0.0000 0.0000 0.0000
# 3 13.6617 39.8976 74.6702 0.0000 0.0000 0.0000
# 4 0.0000 0.0000 0.0000 27.9303 0.0000 0.0000
# 5 0.0000 0.0000 0.0000 0.0000 14.1408 0.0000
# 6 0.0000 0.0000 0.0000 0.0000 0.0000 26.5025
#
#
#
# Elastic Compliance Matrix: (Units=1/GPa)
#
#
# Indices 1 2 3 4 5 6 
#
# 1 0.020093 -0.006206 -0.000360 0.000000 0.000000 0.000000
# 2 -0.006206 0.012822 -0.005715 0.000000 0.000000 0.000000
# 3 -0.000360 -0.005715 0.016512 0.000000 0.000000 0.000000
# 4 0.000000 0.000000 0.000000 0.035803 0.000000 0.000000
# 5 0.000000 0.000000 0.000000 0.000000 0.070717 0.000000
# 6 0.000000 0.000000 0.000000 0.000000 0.000000 0.037732
#
#
# Mechanical properties :
#
#
# Convention : Reuss Voigt Hill
#
# Bulk Modulus (GPa) = 40.21982 47.45270 43.83626
# Shear Modulus (GPa) = 22.07203 24.34968 23.21086
#
# Velocity S-wave (km/s) = 3.58014 3.76033 3.67134
# Velocity P-wave (km/s) = 6.35971 6.81246 6.58997
#
# Compressibility (1/GPa) = 0.02486337
#
# Stress axis : x y z
#
# Youngs Moduli (GPa) = 49.76807 77.99338 60.56229
#
# Poissons Ratio (x) = 0.48404 0.02181
# Poissons Ratio (y) = 0.30887 0.34613
# Poissons Ratio (z) = 0.01793 0.44576
#
# Static dielectric constant tensor:
#      x y z
#    x 1.586790 0.000000 0.000000 
#    y 0.000000 1.592910 0.000000 
#    z 0.000000 0.000000 1.553280 
# 
# From -- ./inp_files/10807.got.cif
#   From: 2010.05.17/outbox.cif.g08.bks.cpg/sg59_6_cif.got.tgz:10807.got - 2010.06.03 14:40:33.
