data_PCOD9448454
_publ_section_title
;
Structure prediction by ZEFSAII (Michael W. Deem and Ramdas Pophale) SiO2 
 PCOD9448454
Probable space group: P M M N
;
_chemical_formula_sum "Si O2"
_cell_formula_units_Z 32
_cell_length_a 11.871325
_cell_length_b 14.615213
_cell_length_c 7.893156
_cell_angle_alpha 90.000000
_cell_angle_beta 90.000000
_cell_angle_gamma 90.000000
_cell_volume 1369.477906
_symmetry_space_group_name_H-M "P M M N"
_symmetry_group_IT_number 59
_space_group.IT_coordinate_system_code '2'
_symmetry_cell_setting 'orthorhombic'
loop_
_space_group_symop_operation_xyz
x,y,z
1/2-x,1/2-y,z
1/2+x,-y,-z
-x,1/2+y,-z
-x,-y,-z
1/2+x,1/2+y,-z
1/2-x,y,z
x,1/2-y,z
loop_
_atom_site_type_symbol
_atom_site_label
_atom_site_fract_x
_atom_site_fract_y
_atom_site_fract_z
Si Si1 0.750000 0.580467 0.898384
Si Si2 0.750000 0.750000 0.647300
Si Si3 0.985978 0.250000 0.785933
Si Si4 0.507071 0.250000 0.405088
Si Si5 0.566432 0.052973 0.765929
Si Si6 0.621164 0.433585 0.365501
Si Si7 0.250000 0.250000 0.853672
O O1 0.750000 0.654607 0.747072
O O2 0.858148 0.515729 0.874487
O O3 0.750000 0.651793 0.051081
O O4 0.873588 0.750000 0.569223
O O5 0.942496 0.250000 0.592669
O O6 0.121828 0.250000 0.783911
O O7 0.940987 0.347134 0.850943
O O8 0.550706 0.342404 0.321195
O O9 0.615099 0.054269 0.571264
O O10 0.441438 0.016217 0.727181
O O11 0.750000 0.425256 0.315670
#
# Coordination Sequence:
#
# PCOD9448454 Si02
#       7
#     4   2   4   4   8   8   2
#     4  11  22  41  64  84 119 156 211 248 297 353
#     4  11  19  34  56  90 125 151 204 234 304 353
#     4  10  24  39  56  88 117 156 207 245 303 339
#     4  10  19  33  58  90 129 163 187 252 292 369
#     4  10  21  36  61  90 123 160 192 249 302 363
#     4  10  19  32  56  96 133 158 189 230 307 381
#     4  11  27  44  62  84 109 163 216 264 286 353
#
# _framework density 23.366569999999999
#
# number of rings (size 3 to 8) (size 9 to 14) (size 15 to 20)
#    0.000    1.750    3.750    0.750    1.750    1.500 
#    0.000    0.000    0.000    0.000    0.000    0.000 
#    0.000    0.000    0.000    0.000    0.000    0.000 
#
# Total GULP energy -178608.738066 kJ/mol
# GULP energy per Si atom -5581.523065 kJ/mol
# Density = 2.331339 g / cm^3
# Si number density = 23.366570 Si / 1000 Ang^3
#
#
#
# Elastic Constant Matrix: (Units=GPa)
#
#
# Indices 1 2 3 4 5 6 
#
# 1 137.0127 61.6861 16.9360 0.0000 0.0000 0.0000
# 2 61.6861 191.8345 37.6030 0.0000 0.0000 0.0000
# 3 16.9360 37.6030 36.0229 0.0000 0.0000 0.0000
# 4 0.0000 0.0000 0.0000 10.0023 0.0000 0.0000
# 5 0.0000 0.0000 0.0000 0.0000 11.3668 0.0000
# 6 0.0000 0.0000 0.0000 0.0000 0.0000 44.2599
#
#
#
# Elastic Compliance Matrix: (Units=1/GPa)
#
#
# Indices 1 2 3 4 5 6 
#
# 1 0.008594 -0.002479 -0.001453 0.000000 0.000000 0.000000
# 2 -0.002479 0.007269 -0.006422 0.000000 0.000000 0.000000
# 3 -0.001453 -0.006422 0.035147 0.000000 0.000000 0.000000
# 4 0.000000 0.000000 0.000000 0.099977 0.000000 0.000000
# 5 0.000000 0.000000 0.000000 0.000000 0.087976 0.000000
# 6 0.000000 0.000000 0.000000 0.000000 0.000000 0.022594
#
#
# Mechanical properties :
#
#
# Convention : Reuss Voigt Hill
#
# Bulk Modulus (GPa) = 33.00098 66.36891 49.68494
# Shear Modulus (GPa) = 17.10185 29.70212 23.40198
#
# Velocity S-wave (km/s) = 2.70829 3.56917 3.16811
# Velocity P-wave (km/s) = 4.89220 6.74168 5.88999
#
# Compressibility (1/GPa) = 0.03030213
#
# Stress axis : x y z
#
# Youngs Moduli (GPa) = 116.35788 137.57533 28.45173
#
# Poissons Ratio (x) = 0.34101 0.04134
# Poissons Ratio (y) = 0.28842 0.18272
# Poissons Ratio (z) = 0.16908 0.88354
#
# Static dielectric constant tensor:
#      x y z
#    x 1.786170 0.000000 0.000000 
#    y 0.000000 1.898740 0.000000 
#    z 0.000000 0.000000 1.902990 
# 
# From -- ./inp_files/6899.got.cif
#   From: 2010.05.17/outbox.cif.g08.bks.cpg/sg59_4_cif.got.tgz:6899.got - 2010.06.03 14:40:33.
