data_PCOD9448035
_publ_section_title
;
Structure prediction by ZEFSAII (Michael W. Deem and Ramdas Pophale) SiO2 
 PCOD9448035
Probable space group: P M M N
;
_chemical_formula_sum "Si O2"
_cell_formula_units_Z 48
_cell_length_a 22.379905
_cell_length_b 10.248000
_cell_length_c 9.747075
_cell_angle_alpha 90.000000
_cell_angle_beta 90.000000
_cell_angle_gamma 90.000000
_cell_volume 2235.484501
_symmetry_space_group_name_H-M "P M M N"
_symmetry_group_IT_number 59
_space_group.IT_coordinate_system_code '2'
_symmetry_cell_setting 'orthorhombic'
loop_
_space_group_symop_operation_xyz
x,y,z
1/2-x,1/2-y,z
1/2+x,-y,-z
-x,1/2+y,-z
-x,-y,-z
1/2+x,1/2+y,-z
1/2-x,y,z
x,1/2-y,z
loop_
_atom_site_type_symbol
_atom_site_label
_atom_site_fract_x
_atom_site_fract_y
_atom_site_fract_z
Si Si1 0.078769 0.598744 0.614943
Si Si2 0.815554 0.405214 0.963883
Si Si3 0.455482 0.980518 0.308462
Si Si4 0.182884 0.399327 0.596385
Si Si5 0.336465 0.107176 0.274361
Si Si6 0.552244 0.105652 0.985107
O O1 0.088850 0.750000 0.646951
O O2 0.060389 0.584937 0.453718
O O3 0.135980 0.508173 0.640058
O O4 0.021958 0.536916 0.691018
O O5 0.750000 0.428548 0.031332
O O6 0.817963 0.250000 0.934041
O O7 0.816223 0.493668 0.827129
O O8 0.880440 0.433332 0.033324
O O9 0.443702 0.888234 0.180427
O O10 0.407996 0.096172 0.287789
O O11 0.250000 0.418809 0.649016
O O12 0.163684 0.250000 0.629044
O O13 0.185339 0.407347 0.430100
O O14 0.319514 0.250000 0.222065
O O15 0.537303 0.250000 0.038713
O O16 0.500000 0.000000 0.000000
#
# Coordination Sequence:
#
# PCOD9448035 Si02
#       6
#     8   8   8   8   8   8
#     4  10  19  31  52  77  99 130 172 213 250 297
#     4   9  18  32  49  71 100 131 162 202 256 309
#     4   9  19  33  50  74 106 134 162 204 259 307
#     4   9  18  30  42  62  97 136 168 202 251 304
#     4   9  16  27  45  69  97 129 163 200 246 303
#     4  10  21  36  55  78 105 138 174 212 255 305
#
# _framework density 21.471855000000001
#
# number of rings (size 3 to 8) (size 9 to 14) (size 15 to 20)
#    0.000    2.667    0.000    1.500    0.000   13.333 
#    0.000    0.000    0.000    1.000    0.000    2.333 
#    0.000    0.000    0.000    0.000    0.000    0.000 
#
# Total GULP energy -267630.931639 kJ/mol
# GULP energy per Si atom -5575.644409 kJ/mol
# Density = 2.142298 g / cm^3
# Si number density = 21.471855 Si / 1000 Ang^3
#
#
#
# Elastic Constant Matrix: (Units=GPa)
#
#
# Indices 1 2 3 4 5 6 
#
# 1 200.6776 86.0056 2.4838 0.0000 0.0000 0.0000
# 2 86.0056 129.8434 19.7758 0.0000 0.0000 0.0000
# 3 2.4838 19.7758 45.0308 0.0000 0.0000 0.0000
# 4 0.0000 0.0000 0.0000 12.8208 0.0000 0.0000
# 5 0.0000 0.0000 0.0000 0.0000 13.3888 0.0000
# 6 0.0000 0.0000 0.0000 0.0000 0.0000 19.1690
#
#
#
# Elastic Compliance Matrix: (Units=1/GPa)
#
#
# Indices 1 2 3 4 5 6 
#
# 1 0.007091 -0.004970 0.001791 0.000000 0.000000 0.000000
# 2 -0.004970 0.011737 -0.004880 0.000000 0.000000 0.000000
# 3 0.001791 -0.004880 0.024251 0.000000 0.000000 0.000000
# 4 0.000000 0.000000 0.000000 0.077998 0.000000 0.000000
# 5 0.000000 0.000000 0.000000 0.000000 0.074689 0.000000
# 6 0.000000 0.000000 0.000000 0.000000 0.000000 0.052168
#
#
# Mechanical properties :
#
#
# Convention : Reuss Voigt Hill
#
# Bulk Modulus (GPa) = 37.08932 65.78691 51.43811
# Shear Modulus (GPa) = 18.31246 26.89482 22.60364
#
# Velocity S-wave (km/s) = 2.92354 3.54299 3.24807
# Velocity P-wave (km/s) = 5.35790 6.88783 6.17047
#
# Compressibility (1/GPa) = 0.02696194
#
# Stress axis : x y z
#
# Youngs Moduli (GPa) = 141.02754 85.20323 41.23479
#
# Poissons Ratio (x) = 0.42343 -0.07387
# Poissons Ratio (y) = 0.70086 0.20123
# Poissons Ratio (z) = -0.25263 0.41581
#
# Static dielectric constant tensor:
#      x y z
#    x 1.823860 0.000000 0.000000 
#    y 0.000000 1.731860 0.000000 
#    z 0.000000 0.000000 1.799850 
# 
# From -- ./inp_files/18602.got.cif
#   From: 2010.05.17/outbox.cif.g08.bks.cpg/sg59_10_cif.got.tgz:18602.got - 2010.06.03 14:40:33.
