data_PCOD9448839
_publ_section_title
;
Structure prediction by ZEFSAII (Michael W. Deem and Ramdas Pophale) SiO2 
 PCOD9448839
Probable space group: P M M N
;
_chemical_formula_sum "Si O2"
_cell_formula_units_Z 48
_cell_length_a 19.278623
_cell_length_b 14.623644
_cell_length_c 9.988365
_cell_angle_alpha 90.000000
_cell_angle_beta 90.000000
_cell_angle_gamma 90.000000
_cell_volume 2815.957013
_symmetry_space_group_name_H-M "P M M N"
_symmetry_group_IT_number 59
_space_group.IT_coordinate_system_code '2'
_symmetry_cell_setting 'orthorhombic'
loop_
_space_group_symop_operation_xyz
x,y,z
1/2-x,1/2-y,z
1/2+x,-y,-z
-x,1/2+y,-z
-x,-y,-z
1/2+x,1/2+y,-z
1/2-x,y,z
x,1/2-y,z
loop_
_atom_site_type_symbol
_atom_site_label
_atom_site_fract_x
_atom_site_fract_y
_atom_site_fract_z
Si Si1 0.830122 0.995749 0.962773
Si Si2 0.420468 0.960055 0.775202
Si Si3 0.550309 0.856312 0.904403
Si Si4 0.172857 0.859510 0.564847
Si Si5 0.143075 0.855549 0.260862
Si Si6 0.520469 0.649707 0.220686
O O1 0.750000 0.970184 0.988751
O O2 0.831892 0.076788 0.854007
O O3 0.877751 0.912677 0.906663
O O4 0.869330 0.030497 0.096773
O O5 0.491306 0.910362 0.822391
O O6 0.383739 0.905365 0.657840
O O7 0.438371 0.062505 0.727929
O O8 0.557068 0.750000 0.863000
O O9 0.524949 0.856198 0.059152
O O10 0.250000 0.883853 0.613171
O O11 0.165212 0.750000 0.571499
O O12 0.166776 0.884053 0.408581
O O13 0.164600 0.750000 0.236957
O O14 0.059576 0.857017 0.259863
O O15 0.547175 0.750000 0.260997
#
# Coordination Sequence:
#
# PCOD9448839 Si02
#       6
#     8   8   8   8   8   8
#     4  11  21  34  54  81 106 137 178 216 258 312
#     4  11  19  35  56  80 104 137 178 218 263 306
#     4  10  19  34  54  78 109 141 173 218 264 306
#     4  10  22  36  50  75 111 142 168 211 270 320
#     4  10  19  35  55  77 104 137 172 211 262 315
#     4   9  17  32  55  80 105 131 171 220 261 303
#
# _framework density 17.045715000000001
#
# number of rings (size 3 to 8) (size 9 to 14) (size 15 to 20)
#    0.000    1.833    3.333    2.500    0.000    2.667 
#    0.000    0.000    0.000    1.500    0.000    0.000 
#    0.000    0.000    0.000    0.000    0.000    0.000 
#
# Total GULP energy -267762.525289 kJ/mol
# GULP energy per Si atom -5578.385944 kJ/mol
# Density = 1.700692 g / cm^3
# Si number density = 17.045715 Si / 1000 Ang^3
#
#
#
# Elastic Constant Matrix: (Units=GPa)
#
#
# Indices 1 2 3 4 5 6 
#
# 1 115.3016 46.2701 32.1186 0.0000 0.0000 0.0000
# 2 46.2701 87.9025 30.3396 0.0000 0.0000 0.0000
# 3 32.1186 30.3396 30.9114 0.0000 0.0000 0.0000
# 4 0.0000 0.0000 0.0000 20.7305 0.0000 0.0000
# 5 0.0000 0.0000 0.0000 0.0000 0.3738 0.0000
# 6 0.0000 0.0000 0.0000 0.0000 0.0000 15.1018
#
#
#
# Elastic Compliance Matrix: (Units=1/GPa)
#
#
# Indices 1 2 3 4 5 6 
#
# 1 0.012790 -0.003245 -0.010105 0.000000 0.000000 0.000000
# 2 -0.003245 0.018028 -0.014323 0.000000 0.000000 0.000000
# 3 -0.010105 -0.014323 0.056908 0.000000 0.000000 0.000000
# 4 0.000000 0.000000 0.000000 0.048238 0.000000 0.000000
# 5 0.000000 0.000000 0.000000 0.000000 2.675393 0.000000
# 6 0.000000 0.000000 0.000000 0.000000 0.000000 0.066217
#
#
# Mechanical properties :
#
#
# Convention : Reuss Voigt Hill
#
# Bulk Modulus (GPa) = 30.88243 50.17469 40.52856
# Shear Modulus (GPa) = 1.69854 15.60037 8.64945
#
# Velocity S-wave (km/s) = 0.99931 3.02852 2.25506
# Velocity P-wave (km/s) = 4.41455 6.45976 5.53248
#
# Compressibility (1/GPa) = 0.03238087
#
# Stress axis : x y z
#
# Youngs Moduli (GPa) = 78.18775 55.47018 17.57235
#
# Poissons Ratio (x) = 0.17998 0.17756
# Poissons Ratio (y) = 0.25369 0.25169
# Poissons Ratio (z) = 0.79005 0.79449
#
# Static dielectric constant tensor:
#      x y z
#    x 1.581460 0.000000 0.000000 
#    y 0.000000 1.589230 0.000000 
#    z 0.000000 0.000000 1.549620 
# 
# From -- ./inp_files/9023.got.cif
#   From: 2010.05.17/outbox.cif.g08.bks.cpg/sg59_5_cif.got.tgz:9023.got - 2010.06.03 14:40:33.
