data_PCOD9448895
_publ_section_title
;
Structure prediction by ZEFSAII (Michael W. Deem and Ramdas Pophale) SiO2 
 PCOD9448895
Probable space group: P M M N
;
_chemical_formula_sum "Si O2"
_cell_formula_units_Z 48
_cell_length_a 7.807409
_cell_length_b 16.730516
_cell_length_c 17.631857
_cell_angle_alpha 90.000000
_cell_angle_beta 90.000000
_cell_angle_gamma 90.000000
_cell_volume 2303.108093
_symmetry_space_group_name_H-M "P M M N"
_symmetry_group_IT_number 59
_space_group.IT_coordinate_system_code '2'
_symmetry_cell_setting 'orthorhombic'
loop_
_space_group_symop_operation_xyz
x,y,z
1/2-x,1/2-y,z
1/2+x,-y,-z
-x,1/2+y,-z
-x,-y,-z
1/2+x,1/2+y,-z
1/2-x,y,z
x,1/2-y,z
loop_
_atom_site_type_symbol
_atom_site_label
_atom_site_fract_x
_atom_site_fract_y
_atom_site_fract_z
Si Si1 0.455559 0.839991 0.012923
Si Si2 0.953666 0.892798 0.843548
Si Si3 0.955966 0.088764 0.528961
Si Si4 0.539541 0.250000 0.439910
Si Si5 0.540751 0.341365 0.685680
Si Si6 0.548215 0.250000 0.267768
Si Si7 0.039825 0.571455 0.162648
O O1 0.250000 0.837042 0.019923
O O2 0.522365 0.750000 0.022352
O O3 0.518219 0.895751 0.081100
O O4 0.493569 0.869062 0.928467
O O5 0.750000 0.896476 0.843480
O O6 0.003476 0.827065 0.782172
O O7 0.020023 0.981067 0.825596
O O8 0.750000 0.092822 0.528677
O O9 0.014383 0.166821 0.480585
O O10 0.015112 0.104125 0.615323
O O11 0.000000 0.000000 0.500000
O O12 0.750000 0.250000 0.442086
O O13 0.476764 0.250000 0.352928
O O14 0.750000 0.341673 0.685980
O O15 0.487151 0.250000 0.673370
O O16 0.485376 0.373848 0.767217
O O17 0.750000 0.250000 0.277284
O O18 0.250000 0.571721 0.162253
#
# Coordination Sequence:
#
# PCOD9448895 Si02
#       7
#     8   8   8   4   8   4   8
#     4  10  19  34  56  79 108 145 184 215 256 323
#     4  11  22  36  54  79 112 140 175 229 282 322
#     4  10  20  36  59  86 114 148 188 232 282 336
#     4   9  20  39  59  82 113 150 192 233 277 337
#     4   9  16  31  56  82 110 143 182 225 268 319
#     4  11  23  39  57  74 103 146 190 227 269 327
#     4   9  19  32  51  82 112 140 178 225 268 318
#
# _framework density 20.8414
#
# number of rings (size 3 to 8) (size 9 to 14) (size 15 to 20)
#    0.000    2.167    1.667    1.750    2.333    2.000 
#    0.000    2.083    0.000    1.000    0.000    0.000 
#    0.000    0.000    0.000    0.000    0.000    0.000 
#
# Total GULP energy -268001.628317 kJ/mol
# GULP energy per Si atom -5583.367257 kJ/mol
# Density = 2.079396 g / cm^3
# Si number density = 20.841400 Si / 1000 Ang^3
#
#
#
# Elastic Constant Matrix: (Units=GPa)
#
#
# Indices 1 2 3 4 5 6 
#
# 1 21.5562 8.5983 5.4162 0.0000 0.0000 0.0000
# 2 8.5983 126.4319 42.4935 0.0000 0.0000 0.0000
# 3 5.4162 42.4935 128.5026 0.0000 0.0000 0.0000
# 4 0.0000 0.0000 0.0000 -8.5609 0.0000 0.0000
# 5 0.0000 0.0000 0.0000 0.0000 -3.0772 0.0000
# 6 0.0000 0.0000 0.0000 0.0000 0.0000 13.0529
#
#
#
# Elastic Compliance Matrix: (Units=1/GPa)
#
#
# Indices 1 2 3 4 5 6 
#
# 1 0.047811 -0.002896 -0.001058 0.000000 0.000000 0.000000
# 2 -0.002896 0.009074 -0.002878 0.000000 0.000000 0.000000
# 3 -0.001058 -0.002878 0.008778 0.000000 0.000000 0.000000
# 4 0.000000 0.000000 0.000000 -0.116809 0.000000 0.000000
# 5 0.000000 0.000000 0.000000 0.000000 -0.324967 0.000000
# 6 0.000000 0.000000 0.000000 0.000000 0.000000 0.076611
#
#
# Mechanical properties :
#
#
# Convention : Reuss Voigt Hill
#
# Bulk Modulus (GPa) = 19.23103 43.27854 31.25479
# Shear Modulus (GPa) = -18.62163 14.94845 -1.83659
#
# Velocity S-wave (km/s) = -2.99238 2.68105 -0.93975
# Velocity P-wave (km/s) = 1.64065 5.51315 3.72176
#
# Compressibility (1/GPa) = 0.05199929
#
# Stress axis : x y z
#
# Youngs Moduli (GPa) = 20.91558 110.20735 113.91626
#
# Poissons Ratio (x) = 0.31917 0.12047
# Poissons Ratio (y) = 0.06057 0.32791
# Poissons Ratio (z) = 0.02212 0.31723
#
# Static dielectric constant tensor:
#      x y z
#    x 1.772860 0.000000 0.000000 
#    y 0.000000 1.734220 0.000000 
#    z 0.000000 0.000000 1.780060 
# 
# From -- ./inp_files/25605.got.cif
#   From: 2010.05.17/outbox.cif.g08.bks.cpg/sg59_13_cif.got.tgz:25605.got - 2010.06.03 14:40:33.
