data_PCOD9448593
_publ_section_title
;
Structure prediction by ZEFSAII (Michael W. Deem and Ramdas Pophale) SiO2 
 PCOD9448593
Probable space group: P M M N
;
_chemical_formula_sum "Si O2"
_cell_formula_units_Z 64
_cell_length_a 9.132996
_cell_length_b 18.045908
_cell_length_c 21.398296
_cell_angle_alpha 90.000000
_cell_angle_beta 90.000000
_cell_angle_gamma 90.000000
_cell_volume 3526.721758
_symmetry_space_group_name_H-M "P M M N"
_symmetry_group_IT_number 59
_space_group.IT_coordinate_system_code '2'
_symmetry_cell_setting 'orthorhombic'
loop_
_space_group_symop_operation_xyz
x,y,z
1/2-x,1/2-y,z
1/2+x,-y,-z
-x,1/2+y,-z
-x,-y,-z
1/2+x,1/2+y,-z
1/2-x,y,z
x,1/2-y,z
loop_
_atom_site_type_symbol
_atom_site_label
_atom_site_fract_x
_atom_site_fract_y
_atom_site_fract_z
Si Si1 0.926030 0.404866 0.870735
Si Si2 0.419303 0.659629 0.627737
Si Si3 0.071919 0.664914 0.765449
Si Si4 0.081621 0.659611 0.377028
Si Si5 0.572280 0.166979 0.001626
Si Si6 0.919286 0.839584 0.250543
Si Si7 0.918261 0.840499 0.502699
Si Si8 0.072403 0.564025 0.883446
O O1 0.750000 0.407371 0.867470
O O2 0.991031 0.370152 0.807884
O O3 0.993441 0.485840 0.879962
O O4 0.968689 0.357290 0.931899
O O5 0.250000 0.636811 0.620344
O O6 0.419957 0.750000 0.628563
O O7 0.475194 0.637819 0.696603
O O8 0.511723 0.635004 0.568174
O O9 0.250000 0.666919 0.763030
O O10 0.023281 0.750000 0.775223
O O11 0.032270 0.612814 0.822792
O O12 0.250000 0.636128 0.372576
O O13 0.080182 0.750000 0.377524
O O14 0.990376 0.636448 0.316235
O O15 0.009053 0.635364 0.442040
O O16 0.750000 0.168358 0.003621
O O17 0.520324 0.250000 0.015763
O O18 0.527577 0.108586 0.054317
O O19 0.750000 0.863085 0.246907
O O20 0.923479 0.750000 0.248883
O O21 0.750000 0.863144 0.497368
O O22 0.921701 0.750000 0.503052
O O23 0.250000 0.555011 0.883927
#
# Coordination Sequence:
#
# PCOD9448593 Si02
#       8
#     8   8   8   8   8   8   8   8
#     4  11  22  35  51  73 105 140 170 202 246 303
#     4   8  13  22  37  59  88 121 158 201 249 299
#     4   8  14  26  47  73  97 125 166 214 259 302
#     4   9  16  26  42  65  94 128 163 201 249 301
#     4   9  18  33  55  80 102 129 168 211 253 299
#     4  10  20  34  52  74  99 128 167 214 257 297
#     4   9  15  22  34  57  91 128 163 200 244 292
#     4  10  19  33  54  77 101 130 168 213 255 296
#
# _framework density 18.147165000000001
#
# number of rings (size 3 to 8) (size 9 to 14) (size 15 to 20)
#    0.000    2.750    0.000    3.375    0.000    5.750 
#    0.000    1.250    0.000    3.750    0.000    0.875 
#    0.000    0.000    0.000    0.000    0.000    0.000 
#
# Total GULP energy -356844.013012 kJ/mol
# GULP energy per Si atom -5575.687703 kJ/mol
# Density = 1.810586 g / cm^3
# Si number density = 18.147165 Si / 1000 Ang^3
#
#
#
# Elastic Constant Matrix: (Units=GPa)
#
#
# Indices 1 2 3 4 5 6 
#
# 1 66.1215 9.4988 30.8020 0.0000 0.0000 0.0000
# 2 9.4988 18.6836 -1.9471 0.0000 0.0000 0.0000
# 3 30.8020 -1.9471 90.5343 0.0000 0.0000 0.0000
# 4 0.0000 0.0000 0.0000 -6.8601 0.0000 0.0000
# 5 0.0000 0.0000 0.0000 0.0000 8.5611 0.0000
# 6 0.0000 0.0000 0.0000 0.0000 0.0000 16.7953
#
#
#
# Elastic Compliance Matrix: (Units=1/GPa)
#
#
# Indices 1 2 3 4 5 6 
#
# 1 0.019959 -0.010879 -0.007024 0.000000 0.000000 0.000000
# 2 -0.010879 0.059573 0.004983 0.000000 0.000000 0.000000
# 3 -0.007024 0.004983 0.013543 0.000000 0.000000 0.000000
# 4 0.000000 0.000000 0.000000 -0.145770 0.000000 0.000000
# 5 0.000000 0.000000 0.000000 0.000000 0.116807 0.000000
# 6 0.000000 0.000000 0.000000 0.000000 0.000000 0.059541
#
#
# Mechanical properties :
#
#
# Convention : Reuss Voigt Hill
#
# Bulk Modulus (GPa) = 14.87380 28.00520 21.43950
# Shear Modulus (GPa) = 29.08585 12.83163 20.95874
#
# Velocity S-wave (km/s) = 4.00781 2.66200 3.40212
# Velocity P-wave (km/s) = 5.44341 4.99140 5.22230
#
# Compressibility (1/GPa) = 0.06723233
#
# Stress axis : x y z
#
# Youngs Moduli (GPa) = 50.10321 16.78612 73.84123
#
# Poissons Ratio (x) = 0.18262 0.51869
# Poissons Ratio (y) = 0.54508 -0.36792
# Poissons Ratio (z) = 0.35195 -0.08364
#
# Static dielectric constant tensor:
#      x y z
#    x 1.607240 0.000000 0.000000 
#    y 0.000000 1.610220 0.000000 
#    z 0.000000 0.000000 1.620680 
# 
# From -- ./inp_files/29530.got.cif
#   From: 2010.05.17/outbox.cif.g08.bks.cpg/sg59_15_cif.got.tgz:29530.got - 2010.06.03 14:40:33.
