data_PCOD9448170
_publ_section_title
;
Structure prediction by ZEFSAII (Michael W. Deem and Ramdas Pophale) SiO2 
 PCOD9448170
Probable space group: P M M N
;
_chemical_formula_sum "Si O2"
_cell_formula_units_Z 64
_cell_length_a 8.544645
_cell_length_b 31.935092
_cell_length_c 12.514997
_cell_angle_alpha 90.000000
_cell_angle_beta 90.000000
_cell_angle_gamma 90.000000
_cell_volume 3415.017594
_symmetry_space_group_name_H-M "P M M N"
_symmetry_group_IT_number 59
_space_group.IT_coordinate_system_code '2'
_symmetry_cell_setting 'orthorhombic'
loop_
_space_group_symop_operation_xyz
x,y,z
1/2-x,1/2-y,z
1/2+x,-y,-z
-x,1/2+y,-z
-x,-y,-z
1/2+x,1/2+y,-z
1/2-x,y,z
x,1/2-y,z
loop_
_atom_site_type_symbol
_atom_site_label
_atom_site_fract_x
_atom_site_fract_y
_atom_site_fract_z
Si Si1 0.559950 0.940646 0.250477
Si Si2 0.937113 0.387440 0.363239
Si Si3 0.938870 0.017358 0.388032
Si Si4 0.436746 0.125638 0.132903
Si Si5 0.439774 0.047721 0.989323
Si Si6 0.564504 0.298166 0.993706
Si Si7 0.566159 0.701093 0.238300
Si Si8 0.938826 0.866734 0.408982
O O1 0.750000 0.938783 0.250321
O O2 0.511031 0.935228 0.128061
O O3 0.507836 0.906513 0.337522
O O4 0.511698 0.986023 0.294111
O O5 0.750000 0.387130 0.359831
O O6 0.993755 0.435623 0.370096
O O7 0.000734 0.369659 0.252730
O O8 0.992439 0.366492 0.472919
O O9 0.750000 0.017332 0.391319
O O10 0.000000 0.000000 0.500000
O O11 0.250000 0.123604 0.134751
O O12 0.487352 0.165803 0.064187
O O13 0.492793 0.081877 0.077504
O O14 0.250000 0.046101 0.992029
O O15 0.500000 0.000000 0.000000
O O16 0.750000 0.298899 0.011005
O O17 0.508855 0.250000 0.014054
O O18 0.526816 0.307542 0.869892
O O19 0.750000 0.691908 0.216467
O O20 0.551341 0.750000 0.263004
O O21 0.517849 0.673208 0.338045
O O22 0.750000 0.868782 0.417931
#
# Coordination Sequence:
#
# PCOD9448170 Si02
#       8
#     8   8   8   8   8   8   8   8
#     4   9  17  31  52  75 102 136 174 221 274 327
#     4  11  23  37  54  79 112 149 190 239 290 341
#     4  10  19  32  51  74 104 142 182 227 277 331
#     4  11  23  39  60  84 114 155 199 242 289 349
#     4  10  21  37  56  81 113 149 190 234 285 340
#     4  10  21  38  62  91 120 149 185 235 294 350
#     4   9  18  34  58  87 116 145 180 224 275 335
#     4  10  19  34  56  79 107 144 185 229 277 332
#
# _framework density 18.740752000000001
#
# number of rings (size 3 to 8) (size 9 to 14) (size 15 to 20)
#    0.000    2.000    1.250    2.625    0.000    5.750 
#    0.000    1.875    0.000    2.250    0.000    0.000 
#    0.000    0.000    0.000    0.000    0.000    0.000 
#
# Total GULP energy -357260.267529 kJ/mol
# GULP energy per Si atom -5582.191680 kJ/mol
# Density = 1.869810 g / cm^3
# Si number density = 18.740752 Si / 1000 Ang^3
#
#
#
# Elastic Constant Matrix: (Units=GPa)
#
#
# Indices 1 2 3 4 5 6 
#
# 1 22.6750 28.5064 28.0928 0.0000 0.0000 0.0000
# 2 28.5064 80.1177 63.4134 0.0000 0.0000 0.0000
# 3 28.0928 63.4134 143.5117 0.0000 0.0000 0.0000
# 4 0.0000 0.0000 0.0000 34.8936 0.0000 0.0000
# 5 0.0000 0.0000 0.0000 0.0000 24.7466 0.0000
# 6 0.0000 0.0000 0.0000 0.0000 0.0000 21.4691
#
#
#
# Elastic Compliance Matrix: (Units=1/GPa)
#
#
# Indices 1 2 3 4 5 6 
#
# 1 0.081937 -0.025311 -0.004855 0.000000 0.000000 0.000000
# 2 -0.025311 0.027013 -0.006982 0.000000 0.000000 0.000000
# 3 -0.004855 -0.006982 0.011004 0.000000 0.000000 0.000000
# 4 0.000000 0.000000 0.000000 0.028659 0.000000 0.000000
# 5 0.000000 0.000000 0.000000 0.000000 0.040410 0.000000
# 6 0.000000 0.000000 0.000000 0.000000 0.000000 0.046579
#
#
# Mechanical properties :
#
#
# Convention : Reuss Voigt Hill
#
# Bulk Modulus (GPa) = 21.90185 54.03663 37.96924
# Shear Modulus (GPa) = 15.37916 24.64131 20.01024
#
# Velocity S-wave (km/s) = 2.86777 3.63002 3.27117
# Velocity P-wave (km/s) = 4.76210 6.81658 5.87977
#
# Compressibility (1/GPa) = 0.04565825
#
# Stress axis : x y z
#
# Youngs Moduli (GPa) = 12.20454 37.01868 90.87962
#
# Poissons Ratio (x) = 0.93696 0.44126
# Poissons Ratio (y) = 0.30890 0.63450
# Poissons Ratio (z) = 0.05926 0.25846
#
# Static dielectric constant tensor:
#      x y z
#    x 1.640660 0.000000 0.000000 
#    y 0.000000 1.656720 0.000000 
#    z 0.000000 0.000000 1.635790 
# 
# From -- ./inp_files/15043.got.cif
#   From: 2010.05.17/outbox.cif.g08.bks.cpg/sg59_8_cif.got.tgz:15043.got - 2010.06.03 14:40:33.
