data_PCOD9448608
_publ_section_title
;
Structure prediction by ZEFSAII (Michael W. Deem and Ramdas Pophale) SiO2 
 PCOD9448608
Probable space group: P M M N
;
_chemical_formula_sum "Si O2"
_cell_formula_units_Z 48
_cell_length_a 7.483385
_cell_length_b 19.666641
_cell_length_c 13.733334
_cell_angle_alpha 90.000000
_cell_angle_beta 90.000000
_cell_angle_gamma 90.000000
_cell_volume 2021.176600
_symmetry_space_group_name_H-M "P M M N"
_symmetry_group_IT_number 59
_space_group.IT_coordinate_system_code '2'
_symmetry_cell_setting 'orthorhombic'
loop_
_space_group_symop_operation_xyz
x,y,z
1/2-x,1/2-y,z
1/2+x,-y,-z
-x,1/2+y,-z
-x,-y,-z
1/2+x,1/2+y,-z
1/2-x,y,z
x,1/2-y,z
loop_
_atom_site_type_symbol
_atom_site_label
_atom_site_fract_x
_atom_site_fract_y
_atom_site_fract_z
Si Si1 0.543972 0.826314 0.898240
Si Si2 0.536652 0.541166 0.598156
Si Si3 0.529967 0.534448 0.811386
Si Si4 0.468286 0.327161 0.500728
Si Si5 0.964306 0.830184 0.281025
Si Si6 0.047070 0.905145 0.086194
O O1 0.750000 0.820365 0.867169
O O2 0.466242 0.750000 0.893636
O O3 0.469711 0.889169 0.835723
O O4 0.542931 0.855899 0.008180
O O5 0.500000 0.500000 0.500000
O O6 0.750000 0.543793 0.607505
O O7 0.470876 0.514922 0.702237
O O8 0.472156 0.617675 0.576866
O O9 0.750000 0.532679 0.815894
O O10 0.468504 0.479476 0.890815
O O11 0.250000 0.326340 0.501524
O O12 0.526481 0.250000 0.483292
O O13 0.523171 0.349350 0.609836
O O14 0.750000 0.838809 0.275846
O O15 0.002030 0.750000 0.270823
O O16 0.046502 0.870217 0.192061
O O17 0.250000 0.912254 0.051978
#
# Coordination Sequence:
#
# PCOD9448608 Si02
#       6
#     8   8   8   8   8   8
#     4  10  21  38  58  77  99 131 172 214 254 299
#     4  10  19  33  54  78 105 135 169 209 250 298
#     4   9  20  36  53  77 106 134 166 207 255 303
#     4   8  15  28  48  74 100 129 169 213 252 292
#     4   9  17  30  48  72 103 136 171 211 252 296
#     4  11  21  33  51  75 105 136 166 206 255 307
#
# _framework density 23.748543000000002
#
# number of rings (size 3 to 8) (size 9 to 14) (size 15 to 20)
#    0.000    2.500    0.000    3.500    0.000    3.333 
#    0.000    5.833    0.000    1.500    0.000    0.000 
#    0.000    0.000    0.000    0.000    0.000    0.000 
#
# Total GULP energy -268132.508928 kJ/mol
# GULP energy per Si atom -5586.093936 kJ/mol
# Density = 2.369449 g / cm^3
# Si number density = 23.748543 Si / 1000 Ang^3
#
#
#
# Elastic Constant Matrix: (Units=GPa)
#
#
# Indices 1 2 3 4 5 6 
#
# 1 63.8469 6.9909 -3.3545 0.0000 0.0000 0.0000
# 2 6.9909 96.8909 17.6820 0.0000 0.0000 0.0000
# 3 -3.3545 17.6820 69.5988 0.0000 0.0000 0.0000
# 4 0.0000 0.0000 0.0000 40.8270 0.0000 0.0000
# 5 0.0000 0.0000 0.0000 0.0000 17.6042 0.0000
# 6 0.0000 0.0000 0.0000 0.0000 0.0000 6.9282
#
#
#
# Elastic Compliance Matrix: (Units=1/GPa)
#
#
# Indices 1 2 3 4 5 6 
#
# 1 0.015868 -0.001347 0.001107 0.000000 0.000000 0.000000
# 2 -0.001347 0.010937 -0.002844 0.000000 0.000000 0.000000
# 3 0.001107 -0.002844 0.015144 0.000000 0.000000 0.000000
# 4 0.000000 0.000000 0.000000 0.024494 0.000000 0.000000
# 5 0.000000 0.000000 0.000000 0.000000 0.056805 0.000000
# 6 0.000000 0.000000 0.000000 0.000000 0.000000 0.144338
#
#
# Mechanical properties :
#
#
# Convention : Reuss Voigt Hill
#
# Bulk Modulus (GPa) = 27.94701 30.33038 29.13870
# Shear Modulus (GPa) = 17.50215 27.00643 22.25429
#
# Velocity S-wave (km/s) = 2.71768 3.37587 3.06450
# Velocity P-wave (km/s) = 4.65200 5.29099 4.98175
#
# Compressibility (1/GPa) = 0.03578200
#
# Stress axis : x y z
#
# Youngs Moduli (GPa) = 63.01951 91.43277 66.03350
#
# Poissons Ratio (x) = 0.12315 -0.07310
# Poissons Ratio (y) = 0.08488 0.18777
# Poissons Ratio (z) = -0.06976 0.25999
#
# Static dielectric constant tensor:
#      x y z
#    x 1.873890 0.000000 0.000000 
#    y 0.000000 1.916250 0.000000 
#    z 0.000000 0.000000 1.884020 
# 
# From -- ./inp_files/20456.got.cif
#   From: 2010.05.17/outbox.cif.g08.bks.cpg/sg59_11_cif.got.tgz:20456.got - 2010.06.03 14:40:33.
