data_PCOD9448774
_publ_section_title
;
Structure prediction by ZEFSAII (Michael W. Deem and Ramdas Pophale) SiO2 
 PCOD9448774
Probable space group: P M M N
;
_chemical_formula_sum "Si O2"
_cell_formula_units_Z 64
_cell_length_a 18.320619
_cell_length_b 13.957358
_cell_length_c 12.538444
_cell_angle_alpha 90.000000
_cell_angle_beta 90.000000
_cell_angle_gamma 90.000000
_cell_volume 3206.173394
_symmetry_space_group_name_H-M "P M M N"
_symmetry_group_IT_number 59
_space_group.IT_coordinate_system_code '2'
_symmetry_cell_setting 'orthorhombic'
loop_
_space_group_symop_operation_xyz
x,y,z
1/2-x,1/2-y,z
1/2+x,-y,-z
-x,1/2+y,-z
-x,-y,-z
1/2+x,1/2+y,-z
1/2-x,y,z
x,1/2-y,z
loop_
_atom_site_type_symbol
_atom_site_label
_atom_site_fract_x
_atom_site_fract_y
_atom_site_fract_z
Si Si1 0.522687 0.038309 0.616761
Si Si2 0.335202 0.026947 0.893695
Si Si3 0.889398 0.638219 0.308807
Si Si4 0.836700 0.134451 0.708212
Si Si5 0.171168 0.364026 0.110724
Si Si6 0.446624 0.138466 0.283034
Si Si7 0.161327 0.858679 0.043413
Si Si8 0.328275 0.364246 0.469642
O O1 0.472274 0.126734 0.651750
O O2 0.605759 0.075323 0.636219
O O3 0.500000 0.000000 0.500000
O O4 0.500328 0.949059 0.693702
O O5 0.250000 0.010540 0.865418
O O6 0.373759 0.074055 0.793511
O O7 0.364865 0.931236 0.952071
O O8 0.336809 0.102627 0.990540
O O9 0.871909 0.750000 0.287716
O O10 0.844963 0.599969 0.411876
O O11 0.750000 0.113893 0.691324
O O12 0.845096 0.250000 0.693549
O O13 0.855080 0.114118 0.833615
O O14 0.250000 0.403007 0.149943
O O15 0.175215 0.250000 0.117509
O O16 0.102214 0.388158 0.181816
O O17 0.470605 0.250000 0.277907
O O18 0.392092 0.127046 0.384241
O O19 0.250000 0.859442 0.038501
O O20 0.136135 0.750000 0.025530
O O21 0.250000 0.399760 0.429853
O O22 0.323276 0.250000 0.483002
#
# Coordination Sequence:
#
# PCOD9448774 Si02
#       8
#     8   8   8   8   8   8   8   8
#     4  12  24  39  57  84 113 154 197 247 308 366
#     4  10  19  33  57  88 122 158 196 236 283 351
#     4  11  23  39  56  80 117 159 198 237 290 360
#     4   9  19  38  65  92 116 151 205 263 309 353
#     4   9  17  30  52  84 117 147 181 230 291 342
#     4  10  20  35  54  78 110 146 191 243 296 349
#     4   8  15  31  57  88 119 153 199 254 302 342
#     4   9  17  31  53  79 107 144 190 235 277 334
#
# _framework density 19.961490999999999
#
# number of rings (size 3 to 8) (size 9 to 14) (size 15 to 20)
#    0.000    2.250    1.250    3.000    0.000    5.250 
#    0.000    3.125    0.000    3.000    0.000    1.750 
#    0.000    0.000    0.000    0.000    0.000    0.000 
#
# Total GULP energy -356523.847389 kJ/mol
# GULP energy per Si atom -5570.685115 kJ/mol
# Density = 1.991606 g / cm^3
# Si number density = 19.961491 Si / 1000 Ang^3
#
#
#
# Elastic Constant Matrix: (Units=GPa)
#
#
# Indices 1 2 3 4 5 6 
#
# 1 40.5271 18.0320 24.3093 0.0000 0.0000 0.0000
# 2 18.0320 51.6735 15.4724 0.0000 0.0000 0.0000
# 3 24.3093 15.4724 87.8834 0.0000 0.0000 0.0000
# 4 0.0000 0.0000 0.0000 30.7959 0.0000 0.0000
# 5 0.0000 0.0000 0.0000 0.0000 26.2082 0.0000
# 6 0.0000 0.0000 0.0000 0.0000 0.0000 25.9925
#
#
#
# Elastic Compliance Matrix: (Units=1/GPa)
#
#
# Indices 1 2 3 4 5 6 
#
# 1 0.033401 -0.009384 -0.007587 0.000000 0.000000 0.000000
# 2 -0.009384 0.023066 -0.001465 0.000000 0.000000 0.000000
# 3 -0.007587 -0.001465 0.013735 0.000000 0.000000 0.000000
# 4 0.000000 0.000000 0.000000 0.032472 0.000000 0.000000
# 5 0.000000 0.000000 0.000000 0.000000 0.038156 0.000000
# 6 0.000000 0.000000 0.000000 0.000000 0.000000 0.038473
#
#
# Mechanical properties :
#
#
# Convention : Reuss Voigt Hill
#
# Bulk Modulus (GPa) = 30.00309 32.85682 31.42995
# Shear Modulus (GPa) = 21.99890 24.75066 23.37478
#
# Velocity S-wave (km/s) = 3.32334 3.52507 3.42569
# Velocity P-wave (km/s) = 5.45795 5.75013 5.60594
#
# Compressibility (1/GPa) = 0.03332989
#
# Stress axis : x y z
#
# Youngs Moduli (GPa) = 29.93931 43.35465 72.80524
#
# Poissons Ratio (x) = 0.40683 0.55237
# Poissons Ratio (y) = 0.28095 0.10667
# Poissons Ratio (z) = 0.22715 0.06352
#
# Static dielectric constant tensor:
#      x y z
#    x 1.778440 0.000000 0.000000 
#    y 0.000000 1.772740 0.000000 
#    z 0.000000 0.000000 1.681300 
# 
# From -- ./inp_files/17863.got.cif
#   From: 2010.05.17/outbox.cif.g08.bks.cpg/sg59_9_cif.got.tgz:17863.got - 2010.06.03 14:40:33.
