data_PCOD9448260
_publ_section_title
;
Structure prediction by ZEFSAII (Michael W. Deem and Ramdas Pophale) SiO2 
 PCOD9448260
Probable space group: P M M N
;
_chemical_formula_sum "Si O2"
_cell_formula_units_Z 56
_cell_length_a 19.333930
_cell_length_b 9.106058
_cell_length_c 16.095793
_cell_angle_alpha 90.000000
_cell_angle_beta 90.000000
_cell_angle_gamma 90.000000
_cell_volume 2833.759129
_symmetry_space_group_name_H-M "P M M N"
_symmetry_group_IT_number 59
_space_group.IT_coordinate_system_code '2'
_symmetry_cell_setting 'orthorhombic'
loop_
_space_group_symop_operation_xyz
x,y,z
1/2-x,1/2-y,z
1/2+x,-y,-z
-x,1/2+y,-z
-x,-y,-z
1/2+x,1/2+y,-z
1/2-x,y,z
x,1/2-y,z
loop_
_atom_site_type_symbol
_atom_site_label
_atom_site_fract_x
_atom_site_fract_y
_atom_site_fract_z
Si Si1 0.464510 0.573965 0.324382
Si Si2 0.396528 0.083244 0.000827
Si Si3 0.668958 0.089649 0.128123
Si Si4 0.669938 0.071747 0.586606
Si Si5 0.521945 0.079439 0.866369
Si Si6 0.667182 0.585246 0.285726
Si Si7 0.085479 0.576209 0.578102
O O1 0.469394 0.750000 0.334344
O O2 0.384156 0.532361 0.340275
O O3 0.488016 0.537721 0.230220
O O4 0.514524 0.501901 0.393443
O O5 0.371699 0.250000 0.003629
O O6 0.457464 0.075142 0.930624
O O7 0.342546 0.968895 0.963821
O O8 0.424647 0.028575 0.088585
O O9 0.750000 0.104463 0.143381
O O10 0.635587 0.250000 0.140447
O O11 0.647087 0.966508 0.193926
O O12 0.750000 0.018925 0.590236
O O13 0.674058 0.250000 0.584335
O O14 0.627326 0.026403 0.503883
O O15 0.545474 0.250000 0.865932
O O16 0.750000 0.589662 0.292564
O O17 0.640486 0.750000 0.302665
O O18 0.637166 0.465948 0.347595
O O19 0.073629 0.750000 0.571382
#
# Coordination Sequence:
#
# PCOD9448260 Si02
#       7
#     8   8   8   8   8   8   8
#     4  10  20  36  58  81 108 142 183 231 275 322
#     4  10  19  32  52  76 105 141 177 218 268 322
#     4  10  20  33  50  74 106 143 181 221 267 321
#     4   9  19  36  57  81 109 143 182 224 274 329
#     4   9  19  34  52  76 104 135 174 220 270 321
#     4  10  20  33  50  75 109 147 186 227 274 330
#     4  11  21  33  54  82 112 143 178 224 275 330
#
# _framework density 19.761735999999999
#
# number of rings (size 3 to 8) (size 9 to 14) (size 15 to 20)
#    0.000    2.143    0.000    3.429    0.000    4.571 
#    0.000    1.429    0.000    4.714    0.000    0.000 
#    0.000    0.000    0.000    0.000    0.000    0.000 
#
# Total GULP energy -312056.539615 kJ/mol
# GULP energy per Si atom -5572.438207 kJ/mol
# Density = 1.971676 g / cm^3
# Si number density = 19.761736 Si / 1000 Ang^3
#
#
#
# Elastic Constant Matrix: (Units=GPa)
#
#
# Indices 1 2 3 4 5 6 
#
# 1 96.3892 15.9314 37.7678 0.0000 0.0000 0.0000
# 2 15.9314 27.6657 16.4574 0.0000 0.0000 0.0000
# 3 37.7678 16.4574 68.7208 0.0000 0.0000 0.0000
# 4 0.0000 0.0000 0.0000 17.6261 0.0000 0.0000
# 5 0.0000 0.0000 0.0000 0.0000 26.9490 0.0000
# 6 0.0000 0.0000 0.0000 0.0000 0.0000 24.9010
#
#
#
# Elastic Compliance Matrix: (Units=1/GPa)
#
#
# Indices 1 2 3 4 5 6 
#
# 1 0.013581 -0.003942 -0.006520 0.000000 0.000000 0.000000
# 2 -0.003942 0.043295 -0.008202 0.000000 0.000000 0.000000
# 3 -0.006520 -0.008202 0.020099 0.000000 0.000000 0.000000
# 4 0.000000 0.000000 0.000000 0.056734 0.000000 0.000000
# 5 0.000000 0.000000 0.000000 0.000000 0.037107 0.000000
# 6 0.000000 0.000000 0.000000 0.000000 0.000000 0.040159
#
#
# Mechanical properties :
#
#
# Convention : Reuss Voigt Hill
#
# Bulk Modulus (GPa) = 25.22237 37.00986 31.11612
# Shear Modulus (GPa) = 19.11914 22.06982 20.59448
#
# Velocity S-wave (km/s) = 3.11381 3.34548 3.23172
# Velocity P-wave (km/s) = 5.07136 5.80445 5.45025
#
# Compressibility (1/GPa) = 0.03964734
#
# Stress axis : x y z
#
# Youngs Moduli (GPa) = 73.63356 23.09735 49.75386
#
# Poissons Ratio (x) = 0.09105 0.32438
# Poissons Ratio (y) = 0.29028 0.40807
# Poissons Ratio (z) = 0.48007 0.18944
#
# Static dielectric constant tensor:
#      x y z
#    x 1.760760 0.000000 0.000000 
#    y 0.000000 1.689610 0.000000 
#    z 0.000000 0.000000 1.695090 
# 
# From -- ./inp_files/21035.got.cif
#   From: 2010.05.17/outbox.cif.g08.bks.cpg/sg59_11_cif.got.tgz:21035.got - 2010.06.03 14:40:33.
