data_PCOD9448733
_publ_section_title
;
Structure prediction by ZEFSAII (Michael W. Deem and Ramdas Pophale) SiO2 
 PCOD9448733
Probable space group: P M M N
;
_chemical_formula_sum "Si O2"
_cell_formula_units_Z 40
_cell_length_a 8.824222
_cell_length_b 15.807350
_cell_length_c 14.892752
_cell_angle_alpha 90.000000
_cell_angle_beta 90.000000
_cell_angle_gamma 90.000000
_cell_volume 2077.353722
_symmetry_space_group_name_H-M "P M M N"
_symmetry_group_IT_number 59
_space_group.IT_coordinate_system_code '2'
_symmetry_cell_setting 'orthorhombic'
loop_
_space_group_symop_operation_xyz
x,y,z
1/2-x,1/2-y,z
1/2+x,-y,-z
-x,1/2+y,-z
-x,-y,-z
1/2+x,1/2+y,-z
1/2-x,y,z
x,1/2-y,z
loop_
_atom_site_type_symbol
_atom_site_label
_atom_site_fract_x
_atom_site_fract_y
_atom_site_fract_z
Si Si1 0.571818 0.396568 0.412377
Si Si2 0.430348 0.846522 0.215273
Si Si3 0.065405 0.657164 0.783491
Si Si4 0.567859 0.996680 0.099105
Si Si5 0.073723 0.100702 0.599524
O O1 0.750000 0.377059 0.424357
O O2 0.517081 0.355904 0.319662
O O3 0.484277 0.371026 0.502022
O O4 0.559034 0.498251 0.399874
O O5 0.250000 0.857480 0.206904
O O6 0.468812 0.750000 0.190819
O O7 0.513165 0.914374 0.152876
O O8 0.479357 0.862749 0.318034
O O9 0.250000 0.654593 0.781999
O O10 0.019032 0.750000 0.816036
O O11 0.016312 0.579427 0.844931
O O12 0.750000 0.997320 0.095076
O O13 0.500000 0.000000 0.000000
O O14 0.250000 0.121566 0.611866
#
# Coordination Sequence:
#
# PCOD9448733 Si02
#       5
#     8   8   8   8   8
#     4   9  17  32  54  84 119 158 199 235 284 350
#     4  11  24  41  62  88 118 158 206 252 301 358
#     4   9  18  35  60  87 116 151 193 238 285 347
#     4  11  23  42  65  91 119 153 195 244 306 363
#     4  10  19  33  55  86 121 158 198 242 294 349
#
# _framework density 19.255265999999999
#
# number of rings (size 3 to 8) (size 9 to 14) (size 15 to 20)
#    0.000    2.000    2.000    1.800    0.000    4.000 
#    0.000    4.000    0.000    4.200    0.000    0.000 
#    0.000    0.000    0.000    0.000    0.000    0.000 
#
# Total GULP energy -223445.946790 kJ/mol
# GULP energy per Si atom -5586.148670 kJ/mol
# Density = 1.921144 g / cm^3
# Si number density = 19.255266 Si / 1000 Ang^3
#
#
#
# Elastic Constant Matrix: (Units=GPa)
#
#
# Indices 1 2 3 4 5 6 
#
# 1 42.8386 45.6326 32.3793 0.0000 0.0000 0.0000
# 2 45.6326 121.5045 79.0702 0.0000 0.0000 0.0000
# 3 32.3793 79.0702 141.6724 0.0000 0.0000 0.0000
# 4 0.0000 0.0000 0.0000 -5.6215 0.0000 0.0000
# 5 0.0000 0.0000 0.0000 0.0000 36.7181 0.0000
# 6 0.0000 0.0000 0.0000 0.0000 0.0000 21.7011
#
#
#
# Elastic Compliance Matrix: (Units=1/GPa)
#
#
# Indices 1 2 3 4 5 6 
#
# 1 0.039031 -0.013903 -0.001161 0.000000 0.000000 0.000000
# 2 -0.013903 0.017877 -0.006800 0.000000 0.000000 0.000000
# 3 -0.001161 -0.006800 0.011119 0.000000 0.000000 0.000000
# 4 0.000000 0.000000 0.000000 -0.177888 0.000000 0.000000
# 5 0.000000 0.000000 0.000000 0.000000 0.027235 0.000000
# 6 0.000000 0.000000 0.000000 0.000000 0.000000 0.046081
#
#
# Mechanical properties :
#
#
# Convention : Reuss Voigt Hill
#
# Bulk Modulus (GPa) = 41.15419 68.90884 55.03151
# Shear Modulus (GPa) = 327.22348 20.48843 173.85595
#
# Velocity S-wave (km/s) = 13.05024 3.26551 9.51242
# Velocity P-wave (km/s) = 15.76381 7.07692 12.21843
#
# Compressibility (1/GPa) = 0.02429886
#
# Stress axis : x y z
#
# Youngs Moduli (GPa) = 25.62087 55.93905 89.93657
#
# Poissons Ratio (x) = 0.77772 0.10441
# Poissons Ratio (y) = 0.35621 0.61155
# Poissons Ratio (z) = 0.02974 0.38037
#
# Static dielectric constant tensor:
#      x y z
#    x 1.657240 0.000000 0.000000 
#    y 0.000000 1.691390 0.000000 
#    z 0.000000 0.000000 1.636220 
# 
# From -- ./inp_files/19838.got.cif
#   From: 2010.05.17/outbox.cif.g08.bks.cpg/sg59_10_cif.got.tgz:19838.got - 2010.06.03 14:40:33.
