data_PCOD9448542
_publ_section_title
;
Structure prediction by ZEFSAII (Michael W. Deem and Ramdas Pophale) SiO2 
 PCOD9448542
Probable space group: P M M N
;
_chemical_formula_sum "Si O2"
_cell_formula_units_Z 32
_cell_length_a 24.046084
_cell_length_b 7.378475
_cell_length_c 7.981403
_cell_angle_alpha 90.000000
_cell_angle_beta 90.000000
_cell_angle_gamma 90.000000
_cell_volume 1416.087894
_symmetry_space_group_name_H-M "P M M N"
_symmetry_group_IT_number 59
_space_group.IT_coordinate_system_code '2'
_symmetry_cell_setting 'orthorhombic'
loop_
_space_group_symop_operation_xyz
x,y,z
1/2-x,1/2-y,z
1/2+x,-y,-z
-x,1/2+y,-z
-x,-y,-z
1/2+x,1/2+y,-z
1/2-x,y,z
x,1/2-y,z
loop_
_atom_site_type_symbol
_atom_site_label
_atom_site_fract_x
_atom_site_fract_y
_atom_site_fract_z
Si Si1 0.867083 0.955848 0.185518
Si Si2 0.186794 0.028533 0.478047
Si Si3 0.607064 0.527902 0.823901
Si Si4 0.988958 0.034962 0.303830
O O1 0.846214 0.750000 0.166137
O O2 0.832809 0.036821 0.339374
O O3 0.931173 0.951426 0.245541
O O4 0.868108 0.036263 0.000009
O O5 0.250000 0.976497 0.442182
O O6 0.184407 0.250000 0.480906
O O7 0.144101 0.971532 0.333979
O O8 0.606357 0.750000 0.826590
O O9 0.543287 0.470945 0.796717
O O10 0.983579 0.250000 0.279838
O O11 0.000000 0.000000 0.500000
#
# Coordination Sequence:
#
# PCOD9448542 Si02
#       4
#     8   8   8   8
#     4  10  19  33  53  77 105 134 167 210 257 303
#     4   9  17  30  49  75 105 134 168 210 252 296
#     4   9  18  31  49  75 105 133 166 208 253 303
#     4  11  20  33  53  77 105 137 170 208 258 310
#
# _framework density 22.597467999999999
#
# number of rings (size 3 to 8) (size 9 to 14) (size 15 to 20)
#    0.000    2.250    2.500    1.500    0.000    1.000 
#    0.000    6.250    0.000    0.750    0.000    0.000 
#    0.000    0.000    0.000    0.000    0.000    0.000 
#
# Total GULP energy -178863.407006 kJ/mol
# GULP energy per Si atom -5589.481469 kJ/mol
# Density = 2.254603 g / cm^3
# Si number density = 22.597468 Si / 1000 Ang^3
#
#
#
# Elastic Constant Matrix: (Units=GPa)
#
#
# Indices 1 2 3 4 5 6 
#
# 1 65.7776 -9.2213 -12.4732 0.0000 0.0000 0.0000
# 2 -9.2213 86.7533 -8.6478 0.0000 0.0000 0.0000
# 3 -12.4732 -8.6478 100.7282 0.0000 0.0000 0.0000
# 4 0.0000 0.0000 0.0000 -4.8296 0.0000 0.0000
# 5 0.0000 0.0000 0.0000 0.0000 12.9170 0.0000
# 6 0.0000 0.0000 0.0000 0.0000 0.0000 10.0343
#
#
#
# Elastic Compliance Matrix: (Units=1/GPa)
#
#
# Indices 1 2 3 4 5 6 
#
# 1 0.015873 0.001899 0.002129 0.000000 0.000000 0.000000
# 2 0.001899 0.011854 0.001253 0.000000 0.000000 0.000000
# 3 0.002129 0.001253 0.010299 0.000000 0.000000 0.000000
# 4 0.000000 0.000000 0.000000 -0.207057 0.000000 0.000000
# 5 0.000000 0.000000 0.000000 0.000000 0.077418 0.000000
# 6 0.000000 0.000000 0.000000 0.000000 0.000000 0.099658
#
#
# Mechanical properties :
#
#
# Convention : Reuss Voigt Hill
#
# Bulk Modulus (GPa) = 20.58172 21.39716 20.98944
# Shear Modulus (GPa) = 365.56423 22.53111 194.04767
#
# Velocity S-wave (km/s) = 12.73277 3.16106 9.27674
# Velocity P-wave (km/s) = 15.00974 4.77624 11.13788
#
# Compressibility (1/GPa) = 0.04858680
#
# Stress axis : x y z
#
# Youngs Moduli (GPa) = 63.00145 84.36174 97.09820
#
# Poissons Ratio (x) = -0.16023 -0.20668
# Poissons Ratio (y) = -0.11966 -0.12165
# Poissons Ratio (z) = -0.13410 -0.10569
#
# Static dielectric constant tensor:
#      x y z
#    x 1.775670 0.000000 0.000000 
#    y 0.000000 1.799600 0.000000 
#    z 0.000000 0.000000 1.816290 
# 
# From -- ./inp_files/5323.got.cif
#   From: 2010.05.17/outbox.cif.g08.bks.cpg/sg59_3_cif.got.tgz:5323.got - 2010.06.03 14:40:33.
