data_PCOD9448828
_publ_section_title
;
Structure prediction by ZEFSAII (Michael W. Deem and Ramdas Pophale) SiO2 
 PCOD9448828
Probable space group: P M M N
;
_chemical_formula_sum "Si O2"
_cell_formula_units_Z 40
_cell_length_a 16.715500
_cell_length_b 7.541000
_cell_length_c 14.202888
_cell_angle_alpha 90.000000
_cell_angle_beta 90.000000
_cell_angle_gamma 90.000000
_cell_volume 1790.296551
_symmetry_space_group_name_H-M "P M M N"
_symmetry_group_IT_number 59
_space_group.IT_coordinate_system_code '2'
_symmetry_cell_setting 'orthorhombic'
loop_
_space_group_symop_operation_xyz
x,y,z
1/2-x,1/2-y,z
1/2+x,-y,-z
-x,1/2+y,-z
-x,-y,-z
1/2+x,1/2+y,-z
1/2-x,y,z
x,1/2-y,z
loop_
_atom_site_type_symbol
_atom_site_label
_atom_site_fract_x
_atom_site_fract_y
_atom_site_fract_z
Si Si1 0.250000 0.537153 0.954892
Si Si2 0.250000 0.037344 0.733908
Si Si3 0.915154 0.463050 0.949061
Si Si4 0.072314 0.532707 0.265737
Si Si5 0.337920 0.536853 0.446333
Si Si6 0.910199 0.960880 0.362690
O O1 0.250000 0.750000 0.967001
O O2 0.250000 0.497769 0.844423
O O3 0.333964 0.471222 0.999813
O O4 0.250000 0.250000 0.720341
O O5 0.329952 0.966016 0.685229
O O6 0.908978 0.250000 0.946489
O O7 0.917463 0.527422 0.841097
O O8 0.000000 0.500000 0.000000
O O9 0.072665 0.750000 0.263602
O O10 0.138505 0.477973 0.341862
O O11 0.988844 0.471328 0.311182
O O12 0.250000 0.469273 0.473687
O O13 0.335330 0.750000 0.444626
O O14 0.401761 0.489271 0.526031
O O15 0.911494 0.750000 0.347688
#
# Coordination Sequence:
#
# PCOD9448828 Si02
#       6
#     4   4   8   8   8   8
#     4  10  22  36  57  86 112 142 185 240 289 326
#     4  10  20  34  55  78 106 146 183 220 273 334
#     4  10  21  39  60  84 114 147 189 238 283 334
#     4   9  19  34  55  78 105 141 179 216 265 327
#     4  10  20  33  52  79 108 139 175 217 265 318
#     4  10  19  34  54  77 104 140 180 217 261 318
#
# _framework density 22.342669000000001
#
# number of rings (size 3 to 8) (size 9 to 14) (size 15 to 20)
#    0.000    2.200    1.000    1.800    1.400    3.200 
#    0.000    2.000    0.000    0.000    0.000    0.000 
#    0.000    0.000    0.000    0.000    0.000    0.000 
#
# Total GULP energy -223448.984504 kJ/mol
# GULP energy per Si atom -5586.224613 kJ/mol
# Density = 2.229182 g / cm^3
# Si number density = 22.342669 Si / 1000 Ang^3
#
#
#
# Elastic Constant Matrix: (Units=GPa)
#
#
# Indices 1 2 3 4 5 6 
#
# 1 109.6529 -1.6116 41.9542 0.0000 0.0000 0.0000
# 2 -1.6116 52.9383 -15.9718 0.0000 0.0000 0.0000
# 3 41.9542 -15.9718 152.2827 0.0000 0.0000 0.0000
# 4 0.0000 0.0000 0.0000 22.7919 0.0000 0.0000
# 5 0.0000 0.0000 0.0000 0.0000 31.8373 0.0000
# 6 0.0000 0.0000 0.0000 0.0000 0.0000 9.4166
#
#
#
# Elastic Compliance Matrix: (Units=1/GPa)
#
#
# Indices 1 2 3 4 5 6 
#
# 1 0.010210 -0.000555 -0.002871 0.000000 0.000000 0.000000
# 2 -0.000555 0.019537 0.002202 0.000000 0.000000 0.000000
# 3 -0.002871 0.002202 0.007589 0.000000 0.000000 0.000000
# 4 0.000000 0.000000 0.000000 0.043875 0.000000 0.000000
# 5 0.000000 0.000000 0.000000 0.000000 0.031410 0.000000
# 6 0.000000 0.000000 0.000000 0.000000 0.000000 0.106196
#
#
# Mechanical properties :
#
#
# Convention : Reuss Voigt Hill
#
# Bulk Modulus (GPa) = 28.66368 40.40172 34.53270
# Shear Modulus (GPa) = 21.46891 32.17601 26.82246
#
# Velocity S-wave (km/s) = 3.10319 3.79900 3.46859
# Velocity P-wave (km/s) = 5.06919 6.11271 5.61524
#
# Compressibility (1/GPa) = 0.03488735
#
# Stress axis : x y z
#
# Youngs Moduli (GPa) = 97.94266 51.18384 131.77466
#
# Poissons Ratio (x) = 0.02843 0.37834
# Poissons Ratio (y) = 0.05440 -0.29019
# Poissons Ratio (z) = 0.28121 -0.11272
#
# Static dielectric constant tensor:
#      x y z
#    x 1.835830 0.000000 0.000000 
#    y 0.000000 1.851340 0.000000 
#    z 0.000000 0.000000 1.772350 
# 
# From -- ./inp_files/22991.got.cif
#   From: 2010.05.17/outbox.cif.g08.bks.cpg/sg59_12_cif.got.tgz:22991.got - 2010.06.03 14:40:33.
