data_PCOD9448312
_publ_section_title
;
Structure prediction by ZEFSAII (Michael W. Deem and Ramdas Pophale) SiO2 
 PCOD9448312
Probable space group: P M M N
;
_chemical_formula_sum "Si O2"
_cell_formula_units_Z 56
_cell_length_a 8.743687
_cell_length_b 23.226568
_cell_length_c 15.177182
_cell_angle_alpha 90.000000
_cell_angle_beta 90.000000
_cell_angle_gamma 90.000000
_cell_volume 3082.270766
_symmetry_space_group_name_H-M "P M M N"
_symmetry_group_IT_number 59
_space_group.IT_coordinate_system_code '2'
_symmetry_cell_setting 'orthorhombic'
loop_
_space_group_symop_operation_xyz
x,y,z
1/2-x,1/2-y,z
1/2+x,-y,-z
-x,1/2+y,-z
-x,-y,-z
1/2+x,1/2+y,-z
1/2-x,y,z
x,1/2-y,z
loop_
_atom_site_type_symbol
_atom_site_label
_atom_site_fract_x
_atom_site_fract_y
_atom_site_fract_z
Si Si1 0.934868 0.648900 0.622407
Si Si2 0.065898 0.185114 0.574889
Si Si3 0.565169 0.446152 0.894412
Si Si4 0.933089 0.185606 0.193588
Si Si5 0.933899 0.517549 0.594243
Si Si6 0.567134 0.578443 0.915670
Si Si7 0.434233 0.908709 0.293305
O O1 0.750000 0.653985 0.629947
O O2 0.980240 0.672288 0.526170
O O3 0.978235 0.581548 0.622318
O O4 0.009951 0.678892 0.705918
O O5 0.250000 0.180505 0.576568
O O6 0.021297 0.250000 0.597626
O O7 0.999183 0.140536 0.644371
O O8 0.750000 0.443758 0.903614
O O9 0.525484 0.513997 0.881191
O O10 0.518709 0.410114 0.808530
O O11 0.489686 0.423125 0.983437
O O12 0.750000 0.182509 0.191054
O O13 0.979272 0.250000 0.161914
O O14 0.998608 0.131976 0.137951
O O15 0.750000 0.517316 0.587511
O O16 0.980669 0.469579 0.664100
O O17 0.000000 0.500000 0.500000
O O18 0.750000 0.582829 0.911452
O O19 0.250000 0.905703 0.295460
#
# Coordination Sequence:
#
# PCOD9448312 Si02
#       7
#     8   8   8   8   8   8   8
#     4  10  20  36  57  79 108 147 187 227 276 331
#     4  10  21  36  53  74 104 144 188 230 267 312
#     4   9  19  37  60  86 115 144 178 224 279 337
#     4  11  24  39  56  82 115 150 189 233 280 334
#     4  10  19  32  52  80 111 142 179 223 271 322
#     4  10  20  37  62  88 113 142 179 226 279 338
#     4  10  20  34  54  80 111 144 178 220 269 322
#
# _framework density 18.168424000000002
#
# number of rings (size 3 to 8) (size 9 to 14) (size 15 to 20)
#    0.000    2.000    1.429    2.143    0.000    6.571 
#    0.000    2.143    0.000    0.857    0.000    0.000 
#    0.000    0.000    0.000    0.000    0.000    0.000 
#
# Total GULP energy -312586.488627 kJ/mol
# GULP energy per Si atom -5581.901583 kJ/mol
# Density = 1.812707 g / cm^3
# Si number density = 18.168424 Si / 1000 Ang^3
#
#
#
# Elastic Constant Matrix: (Units=GPa)
#
#
# Indices 1 2 3 4 5 6 
#
# 1 22.0036 33.3267 31.0247 0.0000 0.0000 0.0000
# 2 33.3267 113.8410 64.3249 0.0000 0.0000 0.0000
# 3 31.0247 64.3249 125.6630 0.0000 0.0000 0.0000
# 4 0.0000 0.0000 0.0000 19.8029 0.0000 0.0000
# 5 0.0000 0.0000 0.0000 0.0000 32.6229 0.0000
# 6 0.0000 0.0000 0.0000 0.0000 0.0000 25.7943
#
#
#
# Elastic Compliance Matrix: (Units=1/GPa)
#
#
# Indices 1 2 3 4 5 6 
#
# 1 0.094495 -0.020374 -0.012901 0.000000 0.000000 0.000000
# 2 -0.020374 0.016752 -0.003545 0.000000 0.000000 0.000000
# 3 -0.012901 -0.003545 0.012957 0.000000 0.000000 0.000000
# 4 0.000000 0.000000 0.000000 0.050498 0.000000 0.000000
# 5 0.000000 0.000000 0.000000 0.000000 0.030653 0.000000
# 6 0.000000 0.000000 0.000000 0.000000 0.000000 0.038768
#
#
# Mechanical properties :
#
#
# Convention : Reuss Voigt Hill
#
# Bulk Modulus (GPa) = 19.77638 57.65112 38.71375
# Shear Modulus (GPa) = 14.94247 24.49942 19.72094
#
# Velocity S-wave (km/s) = 2.87094 3.67612 3.29819
# Velocity P-wave (km/s) = 4.67957 7.05825 5.98821
#
# Compressibility (1/GPa) = 0.05056537
#
# Stress axis : x y z
#
# Youngs Moduli (GPa) = 10.58258 59.69604 77.17632
#
# Poissons Ratio (x) = 1.21623 0.99562
# Poissons Ratio (y) = 0.21561 0.27358
# Poissons Ratio (z) = 0.13652 0.21161
#
# Static dielectric constant tensor:
#      x y z
#    x 1.616530 0.000000 0.000000 
#    y 0.000000 1.620370 0.000000 
#    z 0.000000 0.000000 1.608280 
# 
# From -- ./inp_files/21001.got.cif
#   From: 2010.05.17/outbox.cif.g08.bks.cpg/sg59_11_cif.got.tgz:21001.got - 2010.06.03 14:40:33.
