data_PCOD9448376
_publ_section_title
;
Structure prediction by ZEFSAII (Michael W. Deem and Ramdas Pophale) SiO2 
 PCOD9448376
Probable space group: P M M N
;
_chemical_formula_sum "Si O2"
_cell_formula_units_Z 64
_cell_length_a 29.216859
_cell_length_b 8.092911
_cell_length_c 12.825538
_cell_angle_alpha 90.000000
_cell_angle_beta 90.000000
_cell_angle_gamma 90.000000
_cell_volume 3032.591272
_symmetry_space_group_name_H-M "P M M N"
_symmetry_group_IT_number 59
_space_group.IT_coordinate_system_code '2'
_symmetry_cell_setting 'orthorhombic'
loop_
_space_group_symop_operation_xyz
x,y,z
1/2-x,1/2-y,z
1/2+x,-y,-z
-x,1/2+y,-z
-x,-y,-z
1/2+x,1/2+y,-z
1/2-x,y,z
x,1/2-y,z
loop_
_atom_site_type_symbol
_atom_site_label
_atom_site_fract_x
_atom_site_fract_y
_atom_site_fract_z
Si Si1 0.328273 0.059867 0.484627
Si Si2 0.802869 0.056535 0.965557
Si Si3 0.200238 0.047227 0.704793
Si Si4 0.522785 0.444748 0.107867
Si Si5 0.573666 0.442529 0.490952
Si Si6 0.992624 0.949773 0.668282
Si Si7 0.195130 0.059707 0.261856
Si Si8 0.873576 0.557273 0.133851
O O1 0.312426 0.250000 0.473471
O O2 0.302948 0.990056 0.585338
O O3 0.322110 0.984227 0.370377
O O4 0.381407 0.051689 0.512652
O O5 0.750000 0.997226 0.978028
O O6 0.804092 0.250000 0.992316
O O7 0.815808 0.033567 0.844467
O O8 0.839181 0.963404 0.036744
O O9 0.250000 0.000375 0.749523
O O10 0.198463 0.250000 0.705050
O O11 0.156646 0.987923 0.770222
O O12 0.516634 0.250000 0.113257
O O13 0.499044 0.511542 0.213794
O O14 0.577022 0.479826 0.113924
O O15 0.500000 0.500000 0.000000
O O16 0.586186 0.250000 0.481292
O O17 0.547712 0.472132 0.600184
O O18 0.538634 0.484397 0.398089
O O19 0.986432 0.750000 0.667246
O O20 0.250000 0.063495 0.269933
O O21 0.178507 0.250000 0.251388
O O22 0.881925 0.750000 0.153387
#
# Coordination Sequence:
#
# PCOD9448376 Si02
#       8
#     8   8   8   8   8   8   8   8
#     4  10  19  32  53  81 113 146 180 220 268 323
#     4  10  21  37  57  81 111 148 191 239 288 337
#     4   9  18  33  56  87 119 151 189 232 276 329
#     4  11  24  42  62  84 114 149 188 237 291 347
#     4  10  20  34  56  83 109 140 178 222 270 322
#     4   9  20  39  59  79 106 140 178 222 273 328
#     4   9  18  33  53  76 104 141 182 222 266 318
#     4  11  22  37  60  87 115 149 190 235 285 344
#
# _framework density 21.104063
#
# number of rings (size 3 to 8) (size 9 to 14) (size 15 to 20)
#    0.000    2.125    0.000    3.000    0.000    5.750 
#    0.000    1.875    0.000    2.625    0.000    0.000 
#    0.000    0.000    0.000    0.000    0.000    0.000 
#
# Total GULP energy -357305.116183 kJ/mol
# GULP energy per Si atom -5582.892440 kJ/mol
# Density = 2.105603 g / cm^3
# Si number density = 21.104063 Si / 1000 Ang^3
#
#
#
# Elastic Constant Matrix: (Units=GPa)
#
#
# Indices 1 2 3 4 5 6 
#
# 1 62.4416 0.6619 30.7540 0.0000 0.0000 0.0000
# 2 0.6619 18.3922 3.3306 0.0000 0.0000 0.0000
# 3 30.7540 3.3306 130.6514 0.0000 0.0000 0.0000
# 4 0.0000 0.0000 0.0000 12.2290 0.0000 0.0000
# 5 0.0000 0.0000 0.0000 0.0000 81.3066 0.0000
# 6 0.0000 0.0000 0.0000 0.0000 0.0000 14.2548
#
#
#
# Elastic Compliance Matrix: (Units=1/GPa)
#
#
# Indices 1 2 3 4 5 6 
#
# 1 0.018115 0.000121 -0.004267 0.000000 0.000000 0.000000
# 2 0.000121 0.054624 -0.001421 0.000000 0.000000 0.000000
# 3 -0.004267 -0.001421 0.008695 0.000000 0.000000 0.000000
# 4 0.000000 0.000000 0.000000 0.081773 0.000000 0.000000
# 5 0.000000 0.000000 0.000000 0.000000 0.012299 0.000000
# 6 0.000000 0.000000 0.000000 0.000000 0.000000 0.070152
#
#
# Mechanical properties :
#
#
# Convention : Reuss Voigt Hill
#
# Bulk Modulus (GPa) = 14.22493 31.21980 22.72237
# Shear Modulus (GPa) = 17.84278 33.34066 25.59172
#
# Velocity S-wave (km/s) = 2.91085 3.97901 3.48608
# Velocity P-wave (km/s) = 4.24881 5.99461 5.19556
#
# Compressibility (1/GPa) = 0.07029913
#
# Stress axis : x y z
#
# Youngs Moduli (GPa) = 55.20162 18.30701 115.01332
#
# Poissons Ratio (x) = -0.00221 0.49079
# Poissons Ratio (y) = -0.00667 0.16342
# Poissons Ratio (z) = 0.23556 0.02601
#
# Static dielectric constant tensor:
#      x y z
#    x 1.736390 0.000000 0.000000 
#    y 0.000000 1.754630 0.000000 
#    z 0.000000 0.000000 1.810610 
# 
# From -- ./inp_files/19362.got.cif
#   From: 2010.05.17/outbox.cif.g08.bks.cpg/sg59_10_cif.got.tgz:19362.got - 2010.06.03 14:40:33.
