data_PCOD9448933
_publ_section_title
;
Structure prediction by ZEFSAII (Michael W. Deem and Ramdas Pophale) SiO2 
 PCOD9448933
Probable space group: P M M N
;
_chemical_formula_sum "Si O2"
_cell_formula_units_Z 48
_cell_length_a 16.264839
_cell_length_b 27.305593
_cell_length_c 5.329726
_cell_angle_alpha 90.000000
_cell_angle_beta 90.000000
_cell_angle_gamma 90.000000
_cell_volume 2367.043635
_symmetry_space_group_name_H-M "P M M N"
_symmetry_group_IT_number 59
_space_group.IT_coordinate_system_code '2'
_symmetry_cell_setting 'orthorhombic'
loop_
_space_group_symop_operation_xyz
x,y,z
1/2-x,1/2-y,z
1/2+x,-y,-z
-x,1/2+y,-z
-x,-y,-z
1/2+x,1/2+y,-z
1/2-x,y,z
x,1/2-y,z
loop_
_atom_site_type_symbol
_atom_site_label
_atom_site_fract_x
_atom_site_fract_y
_atom_site_fract_z
Si Si1 0.060621 0.305558 0.117790
Si Si2 0.953377 0.573837 0.385940
Si Si3 0.346974 0.337165 0.609511
Si Si4 0.420205 0.526835 0.749488
Si Si5 0.250000 0.879362 0.037849
Si Si6 0.750000 0.057138 0.464313
Si Si7 0.074883 0.876011 0.051771
O O1 0.031420 0.250000 0.086450
O O2 0.111444 0.310273 0.373988
O O3 0.985265 0.343896 0.118667
O O4 0.116312 0.319544 0.876167
O O5 0.873047 0.605930 0.428589
O O6 0.934115 0.530126 0.188907
O O7 0.997242 0.545886 0.612050
O O8 0.021958 0.612781 0.297506
O O9 0.250000 0.330565 0.607812
O O10 0.336286 0.528948 0.582736
O O11 0.407102 0.568865 0.954121
O O12 0.250000 0.920193 0.258970
O O13 0.250000 0.900905 0.753910
O O14 0.163771 0.852031 0.078559
#
# Coordination Sequence:
#
# PCOD9448933 Si02
#       7
#     8   8   8   8   4   4   8
#     4  11  24  42  66  89 117 156 201 253 308 361
#     4  10  20  34  58  82 122 159 199 238 298 352
#     4  11  24  42  62  91 123 156 198 251 301 356
#     4  10  19  34  56  84 118 163 197 241 290 358
#     4  10  20  34  59  80 116 152 192 238 289 350
#     4  10  20  34  52  86 113 154 199 236 280 348
#     4  10  20  38  57  86 119 158 201 247 300 354
#
# _framework density 20.278459000000002
#
# number of rings (size 3 to 8) (size 9 to 14) (size 15 to 20)
#    0.000    1.667    3.333    1.500    1.167    2.000 
#    0.000    0.417    0.000    0.000    0.000    3.500 
#    0.000    0.000    0.000    0.000    0.000    0.000 
#
# Total GULP energy -267460.898162 kJ/mol
# GULP energy per Si atom -5572.102045 kJ/mol
# Density = 2.023230 g / cm^3
# Si number density = 20.278459 Si / 1000 Ang^3
#
#
#
# Elastic Constant Matrix: (Units=GPa)
#
#
# Indices 1 2 3 4 5 6 
#
# 1 132.1064 20.8542 27.3728 0.0000 0.0000 0.0000
# 2 20.8542 73.8912 12.2812 0.0000 0.0000 0.0000
# 3 27.3728 12.2812 80.8548 0.0000 0.0000 0.0000
# 4 0.0000 0.0000 0.0000 9.0597 0.0000 0.0000
# 5 0.0000 0.0000 0.0000 0.0000 26.0279 0.0000
# 6 0.0000 0.0000 0.0000 0.0000 0.0000 0.1853
#
#
#
# Elastic Compliance Matrix: (Units=1/GPa)
#
#
# Indices 1 2 3 4 5 6 
#
# 1 0.008406 -0.001949 -0.002550 0.000000 0.000000 0.000000
# 2 -0.001949 0.014336 -0.001518 0.000000 0.000000 0.000000
# 3 -0.002550 -0.001518 0.013462 0.000000 0.000000 0.000000
# 4 0.000000 0.000000 0.000000 0.110379 0.000000 0.000000
# 5 0.000000 0.000000 0.000000 0.000000 0.038420 0.000000
# 6 0.000000 0.000000 0.000000 0.000000 0.000000 5.397050
#
#
# Mechanical properties :
#
#
# Convention : Reuss Voigt Hill
#
# Bulk Modulus (GPa) = 41.37235 45.31875 43.34555
# Shear Modulus (GPa) = 0.89252 22.14421 11.51836
#
# Velocity S-wave (km/s) = 0.66414 3.30814 2.38588
# Velocity P-wave (km/s) = 4.58634 6.08181 5.38623
#
# Compressibility (1/GPa) = 0.02417073
#
# Stress axis : x y z
#
# Youngs Moduli (GPa) = 118.96908 69.75644 74.28552
#
# Poissons Ratio (x) = 0.13592 0.18940
# Poissons Ratio (y) = 0.23181 0.11275
# Poissons Ratio (z) = 0.30333 0.10588
#
# Static dielectric constant tensor:
#      x y z
#    x 1.792460 0.000000 0.000000 
#    y 0.000000 1.731150 0.000000 
#    z 0.000000 0.000000 1.768110 
# 
# From -- ./inp_files/2171.got.cif
#   From: 2010.05.17/outbox.cif.g08.bks.cpg/sg59_2_cif.got.tgz:2171.got - 2010.06.03 14:40:33.
