data_PCOD9448562
_publ_section_title
;
Structure prediction by ZEFSAII (Michael W. Deem and Ramdas Pophale) SiO2 
 PCOD9448562
Probable space group: P M M N
;
_chemical_formula_sum "Si O2"
_cell_formula_units_Z 64
_cell_length_a 9.182578
_cell_length_b 27.318223
_cell_length_c 13.777773
_cell_angle_alpha 90.000000
_cell_angle_beta 90.000000
_cell_angle_gamma 90.000000
_cell_volume 3456.177966
_symmetry_space_group_name_H-M "P M M N"
_symmetry_group_IT_number 59
_space_group.IT_coordinate_system_code '2'
_symmetry_cell_setting 'orthorhombic'
loop_
_space_group_symop_operation_xyz
x,y,z
1/2-x,1/2-y,z
1/2+x,-y,-z
-x,1/2+y,-z
-x,-y,-z
1/2+x,1/2+y,-z
1/2-x,y,z
x,1/2-y,z
loop_
_atom_site_type_symbol
_atom_site_label
_atom_site_fract_x
_atom_site_fract_y
_atom_site_fract_z
Si Si1 0.920833 0.691623 0.450555
Si Si2 0.075880 0.843746 0.252514
Si Si3 0.072779 0.870668 0.850569
Si Si4 0.573099 0.193635 0.962870
Si Si5 0.412916 0.443046 0.747546
Si Si6 0.421811 0.975343 0.588482
Si Si7 0.587035 0.021829 0.087151
Si Si8 0.073018 0.636680 0.630748
O O1 0.750000 0.677184 0.447383
O O2 0.928910 0.750000 0.462329
O O3 0.997952 0.678270 0.348010
O O4 0.998998 0.666615 0.543359
O O5 0.250000 0.837237 0.261522
O O6 0.029396 0.822570 0.146529
O O7 0.029646 0.900433 0.250898
O O8 0.250000 0.869155 0.848152
O O9 0.029977 0.927794 0.865064
O O10 0.028874 0.851799 0.742912
O O11 0.024888 0.840021 0.945879
O O12 0.750000 0.191491 0.963042
O O13 0.529710 0.250000 0.978547
O O14 0.250000 0.422373 0.728377
O O15 0.446200 0.485146 0.671265
O O16 0.406360 0.475575 0.842733
O O17 0.250000 0.972299 0.570210
O O18 0.466885 0.920403 0.614374
O O19 0.500000 0.000000 0.500000
O O20 0.750000 0.034766 0.054509
O O21 0.500000 0.000000 0.000000
O O22 0.250000 0.641668 0.624112
#
# Coordination Sequence:
#
# PCOD9448562 Si02
#       8
#     8   8   8   8   8   8   8   8
#     4  11  25  43  61  83 115 155 194 238 298 356
#     4  11  22  37  59  88 118 148 194 250 292 341
#     4   9  17  33  56  82 117 153 187 234 291 345
#     4   9  18  32  53  83 115 146 184 238 299 346
#     4  10  20  35  54  78 114 154 185 220 285 351
#     4  10  20  34  52  78 110 146 184 226 278 334
#     4  10  19  33  53  79 114 154 190 232 282 339
#     4  10  20  37  61  87 115 149 195 244 286 338
#
# _framework density 18.517565000000001
#
# number of rings (size 3 to 8) (size 9 to 14) (size 15 to 20)
#    0.000    2.000    1.250    2.625    0.000    6.500 
#    0.000    1.875    0.000    1.500    0.000    1.750 
#    0.000    0.000    0.000    0.000    0.000    0.000 
#
# Total GULP energy -356557.479445 kJ/mol
# GULP energy per Si atom -5571.210616 kJ/mol
# Density = 1.847542 g / cm^3
# Si number density = 18.517565 Si / 1000 Ang^3
#
#
#
# Elastic Constant Matrix: (Units=GPa)
#
#
# Indices 1 2 3 4 5 6 
#
# 1 60.2257 7.5120 55.1968 0.0000 0.0000 0.0000
# 2 7.5120 113.6734 53.3129 0.0000 0.0000 0.0000
# 3 55.1968 53.3129 171.3078 0.0000 0.0000 0.0000
# 4 0.0000 0.0000 0.0000 54.3642 0.0000 0.0000
# 5 0.0000 0.0000 0.0000 0.0000 20.8502 0.0000
# 6 0.0000 0.0000 0.0000 0.0000 0.0000 18.0718
#
#
#
# Elastic Compliance Matrix: (Units=1/GPa)
#
#
# Indices 1 2 3 4 5 6 
#
# 1 0.024109 0.002400 -0.008515 0.000000 0.000000 0.000000
# 2 0.002400 0.010540 -0.004053 0.000000 0.000000 0.000000
# 3 -0.008515 -0.004053 0.009843 0.000000 0.000000 0.000000
# 4 0.000000 0.000000 0.000000 0.018394 0.000000 0.000000
# 5 0.000000 0.000000 0.000000 0.000000 0.047961 0.000000
# 6 0.000000 0.000000 0.000000 0.000000 0.000000 0.055335
#
#
# Mechanical properties :
#
#
# Convention : Reuss Voigt Hill
#
# Bulk Modulus (GPa) = 41.39990 64.13895 52.76943
# Shear Modulus (GPa) = 25.69777 33.93625 29.81701
#
# Velocity S-wave (km/s) = 3.72929 4.28559 4.01708
# Velocity P-wave (km/s) = 6.39915 7.69418 7.07635
#
# Compressibility (1/GPa) = 0.02415465
#
# Stress axis : x y z
#
# Youngs Moduli (GPa) = 41.47849 94.88045 101.59952
#
# Poissons Ratio (x) = -0.22775 0.86513
# Poissons Ratio (y) = -0.09956 0.41183
# Poissons Ratio (z) = 0.35319 0.38459
#
# Static dielectric constant tensor:
#      x y z
#    x 1.667980 0.000000 0.000000 
#    y 0.000000 1.634400 0.000000 
#    z 0.000000 0.000000 1.618040 
# 
# From -- ./inp_files/14994.got.cif
#   From: 2010.05.17/outbox.cif.g08.bks.cpg/sg59_8_cif.got.tgz:14994.got - 2010.06.03 14:40:33.
