data_PCOD9448111
_publ_section_title
;
Structure prediction by ZEFSAII (Michael W. Deem and Ramdas Pophale) SiO2 
 PCOD9448111
Probable space group: P M M N
;
_chemical_formula_sum "Si O2"
_cell_formula_units_Z 64
_cell_length_a 19.440346
_cell_length_b 21.980481
_cell_length_c 8.737333
_cell_angle_alpha 90.000000
_cell_angle_beta 90.000000
_cell_angle_gamma 90.000000
_cell_volume 3733.533652
_symmetry_space_group_name_H-M "P M M N"
_symmetry_group_IT_number 59
_space_group.IT_coordinate_system_code '2'
_symmetry_cell_setting 'orthorhombic'
loop_
_space_group_symop_operation_xyz
x,y,z
1/2-x,1/2-y,z
1/2+x,-y,-z
-x,1/2+y,-z
-x,-y,-z
1/2+x,1/2+y,-z
1/2-x,y,z
x,1/2-y,z
loop_
_atom_site_type_symbol
_atom_site_label
_atom_site_fract_x
_atom_site_fract_y
_atom_site_fract_z
Si Si1 0.545552 0.582472 0.348975
Si Si2 0.425427 0.596974 0.879563
Si Si3 0.824703 0.161231 0.662071
Si Si4 0.457858 0.457794 0.309825
Si Si5 0.826777 0.480261 0.614269
Si Si6 0.174950 0.819863 0.699561
Si Si7 0.961413 0.319193 0.832536
Si Si8 0.167204 0.495466 0.743193
O O1 0.497858 0.522596 0.321479
O O2 0.542964 0.581973 0.534009
O O3 0.514615 0.642650 0.272610
O O4 0.620366 0.565130 0.278448
O O5 0.499609 0.576328 0.818466
O O6 0.387942 0.643498 0.765799
O O7 0.372785 0.539026 0.864800
O O8 0.439942 0.634544 0.032112
O O9 0.750000 0.179483 0.725039
O O10 0.825765 0.177452 0.483300
O O11 0.890716 0.187290 0.740632
O O12 0.829734 0.088295 0.672552
O O13 0.379518 0.478140 0.294729
O O14 0.750000 0.504208 0.627982
O O15 0.841972 0.477134 0.430643
O O16 0.250000 0.845835 0.748233
O O17 0.171919 0.750000 0.749239
O O18 0.983802 0.250000 0.875822
O O19 0.250000 0.489404 0.769732
#
# Coordination Sequence:
#
# PCOD9448111 Si02
#       8
#     8   8   8   8   8   8   8   8
#     4   9  18  34  55  78 102 130 171 218 272 319
#     4  11  21  32  50  72 106 140 175 211 256 308
#     4  10  19  33  51  71 100 135 174 213 252 302
#     4   9  17  32  57  79  99 129 169 221 271 315
#     4   9  15  29  54  81 105 126 156 206 270 318
#     4  10  19  32  50  70  96 136 183 218 245 291
#     4  12  25  37  48  68 109 152 184 215 251 305
#     4   9  17  31  56  83 103 125 160 217 276 321
#
# _framework density 17.141936000000001
#
# number of rings (size 3 to 8) (size 9 to 14) (size 15 to 20)
#    0.000    2.125    2.500    2.625    0.000    3.750 
#    0.000    0.625    0.000    0.375    0.000    0.000 
#    0.000    3.500    0.000    0.000    0.000    0.000 
#
# Total GULP energy -356326.261347 kJ/mol
# GULP energy per Si atom -5567.597834 kJ/mol
# Density = 1.710292 g / cm^3
# Si number density = 17.141936 Si / 1000 Ang^3
#
#
#
# Elastic Constant Matrix: (Units=GPa)
#
#
# Indices 1 2 3 4 5 6 
#
# 1 101.0522 49.0627 23.8072 0.0000 0.0000 0.0000
# 2 49.0627 70.8830 25.6008 0.0000 0.0000 0.0000
# 3 23.8072 25.6008 22.6997 0.0000 0.0000 0.0000
# 4 0.0000 0.0000 0.0000 -10.7052 0.0000 0.0000
# 5 0.0000 0.0000 0.0000 0.0000 -6.3797 0.0000
# 6 0.0000 0.0000 0.0000 0.0000 0.0000 -20.0464
#
#
#
# Elastic Compliance Matrix: (Units=1/GPa)
#
#
# Indices 1 2 3 4 5 6 
#
# 1 0.015543 -0.008218 -0.007033 0.000000 0.000000 0.000000
# 2 -0.008218 0.028149 -0.023127 0.000000 0.000000 0.000000
# 3 -0.007033 -0.023127 0.077512 0.000000 0.000000 0.000000
# 4 0.000000 0.000000 0.000000 -0.093413 0.000000 0.000000
# 5 0.000000 0.000000 0.000000 0.000000 -0.156748 0.000000
# 6 0.000000 0.000000 0.000000 0.000000 0.000000 -0.049884
#
#
# Mechanical properties :
#
#
# Convention : Reuss Voigt Hill
#
# Bulk Modulus (GPa) = 22.49831 43.50848 33.00339
# Shear Modulus (GPa) = -57.29437 -1.01530 -29.15483
#
# Velocity S-wave (km/s) = -5.78758 -0.77044 -4.12854
# Velocity P-wave (km/s) = 5.61322 4.96437 1.85246
#
# Compressibility (1/GPa) = 0.04444778
#
# Stress axis : x y z
#
# Youngs Moduli (GPa) = 64.33851 35.52515 12.90116
#
# Poissons Ratio (x) = 0.29195 0.09073
# Poissons Ratio (y) = 0.52875 0.29837
# Poissons Ratio (z) = 0.45246 0.82161
#
# Static dielectric constant tensor:
#      x y z
#    x 1.607970 0.000000 0.000000 
#    y 0.000000 1.589770 0.000000 
#    z 0.000000 0.000000 1.617080 
# 
# From -- ./inp_files/11727.got.cif
#   From: 2010.05.17/outbox.cif.g08.bks.cpg/sg59_6_cif.got.tgz:11727.got - 2010.06.03 14:40:33.
