data_PCOD9448948
_publ_section_title
;
Structure prediction by ZEFSAII (Michael W. Deem and Ramdas Pophale) SiO2 
 PCOD9448948
Probable space group: P M M N
;
_chemical_formula_sum "Si O2"
_cell_formula_units_Z 48
_cell_length_a 15.570254
_cell_length_b 17.435429
_cell_length_c 9.530657
_cell_angle_alpha 90.000000
_cell_angle_beta 90.000000
_cell_angle_gamma 90.000000
_cell_volume 2587.326132
_symmetry_space_group_name_H-M "P M M N"
_symmetry_group_IT_number 59
_space_group.IT_coordinate_system_code '2'
_symmetry_cell_setting 'orthorhombic'
loop_
_space_group_symop_operation_xyz
x,y,z
1/2-x,1/2-y,z
1/2+x,-y,-z
-x,1/2+y,-z
-x,-y,-z
1/2+x,1/2+y,-z
1/2-x,y,z
x,1/2-y,z
loop_
_atom_site_type_symbol
_atom_site_label
_atom_site_fract_x
_atom_site_fract_y
_atom_site_fract_z
Si Si1 0.151548 0.613862 0.660643
Si Si2 0.352357 0.834545 0.353390
Si Si3 0.518191 0.424411 0.818370
Si Si4 0.349946 0.162061 0.331027
Si Si5 0.495652 0.107126 0.132710
Si Si6 0.084346 0.456169 0.563401
O O1 0.250000 0.633934 0.696142
O O2 0.124181 0.656012 0.517088
O O3 0.145651 0.524288 0.616176
O O4 0.082640 0.628082 0.782767
O O5 0.250000 0.840770 0.348080
O O6 0.378957 0.750000 0.305261
O O7 0.395088 0.897620 0.256299
O O8 0.517958 0.515798 0.842674
O O9 0.446138 0.410049 0.700561
O O10 0.504608 0.383354 0.966411
O O11 0.250000 0.150491 0.292928
O O12 0.359454 0.250000 0.381262
O O13 0.415087 0.149107 0.202324
O O14 0.376794 0.100082 0.448372
O O15 0.000000 0.500000 0.500000
#
# Coordination Sequence:
#
# PCOD9448948 Si02
#       6
#     8   8   8   8   8   8
#     4  10  19  34  57  81 110 146 187 238 287 338
#     4  10  20  33  51  79 110 144 188 233 281 336
#     4  10  20  35  57  81 112 148 190 234 291 337
#     4  11  23  39  61  87 117 156 197 238 290 350
#     4  10  21  38  55  83 115 148 192 233 282 351
#     4  11  18  37  60  85 107 149 192 244 289 337
#
# _framework density 18.551971000000002
#
# number of rings (size 3 to 8) (size 9 to 14) (size 15 to 20)
#    0.000    1.667    5.000    0.500    0.000    6.000 
#    0.000    7.500    0.000    4.000    0.000    0.000 
#    0.000    0.000    0.000    0.000    0.000    0.000 
#
# Total GULP energy -267825.821144 kJ/mol
# GULP energy per Si atom -5579.704607 kJ/mol
# Density = 1.850975 g / cm^3
# Si number density = 18.551971 Si / 1000 Ang^3
#
#
#
# Elastic Constant Matrix: (Units=GPa)
#
#
# Indices 1 2 3 4 5 6 
#
# 1 94.1341 26.6304 52.9785 0.0000 0.0000 0.0000
# 2 26.6304 23.9804 13.5306 0.0000 0.0000 0.0000
# 3 52.9785 13.5306 121.5435 0.0000 0.0000 0.0000
# 4 0.0000 0.0000 0.0000 13.8057 0.0000 0.0000
# 5 0.0000 0.0000 0.0000 0.0000 15.5434 0.0000
# 6 0.0000 0.0000 0.0000 0.0000 0.0000 23.9933
#
#
#
# Elastic Compliance Matrix: (Units=1/GPa)
#
#
# Indices 1 2 3 4 5 6 
#
# 1 0.019262 -0.017770 -0.006418 0.000000 0.000000 0.000000
# 2 -0.017770 0.060888 0.000967 0.000000 0.000000 0.000000
# 3 -0.006418 0.000967 0.010917 0.000000 0.000000 0.000000
# 4 0.000000 0.000000 0.000000 0.072434 0.000000 0.000000
# 5 0.000000 0.000000 0.000000 0.000000 0.064336 0.000000
# 6 0.000000 0.000000 0.000000 0.000000 0.000000 0.041678
#
#
# Mechanical properties :
#
#
# Convention : Reuss Voigt Hill
#
# Bulk Modulus (GPa) = 22.40785 47.32632 34.86709
# Shear Modulus (GPa) = 15.11342 20.43638 17.77490
#
# Velocity S-wave (km/s) = 2.85731 3.32260 3.09870
# Velocity P-wave (km/s) = 4.79482 6.34705 5.62474
#
# Compressibility (1/GPa) = 0.04462722
#
# Stress axis : x y z
#
# Youngs Moduli (GPa) = 51.91556 16.42350 91.59827
#
# Poissons Ratio (x) = 0.29184 0.58786
# Poissons Ratio (y) = 0.92252 -0.08859
# Poissons Ratio (z) = 0.33318 -0.01588
#
# Static dielectric constant tensor:
#      x y z
#    x 1.651500 0.000000 0.000000 
#    y 0.000000 1.668760 0.000000 
#    z 0.000000 0.000000 1.638110 
# 
# From -- ./inp_files/9049.got.cif
#   From: 2010.05.17/outbox.cif.g08.bks.cpg/sg59_5_cif.got.tgz:9049.got - 2010.06.03 14:40:33.
