data_PCOD9448246
_publ_section_title
;
Structure prediction by ZEFSAII (Michael W. Deem and Ramdas Pophale) SiO2 
 PCOD9448246
Probable space group: P M M N
;
_chemical_formula_sum "Si O2"
_cell_formula_units_Z 64
_cell_length_a 7.576760
_cell_length_b 20.451903
_cell_length_c 21.175050
_cell_angle_alpha 90.000000
_cell_angle_beta 90.000000
_cell_angle_gamma 90.000000
_cell_volume 3281.267973
_symmetry_space_group_name_H-M "P M M N"
_symmetry_group_IT_number 59
_space_group.IT_coordinate_system_code '2'
_symmetry_cell_setting 'orthorhombic'
loop_
_space_group_symop_operation_xyz
x,y,z
1/2-x,1/2-y,z
1/2+x,-y,-z
-x,1/2+y,-z
-x,-y,-z
1/2+x,1/2+y,-z
1/2-x,y,z
x,1/2-y,z
loop_
_atom_site_type_symbol
_atom_site_label
_atom_site_fract_x
_atom_site_fract_y
_atom_site_fract_z
Si Si1 0.962780 0.677534 0.864237
Si Si2 0.042883 0.536012 0.815306
Si Si3 0.965265 0.822682 0.011261
Si Si4 0.537939 0.958704 0.062891
Si Si5 0.543686 0.821369 0.645750
Si Si6 0.961743 0.045116 0.560474
Si Si7 0.035843 0.822250 0.498150
Si Si8 0.456652 0.038742 0.323644
O O1 0.750000 0.678450 0.863008
O O2 0.022546 0.750000 0.842828
O O3 0.017961 0.613507 0.826613
O O4 0.017507 0.669232 0.937676
O O5 0.250000 0.523309 0.812401
O O6 0.969074 0.496711 0.875629
O O7 0.967657 0.515495 0.747948
O O8 0.750000 0.823274 0.011707
O O9 0.020948 0.750000 0.031934
O O10 0.026867 0.884776 0.051276
O O11 0.750000 0.955489 0.068661
O O12 0.500000 0.000000 0.000000
O O13 0.750000 0.818719 0.664734
O O14 0.466463 0.750000 0.661974
O O15 0.532274 0.828464 0.569836
O O16 0.464541 0.888081 0.672694
O O17 0.750000 0.050802 0.566728
O O18 0.027669 0.117598 0.544024
O O19 0.031262 0.009720 0.623360
O O20 0.000000 0.000000 0.500000
O O21 0.250000 0.824900 0.502069
O O22 0.986445 0.750000 0.474870
O O23 0.250000 0.046511 0.340104
#
# Coordination Sequence:
#
# PCOD9448246 Si02
#       8
#     8   8   8   8   8   8   8   8
#     4   9  17  31  52  74  97 132 173 204 237 292
#     4  11  23  34  47  73 105 135 165 206 258 299
#     4   8  14  27  50  76  97 122 161 203 241 289
#     4  10  19  32  52  76 100 127 163 205 251 296
#     4   9  17  30  48  70  96 126 163 202 237 283
#     4  10  19  32  52  76  99 127 167 208 249 293
#     4   9  17  29  48  75 103 127 154 196 251 301
#     4  10  21  35  49  68  97 136 175 205 240 294
#
# _framework density 19.504653999999999
#
# number of rings (size 3 to 8) (size 9 to 14) (size 15 to 20)
#    0.000    2.500    2.500    1.125    0.000    2.250 
#    0.000    1.250    0.000    1.125    0.000    0.000 
#    0.000    0.000    0.000    0.000    0.000    0.000 
#
# Total GULP energy -357003.185182 kJ/mol
# GULP energy per Si atom -5578.174768 kJ/mol
# Density = 1.946026 g / cm^3
# Si number density = 19.504654 Si / 1000 Ang^3
#
#
#
# Elastic Constant Matrix: (Units=GPa)
#
#
# Indices 1 2 3 4 5 6 
#
# 1 41.0542 -2.7681 -11.1059 0.0000 0.0000 0.0000
# 2 -2.7681 141.4266 67.3849 0.0000 0.0000 0.0000
# 3 -11.1059 67.3849 105.9479 0.0000 0.0000 0.0000
# 4 0.0000 0.0000 0.0000 21.7326 0.0000 0.0000
# 5 0.0000 0.0000 0.0000 0.0000 15.1751 0.0000
# 6 0.0000 0.0000 0.0000 0.0000 0.0000 7.8052
#
#
#
# Elastic Compliance Matrix: (Units=1/GPa)
#
#
# Indices 1 2 3 4 5 6 
#
# 1 0.025187 -0.001098 0.003338 0.000000 0.000000 0.000000
# 2 -0.001098 0.010193 -0.006598 0.000000 0.000000 0.000000
# 3 0.003338 -0.006598 0.013985 0.000000 0.000000 0.000000
# 4 0.000000 0.000000 0.000000 0.046014 0.000000 0.000000
# 5 0.000000 0.000000 0.000000 0.000000 0.065898 0.000000
# 6 0.000000 0.000000 0.000000 0.000000 0.000000 0.128120
#
#
# Mechanical properties :
#
#
# Convention : Reuss Voigt Hill
#
# Bulk Modulus (GPa) = 24.59989 43.93891 34.26940
# Shear Modulus (GPa) = 16.04306 24.60376 20.32341
#
# Velocity S-wave (km/s) = 2.87108 3.55552 3.23147
# Velocity P-wave (km/s) = 4.86112 6.27948 5.61526
#
# Compressibility (1/GPa) = 0.04065059
#
# Stress axis : x y z
#
# Youngs Moduli (GPa) = 39.70279 98.10593 71.50505
#
# Poissons Ratio (x) = 0.10768 -0.23871
# Poissons Ratio (y) = 0.04358 0.47179
# Poissons Ratio (z) = -0.13254 0.64731
#
# Static dielectric constant tensor:
#      x y z
#    x 1.731990 0.000000 0.000000 
#    y 0.000000 1.720990 0.000000 
#    z 0.000000 0.000000 1.666960 
# 
# From -- ./inp_files/26289.got.cif
#   From: 2010.05.17/outbox.cif.g08.bks.cpg/sg59_14_cif.got.tgz:26289.got - 2010.06.03 14:40:33.
