data_PCOD9448861
_publ_section_title
;
Structure prediction by ZEFSAII (Michael W. Deem and Ramdas Pophale) SiO2 
 PCOD9448861
Probable space group: P M M N
;
_chemical_formula_sum "Si O2"
_cell_formula_units_Z 48
_cell_length_a 7.848259
_cell_length_b 19.652381
_cell_length_c 15.555101
_cell_angle_alpha 90.000000
_cell_angle_beta 90.000000
_cell_angle_gamma 90.000000
_cell_volume 2399.171740
_symmetry_space_group_name_H-M "P M M N"
_symmetry_group_IT_number 59
_space_group.IT_coordinate_system_code '2'
_symmetry_cell_setting 'orthorhombic'
loop_
_space_group_symop_operation_xyz
x,y,z
1/2-x,1/2-y,z
1/2+x,-y,-z
-x,1/2+y,-z
-x,-y,-z
1/2+x,1/2+y,-z
1/2-x,y,z
x,1/2-y,z
loop_
_atom_site_type_symbol
_atom_site_label
_atom_site_fract_x
_atom_site_fract_y
_atom_site_fract_z
Si Si1 0.047884 0.172149 0.076661
Si Si2 0.049862 0.929197 0.263800
Si Si3 0.544449 0.072242 0.542361
Si Si4 0.543625 0.171865 0.882146
Si Si5 0.541421 0.327949 0.393449
Si Si6 0.051063 0.580639 0.766372
O O1 0.250000 0.172557 0.090920
O O2 0.983612 0.250000 0.088435
O O3 0.968926 0.121047 0.145024
O O4 0.013586 0.152509 0.978039
O O5 0.250000 0.912333 0.270598
O O6 0.977584 0.923017 0.360265
O O7 0.978655 0.878578 0.191619
O O8 0.034670 0.007210 0.234548
O O9 0.750000 0.075425 0.545625
O O10 0.486577 0.132267 0.479056
O O11 0.500000 0.000000 0.500000
O O12 0.750000 0.170502 0.882539
O O13 0.489784 0.250000 0.866753
O O14 0.750000 0.327046 0.392350
O O15 0.484178 0.250000 0.389897
O O16 0.485312 0.371438 0.310778
O O17 0.250000 0.568137 0.749593
#
# Coordination Sequence:
#
# PCOD9448861 Si02
#       6
#     8   8   8   8   8   8
#     4  10  21  37  57  81 110 144 180 224 278 328
#     4  10  21  35  55  82 111 143 180 228 279 326
#     4  10  19  34  55  78 108 144 179 220 269 322
#     4   9  19  37  58  80 107 141 183 228 274 327
#     4   9  18  32  52  80 109 139 180 224 265 315
#     4  11  21  34  55  81 111 148 185 224 269 326
#
# _framework density 20.006903999999999
#
# number of rings (size 3 to 8) (size 9 to 14) (size 15 to 20)
#    0.000    2.167    1.667    1.500    0.000    3.667 
#    0.000    3.333    0.000    1.500    0.000    2.333 
#    0.000    0.000    0.000    0.000    0.000    0.000 
#
# Total GULP energy -268033.876791 kJ/mol
# GULP energy per Si atom -5584.039100 kJ/mol
# Density = 1.996137 g / cm^3
# Si number density = 20.006904 Si / 1000 Ang^3
#
#
#
# Elastic Constant Matrix: (Units=GPa)
#
#
# Indices 1 2 3 4 5 6 
#
# 1 23.3165 -8.4036 -6.7961 0.0000 0.0000 0.0000
# 2 -8.4036 112.5867 82.7987 0.0000 0.0000 0.0000
# 3 -6.7961 82.7987 152.7221 0.0000 0.0000 0.0000
# 4 0.0000 0.0000 0.0000 42.3073 0.0000 0.0000
# 5 0.0000 0.0000 0.0000 0.0000 10.3339 0.0000
# 6 0.0000 0.0000 0.0000 0.0000 0.0000 10.9580
#
#
#
# Elastic Compliance Matrix: (Units=1/GPa)
#
#
# Indices 1 2 3 4 5 6 
#
# 1 0.044082 0.003073 0.000296 0.000000 0.000000 0.000000
# 2 0.003073 0.014986 -0.007988 0.000000 0.000000 0.000000
# 3 0.000296 -0.007988 0.010892 0.000000 0.000000 0.000000
# 4 0.000000 0.000000 0.000000 0.023637 0.000000 0.000000
# 5 0.000000 0.000000 0.000000 0.000000 0.096769 0.000000
# 6 0.000000 0.000000 0.000000 0.000000 0.000000 0.091257
#
#
# Mechanical properties :
#
#
# Convention : Reuss Voigt Hill
#
# Bulk Modulus (GPa) = 16.46886 47.09147 31.78016
# Shear Modulus (GPa) = 16.07193 27.45492 21.76343
#
# Velocity S-wave (km/s) = 2.83736 3.70844 3.30175
# Velocity P-wave (km/s) = 4.35702 6.47498 5.51856
#
# Compressibility (1/GPa) = 0.06072066
#
# Stress axis : x y z
#
# Youngs Moduli (GPa) = 22.68508 66.72957 91.81343
#
# Poissons Ratio (x) = -0.20505 -0.02715
# Poissons Ratio (y) = -0.06971 0.73339
# Poissons Ratio (z) = -0.00671 0.53303
#
# Static dielectric constant tensor:
#      x y z
#    x 1.732500 0.000000 0.000000 
#    y 0.000000 1.671050 0.000000 
#    z 0.000000 0.000000 1.696820 
# 
# From -- ./inp_files/20372.got.cif
#   From: 2010.05.17/outbox.cif.g08.bks.cpg/sg59_11_cif.got.tgz:20372.got - 2010.06.03 14:40:33.
