data_PCOD9448962
_publ_section_title
;
Structure prediction by ZEFSAII (Michael W. Deem and Ramdas Pophale) SiO2 
 PCOD9448962
Probable space group: P M M N
;
_chemical_formula_sum "Si O2"
_cell_formula_units_Z 32
_cell_length_a 10.877401
_cell_length_b 21.972116
_cell_length_c 6.396084
_cell_angle_alpha 90.000000
_cell_angle_beta 90.000000
_cell_angle_gamma 90.000000
_cell_volume 1528.660984
_symmetry_space_group_name_H-M "P M M N"
_symmetry_group_IT_number 59
_space_group.IT_coordinate_system_code '2'
_symmetry_cell_setting 'orthorhombic'
loop_
_space_group_symop_operation_xyz
x,y,z
1/2-x,1/2-y,z
1/2+x,-y,-z
-x,1/2+y,-z
-x,-y,-z
1/2+x,1/2+y,-z
1/2-x,y,z
x,1/2-y,z
loop_
_atom_site_type_symbol
_atom_site_label
_atom_site_fract_x
_atom_site_fract_y
_atom_site_fract_z
Si Si1 0.613184 0.177330 0.192861
Si Si2 0.889057 0.618046 0.064682
Si Si3 0.031052 0.901744 0.445882
Si Si4 0.885568 0.516096 0.761557
O O1 0.750000 0.159605 0.112353
O O2 0.606784 0.250000 0.196745
O O3 0.600622 0.149798 0.426496
O O4 0.497627 0.152235 0.059851
O O5 0.750000 0.639209 0.017196
O O6 0.919262 0.623475 0.308456
O O7 0.892916 0.546668 0.990424
O O8 0.983782 0.947743 0.624046
O O9 0.101945 0.944556 0.280163
O O10 0.750000 0.533049 0.681357
#
# Coordination Sequence:
#
# PCOD9448962 Si02
#       4
#     8   8   8   8
#     4  10  23  41  58  80 111 147 192 242 284 330
#     4  10  21  37  58  85 116 149 186 231 283 339
#     4  10  19  34  57  83 112 151 188 226 280 337
#     4   9  18  32  52  83 118 147 181 226 276 336
#
# _framework density 20.933354999999999
#
# number of rings (size 3 to 8) (size 9 to 14) (size 15 to 20)
#    0.000    2.250    0.000    2.250    0.000    4.500 
#    0.000    8.750    0.000    0.000    0.000    0.000 
#    0.000    0.000    0.000    0.000    0.000    0.000 
#
# Total GULP energy -178210.136330 kJ/mol
# GULP energy per Si atom -5569.066760 kJ/mol
# Density = 2.088571 g / cm^3
# Si number density = 20.933355 Si / 1000 Ang^3
#
#
#
# Elastic Constant Matrix: (Units=GPa)
#
#
# Indices 1 2 3 4 5 6 
#
# 1 131.7189 33.6203 23.4378 0.0000 0.0000 0.0000
# 2 33.6203 62.1156 12.4420 0.0000 0.0000 0.0000
# 3 23.4378 12.4420 60.8468 0.0000 0.0000 0.0000
# 4 0.0000 0.0000 0.0000 13.1719 0.0000 0.0000
# 5 0.0000 0.0000 0.0000 0.0000 29.8911 0.0000
# 6 0.0000 0.0000 0.0000 0.0000 0.0000 25.1256
#
#
#
# Elastic Compliance Matrix: (Units=1/GPa)
#
#
# Indices 1 2 3 4 5 6 
#
# 1 0.009196 -0.004450 -0.002632 0.000000 0.000000 0.000000
# 2 -0.004450 0.018940 -0.002159 0.000000 0.000000 0.000000
# 3 -0.002632 -0.002159 0.017890 0.000000 0.000000 0.000000
# 4 0.000000 0.000000 0.000000 0.075919 0.000000 0.000000
# 5 0.000000 0.000000 0.000000 0.000000 0.033455 0.000000
# 6 0.000000 0.000000 0.000000 0.000000 0.000000 0.039800
#
#
# Mechanical properties :
#
#
# Convention : Reuss Voigt Hill
#
# Bulk Modulus (GPa) = 36.30567 43.74240 40.02403
# Shear Modulus (GPa) = 22.43522 25.98315 24.20919
#
# Velocity S-wave (km/s) = 3.27730 3.52693 3.40441
# Velocity P-wave (km/s) = 5.63046 6.12594 5.88342
#
# Compressibility (1/GPa) = 0.02754391
#
# Stress axis : x y z
#
# Youngs Moduli (GPa) = 108.74052 52.79798 55.89686
#
# Poissons Ratio (x) = 0.23496 0.14714
# Poissons Ratio (y) = 0.48392 0.12066
# Poissons Ratio (z) = 0.28624 0.11397
#
# Static dielectric constant tensor:
#      x y z
#    x 1.819370 0.000000 0.000000 
#    y 0.000000 1.753870 0.000000 
#    z 0.000000 0.000000 1.780080 
# 
# From -- ./inp_files/1116.got.cif
#   From: 2010.05.17/outbox.cif.g08.bks.cpg/sg59_1_cif.got.tgz:1116.got - 2010.06.03 14:40:33.
