data_PCOD9448708
_publ_section_title
;
Structure prediction by ZEFSAII (Michael W. Deem and Ramdas Pophale) SiO2 
 PCOD9448708
Probable space group: P M M N
;
_chemical_formula_sum "Si O2"
_cell_formula_units_Z 64
_cell_length_a 8.011918
_cell_length_b 19.512990
_cell_length_c 20.103522
_cell_angle_alpha 90.000000
_cell_angle_beta 90.000000
_cell_angle_gamma 90.000000
_cell_volume 3142.913781
_symmetry_space_group_name_H-M "P M M N"
_symmetry_group_IT_number 59
_space_group.IT_coordinate_system_code '2'
_symmetry_cell_setting 'orthorhombic'
loop_
_space_group_symop_operation_xyz
x,y,z
1/2-x,1/2-y,z
1/2+x,-y,-z
-x,1/2+y,-z
-x,-y,-z
1/2+x,1/2+y,-z
1/2-x,y,z
x,1/2-y,z
loop_
_atom_site_type_symbol
_atom_site_label
_atom_site_fract_x
_atom_site_fract_y
_atom_site_fract_z
Si Si1 0.545487 0.171302 0.964614
Si Si2 0.950284 0.442202 0.863629
Si Si3 0.945277 0.672032 0.369772
Si Si4 0.446994 0.545134 0.285981
Si Si5 0.946223 0.327965 0.483383
Si Si6 0.053545 0.410139 0.356388
Si Si7 0.048350 0.910790 0.904206
Si Si8 0.952176 0.329217 0.227079
O O1 0.750000 0.171893 0.964639
O O2 0.490535 0.250000 0.961807
O O3 0.488914 0.124572 0.902944
O O4 0.493246 0.133413 0.032482
O O5 0.750000 0.435583 0.859059
O O6 0.017934 0.450973 0.788696
O O7 0.988875 0.511141 0.904161
O O8 0.750000 0.671826 0.353307
O O9 0.009814 0.750000 0.361916
O O10 0.031960 0.616445 0.323731
O O11 0.965661 0.653744 0.447535
O O12 0.250000 0.530137 0.278832
O O13 0.516938 0.482807 0.330273
O O14 0.750000 0.326598 0.497831
O O15 0.998586 0.250000 0.464525
O O16 0.976783 0.379113 0.422974
O O17 0.250000 0.417399 0.369419
O O18 0.024701 0.358389 0.295241
O O19 0.250000 0.910896 0.904320
O O20 0.992869 0.874889 0.835557
O O21 0.750000 0.332975 0.231227
O O22 0.997312 0.250000 0.216881
#
# Coordination Sequence:
#
# PCOD9448708 Si02
#       8
#     8   8   8   8   8   8   8   8
#     4   9  18  33  55  83 111 143 188 237 282 332
#     4  10  20  36  57  81 111 147 189 234 279 335
#     4  10  22  40  62  87 112 142 184 233 283 333
#     4  10  22  38  56  81 113 150 190 231 277 335
#     4  10  21  38  60  85 114 149 188 229 277 336
#     4  11  22  36  54  80 115 150 187 232 278 328
#     4  10  19  33  55  81 110 146 184 230 283 336
#     4  10  20  33  51  77 109 147 189 229 275 334
#
# _framework density 20.363268999999999
#
# number of rings (size 3 to 8) (size 9 to 14) (size 15 to 20)
#    0.000    2.000    1.250    2.250    0.000    7.250 
#    0.000    1.250    0.000    2.250    0.000    0.000 
#    0.000    0.000    0.000    0.000    0.000    0.000 
#
# Total GULP energy -357486.722460 kJ/mol
# GULP energy per Si atom -5585.730038 kJ/mol
# Density = 2.031692 g / cm^3
# Si number density = 20.363269 Si / 1000 Ang^3
#
#
#
# Elastic Constant Matrix: (Units=GPa)
#
#
# Indices 1 2 3 4 5 6 
#
# 1 9.5877 -11.2375 -6.3105 0.0000 0.0000 0.0000
# 2 -11.2375 130.1234 60.7053 0.0000 0.0000 0.0000
# 3 -6.3105 60.7053 56.5575 0.0000 0.0000 0.0000
# 4 0.0000 0.0000 0.0000 35.7256 0.0000 0.0000
# 5 0.0000 0.0000 0.0000 0.0000 3.8801 0.0000
# 6 0.0000 0.0000 0.0000 0.0000 0.0000 42.4486
#
#
#
# Elastic Compliance Matrix: (Units=1/GPa)
#
#
# Indices 1 2 3 4 5 6 
#
# 1 0.116593 0.008012 0.004410 0.000000 0.000000 0.000000
# 2 0.008012 0.015943 -0.016218 0.000000 0.000000 0.000000
# 3 0.004410 -0.016218 0.035581 0.000000 0.000000 0.000000
# 4 0.000000 0.000000 0.000000 0.027991 0.000000 0.000000
# 5 0.000000 0.000000 0.000000 0.000000 0.257723 0.000000
# 6 0.000000 0.000000 0.000000 0.000000 0.000000 0.023558
#
#
# Mechanical properties :
#
#
# Convention : Reuss Voigt Hill
#
# Bulk Modulus (GPa) = 6.22962 31.39811 18.81386
# Shear Modulus (GPa) = 9.28521 26.61829 17.95175
#
# Velocity S-wave (km/s) = 2.13768 3.61941 2.97235
# Velocity P-wave (km/s) = 3.02635 5.73753 4.58683
#
# Compressibility (1/GPa) = 0.16052344
#
# Stress axis : x y z
#
# Youngs Moduli (GPa) = 8.57684 62.72281 28.10488
#
# Poissons Ratio (x) = -0.50252 -0.12394
# Poissons Ratio (y) = -0.06872 0.45582
# Poissons Ratio (z) = -0.03782 1.01727
#
# Static dielectric constant tensor:
#      x y z
#    x 1.730300 0.000000 0.000000 
#    y 0.000000 1.711440 0.000000 
#    z 0.000000 0.000000 1.696890 
# 
# From -- ./inp_files/26230.got.cif
#   From: 2010.05.17/outbox.cif.g08.bks.cpg/sg59_14_cif.got.tgz:26230.got - 2010.06.03 14:40:33.
