data_PCOD9448808
_publ_section_title
;
Structure prediction by ZEFSAII (Michael W. Deem and Ramdas Pophale) SiO2 
 PCOD9448808
Probable space group: P M M N
;
_chemical_formula_sum "Si O2"
_cell_formula_units_Z 64
_cell_length_a 23.308538
_cell_length_b 7.790778
_cell_length_c 18.184081
_cell_angle_alpha 90.000000
_cell_angle_beta 90.000000
_cell_angle_gamma 90.000000
_cell_volume 3302.077183
_symmetry_space_group_name_H-M "P M M N"
_symmetry_group_IT_number 59
_space_group.IT_coordinate_system_code '2'
_symmetry_cell_setting 'orthorhombic'
loop_
_space_group_symop_operation_xyz
x,y,z
1/2-x,1/2-y,z
1/2+x,-y,-z
-x,1/2+y,-z
-x,-y,-z
1/2+x,1/2+y,-z
1/2-x,y,z
x,1/2-y,z
loop_
_atom_site_type_symbol
_atom_site_label
_atom_site_fract_x
_atom_site_fract_y
_atom_site_fract_z
Si Si1 0.686298 0.540083 0.247958
Si Si2 0.418126 0.451734 0.652696
Si Si3 0.630084 0.953732 0.098209
Si Si4 0.900699 0.053182 0.818241
Si Si5 0.049828 0.538640 0.332695
Si Si6 0.315699 0.957994 0.058777
Si Si7 0.067133 0.954299 0.492594
Si Si8 0.497566 0.554398 0.915066
O O1 0.750000 0.481598 0.269335
O O2 0.686707 0.750000 0.251768
O O3 0.633643 0.477378 0.298277
O O4 0.672461 0.493482 0.163599
O O5 0.421759 0.250000 0.669929
O O6 0.482842 0.519971 0.667240
O O7 0.404870 0.470649 0.565912
O O8 0.621363 0.750000 0.103698
O O9 0.568029 0.036966 0.109134
O O10 0.654559 0.993069 0.017840
O O11 0.883297 0.250000 0.803880
O O12 0.917000 0.976685 0.739395
O O13 0.852473 0.976748 0.871794
O O14 0.959140 0.052899 0.865695
O O15 0.048173 0.750000 0.331956
O O16 0.080058 0.487879 0.409402
O O17 0.250000 0.016544 0.060077
O O18 0.316337 0.750000 0.061474
O O19 0.074153 0.750000 0.495983
O O20 0.000000 0.000000 0.500000
O O21 0.516881 0.750000 0.909159
O O22 0.500000 0.500000 0.000000
#
# Coordination Sequence:
#
# PCOD9448808 Si02
#       8
#     8   8   8   8   8   8   8   8
#     4   9  18  32  51  75 101 135 179 217 249 299
#     4   9  16  29  49  72  99 129 165 207 251 298
#     4  11  21  35  55  75  99 133 173 214 257 305
#     4  10  19  34  54  73  99 134 168 205 253 306
#     4   8  15  28  48  73  98 129 164 201 250 306
#     4  10  21  35  51  72  98 129 168 213 255 296
#     4   9  16  28  47  72 101 128 159 196 241 299
#     4  12  23  35  51  75 104 132 165 208 258 309
#
# _framework density 19.381741000000002
#
# number of rings (size 3 to 8) (size 9 to 14) (size 15 to 20)
#    0.000    2.250    1.250    3.750    0.000    2.750 
#    0.000    6.875    0.000    2.625    0.000    1.750 
#    0.000    0.000    0.000    0.000    0.000    0.000 
#
# Total GULP energy -356986.860253 kJ/mol
# GULP energy per Si atom -5577.919691 kJ/mol
# Density = 1.933763 g / cm^3
# Si number density = 19.381741 Si / 1000 Ang^3
#
#
#
# Elastic Constant Matrix: (Units=GPa)
#
#
# Indices 1 2 3 4 5 6 
#
# 1 73.0586 -4.0554 24.5231 0.0000 0.0000 0.0000
# 2 -4.0554 33.5068 -10.6461 0.0000 0.0000 0.0000
# 3 24.5231 -10.6461 116.1062 0.0000 0.0000 0.0000
# 4 0.0000 0.0000 0.0000 18.5333 0.0000 0.0000
# 5 0.0000 0.0000 0.0000 0.0000 18.7784 0.0000
# 6 0.0000 0.0000 0.0000 0.0000 0.0000 10.4597
#
#
#
# Elastic Compliance Matrix: (Units=1/GPa)
#
#
# Indices 1 2 3 4 5 6 
#
# 1 0.014754 0.000819 -0.003041 0.000000 0.000000 0.000000
# 2 0.000819 0.030786 0.002650 0.000000 0.000000 0.000000
# 3 -0.003041 0.002650 0.009498 0.000000 0.000000 0.000000
# 4 0.000000 0.000000 0.000000 0.053957 0.000000 0.000000
# 5 0.000000 0.000000 0.000000 0.000000 0.053253 0.000000
# 6 0.000000 0.000000 0.000000 0.000000 0.000000 0.095605
#
#
# Mechanical properties :
#
#
# Convention : Reuss Voigt Hill
#
# Bulk Modulus (GPa) = 17.89101 26.92387 22.40744
# Shear Modulus (GPa) = 18.14043 23.74427 20.94235
#
# Velocity S-wave (km/s) = 3.06266 3.50392 3.29069
# Velocity P-wave (km/s) = 4.66448 5.50377 5.10141
#
# Compressibility (1/GPa) = 0.05589399
#
# Stress axis : x y z
#
# Youngs Moduli (GPa) = 67.77861 32.48256 105.28438
#
# Poissons Ratio (x) = -0.02662 0.32018
# Poissons Ratio (y) = -0.05554 -0.27898
# Poissons Ratio (z) = 0.20612 -0.08607
#
# Static dielectric constant tensor:
#      x y z
#    x 2.723920 0.000000 0.000000 
#    y 0.000000 1.713560 0.000000 
#    z 0.000000 0.000000 1.767210 
# 
# From -- ./inp_files/30914.got.cif
#   From: 2010.05.17/outbox.cif.g08.bks.cpg/sg59_16_cif.got.tgz:30914.got - 2010.06.03 14:40:33.
