data_PCOD9448470
_publ_section_title
;
Structure prediction by ZEFSAII (Michael W. Deem and Ramdas Pophale) SiO2 
 PCOD9448470
Probable space group: P M M N
;
_chemical_formula_sum "Si O2"
_cell_formula_units_Z 64
_cell_length_a 24.681738
_cell_length_b 9.075509
_cell_length_c 16.520582
_cell_angle_alpha 90.000000
_cell_angle_beta 90.000000
_cell_angle_gamma 90.000000
_cell_volume 3700.599388
_symmetry_space_group_name_H-M "P M M N"
_symmetry_group_IT_number 59
_space_group.IT_coordinate_system_code '2'
_symmetry_cell_setting 'orthorhombic'
loop_
_space_group_symop_operation_xyz
x,y,z
1/2-x,1/2-y,z
1/2+x,-y,-z
-x,1/2+y,-z
-x,-y,-z
1/2+x,1/2+y,-z
1/2-x,y,z
x,1/2-y,z
loop_
_atom_site_type_symbol
_atom_site_label
_atom_site_fract_x
_atom_site_fract_y
_atom_site_fract_z
Si Si1 0.109803 0.077127 0.612557
Si Si2 0.605506 0.075982 0.126811
Si Si3 0.811923 0.426093 0.705353
Si Si4 0.911478 0.927461 0.792844
Si Si5 0.556870 0.574046 0.977261
Si Si6 0.974007 0.073167 0.275856
Si Si7 0.811919 0.572043 0.529571
Si Si8 0.813249 0.580617 0.232738
O O1 0.097007 0.250000 0.602328
O O2 0.140926 0.024285 0.532248
O O3 0.154427 0.064146 0.683671
O O4 0.057120 0.995757 0.647754
O O5 0.600867 0.250000 0.112276
O O6 0.559595 0.034338 0.193870
O O7 0.661317 0.031365 0.169152
O O8 0.597412 0.987021 0.044772
O O9 0.750000 0.459131 0.731796
O O10 0.817672 0.250000 0.700730
O O11 0.857430 0.494601 0.762606
O O12 0.818513 0.496726 0.616361
O O13 0.905589 0.750000 0.786775
O O14 0.925491 0.962895 0.886009
O O15 0.963818 0.970604 0.738704
O O16 0.551659 0.750000 0.982152
O O17 0.500000 0.500000 0.000000
O O18 0.971783 0.250000 0.282513
O O19 0.750000 0.539814 0.500512
O O20 0.815353 0.750000 0.537381
O O21 0.750000 0.558777 0.245385
O O22 0.822234 0.750000 0.205104
#
# Coordination Sequence:
#
# PCOD9448470 Si02
#       8
#     8   8   8   8   8   8   8   8
#     4   9  17  29  49  79 108 138 179 221 260 310
#     4  10  19  33  50  74 107 139 175 218 262 309
#     4  10  22  39  58  82 108 133 171 223 272 316
#     4  10  21  38  58  80 106 138 177 215 261 320
#     4  11  21  35  56  82 108 135 173 218 262 311
#     4   9  18  33  50  74 109 142 171 212 261 311
#     4   9  17  32  55  79 105 140 180 221 265 314
#     4   9  17  30  48  72 105 143 180 218 261 311
#
# _framework density 17.294497
#
# number of rings (size 3 to 8) (size 9 to 14) (size 15 to 20)
#    0.000    2.375    1.250    1.500    0.000    5.000 
#    0.000    1.250    0.000    3.000    0.000    0.000 
#    0.000    0.000    0.000    0.000    0.000    0.000 
#
# Total GULP energy -356886.416944 kJ/mol
# GULP energy per Si atom -5576.350265 kJ/mol
# Density = 1.725513 g / cm^3
# Si number density = 17.294497 Si / 1000 Ang^3
#
#
#
# Elastic Constant Matrix: (Units=GPa)
#
#
# Indices 1 2 3 4 5 6 
#
# 1 108.8012 45.6404 58.3079 0.0000 0.0000 0.0000
# 2 45.6404 38.8236 41.8401 0.0000 0.0000 0.0000
# 3 58.3079 41.8401 82.2214 0.0000 0.0000 0.0000
# 4 0.0000 0.0000 0.0000 26.1072 0.0000 0.0000
# 5 0.0000 0.0000 0.0000 0.0000 27.9427 0.0000
# 6 0.0000 0.0000 0.0000 0.0000 0.0000 29.9501
#
#
#
# Elastic Compliance Matrix: (Units=1/GPa)
#
#
# Indices 1 2 3 4 5 6 
#
# 1 0.018901 -0.017216 -0.004643 0.000000 0.000000 0.000000
# 2 -0.017216 0.072719 -0.024796 0.000000 0.000000 0.000000
# 3 -0.004643 -0.024796 0.028073 0.000000 0.000000 0.000000
# 4 0.000000 0.000000 0.000000 0.038304 0.000000 0.000000
# 5 0.000000 0.000000 0.000000 0.000000 0.035788 0.000000
# 6 0.000000 0.000000 0.000000 0.000000 0.000000 0.033389
#
#
# Mechanical properties :
#
#
# Convention : Reuss Voigt Hill
#
# Bulk Modulus (GPa) = 37.90308 57.93589 47.91948
# Shear Modulus (GPa) = 15.18479 22.40386 18.79432
#
# Velocity S-wave (km/s) = 2.96634 3.60312 3.30012
# Velocity P-wave (km/s) = 5.80483 7.13318 6.50301
#
# Compressibility (1/GPa) = 0.02638308
#
# Stress axis : x y z
#
# Youngs Moduli (GPa) = 52.90628 13.75162 35.62166
#
# Poissons Ratio (x) = 0.23675 0.16540
# Poissons Ratio (y) = 0.91084 0.88326
# Poissons Ratio (z) = 0.24566 0.34098
#
# Static dielectric constant tensor:
#      x y z
#    x 1.592560 0.000000 0.000000 
#    y 0.000000 1.583550 0.000000 
#    z 0.000000 0.000000 1.578070 
# 
# From -- ./inp_files/21506.got.cif
#   From: 2010.05.17/outbox.cif.g08.bks.cpg/sg59_11_cif.got.tgz:21506.got - 2010.06.03 14:40:33.
