data_PCOD9448900
_publ_section_title
;
Structure prediction by ZEFSAII (Michael W. Deem and Ramdas Pophale) SiO2 
 PCOD9448900
Probable space group: P M M N
;
_chemical_formula_sum "Si O2"
_cell_formula_units_Z 56
_cell_length_a 22.582629
_cell_length_b 7.954711
_cell_length_c 14.894558
_cell_angle_alpha 90.000000
_cell_angle_beta 90.000000
_cell_angle_gamma 90.000000
_cell_volume 2675.632889
_symmetry_space_group_name_H-M "P M M N"
_symmetry_group_IT_number 59
_space_group.IT_coordinate_system_code '2'
_symmetry_cell_setting 'orthorhombic'
loop_
_space_group_symop_operation_xyz
x,y,z
1/2-x,1/2-y,z
1/2+x,-y,-z
-x,1/2+y,-z
-x,-y,-z
1/2+x,1/2+y,-z
1/2-x,y,z
x,1/2-y,z
loop_
_atom_site_type_symbol
_atom_site_label
_atom_site_fract_x
_atom_site_fract_y
_atom_site_fract_z
Si Si1 0.134460 0.948235 0.622658
Si Si2 0.683999 0.447180 0.758088
Si Si3 0.183013 0.052673 0.441804
Si Si4 0.750000 0.045638 0.061712
Si Si5 0.750000 0.455549 0.270581
Si Si6 0.053315 0.050836 0.777700
Si Si7 0.568914 0.456434 0.862292
Si Si8 0.380324 0.953304 0.955389
O O1 0.142208 0.750000 0.613166
O O2 0.191249 0.014860 0.678483
O O3 0.138325 0.020537 0.522904
O O4 0.077712 0.980754 0.684269
O O5 0.750000 0.519808 0.773768
O O6 0.687421 0.250000 0.781774
O O7 0.671101 0.461926 0.651968
O O8 0.628469 0.515648 0.812644
O O9 0.250000 0.001489 0.471313
O O10 0.183954 0.250000 0.422165
O O11 0.750000 0.250000 0.056690
O O12 0.750000 0.996280 0.166578
O O13 0.813097 0.990860 0.022728
O O14 0.750000 0.250000 0.270954
O O15 0.048775 0.250000 0.767264
O O16 0.990079 0.984561 0.812395
O O17 0.099232 0.012339 0.857923
O O18 0.567753 0.250000 0.860622
O O19 0.575352 0.508212 0.966038
O O20 0.380113 0.750000 0.953032
#
# Coordination Sequence:
#
# PCOD9448900 Si02
#       8
#     8   8   8   4   4   8   8   8
#     4  11  20  34  56  81 108 143 186 224 263 317
#     4   9  18  35  59  84 106 135 180 230 273 318
#     4  10  20  34  54  84 117 144 170 212 276 336
#     4   9  16  28  50  81 108 131 171 230 272 304
#     4   9  16  28  48  77 106 133 171 224 266 300
#     4  11  22  36  51  76 114 150 180 221 273 327
#     4   9  20  36  56  80 107 140 185 233 272 314
#     4  10  19  34  56  80 107 143 185 227 271 321
#
# _framework density 20.929628999999998
#
# number of rings (size 3 to 8) (size 9 to 14) (size 15 to 20)
#    0.000    2.143    2.143    1.714    1.000    0.571 
#    0.000    4.643    0.000    0.000    0.000    0.000 
#    0.000    0.000    0.000    0.000    0.000    0.000 
#
# Total GULP energy -312623.243626 kJ/mol
# GULP energy per Si atom -5582.557922 kJ/mol
# Density = 2.088199 g / cm^3
# Si number density = 20.929629 Si / 1000 Ang^3
#
#
#
# Elastic Constant Matrix: (Units=GPa)
#
#
# Indices 1 2 3 4 5 6 
#
# 1 77.9955 -3.6317 9.8757 0.0000 0.0000 0.0000
# 2 -3.6317 19.9926 -11.9711 0.0000 0.0000 0.0000
# 3 9.8757 -11.9711 38.5695 0.0000 0.0000 0.0000
# 4 0.0000 0.0000 0.0000 8.5434 0.0000 0.0000
# 5 0.0000 0.0000 0.0000 0.0000 22.5004 0.0000
# 6 0.0000 0.0000 0.0000 0.0000 0.0000 14.3189
#
#
#
# Elastic Compliance Matrix: (Units=1/GPa)
#
#
# Indices 1 2 3 4 5 6 
#
# 1 0.013254 0.000461 -0.003251 0.000000 0.000000 0.000000
# 2 0.000461 0.061453 0.018955 0.000000 0.000000 0.000000
# 3 -0.003251 0.018955 0.032643 0.000000 0.000000 0.000000
# 4 0.000000 0.000000 0.000000 0.117049 0.000000 0.000000
# 5 0.000000 0.000000 0.000000 0.000000 0.044444 0.000000
# 6 0.000000 0.000000 0.000000 0.000000 0.000000 0.069838
#
#
# Mechanical properties :
#
#
# Convention : Reuss Voigt Hill
#
# Bulk Modulus (GPa) = 7.15912 13.90037 10.52974
# Shear Modulus (GPa) = 14.16796 18.55820 16.36308
#
# Velocity S-wave (km/s) = 2.60462 2.98097 2.79913
# Velocity P-wave (km/s) = 3.53177 4.30165 3.93558
#
# Compressibility (1/GPa) = 0.13968197
#
# Stress axis : x y z
#
# Youngs Moduli (GPa) = 75.44712 16.27272 30.63454
#
# Poissons Ratio (x) = -0.00751 0.09958
# Poissons Ratio (y) = -0.03480 -0.58069
# Poissons Ratio (z) = 0.24525 -0.30846
#
# Static dielectric constant tensor:
#      x y z
#    x 1.778730 0.000000 0.000000 
#    y 0.000000 1.764840 0.000000 
#    z 0.000000 0.000000 1.727540 
# 
# From -- ./inp_files/24363.got.cif
#   From: 2010.05.17/outbox.cif.g08.bks.cpg/sg59_13_cif.got.tgz:24363.got - 2010.06.03 14:40:33.
