data_PCOD9448509
_publ_section_title
;
Structure prediction by ZEFSAII (Michael W. Deem and Ramdas Pophale) SiO2 
 PCOD9448509
Probable space group: P M M N
;
_chemical_formula_sum "Si O2"
_cell_formula_units_Z 64
_cell_length_a 7.730790
_cell_length_b 28.658795
_cell_length_c 13.142949
_cell_angle_alpha 90.000000
_cell_angle_beta 90.000000
_cell_angle_gamma 90.000000
_cell_volume 2911.887719
_symmetry_space_group_name_H-M "P M M N"
_symmetry_group_IT_number 59
_space_group.IT_coordinate_system_code '2'
_symmetry_cell_setting 'orthorhombic'
loop_
_space_group_symop_operation_xyz
x,y,z
1/2-x,1/2-y,z
1/2+x,-y,-z
-x,1/2+y,-z
-x,-y,-z
1/2+x,1/2+y,-z
1/2-x,y,z
x,1/2-y,z
loop_
_atom_site_type_symbol
_atom_site_label
_atom_site_fract_x
_atom_site_fract_y
_atom_site_fract_z
Si Si1 0.057158 0.546118 0.063848
Si Si2 0.040181 0.896114 0.256134
Si Si3 0.042868 0.303021 0.647635
Si Si4 0.542335 0.196886 0.232570
Si Si5 0.956228 0.028146 0.601378
Si Si6 0.960851 0.935574 0.684093
Si Si7 0.045790 0.352762 0.444231
Si Si8 0.453930 0.387558 0.107798
O O1 0.250000 0.533195 0.097507
O O2 0.974885 0.571344 0.163190
O O3 0.000000 0.500000 0.000000
O O4 0.052042 0.588751 0.984063
O O5 0.250000 0.896293 0.251747
O O6 0.977328 0.922370 0.359598
O O7 0.990216 0.842014 0.266091
O O8 0.250000 0.299471 0.637186
O O9 0.978054 0.250000 0.664207
O O10 0.972719 0.325247 0.541229
O O11 0.750000 0.194579 0.236757
O O12 0.486643 0.250000 0.222703
O O13 0.474431 0.176544 0.339782
O O14 0.480976 0.166037 0.137356
O O15 0.750000 0.032101 0.601888
O O16 0.013018 0.988948 0.682450
O O17 0.000000 0.000000 0.500000
O O18 0.750000 0.933996 0.679984
O O19 0.025300 0.903673 0.589925
O O20 0.014428 0.912756 0.788934
O O21 0.250000 0.358716 0.462728
O O22 0.250000 0.396642 0.092691
#
# Coordination Sequence:
#
# PCOD9448509 Si02
#       8
#     8   8   8   8   8   8   8   8
#     4  11  23  41  64  88 113 144 184 229 282 344
#     4  10  23  40  58  83 116 152 190 235 288 348
#     4  10  21  37  58  83 111 148 197 247 289 334
#     4  10  20  33  51  80 117 153 191 237 285 336
#     4  10  19  33  52  76 108 144 180 217 264 323
#     4   8  15  29  50  75 106 141 172 210 265 326
#     4   9  17  31  53  80 111 150 194 237 284 336
#     4  10  20  36  58  82 108 141 182 229 281 334
#
# _framework density 21.978867999999999
#
# number of rings (size 3 to 8) (size 9 to 14) (size 15 to 20)
#    0.000    2.250    0.000    3.750    0.000    6.750 
#    0.000    6.250    0.000    0.750    0.000    0.000 
#    0.000    0.000    0.000    0.000    0.000    0.000 
#
# Total GULP energy -356773.764958 kJ/mol
# GULP energy per Si atom -5574.590077 kJ/mol
# Density = 2.192884 g / cm^3
# Si number density = 21.978868 Si / 1000 Ang^3
#
#
#
# Elastic Constant Matrix: (Units=GPa)
#
#
# Indices 1 2 3 4 5 6 
#
# 1 41.5539 4.6778 -1.6725 0.0000 0.0000 0.0000
# 2 4.6778 171.2637 50.7053 0.0000 0.0000 0.0000
# 3 -1.6725 50.7053 95.7406 0.0000 0.0000 0.0000
# 4 0.0000 0.0000 0.0000 28.4264 0.0000 0.0000
# 5 0.0000 0.0000 0.0000 0.0000 17.5738 0.0000
# 6 0.0000 0.0000 0.0000 0.0000 0.0000 21.5008
#
#
#
# Elastic Compliance Matrix: (Units=1/GPa)
#
#
# Indices 1 2 3 4 5 6 
#
# 1 0.024207 -0.000933 0.000917 0.000000 0.000000 0.000000
# 2 -0.000933 0.006961 -0.003703 0.000000 0.000000 0.000000
# 3 0.000917 -0.003703 0.012422 0.000000 0.000000 0.000000
# 4 0.000000 0.000000 0.000000 0.035179 0.000000 0.000000
# 5 0.000000 0.000000 0.000000 0.000000 0.056903 0.000000
# 6 0.000000 0.000000 0.000000 0.000000 0.000000 0.046510
#
#
# Mechanical properties :
#
#
# Convention : Reuss Voigt Hill
#
# Bulk Modulus (GPa) = 27.66061 46.21993 36.94027
# Shear Modulus (GPa) = 24.79309 30.49003 27.64156
#
# Velocity S-wave (km/s) = 3.36228 3.72861 3.55017
# Velocity P-wave (km/s) = 5.26171 6.29378 5.80074
#
# Compressibility (1/GPa) = 0.03615250
#
# Stress axis : x y z
#
# Youngs Moduli (GPa) = 41.31037 143.66418 80.50281
#
# Poissons Ratio (x) = 0.13398 -0.07380
# Poissons Ratio (y) = 0.03853 0.29808
# Poissons Ratio (z) = -0.03787 0.53195
#
# Static dielectric constant tensor:
#      x y z
#    x 1.834080 0.000000 0.000000 
#    y 0.000000 1.846960 0.000000 
#    z 0.000000 0.000000 1.870360 
# 
# From -- ./inp_files/14902.got.cif
#   From: 2010.05.17/outbox.cif.g08.bks.cpg/sg59_8_cif.got.tgz:14902.got - 2010.06.03 14:40:33.
