data_PCOD9448629
_publ_section_title
;
Structure prediction by ZEFSAII (Michael W. Deem and Ramdas Pophale) SiO2 
 PCOD9448629
Probable space group: P M M N
;
_chemical_formula_sum "Si O2"
_cell_formula_units_Z 64
_cell_length_a 8.574391
_cell_length_b 20.360597
_cell_length_c 20.764723
_cell_angle_alpha 90.000000
_cell_angle_beta 90.000000
_cell_angle_gamma 90.000000
_cell_volume 3625.099520
_symmetry_space_group_name_H-M "P M M N"
_symmetry_group_IT_number 59
_space_group.IT_coordinate_system_code '2'
_symmetry_cell_setting 'orthorhombic'
loop_
_space_group_symop_operation_xyz
x,y,z
1/2-x,1/2-y,z
1/2+x,-y,-z
-x,1/2+y,-z
-x,-y,-z
1/2+x,1/2+y,-z
1/2-x,y,z
x,1/2-y,z
loop_
_atom_site_type_symbol
_atom_site_label
_atom_site_fract_x
_atom_site_fract_y
_atom_site_fract_z
Si Si1 0.561394 0.174508 0.585987
Si Si2 0.564991 0.913736 0.303099
Si Si3 0.937234 0.429200 0.977559
Si Si4 0.439086 0.174885 0.079756
Si Si5 0.438954 0.091663 0.199741
Si Si6 0.063409 0.929310 0.522351
Si Si7 0.937065 0.942739 0.661183
Si Si8 0.937963 0.441679 0.832045
O O1 0.750000 0.171951 0.589470
O O2 0.514954 0.250000 0.576272
O O3 0.493512 0.144420 0.651425
O O4 0.511737 0.126895 0.527538
O O5 0.750000 0.920622 0.307632
O O6 0.514146 0.906263 0.228878
O O7 0.486970 0.981435 0.328335
O O8 0.750000 0.431051 0.980121
O O9 0.983191 0.418069 0.902987
O O10 0.000000 0.500000 0.000000
O O11 0.000306 0.373091 0.024353
O O12 0.250000 0.173023 0.078961
O O13 0.488952 0.250000 0.071265
O O14 0.492168 0.145528 0.148680
O O15 0.250000 0.094139 0.200818
O O16 0.490195 0.094973 0.274001
O O17 0.480655 0.018965 0.174122
O O18 0.250000 0.932113 0.521188
O O19 0.007048 0.917201 0.594872
O O20 0.000000 0.000000 0.500000
O O21 0.750000 0.940639 0.657560
O O22 0.750000 0.437490 0.825684
#
# Coordination Sequence:
#
# PCOD9448629 Si02
#       8
#     8   8   8   8   8   8   8   8
#     4  10  22  40  59  78 108 152 191 224 276 342
#     4  11  21  33  54  84 112 138 178 232 280 327
#     4  11  21  35  57  84 114 147 189 236 284 337
#     4  10  20  36  57  81 113 152 192 234 283 337
#     4   8  15  31  52  76 105 141 183 223 270 325
#     4  11  21  34  56  84 112 144 185 232 281 328
#     4  10  19  33  54  79 112 146 182 228 274 327
#     4   9  18  34  55  77 108 145 182 226 275 332
#
# _framework density 17.654686999999999
#
# number of rings (size 3 to 8) (size 9 to 14) (size 15 to 20)
#    0.000    2.000    2.500    3.000    0.000    2.000 
#    0.000    1.875    0.000    1.500    0.000    0.000 
#    0.000    0.000    0.000    0.000    0.000    0.000 
#
# Total GULP energy -357161.588531 kJ/mol
# GULP energy per Si atom -5580.649821 kJ/mol
# Density = 1.761450 g / cm^3
# Si number density = 17.654687 Si / 1000 Ang^3
#
#
#
# Elastic Constant Matrix: (Units=GPa)
#
#
# Indices 1 2 3 4 5 6 
#
# 1 32.5168 29.6789 33.8311 0.0000 0.0000 0.0000
# 2 29.6789 125.7915 92.1264 0.0000 0.0000 0.0000
# 3 33.8311 92.1264 178.2339 0.0000 0.0000 0.0000
# 4 0.0000 0.0000 0.0000 26.2687 0.0000 0.0000
# 5 0.0000 0.0000 0.0000 0.0000 31.3925 0.0000
# 6 0.0000 0.0000 0.0000 0.0000 0.0000 17.2257
#
#
#
# Elastic Compliance Matrix: (Units=1/GPa)
#
#
# Indices 1 2 3 4 5 6 
#
# 1 0.041333 -0.006446 -0.004514 0.000000 0.000000 0.000000
# 2 -0.006446 0.013798 -0.005908 0.000000 0.000000 0.000000
# 3 -0.004514 -0.005908 0.009521 0.000000 0.000000 0.000000
# 4 0.000000 0.000000 0.000000 0.038068 0.000000 0.000000
# 5 0.000000 0.000000 0.000000 0.000000 0.031855 0.000000
# 6 0.000000 0.000000 0.000000 0.000000 0.000000 0.058053
#
#
# Mechanical properties :
#
#
# Convention : Reuss Voigt Hill
#
# Bulk Modulus (GPa) = 32.34602 71.97945 52.16274
# Shear Modulus (GPa) = 21.12657 27.03778 24.08217
#
# Velocity S-wave (km/s) = 3.46302 3.91766 3.69733
# Velocity P-wave (km/s) = 5.86100 7.83092 6.91645
#
# Compressibility (1/GPa) = 0.03091570
#
# Stress axis : x y z
#
# Youngs Moduli (GPa) = 24.19366 72.47644 105.02925
#
# Poissons Ratio (x) = 0.46722 0.47405
# Poissons Ratio (y) = 0.15596 0.62053
# Poissons Ratio (z) = 0.10920 0.42820
#
# Static dielectric constant tensor:
#      x y z
#    x 1.538790 0.000000 0.000000 
#    y 0.000000 1.575320 0.000000 
#    z 0.000000 0.000000 1.615870 
# 
# From -- ./inp_files/29466.got.cif
#   From: 2010.05.17/outbox.cif.g08.bks.cpg/sg59_15_cif.got.tgz:29466.got - 2010.06.03 14:40:33.
