data_PCOD9448598
_publ_section_title
;
Structure prediction by ZEFSAII (Michael W. Deem and Ramdas Pophale) SiO2 
 PCOD9448598
Probable space group: P M M N
;
_chemical_formula_sum "Si O2"
_cell_formula_units_Z 64
_cell_length_a 17.546277
_cell_length_b 14.748456
_cell_length_c 14.081769
_cell_angle_alpha 90.000000
_cell_angle_beta 90.000000
_cell_angle_gamma 90.000000
_cell_volume 3644.087142
_symmetry_space_group_name_H-M "P M M N"
_symmetry_group_IT_number 59
_space_group.IT_coordinate_system_code '2'
_symmetry_cell_setting 'orthorhombic'
loop_
_space_group_symop_operation_xyz
x,y,z
1/2-x,1/2-y,z
1/2+x,-y,-z
-x,1/2+y,-z
-x,-y,-z
1/2+x,1/2+y,-z
1/2-x,y,z
x,1/2-y,z
loop_
_atom_site_type_symbol
_atom_site_label
_atom_site_fract_x
_atom_site_fract_y
_atom_site_fract_z
Si Si1 0.496693 0.146848 0.746834
Si Si2 0.666677 0.996748 0.497867
Si Si3 0.403507 0.353136 0.383389
Si Si4 0.341296 0.356963 0.004708
Si Si5 0.958381 0.980361 0.098112
Si Si6 0.167062 0.351138 0.669521
Si Si7 0.956853 0.354995 0.531229
Si Si8 0.466240 0.145391 0.171923
O O1 0.520163 0.250000 0.765770
O O2 0.511542 0.082188 0.834604
O O3 0.405095 0.143055 0.736170
O O4 0.525638 0.122059 0.641534
O O5 0.750000 0.038934 0.500332
O O6 0.654665 0.931247 0.588086
O O7 0.662493 0.928855 0.408573
O O8 0.603422 0.073270 0.494299
O O9 0.372915 0.250000 0.385852
O O10 0.468874 0.360214 0.464546
O O11 0.438865 0.368165 0.279862
O O12 0.250000 0.372636 0.017446
O O13 0.350130 0.250000 0.975883
O O14 0.393499 0.367614 0.100493
O O15 0.381373 0.426632 0.930724
O O16 0.963799 0.077707 0.149648
O O17 0.000000 0.000000 0.000000
O O18 0.250000 0.356751 0.717040
O O19 0.162210 0.250000 0.624193
O O20 0.931494 0.250000 0.528566
O O21 0.489797 0.250000 0.160633
#
# Coordination Sequence:
#
# PCOD9448598 Si02
#       8
#     8   8   8   8   8   8   8   8
#     4  10  19  33  54  77 102 136 175 220 268 312
#     4  11  21  31  48  73 106 145 173 211 262 307
#     4  10  19  33  54  79 104 136 177 217 259 311
#     4   9  18  34  54  78 106 133 167 215 272 328
#     4  10  20  33  52  78 103 133 173 220 268 319
#     4   9  18  31  47  74 109 137 165 205 257 316
#     4  10  21  35  52  74 102 142 187 222 251 304
#     4   9  19  33  52  77 106 139 173 214 262 315
#
# _framework density 17.562697
#
# number of rings (size 3 to 8) (size 9 to 14) (size 15 to 20)
#    0.000    2.250    1.250    1.875    1.750    2.500 
#    0.000    2.500    0.000    0.375    0.000    0.000 
#    0.000    0.000    0.000    0.000    0.000    0.000 
#
# Total GULP energy -356428.665283 kJ/mol
# GULP energy per Si atom -5569.197895 kJ/mol
# Density = 1.752272 g / cm^3
# Si number density = 17.562697 Si / 1000 Ang^3
#
#
#
# Elastic Constant Matrix: (Units=GPa)
#
#
# Indices 1 2 3 4 5 6 
#
# 1 52.4475 30.4189 -1.2556 0.0000 0.0000 0.0000
# 2 30.4189 61.0683 27.3174 0.0000 0.0000 0.0000
# 3 -1.2556 27.3174 65.7885 0.0000 0.0000 0.0000
# 4 0.0000 0.0000 0.0000 27.4705 0.0000 0.0000
# 5 0.0000 0.0000 0.0000 0.0000 11.3289 0.0000
# 6 0.0000 0.0000 0.0000 0.0000 0.0000 5.3331
#
#
#
# Elastic Compliance Matrix: (Units=1/GPa)
#
#
# Indices 1 2 3 4 5 6 
#
# 1 0.030146 -0.018758 0.008364 0.000000 0.000000 0.000000
# 2 -0.018758 0.031782 -0.013555 0.000000 0.000000 0.000000
# 3 0.008364 -0.013555 0.020988 0.000000 0.000000 0.000000
# 4 0.000000 0.000000 0.000000 0.036403 0.000000 0.000000
# 5 0.000000 0.000000 0.000000 0.000000 0.088270 0.000000
# 6 0.000000 0.000000 0.000000 0.000000 0.000000 0.187508
#
#
# Mechanical properties :
#
#
# Convention : Reuss Voigt Hill
#
# Bulk Modulus (GPa) = 28.55545 32.47396 30.51470
# Shear Modulus (GPa) = 10.99706 17.01473 14.00590
#
# Velocity S-wave (km/s) = 2.50503 3.11593 2.82703
# Velocity P-wave (km/s) = 4.96602 5.61033 5.29798
#
# Compressibility (1/GPa) = 0.03501959
#
# Stress axis : x y z
#
# Youngs Moduli (GPa) = 33.17170 31.46440 47.64571
#
# Poissons Ratio (x) = 0.59020 -0.39851
# Poissons Ratio (y) = 0.62222 0.64583
# Poissons Ratio (z) = -0.27745 0.42649
#
# Static dielectric constant tensor:
#      x y z
#    x 1.605230 0.000000 0.000000 
#    y 0.000000 1.639100 0.000000 
#    z 0.000000 0.000000 1.631960 
# 
# From -- ./inp_files/24007.got.cif
#   From: 2010.05.17/outbox.cif.g08.bks.cpg/sg59_13_cif.got.tgz:24007.got - 2010.06.03 14:40:33.
