data_PCOD9448821
_publ_section_title
;
Structure prediction by ZEFSAII (Michael W. Deem and Ramdas Pophale) SiO2 
 PCOD9448821
Probable space group: P M M N
;
_chemical_formula_sum "Si O2"
_cell_formula_units_Z 56
_cell_length_a 17.142849
_cell_length_b 7.650816
_cell_length_c 19.832194
_cell_angle_alpha 90.000000
_cell_angle_beta 90.000000
_cell_angle_gamma 90.000000
_cell_volume 2601.126773
_symmetry_space_group_name_H-M "P M M N"
_symmetry_group_IT_number 59
_space_group.IT_coordinate_system_code '2'
_symmetry_cell_setting 'orthorhombic'
loop_
_space_group_symop_operation_xyz
x,y,z
1/2-x,1/2-y,z
1/2+x,-y,-z
-x,1/2+y,-z
-x,-y,-z
1/2+x,1/2+y,-z
1/2-x,y,z
x,1/2-y,z
loop_
_atom_site_type_symbol
_atom_site_label
_atom_site_fract_x
_atom_site_fract_y
_atom_site_fract_z
Si Si1 0.663324 0.544975 0.148458
Si Si2 0.750000 0.536498 0.929820
Si Si3 0.750000 0.536703 0.773164
Si Si4 0.663565 0.538076 0.399919
Si Si5 0.398606 0.035071 0.313915
Si Si6 0.408014 0.039844 0.988450
Si Si7 0.415797 0.040486 0.467588
Si Si8 0.935825 0.451799 0.273898
O O1 0.750000 0.468018 0.151478
O O2 0.671460 0.750000 0.133441
O O3 0.613400 0.473508 0.086538
O O4 0.620654 0.533734 0.219469
O O5 0.750000 0.750000 0.932184
O O6 0.750000 0.481679 0.851227
O O7 0.667339 0.481502 0.965438
O O8 0.750000 0.750000 0.774249
O O9 0.674964 0.481415 0.730063
O O10 0.750000 0.484670 0.378838
O O11 0.659451 0.750000 0.397693
O O12 0.645390 0.480868 0.475939
O O13 0.600682 0.467185 0.348034
O O14 0.399655 0.250000 0.315531
O O15 0.401427 0.975076 0.391910
O O16 0.477629 0.974342 0.278049
O O17 0.404906 0.250000 0.992383
O O18 0.500000 0.000000 0.000000
O O19 0.409947 0.250000 0.463516
O O20 0.500000 0.000000 0.500000
O O21 0.941684 0.250000 0.254919
#
# Coordination Sequence:
#
# PCOD9448821 Si02
#       8
#     8   4   4   8   8   8   8   8
#     4  10  21  39  59  80 111 152 191 226 271 334
#     4   9  18  36  61  87 116 149 190 232 281 345
#     4   9  18  32  54  81 110 143 178 228 281 323
#     4  10  21  35  53  78 106 145 190 228 271 332
#     4   9  19  33  50  78 111 141 178 227 282 330
#     4  10  21  38  61  89 118 152 191 233 280 338
#     4  10  19  34  54  76 105 140 182 230 276 327
#     4  11  22  35  54  83 113 141 180 235 288 334
#
# _framework density 21.529132000000001
#
# number of rings (size 3 to 8) (size 9 to 14) (size 15 to 20)
#    0.000    2.143    2.143    0.857    3.000    2.857 
#    0.000    0.357    0.000    0.000    0.000    4.000 
#    0.000    0.000    0.000    0.000    0.000    0.000 
#
# Total GULP energy -312444.948953 kJ/mol
# GULP energy per Si atom -5579.374088 kJ/mol
# Density = 2.148013 g / cm^3
# Si number density = 21.529132 Si / 1000 Ang^3
#
#
#
# Elastic Constant Matrix: (Units=GPa)
#
#
# Indices 1 2 3 4 5 6 
#
# 1 185.1543 7.4205 72.7498 0.0000 0.0000 0.0000
# 2 7.4205 36.4788 4.5282 0.0000 0.0000 0.0000
# 3 72.7498 4.5282 135.9939 0.0000 0.0000 0.0000
# 4 0.0000 0.0000 0.0000 2.7741 0.0000 0.0000
# 5 0.0000 0.0000 0.0000 0.0000 36.3044 0.0000
# 6 0.0000 0.0000 0.0000 0.0000 0.0000 16.0494
#
#
#
# Elastic Compliance Matrix: (Units=1/GPa)
#
#
# Indices 1 2 3 4 5 6 
#
# 1 0.006871 -0.000945 -0.003644 0.000000 0.000000 0.000000
# 2 -0.000945 0.027657 -0.000415 0.000000 0.000000 0.000000
# 3 -0.003644 -0.000415 0.009316 0.000000 0.000000 0.000000
# 4 0.000000 0.000000 0.000000 0.360483 0.000000 0.000000
# 5 0.000000 0.000000 0.000000 0.000000 0.027545 0.000000
# 6 0.000000 0.000000 0.000000 0.000000 0.000000 0.062308
#
#
# Mechanical properties :
#
#
# Convention : Reuss Voigt Hill
#
# Bulk Modulus (GPa) = 29.55506 58.55823 44.05665
# Shear Modulus (GPa) = 9.69994 29.22079 19.46037
#
# Velocity S-wave (km/s) = 2.12492 3.68811 3.00977
# Velocity P-wave (km/s) = 4.44726 6.73756 5.70845
#
# Compressibility (1/GPa) = 0.03383515
#
# Stress axis : x y z
#
# Youngs Moduli (GPa) = 145.54923 36.15715 107.33756
#
# Poissons Ratio (x) = 0.03418 0.39113
# Poissons Ratio (y) = 0.13759 0.04457
# Poissons Ratio (z) = 0.53037 0.01501
#
# Static dielectric constant tensor:
#      x y z
#    x 1.796890 0.000000 0.000000 
#    y 0.000000 1.969550 0.000000 
#    z 0.000000 0.000000 1.750180 
# 
# From -- ./inp_files/30517.got.cif
#   From: 2010.05.17/outbox.cif.g08.bks.cpg/sg59_16_cif.got.tgz:30517.got - 2010.06.03 14:40:33.
