data_PCOD9448945
_publ_section_title
;
Structure prediction by ZEFSAII (Michael W. Deem and Ramdas Pophale) SiO2 
 PCOD9448945
Probable space group: P M M N
;
_chemical_formula_sum "Si O2"
_cell_formula_units_Z 48
_cell_length_a 8.718007
_cell_length_b 19.473448
_cell_length_c 15.264097
_cell_angle_alpha 90.000000
_cell_angle_beta 90.000000
_cell_angle_gamma 90.000000
_cell_volume 2591.380497
_symmetry_space_group_name_H-M "P M M N"
_symmetry_group_IT_number 59
_space_group.IT_coordinate_system_code '2'
_symmetry_cell_setting 'orthorhombic'
loop_
_space_group_symop_operation_xyz
x,y,z
1/2-x,1/2-y,z
1/2+x,-y,-z
-x,1/2+y,-z
-x,-y,-z
1/2+x,1/2+y,-z
1/2-x,y,z
x,1/2-y,z
loop_
_atom_site_type_symbol
_atom_site_label
_atom_site_fract_x
_atom_site_fract_y
_atom_site_fract_z
Si Si1 0.933911 0.326898 0.789356
Si Si2 0.566770 0.549572 0.871659
Si Si3 0.932875 0.594025 0.059323
Si Si4 0.066333 0.570127 0.681200
Si Si5 0.435675 0.924950 0.369790
Si Si6 0.936875 0.328554 0.468441
O O1 0.750000 0.331632 0.798490
O O2 0.970921 0.250000 0.759004
O O3 0.980808 0.382815 0.717344
O O4 0.010026 0.343592 0.881912
O O5 0.750000 0.547404 0.862203
O O6 0.509096 0.473795 0.898533
O O7 0.495160 0.571825 0.780065
O O8 0.526451 0.595682 0.956489
O O9 0.750000 0.586944 0.065457
O O10 0.250000 0.567503 0.682955
O O11 0.018441 0.635097 0.622367
O O12 0.005663 0.500461 0.635756
O O13 0.250000 0.930645 0.370899
O O14 0.483861 0.879012 0.452640
O O15 0.750000 0.326597 0.471287
O O16 0.990397 0.250000 0.477561
#
# Coordination Sequence:
#
# PCOD9448945 Si02
#       6
#     8   8   8   8   8   8
#     4  10  20  33  52  80 113 149 185 221 269 332
#     4  10  20  35  55  78 106 141 180 222 270 327
#     4  10  20  34  54  79 107 140 179 226 276 322
#     4  11  21  33  55  85 112 141 182 232 276 319
#     4  10  19  34  57  81 108 145 184 225 273 328
#     4   9  19  36  56  79 109 146 186 226 271 325
#
# _framework density 18.522946000000001
#
# number of rings (size 3 to 8) (size 9 to 14) (size 15 to 20)
#    0.000    2.000    1.667    2.500    0.000    4.333 
#    0.000    1.667    0.000    8.500    0.000    0.000 
#    0.000    0.000    0.000    0.000    0.000    0.000 
#
# Total GULP energy -267915.748471 kJ/mol
# GULP energy per Si atom -5581.578093 kJ/mol
# Density = 1.848079 g / cm^3
# Si number density = 18.522946 Si / 1000 Ang^3
#
#
#
# Elastic Constant Matrix: (Units=GPa)
#
#
# Indices 1 2 3 4 5 6 
#
# 1 20.9282 14.3297 23.8011 0.0000 0.0000 0.0000
# 2 14.3297 54.3213 35.4648 0.0000 0.0000 0.0000
# 3 23.8011 35.4648 129.3230 0.0000 0.0000 0.0000
# 4 0.0000 0.0000 0.0000 20.0894 0.0000 0.0000
# 5 0.0000 0.0000 0.0000 0.0000 19.1362 0.0000
# 6 0.0000 0.0000 0.0000 0.0000 0.0000 22.4728
#
#
#
# Elastic Compliance Matrix: (Units=1/GPa)
#
#
# Indices 1 2 3 4 5 6 
#
# 1 0.065865 -0.011524 -0.008962 0.000000 0.000000 0.000000
# 2 -0.011524 0.024440 -0.004581 0.000000 0.000000 0.000000
# 3 -0.008962 -0.004581 0.010638 0.000000 0.000000 0.000000
# 4 0.000000 0.000000 0.000000 0.049777 0.000000 0.000000
# 5 0.000000 0.000000 0.000000 0.000000 0.052257 0.000000
# 6 0.000000 0.000000 0.000000 0.000000 0.000000 0.044498
#
#
# Mechanical properties :
#
#
# Convention : Reuss Voigt Hill
#
# Bulk Modulus (GPa) = 19.68156 39.08486 29.38321
# Shear Modulus (GPa) = 15.89591 21.07147 18.48369
#
# Velocity S-wave (km/s) = 2.93264 3.37647 3.16235
# Velocity P-wave (km/s) = 4.70274 6.02888 5.40662
#
# Compressibility (1/GPa) = 0.05080899
#
# Stress axis : x y z
#
# Youngs Moduli (GPa) = 15.18261 40.91658 93.99987
#
# Poissons Ratio (x) = 0.47152 0.84241
# Poissons Ratio (y) = 0.17496 0.43065
# Poissons Ratio (z) = 0.13606 0.18745
#
# Static dielectric constant tensor:
#      x y z
#    x 1.627570 0.000000 0.000000 
#    y 0.000000 1.620670 0.000000 
#    z 0.000000 0.000000 1.653230 
# 
# From -- ./inp_files/20328.got.cif
#   From: 2010.05.17/outbox.cif.g08.bks.cpg/sg59_11_cif.got.tgz:20328.got - 2010.06.03 14:40:33.
