data_PCOD9448780
_publ_section_title
;
Structure prediction by ZEFSAII (Michael W. Deem and Ramdas Pophale) SiO2 
 PCOD9448780
Probable space group: P M M N
;
_chemical_formula_sum "Si O2"
_cell_formula_units_Z 48
_cell_length_a 8.649277
_cell_length_b 15.073432
_cell_length_c 18.637551
_cell_angle_alpha 90.000000
_cell_angle_beta 90.000000
_cell_angle_gamma 90.000000
_cell_volume 2429.857455
_symmetry_space_group_name_H-M "P M M N"
_symmetry_group_IT_number 59
_space_group.IT_coordinate_system_code '2'
_symmetry_cell_setting 'orthorhombic'
loop_
_space_group_symop_operation_xyz
x,y,z
1/2-x,1/2-y,z
1/2+x,-y,-z
-x,1/2+y,-z
-x,-y,-z
1/2+x,1/2+y,-z
1/2-x,y,z
x,1/2-y,z
loop_
_atom_site_type_symbol
_atom_site_label
_atom_site_fract_x
_atom_site_fract_y
_atom_site_fract_z
Si Si1 0.934939 0.750000 0.090901
Si Si2 0.431336 0.750000 0.243402
Si Si3 0.935650 0.441267 0.212157
Si Si4 0.063555 0.250000 0.246806
Si Si5 0.434729 0.250000 0.414513
Si Si6 0.934234 0.403637 0.514510
Si Si7 0.434788 0.049177 0.931256
Si Si8 0.936484 0.077172 0.679757
O O1 0.750000 0.750000 0.108113
O O2 0.968935 0.846124 0.057876
O O3 0.040016 0.750000 0.160506
O O4 0.250000 0.750000 0.262453
O O5 0.497072 0.840726 0.273718
O O6 0.750000 0.437365 0.211438
O O7 0.988212 0.502559 0.143874
O O8 0.002019 0.341261 0.211530
O O9 0.990517 0.489377 0.285748
O O10 0.250000 0.250000 0.244003
O O11 0.014184 0.250000 0.331284
O O12 0.250000 0.250000 0.413706
O O13 0.492816 0.165826 0.459769
O O14 0.750000 0.399968 0.506018
O O15 0.969689 0.392621 0.598734
O O16 0.000000 0.500000 0.500000
O O17 0.250000 0.041033 0.929906
O O18 0.500000 0.000000 0.000000
O O19 0.750000 0.066585 0.685387
#
# Coordination Sequence:
#
# PCOD9448780 Si02
#       8
#     4   4   8   4   4   8   8   8
#     4  10  20  40  62  88 124 157 190 239 296 347
#     4  10  19  33  58  88 115 150 194 237 289 354
#     4  11  23  40  63  92 122 156 205 259 306 362
#     4  11  25  43  63  86 119 163 208 257 309 370
#     4  11  24  42  61  86 120 162 212 259 312 373
#     4  11  23  39  59  85 121 161 205 258 312 371
#     4  10  23  41  64  93 128 163 201 248 300 359
#     4  10  21  37  58  87 122 159 201 250 306 368
#
# _framework density 19.754245000000001
#
# number of rings (size 3 to 8) (size 9 to 14) (size 15 to 20)
#    0.000    1.500    1.667    3.000    0.000   10.667 
#    0.000    2.500    0.000    0.000    0.000    0.000 
#    0.000    0.000    0.000    0.000    0.000    0.000 
#
# Total GULP energy -267813.989804 kJ/mol
# GULP energy per Si atom -5579.458121 kJ/mol
# Density = 1.970928 g / cm^3
# Si number density = 19.754245 Si / 1000 Ang^3
#
#
#
# Elastic Constant Matrix: (Units=GPa)
#
#
# Indices 1 2 3 4 5 6 
#
# 1 21.1588 32.1947 28.0945 0.0000 0.0000 0.0000
# 2 32.1947 159.6705 43.4083 0.0000 0.0000 0.0000
# 3 28.0945 43.4083 81.5624 0.0000 0.0000 0.0000
# 4 0.0000 0.0000 0.0000 37.9282 0.0000 0.0000
# 5 0.0000 0.0000 0.0000 0.0000 30.8980 0.0000
# 6 0.0000 0.0000 0.0000 0.0000 0.0000 32.7384
#
#
#
# Elastic Compliance Matrix: (Units=1/GPa)
#
#
# Indices 1 2 3 4 5 6 
#
# 1 0.107474 -0.013569 -0.029798 0.000000 0.000000 0.000000
# 2 -0.013569 0.009036 -0.000135 0.000000 0.000000 0.000000
# 3 -0.029798 -0.000135 0.022596 0.000000 0.000000 0.000000
# 4 0.000000 0.000000 0.000000 0.026366 0.000000 0.000000
# 5 0.000000 0.000000 0.000000 0.000000 0.032365 0.000000
# 6 0.000000 0.000000 0.000000 0.000000 0.000000 0.030545
#
#
# Mechanical properties :
#
#
# Convention : Reuss Voigt Hill
#
# Bulk Modulus (GPa) = 19.19330 52.19854 35.69592
# Shear Modulus (GPa) = 15.02616 30.89254 22.95935
#
# Velocity S-wave (km/s) = 2.76099 3.95884 3.41288
# Velocity P-wave (km/s) = 4.46108 6.88316 5.79996
#
# Compressibility (1/GPa) = 0.05210150
#
# Stress axis : x y z
#
# Youngs Moduli (GPa) = 9.30457 110.67398 44.25478
#
# Poissons Ratio (x) = 1.50176 1.31871
# Poissons Ratio (y) = 0.12626 0.00597
# Poissons Ratio (z) = 0.27726 0.01492
#
# Static dielectric constant tensor:
#      x y z
#    x 1.673760 0.000000 0.000000 
#    y 0.000000 1.700860 0.000000 
#    z 0.000000 0.000000 1.803260 
# 
# From -- ./inp_files/25680.got.cif
#   From: 2010.05.17/outbox.cif.g08.bks.cpg/sg59_13_cif.got.tgz:25680.got - 2010.06.03 14:40:33.
