data_PCOD9448332
_publ_section_title
;
Structure prediction by ZEFSAII (Michael W. Deem and Ramdas Pophale) SiO2 
 PCOD9448332
Probable space group: P M M N
;
_chemical_formula_sum "Si O2"
_cell_formula_units_Z 56
_cell_length_a 14.931218
_cell_length_b 9.529188
_cell_length_c 22.122405
_cell_angle_alpha 90.000000
_cell_angle_beta 90.000000
_cell_angle_gamma 90.000000
_cell_volume 3147.628510
_symmetry_space_group_name_H-M "P M M N"
_symmetry_group_IT_number 59
_space_group.IT_coordinate_system_code '2'
_symmetry_cell_setting 'orthorhombic'
loop_
_space_group_symop_operation_xyz
x,y,z
1/2-x,1/2-y,z
1/2+x,-y,-z
-x,1/2+y,-z
-x,-y,-z
1/2+x,1/2+y,-z
1/2-x,y,z
x,1/2-y,z
loop_
_atom_site_type_symbol
_atom_site_label
_atom_site_fract_x
_atom_site_fract_y
_atom_site_fract_z
Si Si1 0.853974 0.913082 0.694684
Si Si2 0.351401 0.087101 0.675681
Si Si3 0.985228 0.582045 0.089765
Si Si4 0.609422 0.089180 0.443263
Si Si5 0.355291 0.918086 0.998416
Si Si6 0.892692 0.911273 0.558325
Si Si7 0.005313 0.581994 0.229505
O O1 0.750000 0.918494 0.710547
O O2 0.883988 0.750000 0.695955
O O3 0.865061 0.960630 0.625000
O O4 0.911949 0.004222 0.739888
O O5 0.250000 0.077555 0.698267
O O6 0.368722 0.250000 0.658386
O O7 0.420518 0.048518 0.728061
O O8 0.361813 0.991888 0.616786
O O9 0.969352 0.750000 0.085531
O O10 0.990530 0.542088 0.159968
O O11 0.906310 0.500340 0.055057
O O12 0.080484 0.553747 0.056419
O O13 0.639337 0.250000 0.443132
O O14 0.500862 0.089018 0.443106
O O15 0.638966 0.007524 0.503421
O O16 0.250000 0.956267 0.005405
O O17 0.358650 0.750000 0.987684
O O18 0.862166 0.750000 0.550539
O O19 0.018781 0.750000 0.231058
#
# Coordination Sequence:
#
# PCOD9448332 Si02
#       7
#     8   8   8   8   8   8   8
#     4  10  21  37  56  78 106 142 181 220 268 325
#     4  10  21  36  53  74 103 140 179 220 271 327
#     4   9  19  35  56  83 112 146 182 221 266 312
#     4  10  19  32  53  78 102 132 174 224 274 324
#     4   9  18  34  56  83 115 147 180 219 263 313
#     4   9  18  33  52  75 104 137 172 216 272 328
#     4  10  21  37  57  80 109 143 181 223 265 311
#
# _framework density 17.791170999999999
#
# number of rings (size 3 to 8) (size 9 to 14) (size 15 to 20)
#    0.000    2.429    1.429    0.429    0.000    4.286 
#    0.000    4.286    0.000    0.000    0.000    0.000 
#    0.000    0.000    0.000    0.000    0.000    0.000 
#
# Total GULP energy -312424.499002 kJ/mol
# GULP energy per Si atom -5579.008911 kJ/mol
# Density = 1.775068 g / cm^3
# Si number density = 17.791171 Si / 1000 Ang^3
#
#
#
# Elastic Constant Matrix: (Units=GPa)
#
#
# Indices 1 2 3 4 5 6 
#
# 1 97.0158 36.5577 47.6168 0.0000 0.0000 0.0000
# 2 36.5577 45.3174 56.0307 0.0000 0.0000 0.0000
# 3 47.6168 56.0307 140.1819 0.0000 0.0000 0.0000
# 4 0.0000 0.0000 0.0000 21.6514 0.0000 0.0000
# 5 0.0000 0.0000 0.0000 0.0000 -64.4060 0.0000
# 6 0.0000 0.0000 0.0000 0.0000 0.0000 18.9919
#
#
#
# Elastic Compliance Matrix: (Units=1/GPa)
#
#
# Indices 1 2 3 4 5 6 
#
# 1 0.014827 -0.011337 -0.000505 0.000000 0.000000 0.000000
# 2 -0.011337 0.052294 -0.017051 0.000000 0.000000 0.000000
# 3 -0.000505 -0.017051 0.014121 0.000000 0.000000 0.000000
# 4 0.000000 0.000000 0.000000 0.046186 0.000000 0.000000
# 5 0.000000 0.000000 0.000000 0.000000 -0.015527 0.000000
# 6 0.000000 0.000000 0.000000 0.000000 0.000000 0.052654
#
#
# Mechanical properties :
#
#
# Convention : Reuss Voigt Hill
#
# Bulk Modulus (GPa) = 42.63307 62.54727 52.59017
# Shear Modulus (GPa) = 21.72395 4.73479 13.22937
#
# Velocity S-wave (km/s) = 3.49815 1.63312 2.72985
# Velocity P-wave (km/s) = 6.35068 6.22807 6.28967
#
# Compressibility (1/GPa) = 0.02345597
#
# Stress axis : x y z
#
# Youngs Moduli (GPa) = 67.44226 19.12266 70.81855
#
# Poissons Ratio (x) = 0.21679 0.03579
# Poissons Ratio (y) = 0.76456 1.20754
# Poissons Ratio (z) = 0.03408 0.32606
#
# Static dielectric constant tensor:
#      x y z
#    x 1.617520 0.000000 0.000000 
#    y 0.000000 1.601260 0.000000 
#    z 0.000000 0.000000 1.576730 
# 
# From -- ./inp_files/29028.got.cif
#   From: 2010.05.17/outbox.cif.g08.bks.cpg/sg59_15_cif.got.tgz:29028.got - 2010.06.03 14:40:33.
