data_PCOD9448096
_publ_section_title
;
Structure prediction by ZEFSAII (Michael W. Deem and Ramdas Pophale) SiO2 
 PCOD9448096
Probable space group: P M M N
;
_chemical_formula_sum "Si O2"
_cell_formula_units_Z 64
_cell_length_a 24.031206
_cell_length_b 8.041704
_cell_length_c 19.834408
_cell_angle_alpha 90.000000
_cell_angle_beta 90.000000
_cell_angle_gamma 90.000000
_cell_volume 3833.035949
_symmetry_space_group_name_H-M "P M M N"
_symmetry_group_IT_number 59
_space_group.IT_coordinate_system_code '2'
_symmetry_cell_setting 'orthorhombic'
loop_
_space_group_symop_operation_xyz
x,y,z
1/2-x,1/2-y,z
1/2+x,-y,-z
-x,1/2+y,-z
-x,-y,-z
1/2+x,1/2+y,-z
1/2-x,y,z
x,1/2-y,z
loop_
_atom_site_type_symbol
_atom_site_label
_atom_site_fract_x
_atom_site_fract_y
_atom_site_fract_z
Si Si1 0.312152 0.447934 0.111500
Si Si2 0.911347 0.052715 0.525512
Si Si3 0.525191 0.950194 0.104757
Si Si4 0.813426 0.946586 0.616139
Si Si5 0.129106 0.945582 0.246702
Si Si6 0.500574 0.046500 0.749015
Si Si7 0.023962 0.048791 0.601176
Si Si8 0.085747 0.451653 0.025866
O O1 0.250000 0.518289 0.106576
O O2 0.308682 0.250000 0.100389
O O3 0.337007 0.473319 0.185952
O O4 0.356911 0.514227 0.057756
O O5 0.907854 0.250000 0.534422
O O6 0.964372 0.992843 0.570118
O O7 0.854500 0.978413 0.553672
O O8 0.928288 0.012561 0.449026
O O9 0.528799 0.750000 0.106514
O O10 0.527927 0.010159 0.181647
O O11 0.464947 0.995732 0.074325
O O12 0.569749 0.010008 0.049369
O O13 0.750000 0.005227 0.605652
O O14 0.811799 0.750000 0.628900
O O15 0.840914 0.028060 0.682042
O O16 0.126706 0.750000 0.232052
O O17 0.065352 0.006543 0.250162
O O18 0.500604 0.250000 0.748657
O O19 0.473306 0.993735 0.678615
O O20 0.024157 0.250000 0.599256
O O21 0.086754 0.250000 0.025175
#
# Coordination Sequence:
#
# PCOD9448096 Si02
#       8
#     8   8   8   8   8   8   8   8
#     4  10  20  32  43  60  91 127 159 190 227 273
#     4  10  19  32  49  71  94 120 157 195 231 274
#     4   9  16  28  46  65  88 115 149 191 234 276
#     4  11  23  36  49  67  94 129 163 193 230 273
#     4  11  20  32  47  67  93 123 162 197 225 266
#     4   9  16  28  46  68  92 120 150 186 232 280
#     4   9  17  31  48  67  93 122 152 188 237 285
#     4   9  17  28  43  64  86 116 154 191 232 273
#
# _framework density 16.696947999999999
#
# number of rings (size 3 to 8) (size 9 to 14) (size 15 to 20)
#    0.000    2.250    2.500    1.500    0.000    3.250 
#    0.000    0.625    0.000    0.000    0.000    0.875 
#    0.000    5.000    0.000    0.000    0.000    0.125 
#
# Total GULP energy -356907.487574 kJ/mol
# GULP energy per Si atom -5576.679493 kJ/mol
# Density = 1.665895 g / cm^3
# Si number density = 16.696948 Si / 1000 Ang^3
#
#
#
# Elastic Constant Matrix: (Units=GPa)
#
#
# Indices 1 2 3 4 5 6 
#
# 1 81.7896 -2.8324 55.2118 0.0000 0.0000 0.0000
# 2 -2.8324 9.5727 -3.6579 0.0000 0.0000 0.0000
# 3 55.2118 -3.6579 137.3370 0.0000 0.0000 0.0000
# 4 0.0000 0.0000 0.0000 10.5190 0.0000 0.0000
# 5 0.0000 0.0000 0.0000 0.0000 15.9215 0.0000
# 6 0.0000 0.0000 0.0000 0.0000 0.0000 14.5961
#
#
#
# Elastic Compliance Matrix: (Units=1/GPa)
#
#
# Indices 1 2 3 4 5 6 
#
# 1 0.016836 0.002420 -0.006704 0.000000 0.000000 0.000000
# 2 0.002420 0.105885 0.001847 0.000000 0.000000 0.000000
# 3 -0.006704 0.001847 0.010026 0.000000 0.000000 0.000000
# 4 0.000000 0.000000 0.000000 0.095066 0.000000 0.000000
# 5 0.000000 0.000000 0.000000 0.000000 0.062808 0.000000
# 6 0.000000 0.000000 0.000000 0.000000 0.000000 0.068512
#
#
# Mechanical properties :
#
#
# Convention : Reuss Voigt Hill
#
# Bulk Modulus (GPa) = 7.82023 36.23804 22.02913
# Shear Modulus (GPa) = 12.29618 20.20583 16.25101
#
# Velocity S-wave (km/s) = 2.71667 3.48250 3.12315
# Velocity P-wave (km/s) = 3.81238 6.15799 5.12128
#
# Compressibility (1/GPa) = 0.12787354
#
# Stress axis : x y z
#
# Youngs Moduli (GPa) = 59.39785 9.44416 99.74482
#
# Poissons Ratio (x) = -0.02285 0.66866
# Poissons Ratio (y) = -0.14373 -0.18427
# Poissons Ratio (z) = 0.39819 -0.01745
#
# Static dielectric constant tensor:
#      x y z
#    x 1.556000 0.000000 0.000000 
#    y 0.000000 1.590800 0.000000 
#    z 0.000000 0.000000 1.573070 
# 
# From -- ./inp_files/30910.got.cif
#   From: 2010.05.17/outbox.cif.g08.bks.cpg/sg59_16_cif.got.tgz:30910.got - 2010.06.03 14:40:33.
