data_PCOD9448151
_publ_section_title
;
Structure prediction by ZEFSAII (Michael W. Deem and Ramdas Pophale) SiO2 
 PCOD9448151
Probable space group: P M M N
;
_chemical_formula_sum "Si O2"
_cell_formula_units_Z 48
_cell_length_a 16.858417
_cell_length_b 8.894032
_cell_length_c 18.828179
_cell_angle_alpha 90.000000
_cell_angle_beta 90.000000
_cell_angle_gamma 90.000000
_cell_volume 2823.083985
_symmetry_space_group_name_H-M "P M M N"
_symmetry_group_IT_number 59
_space_group.IT_coordinate_system_code '2'
_symmetry_cell_setting 'orthorhombic'
loop_
_space_group_symop_operation_xyz
x,y,z
1/2-x,1/2-y,z
1/2+x,-y,-z
-x,1/2+y,-z
-x,-y,-z
1/2+x,1/2+y,-z
1/2-x,y,z
x,1/2-y,z
loop_
_atom_site_type_symbol
_atom_site_label
_atom_site_fract_x
_atom_site_fract_y
_atom_site_fract_z
Si Si1 0.485128 0.931608 0.923051
Si Si2 0.337386 0.930218 0.335912
Si Si3 0.341140 0.429331 0.835407
Si Si4 0.006385 0.931076 0.422154
Si Si5 0.917245 0.422872 0.296485
Si Si6 0.082980 0.421613 0.208641
O O1 0.482261 0.750000 0.924712
O O2 0.556699 0.975007 0.869120
O O3 0.404115 0.993346 0.888056
O O4 0.500000 0.000000 0.000000
O O5 0.250000 0.985483 0.356718
O O6 0.337041 0.750000 0.337581
O O7 0.409172 0.978426 0.387140
O O8 0.358162 0.982050 0.256228
O O9 0.250000 0.459595 0.855273
O O10 0.354340 0.250000 0.835835
O O11 0.357839 0.492230 0.756260
O O12 0.003027 0.750000 0.424247
O O13 0.938487 0.993923 0.369517
O O14 0.000000 0.000000 0.500000
O O15 0.893372 0.250000 0.308476
O O16 0.000000 0.420880 0.252292
O O17 0.111704 0.250000 0.204384
#
# Coordination Sequence:
#
# PCOD9448151 Si02
#       6
#     8   8   8   8   8   8
#     4  10  20  34  53  76 103 135 171 209 251 303
#     4   9  18  32  50  72  96 124 161 204 248 293
#     4  10  20  34  53  77 104 133 168 212 258 303
#     4  10  19  32  51  73 100 133 168 208 252 303
#     4   9  17  31  51  73  97 127 165 204 244 297
#     4   8  16  30  48  71  95 122 158 197 238 287
#
# _framework density 17.002683000000001
#
# number of rings (size 3 to 8) (size 9 to 14) (size 15 to 20)
#    0.000    2.667    0.000    3.000    0.000    7.000 
#    0.000    1.667    0.000    4.000    0.000    0.000 
#    0.000    0.000    0.000    0.000    0.000    0.000 
#
# Total GULP energy -267438.713971 kJ/mol
# GULP energy per Si atom -5571.639874 kJ/mol
# Density = 1.696398 g / cm^3
# Si number density = 17.002683 Si / 1000 Ang^3
#
#
#
# Elastic Constant Matrix: (Units=GPa)
#
#
# Indices 1 2 3 4 5 6 
#
# 1 76.8262 34.2712 44.2166 0.0000 0.0000 0.0000
# 2 34.2712 59.3503 45.8733 0.0000 0.0000 0.0000
# 3 44.2166 45.8733 149.5758 0.0000 0.0000 0.0000
# 4 0.0000 0.0000 0.0000 33.6214 0.0000 0.0000
# 5 0.0000 0.0000 0.0000 0.0000 15.4569 0.0000
# 6 0.0000 0.0000 0.0000 0.0000 0.0000 19.4216
#
#
#
# Elastic Compliance Matrix: (Units=1/GPa)
#
#
# Indices 1 2 3 4 5 6 
#
# 1 0.018422 -0.008426 -0.002862 0.000000 0.000000 0.000000
# 2 -0.008426 0.025938 -0.005464 0.000000 0.000000 0.000000
# 3 -0.002862 -0.005464 0.009207 0.000000 0.000000 0.000000
# 4 0.000000 0.000000 0.000000 0.029743 0.000000 0.000000
# 5 0.000000 0.000000 0.000000 0.000000 0.064696 0.000000
# 6 0.000000 0.000000 0.000000 0.000000 0.000000 0.051489
#
#
# Mechanical properties :
#
#
# Convention : Reuss Voigt Hill
#
# Bulk Modulus (GPa) = 49.84030 59.38605 54.61318
# Shear Modulus (GPa) = 20.86062 24.45941 22.66002
#
# Velocity S-wave (km/s) = 3.50652 3.79695 3.65462
# Velocity P-wave (km/s) = 6.76543 7.36381 7.07095
#
# Compressibility (1/GPa) = 0.02006408
#
# Stress axis : x y z
#
# Youngs Moduli (GPa) = 54.28280 38.55375 108.60939
#
# Poissons Ratio (x) = 0.32484 0.31081
# Poissons Ratio (y) = 0.45737 0.59345
# Poissons Ratio (z) = 0.15534 0.21066
#
# Static dielectric constant tensor:
#      x y z
#    x 1.584800 0.000000 0.000000 
#    y 0.000000 1.576440 0.000000 
#    z 0.000000 0.000000 1.564540 
# 
# From -- ./inp_files/25717.got.cif
#   From: 2010.05.17/outbox.cif.g08.bks.cpg/sg59_13_cif.got.tgz:25717.got - 2010.06.03 14:40:33.
