data_PCOD9448697
_publ_section_title
;
Structure prediction by ZEFSAII (Michael W. Deem and Ramdas Pophale) SiO2 
 PCOD9448697
Probable space group: P M M N
;
_chemical_formula_sum "Si O2"
_cell_formula_units_Z 64
_cell_length_a 19.689171
_cell_length_b 8.912714
_cell_length_c 20.523323
_cell_angle_alpha 90.000000
_cell_angle_beta 90.000000
_cell_angle_gamma 90.000000
_cell_volume 3601.513788
_symmetry_space_group_name_H-M "P M M N"
_symmetry_group_IT_number 59
_space_group.IT_coordinate_system_code '2'
_symmetry_cell_setting 'orthorhombic'
loop_
_space_group_symop_operation_xyz
x,y,z
1/2-x,1/2-y,z
1/2+x,-y,-z
-x,1/2+y,-z
-x,-y,-z
1/2+x,1/2+y,-z
1/2-x,y,z
x,1/2-y,z
loop_
_atom_site_type_symbol
_atom_site_label
_atom_site_fract_x
_atom_site_fract_y
_atom_site_fract_z
Si Si1 0.669589 0.070441 0.890101
Si Si2 0.419588 0.069298 0.224673
Si Si3 0.599077 0.071324 0.537426
Si Si4 0.332380 0.077570 0.972911
Si Si5 0.673500 0.570222 0.653554
Si Si6 0.562675 0.930437 0.259322
Si Si7 0.330786 0.928622 0.836665
Si Si8 0.051262 0.070156 0.589855
O O1 0.750000 0.034575 0.880303
O O2 0.662568 0.250000 0.887596
O O3 0.623831 0.992964 0.835496
O O4 0.648936 0.009436 0.961315
O O5 0.423107 0.250000 0.221667
O O6 0.379385 0.024871 0.290609
O O7 0.494250 0.999511 0.228920
O O8 0.603805 0.250000 0.535196
O O9 0.526235 0.030215 0.570241
O O10 0.654969 0.004031 0.585163
O O11 0.597920 0.005512 0.464821
O O12 0.250000 0.079294 0.972038
O O13 0.355876 0.250000 0.974241
O O14 0.353193 0.995337 0.906552
O O15 0.750000 0.531152 0.673897
O O16 0.669321 0.750000 0.646683
O O17 0.559996 0.750000 0.255649
O O18 0.565263 0.973639 0.335794
O O19 0.626475 0.992968 0.219783
O O20 0.250000 0.956812 0.829385
O O21 0.341353 0.750000 0.835857
O O22 0.057483 0.250000 0.584673
#
# Coordination Sequence:
#
# PCOD9448697 Si02
#       8
#     8   8   8   8   8   8   8   8
#     4  10  20  34  54  81 114 152 192 235 280 325
#     4  11  22  36  55  80 113 151 192 233 278 332
#     4  10  19  33  55  81 106 137 183 230 272 321
#     4   9  17  32  56  83 110 144 187 230 275 332
#     4  10  21  36  54  78 112 152 190 230 278 330
#     4  11  22  38  59  84 114 146 185 229 279 337
#     4  10  21  38  60  86 114 143 180 227 280 337
#     4   9  19  35  55  79 108 141 179 223 273 329
#
# _framework density 17.770305
#
# number of rings (size 3 to 8) (size 9 to 14) (size 15 to 20)
#    0.000    2.000    1.250    2.625    0.000    5.750 
#    0.000    1.250    0.000    0.750    0.000    0.000 
#    0.000    0.000    0.000    0.000    0.000    0.000 
#
# Total GULP energy -357274.154732 kJ/mol
# GULP energy per Si atom -5582.408668 kJ/mol
# Density = 1.772986 g / cm^3
# Si number density = 17.770305 Si / 1000 Ang^3
#
#
#
# Elastic Constant Matrix: (Units=GPa)
#
#
# Indices 1 2 3 4 5 6 
#
# 1 55.8209 38.8387 47.8695 0.0000 0.0000 0.0000
# 2 38.8387 62.2123 54.5319 0.0000 0.0000 0.0000
# 3 47.8695 54.5319 147.4045 0.0000 0.0000 0.0000
# 4 0.0000 0.0000 0.0000 31.5143 0.0000 0.0000
# 5 0.0000 0.0000 0.0000 0.0000 26.7556 0.0000
# 6 0.0000 0.0000 0.0000 0.0000 0.0000 25.2009
#
#
#
# Elastic Compliance Matrix: (Units=1/GPa)
#
#
# Indices 1 2 3 4 5 6 
#
# 1 0.033721 -0.016949 -0.004681 0.000000 0.000000 0.000000
# 2 -0.016949 0.032307 -0.006448 0.000000 0.000000 0.000000
# 3 -0.004681 -0.006448 0.010689 0.000000 0.000000 0.000000
# 4 0.000000 0.000000 0.000000 0.031732 0.000000 0.000000
# 5 0.000000 0.000000 0.000000 0.000000 0.037375 0.000000
# 6 0.000000 0.000000 0.000000 0.000000 0.000000 0.039681
#
#
# Mechanical properties :
#
#
# Convention : Reuss Voigt Hill
#
# Bulk Modulus (GPa) = 48.63196 60.87980 54.75588
# Shear Modulus (GPa) = 20.11958 24.97398 22.54678
#
# Velocity S-wave (km/s) = 3.36847 3.75290 3.56587
# Velocity P-wave (km/s) = 6.52343 7.28785 6.91621
#
# Compressibility (1/GPa) = 0.02056261
#
# Stress axis : x y z
#
# Youngs Moduli (GPa) = 29.65511 30.95321 93.55086
#
# Poissons Ratio (x) = 0.52463 0.43788
# Poissons Ratio (y) = 0.50263 0.60318
# Poissons Ratio (z) = 0.13880 0.19958
#
# Static dielectric constant tensor:
#      x y z
#    x 1.594290 0.000000 0.000000 
#    y 0.000000 1.589610 0.000000 
#    z 0.000000 0.000000 1.591780 
# 
# From -- ./inp_files/28194.got.cif
#   From: 2010.05.17/outbox.cif.g08.bks.cpg/sg59_15_cif.got.tgz:28194.got - 2010.06.03 14:40:33.
