data_PCOD9448236
_publ_section_title
;
Structure prediction by ZEFSAII (Michael W. Deem and Ramdas Pophale) SiO2 
 PCOD9448236
Probable space group: P M M N
;
_chemical_formula_sum "Si O2"
_cell_formula_units_Z 48
_cell_length_a 14.775451
_cell_length_b 9.532413
_cell_length_c 18.593265
_cell_angle_alpha 90.000000
_cell_angle_beta 90.000000
_cell_angle_gamma 90.000000
_cell_volume 2618.781446
_symmetry_space_group_name_H-M "P M M N"
_symmetry_group_IT_number 59
_space_group.IT_coordinate_system_code '2'
_symmetry_cell_setting 'orthorhombic'
loop_
_space_group_symop_operation_xyz
x,y,z
1/2-x,1/2-y,z
1/2+x,-y,-z
-x,1/2+y,-z
-x,-y,-z
1/2+x,1/2+y,-z
1/2-x,y,z
x,1/2-y,z
loop_
_atom_site_type_symbol
_atom_site_label
_atom_site_fract_x
_atom_site_fract_y
_atom_site_fract_z
Si Si1 0.040511 0.902283 0.612429
Si Si2 0.857487 0.584976 0.987894
Si Si3 0.750000 0.409376 0.571767
Si Si4 0.750000 0.085673 0.744367
Si Si5 0.108655 0.404746 0.508324
Si Si6 0.934088 0.916526 0.760469
Si Si7 0.004101 0.915834 0.110740
O O1 0.085568 0.750000 0.624426
O O2 0.981891 0.888931 0.539424
O O3 0.976058 0.928864 0.680453
O O4 0.100400 0.033278 0.588549
O O5 0.750000 0.554588 0.992695
O O6 0.866627 0.750000 0.966040
O O7 0.912013 0.483809 0.933786
O O8 0.913473 0.570729 0.062435
O O9 0.750000 0.250000 0.548130
O O10 0.750000 0.414380 0.657562
O O11 0.665667 0.488512 0.538772
O O12 0.750000 0.250000 0.767851
O O13 0.839417 0.000005 0.766517
O O14 0.148610 0.250000 0.510555
O O15 0.922423 0.750000 0.774753
O O16 0.999636 0.992783 0.817048
O O17 0.019148 0.750000 0.124073
#
# Coordination Sequence:
#
# PCOD9448236 Si02
#       7
#     8   8   4   4   8   8   8
#     4   9  19  34  51  73 100 136 177 218 268 325
#     4   9  19  38  62  85 113 152 191 229 278 332
#     4  11  21  33  51  75 105 136 173 226 281 333
#     4  11  23  35  51  79 111 144 183 228 281 333
#     4  10  19  32  52  74  99 133 178 223 267 321
#     4  11  22  37  56  78 112 150 182 222 279 341
#     4  10  21  36  57  88 119 147 188 236 278 331
#
# _framework density 18.329135999999998
#
# number of rings (size 3 to 8) (size 9 to 14) (size 15 to 20)
#    0.000    2.000    1.667    2.000    1.167    3.667 
#    0.000    0.000    1.833    0.000    0.000    0.000 
#    0.000    0.000    0.000    0.000    0.000    0.000 
#
# Total GULP energy -267319.538150 kJ/mol
# GULP energy per Si atom -5569.157045 kJ/mol
# Density = 1.828742 g / cm^3
# Si number density = 18.329136 Si / 1000 Ang^3
#
#
#
# Elastic Constant Matrix: (Units=GPa)
#
#
# Indices 1 2 3 4 5 6 
#
# 1 51.1296 26.2659 12.1570 0.0000 0.0000 0.0000
# 2 26.2659 139.7451 42.5972 0.0000 0.0000 0.0000
# 3 12.1570 42.5972 72.0287 0.0000 0.0000 0.0000
# 4 0.0000 0.0000 0.0000 26.2955 0.0000 0.0000
# 5 0.0000 0.0000 0.0000 0.0000 14.8630 0.0000
# 6 0.0000 0.0000 0.0000 0.0000 0.0000 32.3721
#
#
#
# Elastic Compliance Matrix: (Units=1/GPa)
#
#
# Indices 1 2 3 4 5 6 
#
# 1 0.021786 -0.003628 -0.001531 0.000000 0.000000 0.000000
# 2 -0.003628 0.009334 -0.004908 0.000000 0.000000 0.000000
# 3 -0.001531 -0.004908 0.017044 0.000000 0.000000 0.000000
# 4 0.000000 0.000000 0.000000 0.038029 0.000000 0.000000
# 5 0.000000 0.000000 0.000000 0.000000 0.067281 0.000000
# 6 0.000000 0.000000 0.000000 0.000000 0.000000 0.030891
#
#
# Mechanical properties :
#
#
# Convention : Reuss Voigt Hill
#
# Bulk Modulus (GPa) = 35.67626 47.21593 41.44609
# Shear Modulus (GPa) = 23.38169 26.83166 25.10667
#
# Velocity S-wave (km/s) = 3.57551 3.83022 3.70505
# Velocity P-wave (km/s) = 6.04584 6.73623 6.40035
#
# Compressibility (1/GPa) = 0.02802984
#
# Stress axis : x y z
#
# Youngs Moduli (GPa) = 45.90099 107.13860 58.67124
#
# Poissons Ratio (x) = 0.38870 0.08985
# Poissons Ratio (y) = 0.16653 0.28793
# Poissons Ratio (z) = 0.07030 0.52579
#
# Static dielectric constant tensor:
#      x y z
#    x 1.617460 0.000000 0.000000 
#    y 0.000000 1.712070 0.000000 
#    z 0.000000 0.000000 1.626400 
# 
# From -- ./inp_files/27438.got.cif
#   From: 2010.05.17/outbox.cif.g08.bks.cpg/sg59_14_cif.got.tgz:27438.got - 2010.06.03 14:40:33.
