data_PCOD9448751
_publ_section_title
;
Structure prediction by ZEFSAII (Michael W. Deem and Ramdas Pophale) SiO2 
 PCOD9448751
Probable space group: P M M N
;
_chemical_formula_sum "Si O2"
_cell_formula_units_Z 64
_cell_length_a 15.141914
_cell_length_b 25.329066
_cell_length_c 9.152562
_cell_angle_alpha 90.000000
_cell_angle_beta 90.000000
_cell_angle_gamma 90.000000
_cell_volume 3510.287038
_symmetry_space_group_name_H-M "P M M N"
_symmetry_group_IT_number 59
_space_group.IT_coordinate_system_code '2'
_symmetry_cell_setting 'orthorhombic'
loop_
_space_group_symop_operation_xyz
x,y,z
1/2-x,1/2-y,z
1/2+x,-y,-z
-x,1/2+y,-z
-x,-y,-z
1/2+x,1/2+y,-z
1/2-x,y,z
x,1/2-y,z
loop_
_atom_site_type_symbol
_atom_site_label
_atom_site_fract_x
_atom_site_fract_y
_atom_site_fract_z
Si Si1 0.393437 0.139864 0.159909
Si Si2 0.849828 0.691180 0.547920
Si Si3 0.961778 0.509876 0.222457
Si Si4 0.984060 0.618163 0.378266
Si Si5 0.651500 0.309047 0.136858
Si Si6 0.146814 0.022814 0.077883
Si Si7 0.927650 0.105917 0.328263
Si Si8 0.495734 0.311122 0.904546
O O1 0.348244 0.176055 0.280970
O O2 0.349272 0.083994 0.125977
O O3 0.484661 0.124901 0.241713
O O4 0.416570 0.169313 0.009749
O O5 0.750000 0.691438 0.493208
O O6 0.888422 0.750000 0.532080
O O7 0.905135 0.648590 0.459404
O O8 0.925639 0.456105 0.294172
O O9 0.957943 0.559497 0.329619
O O10 0.066066 0.503006 0.174470
O O11 0.898741 0.519992 0.082271
O O12 0.060290 0.615200 0.500150
O O13 0.005540 0.651327 0.233976
O O14 0.750000 0.309618 0.076625
O O15 0.634673 0.250000 0.200941
O O16 0.642980 0.355563 0.254694
O O17 0.581765 0.315847 0.007221
O O18 0.250000 0.002674 0.082586
O O19 0.483818 0.250000 0.863205
#
# Coordination Sequence:
#
# PCOD9448751 Si02
#       8
#     8   8   8   8   8   8   8   8
#     4   9  17  35  56  81 109 140 190 234 279 344
#     4  10  21  36  55  81 114 153 194 235 283 343
#     4  10  21  38  55  84 118 149 196 238 285 349
#     4  11  21  37  56  79 117 152 189 234 288 346
#     4   9  19  37  59  83 112 146 191 244 290 339
#     4  10  20  35  59  85 113 148 188 241 296 341
#     4   9  20  35  58  79 108 152 189 230 280 346
#     4  10  19  33  56  83 110 147 189 233 292 348
#
# _framework density 18.232127999999999
#
# number of rings (size 3 to 8) (size 9 to 14) (size 15 to 20)
#    0.000    2.250    1.250    1.500    1.750    4.500 
#    0.000    1.250    0.000    5.250    0.000    0.000 
#    0.000    0.000    0.000    0.000    0.000    0.000 
#
# Total GULP energy -356407.951785 kJ/mol
# GULP energy per Si atom -5568.874247 kJ/mol
# Density = 1.819063 g / cm^3
# Si number density = 18.232128 Si / 1000 Ang^3
#
#
#
# Elastic Constant Matrix: (Units=GPa)
#
#
# Indices 1 2 3 4 5 6 
#
# 1 81.2032 32.5235 18.7546 0.0000 0.0000 0.0000
# 2 32.5235 98.2246 48.3157 0.0000 0.0000 0.0000
# 3 18.7546 48.3157 88.3364 0.0000 0.0000 0.0000
# 4 0.0000 0.0000 0.0000 29.3170 0.0000 0.0000
# 5 0.0000 0.0000 0.0000 0.0000 9.2991 0.0000
# 6 0.0000 0.0000 0.0000 0.0000 0.0000 31.6026
#
#
#
# Elastic Compliance Matrix: (Units=1/GPa)
#
#
# Indices 1 2 3 4 5 6 
#
# 1 0.014221 -0.004410 -0.000607 0.000000 0.000000 0.000000
# 2 -0.004410 0.015296 -0.007430 0.000000 0.000000 0.000000
# 3 -0.000607 -0.007430 0.015513 0.000000 0.000000 0.000000
# 4 0.000000 0.000000 0.000000 0.034110 0.000000 0.000000
# 5 0.000000 0.000000 0.000000 0.000000 0.107537 0.000000
# 6 0.000000 0.000000 0.000000 0.000000 0.000000 0.031643
#
#
# Mechanical properties :
#
#
# Convention : Reuss Voigt Hill
#
# Bulk Modulus (GPa) = 49.66254 51.88353 50.77304
# Shear Modulus (GPa) = 20.00595 25.25510 22.63053
#
# Velocity S-wave (km/s) = 3.31613 3.72586 3.52695
# Velocity P-wave (km/s) = 6.47769 6.85772 6.67041
#
# Compressibility (1/GPa) = 0.02013590
#
# Stress axis : x y z
#
# Youngs Moduli (GPa) = 70.31653 65.37827 64.46251
#
# Poissons Ratio (x) = 0.28833 0.03914
# Poissons Ratio (y) = 0.31011 0.47893
# Poissons Ratio (z) = 0.04269 0.48574
#
# Static dielectric constant tensor:
#      x y z
#    x 1.653200 0.000000 0.000000 
#    y 0.000000 1.646360 0.000000 
#    z 0.000000 0.000000 1.616100 
# 
# From -- ./inp_files/9551.got.cif
#   From: 2010.05.17/outbox.cif.g08.bks.cpg/sg59_5_cif.got.tgz:9551.got - 2010.06.03 14:40:33.
