data_PCOD9448439
_publ_section_title
;
Structure prediction by ZEFSAII (Michael W. Deem and Ramdas Pophale) SiO2 
 PCOD9448439
Probable space group: P M M N
;
_chemical_formula_sum "Si O2"
_cell_formula_units_Z 64
_cell_length_a 9.125923
_cell_length_b 28.685797
_cell_length_c 12.362481
_cell_angle_alpha 90.000000
_cell_angle_beta 90.000000
_cell_angle_gamma 90.000000
_cell_volume 3236.304357
_symmetry_space_group_name_H-M "P M M N"
_symmetry_group_IT_number 59
_space_group.IT_coordinate_system_code '2'
_symmetry_cell_setting 'orthorhombic'
loop_
_space_group_symop_operation_xyz
x,y,z
1/2-x,1/2-y,z
1/2+x,-y,-z
-x,1/2+y,-z
-x,-y,-z
1/2+x,1/2+y,-z
1/2-x,y,z
x,1/2-y,z
loop_
_atom_site_type_symbol
_atom_site_label
_atom_site_fract_x
_atom_site_fract_y
_atom_site_fract_z
Si Si1 0.417138 0.699806 0.690829
Si Si2 0.075383 0.534605 0.769575
Si Si3 0.574623 0.696835 0.049115
Si Si4 0.077556 0.555192 0.289907
Si Si5 0.924441 0.127622 0.117960
Si Si6 0.423871 0.924911 0.530855
Si Si7 0.922065 0.828134 0.486395
Si Si8 0.574427 0.164887 0.733272
O O1 0.250000 0.695149 0.649199
O O2 0.426925 0.750000 0.747937
O O3 0.441692 0.657738 0.772470
O O4 0.526722 0.699354 0.591474
O O5 0.250000 0.531123 0.780542
O O6 0.026283 0.575162 0.852413
O O7 0.046753 0.551856 0.646199
O O8 0.005411 0.483790 0.778173
O O9 0.750000 0.692454 0.055733
O O10 0.541292 0.750000 0.012098
O O11 0.509814 0.656656 0.972087
O O12 0.501269 0.689021 0.165522
O O13 0.250000 0.550391 0.270233
O O14 0.052648 0.547148 0.419005
O O15 0.038632 0.609096 0.266126
O O16 0.750000 0.126804 0.091951
O O17 0.250000 0.911484 0.529721
O O18 0.526301 0.880334 0.516664
O O19 0.750000 0.825058 0.467232
O O20 0.010536 0.815471 0.378585
O O21 0.750000 0.169416 0.736524
#
# Coordination Sequence:
#
# PCOD9448439 Si02
#       8
#     8   8   8   8   8   8   8   8
#     4  10  20  36  58  81 112 155 197 238 289 354
#     4  10  19  32  55  84 119 159 200 243 285 339
#     4  11  25  44  66  92 118 145 187 249 310 357
#     4   9  19  33  54  85 119 154 195 243 293 344
#     4  10  21  39  62  87 116 155 202 243 285 348
#     4   9  17  33  52  76 116 161 202 240 276 335
#     4  11  21  33  54  85 120 154 188 238 298 349
#     4  10  22  42  65  86 115 155 200 245 289 351
#
# _framework density 19.775644
#
# number of rings (size 3 to 8) (size 9 to 14) (size 15 to 20)
#    0.000    2.000    1.250    3.375    0.000    6.250 
#    0.000    0.625    0.000    0.000    0.000    0.000 
#    0.000    0.000    0.000    0.000    0.000    0.000 
#
# Total GULP energy -357183.966110 kJ/mol
# GULP energy per Si atom -5580.999470 kJ/mol
# Density = 1.973063 g / cm^3
# Si number density = 19.775644 Si / 1000 Ang^3
#
#
#
# Elastic Constant Matrix: (Units=GPa)
#
#
# Indices 1 2 3 4 5 6 
#
# 1 47.6315 15.6493 32.0056 0.0000 0.0000 0.0000
# 2 15.6493 32.5283 -3.7261 0.0000 0.0000 0.0000
# 3 32.0056 -3.7261 47.1659 0.0000 0.0000 0.0000
# 4 0.0000 0.0000 0.0000 23.0091 0.0000 0.0000
# 5 0.0000 0.0000 0.0000 0.0000 17.6655 0.0000
# 6 0.0000 0.0000 0.0000 0.0000 0.0000 49.6726
#
#
#
# Elastic Compliance Matrix: (Units=1/GPa)
#
#
# Indices 1 2 3 4 5 6 
#
# 1 0.063848 -0.036006 -0.046170 0.000000 0.000000 0.000000
# 2 -0.036006 0.051328 0.028488 0.000000 0.000000 0.000000
# 3 -0.046170 0.028488 0.054782 0.000000 0.000000 0.000000
# 4 0.000000 0.000000 0.000000 0.043461 0.000000 0.000000
# 5 0.000000 0.000000 0.000000 0.000000 0.056608 0.000000
# 6 0.000000 0.000000 0.000000 0.000000 0.000000 0.020132
#
#
# Mechanical properties :
#
#
# Convention : Reuss Voigt Hill
#
# Bulk Modulus (GPa) = 15.97916 23.90924 19.94420
# Shear Modulus (GPa) = 11.95043 23.62922 17.78982
#
# Velocity S-wave (km/s) = 2.46092 3.46043 3.00256
# Velocity P-wave (km/s) = 4.02152 5.29930 4.70400
#
# Compressibility (1/GPa) = 0.06258152
#
# Stress axis : x y z
#
# Youngs Moduli (GPa) = 15.66227 19.48250 18.25418
#
# Poissons Ratio (x) = 0.70148 0.84279
# Poissons Ratio (y) = 0.56393 -0.52002
# Poissons Ratio (z) = 0.72313 -0.55501
#
# Static dielectric constant tensor:
#      x y z
#    x 1.663830 0.000000 0.000000 
#    y 0.000000 1.746470 0.000000 
#    z 0.000000 0.000000 1.693040 
# 
# From -- ./inp_files/15033.got.cif
#   From: 2010.05.17/outbox.cif.g08.bks.cpg/sg59_8_cif.got.tgz:15033.got - 2010.06.03 14:40:33.
