data_PCOD9448543
_publ_section_title
;
Structure prediction by ZEFSAII (Michael W. Deem and Ramdas Pophale) SiO2 
 PCOD9448543
Probable space group: P M M N
;
_chemical_formula_sum "Si O2"
_cell_formula_units_Z 40
_cell_length_a 26.774369
_cell_length_b 8.779218
_cell_length_c 9.747958
_cell_angle_alpha 90.000000
_cell_angle_beta 90.000000
_cell_angle_gamma 90.000000
_cell_volume 2291.335729
_symmetry_space_group_name_H-M "P M M N"
_symmetry_group_IT_number 59
_space_group.IT_coordinate_system_code '2'
_symmetry_cell_setting 'orthorhombic'
loop_
_space_group_symop_operation_xyz
x,y,z
1/2-x,1/2-y,z
1/2+x,-y,-z
-x,1/2+y,-z
-x,-y,-z
1/2+x,1/2+y,-z
1/2-x,y,z
x,1/2-y,z
loop_
_atom_site_type_symbol
_atom_site_label
_atom_site_fract_x
_atom_site_fract_y
_atom_site_fract_z
Si Si1 0.250000 0.074459 0.670656
Si Si2 0.858376 0.933845 0.347649
Si Si3 0.447635 0.932848 0.156792
Si Si4 0.054183 0.931662 0.835587
Si Si5 0.750000 0.925516 0.663311
Si Si6 0.854723 0.067398 0.652012
O O1 0.250000 0.250000 0.717260
O O2 0.304144 0.009151 0.708519
O O3 0.250000 0.073233 0.503908
O O4 0.856719 0.750000 0.353740
O O5 0.903543 0.989315 0.254531
O O6 0.863748 0.997187 0.501655
O O7 0.454367 0.750000 0.165767
O O8 0.400042 0.975379 0.247840
O O9 0.498732 0.012405 0.203230
O O10 0.439240 0.970746 0.996689
O O11 0.057646 0.750000 0.820346
O O12 0.750000 0.750000 0.707045
O O13 0.801238 0.007009 0.704546
O O14 0.852759 0.250000 0.641009
#
# Coordination Sequence:
#
# PCOD9448543 Si02
#       6
#     4   8   8   8   4   8
#     4   7  14  29  48  69  96 130 162 196 240 289
#     4  10  19  33  53  77 105 134 168 211 255 300
#     4   9  20  37  54  73 100 134 171 212 257 304
#     4  10  20  35  54  75 100 133 172 211 256 309
#     4   9  17  31  50  75 106 136 166 202 250 303
#     4  10  19  33  54  78 103 133 170 210 252 298
#
# _framework density 17.457066000000001
#
# number of rings (size 3 to 8) (size 9 to 14) (size 15 to 20)
#    0.000    2.600    0.000    3.300    0.000    3.200 
#    0.000    2.500    0.000    3.600    0.000    0.000 
#    0.000    0.000    0.000    0.000    0.000    0.000 
#
# Total GULP energy -222990.121153 kJ/mol
# GULP energy per Si atom -5574.753029 kJ/mol
# Density = 1.741733 g / cm^3
# Si number density = 17.457066 Si / 1000 Ang^3
#
#
#
# Elastic Constant Matrix: (Units=GPa)
#
#
# Indices 1 2 3 4 5 6 
#
# 1 208.9933 68.4774 82.5972 0.0000 0.0000 0.0000
# 2 68.4774 57.0137 34.0106 0.0000 0.0000 0.0000
# 3 82.5972 34.0106 52.1237 0.0000 0.0000 0.0000
# 4 0.0000 0.0000 0.0000 17.7387 0.0000 0.0000
# 5 0.0000 0.0000 0.0000 0.0000 -63.3123 0.0000
# 6 0.0000 0.0000 0.0000 0.0000 0.0000 26.2242
#
#
#
# Elastic Compliance Matrix: (Units=1/GPa)
#
#
# Indices 1 2 3 4 5 6 
#
# 1 0.013889 -0.005816 -0.018214 0.000000 0.000000 0.000000
# 2 -0.005816 0.031153 -0.011111 0.000000 0.000000 0.000000
# 3 -0.018214 -0.011111 0.055297 0.000000 0.000000 0.000000
# 4 0.000000 0.000000 0.000000 0.056374 0.000000 0.000000
# 5 0.000000 0.000000 0.000000 0.000000 -0.015795 0.000000
# 6 0.000000 0.000000 0.000000 0.000000 0.000000 0.038133
#
#
# Mechanical properties :
#
#
# Convention : Reuss Voigt Hill
#
# Bulk Modulus (GPa) = 33.26923 76.47791 54.87357
# Shear Modulus (GPa) = 19.27881 4.99983 12.13932
#
# Velocity S-wave (km/s) = 3.32679 1.69419 2.63987
# Velocity P-wave (km/s) = 5.81858 6.90878 6.38698
#
# Compressibility (1/GPa) = 0.03005780
#
# Stress axis : x y z
#
# Youngs Moduli (GPa) = 71.99958 32.09916 18.08419
#
# Poissons Ratio (x) = 0.18670 0.32938
# Poissons Ratio (y) = 0.41879 0.20093
# Poissons Ratio (z) = 1.31138 0.35664
#
# Static dielectric constant tensor:
#      x y z
#    x 1.604280 0.000000 0.000000 
#    y 0.000000 1.587170 0.000000 
#    z 0.000000 0.000000 1.567370 
# 
# From -- ./inp_files/12451.got.cif
#   From: 2010.05.17/outbox.cif.g08.bks.cpg/sg59_7_cif.got.tgz:12451.got - 2010.06.03 14:40:33.
