data_PCOD9448139
_publ_section_title
;
Structure prediction by ZEFSAII (Michael W. Deem and Ramdas Pophale) SiO2 
 PCOD9448139
Probable space group: P M M N
;
_chemical_formula_sum "Si O2"
_cell_formula_units_Z 64
_cell_length_a 7.645361
_cell_length_b 22.574063
_cell_length_c 15.661203
_cell_angle_alpha 90.000000
_cell_angle_beta 90.000000
_cell_angle_gamma 90.000000
_cell_volume 2702.917863
_symmetry_space_group_name_H-M "P M M N"
_symmetry_group_IT_number 59
_space_group.IT_coordinate_system_code '2'
_symmetry_cell_setting 'orthorhombic'
loop_
_space_group_symop_operation_xyz
x,y,z
1/2-x,1/2-y,z
1/2+x,-y,-z
-x,1/2+y,-z
-x,-y,-z
1/2+x,1/2+y,-z
1/2-x,y,z
x,1/2-y,z
loop_
_atom_site_type_symbol
_atom_site_label
_atom_site_fract_x
_atom_site_fract_y
_atom_site_fract_z
Si Si1 0.537064 0.987640 0.308623
Si Si2 0.953789 0.502686 0.880438
Si Si3 0.544617 0.647478 0.290613
Si Si4 0.957355 0.369400 0.895401
Si Si5 0.953472 0.312080 0.533594
Si Si6 0.546323 0.092213 0.413541
Si Si7 0.537452 0.681771 0.738982
Si Si8 0.459937 0.129400 0.079417
O O1 0.750000 0.988483 0.305726
O O2 0.468687 0.014899 0.220335
O O3 0.472499 0.028896 0.385211
O O4 0.479562 0.919757 0.306339
O O5 0.750000 0.499330 0.905032
O O6 0.032855 0.437189 0.893203
O O7 0.031312 0.561550 0.922834
O O8 0.750000 0.649337 0.307161
O O9 0.517644 0.662032 0.191305
O O10 0.459555 0.685117 0.364702
O O11 0.750000 0.373891 0.887544
O O12 0.999568 0.342594 0.987540
O O13 0.750000 0.311493 0.507499
O O14 0.034110 0.250000 0.503937
O O15 0.033281 0.370685 0.491416
O O16 0.750000 0.080613 0.432457
O O17 0.532262 0.136494 0.332212
O O18 0.750000 0.678999 0.735938
O O19 0.485626 0.750000 0.723027
O O20 0.480685 0.662086 0.834581
O O21 0.250000 0.125731 0.086206
#
# Coordination Sequence:
#
# PCOD9448139 Si02
#       8
#     8   8   8   8   8   8   8   8
#     4   9  18  32  53  83 116 146 179 221 273 331
#     4   9  17  30  49  76 109 145 182 220 268 325
#     4  10  21  38  58  82 113 146 183 230 280 331
#     4  10  20  33  53  80 108 141 184 229 275 327
#     4  10  22  40  60  82 109 143 185 231 277 328
#     4  10  20  36  59  85 113 145 181 223 275 332
#     4  10  21  36  54  78 111 149 187 228 272 323
#     4  10  19  32  50  75 109 146 184 226 273 323
#
# _framework density 23.678114000000001
#
# number of rings (size 3 to 8) (size 9 to 14) (size 15 to 20)
#    0.000    2.250    1.250    1.500    0.000    4.000 
#    0.000    0.625    0.000    2.250    0.000    0.000 
#    0.000    0.000    0.000    0.000    0.000    0.000 
#
# Total GULP energy -357370.597263 kJ/mol
# GULP energy per Si atom -5583.915582 kJ/mol
# Density = 2.362422 g / cm^3
# Si number density = 23.678114 Si / 1000 Ang^3
#
#
#
# Elastic Constant Matrix: (Units=GPa)
#
#
# Indices 1 2 3 4 5 6 
#
# 1 55.8201 -1.3562 -12.6035 0.0000 0.0000 0.0000
# 2 -1.3562 27.2901 9.3675 0.0000 0.0000 0.0000
# 3 -12.6035 9.3675 99.5963 0.0000 0.0000 0.0000
# 4 0.0000 0.0000 0.0000 5.2810 0.0000 0.0000
# 5 0.0000 0.0000 0.0000 0.0000 22.1091 0.0000
# 6 0.0000 0.0000 0.0000 0.0000 0.0000 -3.7083
#
#
#
# Elastic Compliance Matrix: (Units=1/GPa)
#
#
# Indices 1 2 3 4 5 6 
#
# 1 0.018442 0.000119 0.002323 0.000000 0.000000 0.000000
# 2 0.000119 0.037867 -0.003546 0.000000 0.000000 0.000000
# 3 0.002323 -0.003546 0.010668 0.000000 0.000000 0.000000
# 4 0.000000 0.000000 0.000000 0.189358 0.000000 0.000000
# 5 0.000000 0.000000 0.000000 0.000000 0.045230 0.000000
# 6 0.000000 0.000000 0.000000 0.000000 0.000000 -0.269665
#
#
# Mechanical properties :
#
#
# Convention : Reuss Voigt Hill
#
# Bulk Modulus (GPa) = 15.43990 19.28024 17.36007
# Shear Modulus (GPa) = 89.77014 17.22295 53.49654
#
# Velocity S-wave (km/s) = 6.16401 2.69992 4.75839
# Velocity P-wave (km/s) = 7.56273 4.22845 6.12677
#
# Compressibility (1/GPa) = 0.06476727
#
# Stress axis : x y z
#
# Youngs Moduli (GPa) = 54.22410 26.40850 93.73823
#
# Poissons Ratio (x) = -0.00315 -0.21771
# Poissons Ratio (y) = -0.00647 0.33244
# Poissons Ratio (z) = -0.12594 0.09366
#
# Static dielectric constant tensor:
#      x y z
#    x 1.847710 0.000000 0.000000 
#    y 0.000000 1.941980 0.000000 
#    z 0.000000 0.000000 1.923090 
# 
# From -- ./inp_files/21435.got.cif
#   From: 2010.05.17/outbox.cif.g08.bks.cpg/sg59_11_cif.got.tgz:21435.got - 2010.06.03 14:40:33.
