data_PCOD9448267
_publ_section_title
;
Structure prediction by ZEFSAII (Michael W. Deem and Ramdas Pophale) SiO2 
 PCOD9448267
Probable space group: P M M N
;
_chemical_formula_sum "Si O2"
_cell_formula_units_Z 48
_cell_length_a 8.778656
_cell_length_b 33.471787
_cell_length_c 9.402024
_cell_angle_alpha 90.000000
_cell_angle_beta 90.000000
_cell_angle_gamma 90.000000
_cell_volume 2762.665382
_symmetry_space_group_name_H-M "P M M N"
_symmetry_group_IT_number 59
_space_group.IT_coordinate_system_code '2'
_symmetry_cell_setting 'orthorhombic'
loop_
_space_group_symop_operation_xyz
x,y,z
1/2-x,1/2-y,z
1/2+x,-y,-z
-x,1/2+y,-z
-x,-y,-z
1/2+x,1/2+y,-z
1/2-x,y,z
x,1/2-y,z
loop_
_atom_site_type_symbol
_atom_site_label
_atom_site_fract_x
_atom_site_fract_y
_atom_site_fract_z
Si Si1 0.432220 0.541129 0.557976
Si Si2 0.433404 0.626800 0.075429
Si Si3 0.575476 0.665802 0.647290
Si Si4 0.932484 0.205906 0.093629
Si Si5 0.574141 0.918226 0.820247
Si Si6 0.433974 0.383612 0.612030
O O1 0.500000 0.500000 0.500000
O O2 0.250000 0.540608 0.555363
O O3 0.490870 0.550509 0.717611
O O4 0.494433 0.576976 0.458963
O O5 0.250000 0.625984 0.083402
O O6 0.506248 0.621527 0.229369
O O7 0.483383 0.669430 0.007070
O O8 0.490614 0.592715 0.966484
O O9 0.750000 0.679807 0.641540
O O10 0.479749 0.695200 0.745335
O O11 0.573728 0.623317 0.730732
O O12 0.522396 0.653865 0.489680
O O13 0.750000 0.206264 0.086085
O O14 0.990036 0.250000 0.054329
O O15 0.750000 0.929456 0.844112
O O16 0.250000 0.386758 0.607471
#
# Coordination Sequence:
#
# PCOD9448267 Si02
#       6
#     8   8   8   8   8   8
#     4  11  21  35  55  79 105 134 170 211 256 303
#     4  10  19  32  52  77 104 137 175 212 255 308
#     4   8  16  30  49  71  95 126 165 205 245 294
#     4   9  18  32  50  73 101 132 168 210 254 301
#     4   9  17  32  52  74 101 134 170 207 249 299
#     4  10  20  35  53  75 103 134 169 210 257 305
#
# _framework density 17.374524999999998
#
# number of rings (size 3 to 8) (size 9 to 14) (size 15 to 20)
#    0.000    2.500    0.000    4.000    0.000    5.667 
#    0.000    1.667    0.000    3.000    0.000    0.000 
#    0.000    0.000    0.000    0.000    0.000    0.000 
#
# Total GULP energy -267552.267034 kJ/mol
# GULP energy per Si atom -5574.005563 kJ/mol
# Density = 1.733498 g / cm^3
# Si number density = 17.374525 Si / 1000 Ang^3
#
#
#
# Elastic Constant Matrix: (Units=GPa)
#
#
# Indices 1 2 3 4 5 6 
#
# 1 78.2193 24.2057 34.0637 0.0000 0.0000 0.0000
# 2 24.2057 59.4948 26.2798 0.0000 0.0000 0.0000
# 3 34.0637 26.2798 126.4734 0.0000 0.0000 0.0000
# 4 0.0000 0.0000 0.0000 14.3915 0.0000 0.0000
# 5 0.0000 0.0000 0.0000 0.0000 32.6211 0.0000
# 6 0.0000 0.0000 0.0000 0.0000 0.0000 20.2608
#
#
#
# Elastic Compliance Matrix: (Units=1/GPa)
#
#
# Indices 1 2 3 4 5 6 
#
# 1 0.015719 -0.004983 -0.003198 0.000000 0.000000 0.000000
# 2 -0.004983 0.020086 -0.002832 0.000000 0.000000 0.000000
# 3 -0.003198 -0.002832 0.009357 0.000000 0.000000 0.000000
# 4 0.000000 0.000000 0.000000 0.069485 0.000000 0.000000
# 5 0.000000 0.000000 0.000000 0.000000 0.030655 0.000000
# 6 0.000000 0.000000 0.000000 0.000000 0.000000 0.049356
#
#
# Mechanical properties :
#
#
# Convention : Reuss Voigt Hill
#
# Bulk Modulus (GPa) = 43.22148 48.14287 45.68218
# Shear Modulus (GPa) = 22.28194 25.43057 23.85625
#
# Velocity S-wave (km/s) = 3.58501 3.82994 3.70950
# Velocity P-wave (km/s) = 6.48589 6.87946 6.68557
#
# Compressibility (1/GPa) = 0.02313664
#
# Stress axis : x y z
#
# Youngs Moduli (GPa) = 63.61574 49.78536 106.87597
#
# Poissons Ratio (x) = 0.24806 0.34184
# Poissons Ratio (y) = 0.31698 0.30264
# Poissons Ratio (z) = 0.20347 0.14098
#
# Static dielectric constant tensor:
#      x y z
#    x 1.587650 0.000000 0.000000 
#    y 0.000000 1.595690 0.000000 
#    z 0.000000 0.000000 1.586820 
# 
# From -- ./inp_files/6232.got.cif
#   From: 2010.05.17/outbox.cif.g08.bks.cpg/sg59_4_cif.got.tgz:6232.got - 2010.06.03 14:40:33.
