data_PCOD9448324
_publ_section_title
;
Structure prediction by ZEFSAII (Michael W. Deem and Ramdas Pophale) SiO2 
 PCOD9448324
Probable space group: P M M N
;
_chemical_formula_sum "Si O2"
_cell_formula_units_Z 56
_cell_length_a 7.467160
_cell_length_b 18.382593
_cell_length_c 18.345112
_cell_angle_alpha 90.000000
_cell_angle_beta 90.000000
_cell_angle_gamma 90.000000
_cell_volume 2518.155799
_symmetry_space_group_name_H-M "P M M N"
_symmetry_group_IT_number 59
_space_group.IT_coordinate_system_code '2'
_symmetry_cell_setting 'orthorhombic'
loop_
_space_group_symop_operation_xyz
x,y,z
1/2-x,1/2-y,z
1/2+x,-y,-z
-x,1/2+y,-z
-x,-y,-z
1/2+x,1/2+y,-z
1/2-x,y,z
x,1/2-y,z
loop_
_atom_site_type_symbol
_atom_site_label
_atom_site_fract_x
_atom_site_fract_y
_atom_site_fract_z
Si Si1 0.953811 0.603347 0.932807
Si Si2 0.539356 0.940157 0.087605
Si Si3 0.966022 0.331378 0.782100
Si Si4 0.959872 0.935168 0.658591
Si Si5 0.530808 0.401842 0.631118
Si Si6 0.469816 0.168393 0.214413
Si Si7 0.966683 0.166812 0.478146
O O1 0.750000 0.629689 0.941837
O O2 0.032998 0.649950 0.867189
O O3 0.953506 0.519534 0.905469
O O4 0.032507 0.598707 0.014087
O O5 0.750000 0.954054 0.075262
O O6 0.518549 0.889907 0.157438
O O7 0.750000 0.330181 0.781130
O O8 0.029437 0.250000 0.799356
O O9 0.024354 0.356041 0.701755
O O10 0.750000 0.946391 0.674250
O O11 0.033864 0.891670 0.728027
O O12 0.976614 0.883797 0.588488
O O13 0.032291 0.015225 0.641591
O O14 0.750000 0.401786 0.629302
O O15 0.472584 0.366846 0.555040
O O16 0.250000 0.165917 0.213924
O O17 0.520754 0.250000 0.236367
O O18 0.750000 0.167538 0.478823
O O19 0.027680 0.250000 0.469497
#
# Coordination Sequence:
#
# PCOD9448324 Si02
#       7
#     8   8   8   8   8   8   8
#     4   9  18  34  55  75  99 137 179 211 245 301
#     4  10  20  33  52  78 106 134 167 214 265 306
#     4  10  20  35  56  78 101 134 175 214 253 304
#     4  10  19  32  53  77 100 128 164 208 252 295
#     4   9  18  34  55  76  98 131 175 212 244 294
#     4   9  17  30  50  75 100 129 168 209 247 294
#     4  10  20  34  52  74 102 133 165 205 252 301
#
# _framework density 22.238496999999999
#
# number of rings (size 3 to 8) (size 9 to 14) (size 15 to 20)
#    0.000    2.429    0.000    2.571    0.000    6.286 
#    0.000    5.000    0.000    3.000    0.000    0.000 
#    0.000    0.000    0.000    0.000    0.000    0.000 
#
# Total GULP energy -312884.698846 kJ/mol
# GULP energy per Si atom -5587.226765 kJ/mol
# Density = 2.218788 g / cm^3
# Si number density = 22.238497 Si / 1000 Ang^3
#
#
#
# Elastic Constant Matrix: (Units=GPa)
#
#
# Indices 1 2 3 4 5 6 
#
# 1 67.1194 -9.1044 -12.5029 0.0000 0.0000 0.0000
# 2 -9.1044 40.5892 -17.5541 0.0000 0.0000 0.0000
# 3 -12.5029 -17.5541 61.3341 0.0000 0.0000 0.0000
# 4 0.0000 0.0000 0.0000 198.2872 0.0000 0.0000
# 5 0.0000 0.0000 0.0000 0.0000 10.2082 0.0000
# 6 0.0000 0.0000 0.0000 0.0000 0.0000 8.1283
#
#
#
# Elastic Compliance Matrix: (Units=1/GPa)
#
#
# Indices 1 2 3 4 5 6 
#
# 1 0.016653 0.005939 0.005094 0.000000 0.000000 0.000000
# 2 0.005939 0.030235 0.009864 0.000000 0.000000 0.000000
# 3 0.005094 0.009864 0.020166 0.000000 0.000000 0.000000
# 4 0.000000 0.000000 0.000000 0.005043 0.000000 0.000000
# 5 0.000000 0.000000 0.000000 0.000000 0.097960 0.000000
# 6 0.000000 0.000000 0.000000 0.000000 0.000000 0.123027
#
#
# Mechanical properties :
#
#
# Convention : Reuss Voigt Hill
#
# Bulk Modulus (GPa) = 9.18705 10.07999 9.63352
# Shear Modulus (GPa) = 17.38688 57.20502 37.29595
#
# Velocity S-wave (km/s) = 2.79917 5.07733 4.09967
# Velocity P-wave (km/s) = 3.81932 6.23818 5.17214
#
# Compressibility (1/GPa) = 0.10884885
#
# Stress axis : x y z
#
# Youngs Moduli (GPa) = 60.04792 33.07403 49.58893
#
# Poissons Ratio (x) = -0.19642 -0.25263
# Poissons Ratio (y) = -0.35661 -0.48915
# Poissons Ratio (z) = -0.30591 -0.32624
#
# Static dielectric constant tensor:
#      x y z
#    x 1.886660 0.000000 0.000000 
#    y 0.000000 1.773460 0.000000 
#    z 0.000000 0.000000 1.779810 
# 
# From -- ./inp_files/20905.got.cif
#   From: 2010.05.17/outbox.cif.g08.bks.cpg/sg59_11_cif.got.tgz:20905.got - 2010.06.03 14:40:33.
