data_PCOD9448950
_publ_section_title
;
Structure prediction by ZEFSAII (Michael W. Deem and Ramdas Pophale) SiO2 
 PCOD9448950
Probable space group: P M M N
;
_chemical_formula_sum "Si O2"
_cell_formula_units_Z 64
_cell_length_a 17.910662
_cell_length_b 8.189728
_cell_length_c 21.237817
_cell_angle_alpha 90.000000
_cell_angle_beta 90.000000
_cell_angle_gamma 90.000000
_cell_volume 3115.236270
_symmetry_space_group_name_H-M "P M M N"
_symmetry_group_IT_number 59
_space_group.IT_coordinate_system_code '2'
_symmetry_cell_setting 'orthorhombic'
loop_
_space_group_symop_operation_xyz
x,y,z
1/2-x,1/2-y,z
1/2+x,-y,-z
-x,1/2+y,-z
-x,-y,-z
1/2+x,1/2+y,-z
1/2-x,y,z
x,1/2-y,z
loop_
_atom_site_type_symbol
_atom_site_label
_atom_site_fract_x
_atom_site_fract_y
_atom_site_fract_z
Si Si1 0.370472 0.941271 0.390689
Si Si2 0.049789 0.053571 0.878833
Si Si3 0.867365 0.059886 0.747073
Si Si4 0.377465 0.549708 0.117067
Si Si5 0.669038 0.446974 0.020117
Si Si6 0.548752 0.939526 0.257828
Si Si7 0.035016 0.564577 0.609385
Si Si8 0.668199 0.558188 0.474601
O O1 0.350478 0.750000 0.393831
O O2 0.347271 0.008383 0.321647
O O3 0.460757 0.955396 0.395698
O O4 0.337880 0.031098 0.450708
O O5 0.047540 0.250000 0.875150
O O6 0.076681 0.996835 0.809609
O O7 0.964336 0.999606 0.888348
O O8 0.102761 0.003993 0.935370
O O9 0.844061 0.250000 0.745826
O O10 0.845591 0.991446 0.815480
O O11 0.958152 0.058057 0.748112
O O12 0.374993 0.750000 0.119723
O O13 0.339522 0.498596 0.052327
O O14 0.750000 0.500643 0.044390
O O15 0.667088 0.250000 0.019211
O O16 0.570692 0.750000 0.266394
O O17 0.567565 0.036255 0.320675
O O18 0.009265 0.750000 0.602186
O O19 0.098514 0.526127 0.559029
O O20 0.750000 0.497475 0.453698
O O21 0.663366 0.750000 0.460615
#
# Coordination Sequence:
#
# PCOD9448950 Si02
#       8
#     8   8   8   8   8   8   8   8
#     4  10  19  34  57  82 108 136 170 212 256 305
#     4   9  17  31  53  74  93 125 168 211 249 292
#     4   7  12  25  48  75  99 124 157 203 249 290
#     4   8  14  28  49  72  97 126 164 205 246 291
#     4  10  20  31  44  67 101 135 164 201 249 298
#     4   8  15  30  51  75 100 126 162 207 255 300
#     4  11  21  34  56  83 108 134 168 209 254 307
#     4  11  24  40  55  73 103 141 177 215 259 304
#
# _framework density 20.544187999999998
#
# number of rings (size 3 to 8) (size 9 to 14) (size 15 to 20)
#    0.000    2.750    0.000    4.875    0.000    1.750 
#    0.000    1.250    0.000    6.750    0.000    0.000 
#    0.000    0.000    0.000    0.000    0.000    0.000 
#
# Total GULP energy -356888.069177 kJ/mol
# GULP energy per Si atom -5576.376081 kJ/mol
# Density = 2.049743 g / cm^3
# Si number density = 20.544188 Si / 1000 Ang^3
#
#
#
# Elastic Constant Matrix: (Units=GPa)
#
#
# Indices 1 2 3 4 5 6 
#
# 1 59.0547 -2.3233 29.2000 0.0000 0.0000 0.0000
# 2 -2.3233 18.0990 2.0258 0.0000 0.0000 0.0000
# 3 29.2000 2.0258 108.0183 0.0000 0.0000 0.0000
# 4 0.0000 0.0000 0.0000 21.5697 0.0000 0.0000
# 5 0.0000 0.0000 0.0000 0.0000 -22.8049 0.0000
# 6 0.0000 0.0000 0.0000 0.0000 0.0000 4.2319
#
#
#
# Elastic Compliance Matrix: (Units=1/GPa)
#
#
# Indices 1 2 3 4 5 6 
#
# 1 0.019722 0.003135 -0.005390 0.000000 0.000000 0.000000
# 2 0.003135 0.055866 -0.001895 0.000000 0.000000 0.000000
# 3 -0.005390 -0.001895 0.010750 0.000000 0.000000 0.000000
# 4 0.000000 0.000000 0.000000 0.046361 0.000000 0.000000
# 5 0.000000 0.000000 0.000000 0.000000 -0.043850 0.000000
# 6 0.000000 0.000000 0.000000 0.000000 0.000000 0.236303
#
#
# Mechanical properties :
#
#
# Convention : Reuss Voigt Hill
#
# Bulk Modulus (GPa) = 12.81432 26.99744 19.90588
# Shear Modulus (GPa) = 13.90953 11.01732 12.46342
#
# Velocity S-wave (km/s) = 2.60485 2.31827 2.46573
# Velocity P-wave (km/s) = 3.91126 4.50949 4.22099
#
# Compressibility (1/GPa) = 0.07803772
#
# Stress axis : x y z
#
# Youngs Moduli (GPa) = 50.70487 17.89992 93.02053
#
# Poissons Ratio (x) = -0.05612 0.50139
# Poissons Ratio (y) = -0.15896 0.17629
# Poissons Ratio (z) = 0.27331 0.03392
#
# Static dielectric constant tensor:
#      x y z
#    x 1.730280 0.000000 0.000000 
#    y 0.000000 1.724640 0.000000 
#    z 0.000000 0.000000 1.769000 
# 
# From -- ./inp_files/30708.got.cif
#   From: 2010.05.17/outbox.cif.g08.bks.cpg/sg59_16_cif.got.tgz:30708.got - 2010.06.03 14:40:33.
