data_PCOD9448217
_publ_section_title
;
Structure prediction by ZEFSAII (Michael W. Deem and Ramdas Pophale) SiO2 
 PCOD9448217
Probable space group: P M M N
;
_chemical_formula_sum "Si O2"
_cell_formula_units_Z 64
_cell_length_a 17.992387
_cell_length_b 17.642971
_cell_length_c 11.728337
_cell_angle_alpha 90.000000
_cell_angle_beta 90.000000
_cell_angle_gamma 90.000000
_cell_volume 3723.033470
_symmetry_space_group_name_H-M "P M M N"
_symmetry_group_IT_number 59
_space_group.IT_coordinate_system_code '2'
_symmetry_cell_setting 'orthorhombic'
loop_
_space_group_symop_operation_xyz
x,y,z
1/2-x,1/2-y,z
1/2+x,-y,-z
-x,1/2+y,-z
-x,-y,-z
1/2+x,1/2+y,-z
1/2-x,y,z
x,1/2-y,z
loop_
_atom_site_type_symbol
_atom_site_label
_atom_site_fract_x
_atom_site_fract_y
_atom_site_fract_z
Si Si1 0.833319 0.518230 0.786905
Si Si2 0.447043 0.957782 0.365467
Si Si3 0.972198 0.161787 0.996637
Si Si4 0.956350 0.880628 0.526255
Si Si5 0.663737 0.058927 0.032140
Si Si6 0.335510 0.161864 0.654799
Si Si7 0.069858 0.059349 0.822064
Si Si8 0.564824 0.834117 0.772681
O O1 0.750000 0.530259 0.747547
O O2 0.873469 0.455245 0.709419
O O3 0.877577 0.596942 0.779480
O O4 0.834170 0.489512 0.915847
O O5 0.473468 0.887397 0.441437
O O6 0.512721 0.971566 0.273302
O O7 0.437990 0.031762 0.444024
O O8 0.975998 0.250000 0.959895
O O9 0.888057 0.131358 0.005961
O O10 0.008113 0.156925 0.122831
O O11 0.020624 0.107089 0.913442
O O12 0.886859 0.847766 0.457031
O O13 0.970131 0.840862 0.646470
O O14 0.750000 0.073836 0.065168
O O15 0.617156 0.007188 0.120175
O O16 0.250000 0.138739 0.634970
O O17 0.336097 0.250000 0.686752
O O18 0.373658 0.113931 0.754912
O O19 0.598742 0.750000 0.783631
#
# Coordination Sequence:
#
# PCOD9448217 Si02
#       8
#     8   8   8   8   8   8   8   8
#     4  10  19  32  51  78 109 142 176 217 271 325
#     4   9  18  32  53  76 101 136 180 234 261 311
#     4  11  22  36  57  82 110 145 182 228 279 328
#     4   9  18  32  51  73 101 141 183 218 268 308
#     4  11  21  34  55  81 111 144 177 222 274 328
#     4  10  21  35  52  77 111 146 179 219 266 321
#     4  11  19  36  58  80 108 142 182 225 274 322
#     4  10  20  34  53  80 110 144 183 221 267 330
#
# _framework density 17.190283999999998
#
# number of rings (size 3 to 8) (size 9 to 14) (size 15 to 20)
#    0.000    1.875    2.500    3.000    0.000    2.500 
#    0.000    0.000    0.000    0.750    0.000    0.000 
#    0.000    0.000    0.000    0.000    0.000    0.000 
#
# Total GULP energy -356635.052142 kJ/mol
# GULP energy per Si atom -5572.422690 kJ/mol
# Density = 1.715116 g / cm^3
# Si number density = 17.190284 Si / 1000 Ang^3
#
#
#
# Elastic Constant Matrix: (Units=GPa)
#
#
# Indices 1 2 3 4 5 6 
#
# 1 98.7708 38.4738 18.9561 0.0000 0.0000 0.0000
# 2 38.4738 46.4808 7.7965 0.0000 0.0000 0.0000
# 3 18.9561 7.7965 63.4720 0.0000 0.0000 0.0000
# 4 0.0000 0.0000 0.0000 23.8004 0.0000 0.0000
# 5 0.0000 0.0000 0.0000 0.0000 12.5303 0.0000
# 6 0.0000 0.0000 0.0000 0.0000 0.0000 22.2372
#
#
#
# Elastic Compliance Matrix: (Units=1/GPa)
#
#
# Indices 1 2 3 4 5 6 
#
# 1 0.015525 -0.012327 -0.003123 0.000000 0.000000 0.000000
# 2 -0.012327 0.031755 -0.000219 0.000000 0.000000 0.000000
# 3 -0.003123 -0.000219 0.016714 0.000000 0.000000 0.000000
# 4 0.000000 0.000000 0.000000 0.042016 0.000000 0.000000
# 5 0.000000 0.000000 0.000000 0.000000 0.079807 0.000000
# 6 0.000000 0.000000 0.000000 0.000000 0.000000 0.044970
#
#
# Mechanical properties :
#
#
# Convention : Reuss Voigt Hill
#
# Bulk Modulus (GPa) = 30.62122 37.68626 34.15374
# Shear Modulus (GPa) = 18.31434 21.28007 19.79721
#
# Velocity S-wave (km/s) = 3.26757 3.52222 3.39728
# Velocity P-wave (km/s) = 5.66461 6.20580 5.94137
#
# Compressibility (1/GPa) = 0.03265709
#
# Stress axis : x y z
#
# Youngs Moduli (GPa) = 64.41022 31.49142 59.82856
#
# Poissons Ratio (x) = 0.38820 0.18682
# Poissons Ratio (y) = 0.79400 0.01310
# Poissons Ratio (z) = 0.20112 0.00690
#
# Static dielectric constant tensor:
#      x y z
#    x 1.588980 0.000000 0.000000 
#    y 0.000000 1.602220 0.000000 
#    z 0.000000 0.000000 1.612760 
# 
# From -- ./inp_files/17185.got.cif
#   From: 2010.05.17/outbox.cif.g08.bks.cpg/sg59_9_cif.got.tgz:17185.got - 2010.06.03 14:40:33.
