data_PCOD9448494
_publ_section_title
;
Structure prediction by ZEFSAII (Michael W. Deem and Ramdas Pophale) SiO2 
 PCOD9448494
Probable space group: P M M N
;
_chemical_formula_sum "Si O2"
_cell_formula_units_Z 48
_cell_length_a 11.763741
_cell_length_b 22.996841
_cell_length_c 8.149672
_cell_angle_alpha 90.000000
_cell_angle_beta 90.000000
_cell_angle_gamma 90.000000
_cell_volume 2204.721649
_symmetry_space_group_name_H-M "P M M N"
_symmetry_group_IT_number 59
_space_group.IT_coordinate_system_code '2'
_symmetry_cell_setting 'orthorhombic'
loop_
_space_group_symop_operation_xyz
x,y,z
1/2-x,1/2-y,z
1/2+x,-y,-z
-x,1/2+y,-z
-x,-y,-z
1/2+x,1/2+y,-z
1/2-x,y,z
x,1/2-y,z
loop_
_atom_site_type_symbol
_atom_site_label
_atom_site_fract_x
_atom_site_fract_y
_atom_site_fract_z
Si Si1 0.549303 0.987689 0.753313
Si Si2 0.876117 0.818440 0.591411
Si Si3 0.128631 0.432682 0.575323
Si Si4 0.124015 0.819160 0.590544
Si Si5 0.114685 0.684758 0.201136
Si Si6 0.119969 0.576364 0.985021
O O1 0.618618 0.955563 0.611890
O O2 0.473456 0.037524 0.668017
O O3 0.619577 0.022104 0.888712
O O4 0.462494 0.944022 0.841192
O O5 0.750000 0.826641 0.673072
O O6 0.881425 0.750000 0.547994
O O7 0.873471 0.863217 0.439489
O O8 0.000433 0.832545 0.670030
O O9 0.250000 0.451362 0.646109
O O10 0.250000 0.843406 0.635285
O O11 0.134430 0.750000 0.611573
O O12 0.108464 0.830035 0.395057
O O13 0.250000 0.688464 0.169231
O O14 0.066807 0.750000 0.175018
O O15 0.074973 0.633437 0.081840
O O16 0.250000 0.586178 0.934608
#
# Coordination Sequence:
#
# PCOD9448494 Si02
#       6
#     8   8   8   8   8   8
#     4  10  21  34  51  75  98 132 175 207 250 303
#     4   9  17  29  47  71  98 131 169 209 257 308
#     4  10  20  36  54  73 102 135 171 216 258 302
#     4   8  13  23  41  67  98 129 163 203 246 296
#     4   8  14  25  44  70  97 125 156 195 249 305
#     4  10  19  33  52  74 102 131 164 208 252 301
#
# _framework density 21.771457000000002
#
# number of rings (size 3 to 8) (size 9 to 14) (size 15 to 20)
#    0.000    2.833    0.000    3.000    0.000    0.000 
#    0.000    5.000    0.000    1.000    0.000    0.000 
#    0.000   18.667    0.000    0.000    0.000    0.000 
#
# Total GULP energy -267210.176020 kJ/mol
# GULP energy per Si atom -5566.878667 kJ/mol
# Density = 2.172190 g / cm^3
# Si number density = 21.771457 Si / 1000 Ang^3
#
#
#
# Elastic Constant Matrix: (Units=GPa)
#
#
# Indices 1 2 3 4 5 6 
#
# 1 161.2478 23.7101 12.2505 0.0000 0.0000 0.0000
# 2 23.7101 110.0687 36.4400 0.0000 0.0000 0.0000
# 3 12.2505 36.4400 46.2223 0.0000 0.0000 0.0000
# 4 0.0000 0.0000 0.0000 24.1554 0.0000 0.0000
# 5 0.0000 0.0000 0.0000 0.0000 86.9981 0.0000
# 6 0.0000 0.0000 0.0000 0.0000 0.0000 14.5064
#
#
#
# Elastic Compliance Matrix: (Units=1/GPa)
#
#
# Indices 1 2 3 4 5 6 
#
# 1 0.006428 -0.001110 -0.000828 0.000000 0.000000 0.000000
# 2 -0.001110 0.012486 -0.009549 0.000000 0.000000 0.000000
# 3 -0.000828 -0.009549 0.029382 0.000000 0.000000 0.000000
# 4 0.000000 0.000000 0.000000 0.041399 0.000000 0.000000
# 5 0.000000 0.000000 0.000000 0.000000 0.011494 0.000000
# 6 0.000000 0.000000 0.000000 0.000000 0.000000 0.068935
#
#
# Mechanical properties :
#
#
# Convention : Reuss Voigt Hill
#
# Bulk Modulus (GPa) = 39.49371 51.37113 45.43242
# Shear Modulus (GPa) = 24.80904 41.47454 33.14179
#
# Velocity S-wave (km/s) = 3.37934 4.36936 3.90585
# Velocity P-wave (km/s) = 5.77980 7.00728 6.42293
#
# Compressibility (1/GPa) = 0.02532049
#
# Stress axis : x y z
#
# Youngs Moduli (GPa) = 155.57336 80.09096 34.03424
#
# Poissons Ratio (x) = 0.08894 0.02819
# Poissons Ratio (y) = 0.17276 0.32499
# Poissons Ratio (z) = 0.12884 0.76479
#
# Static dielectric constant tensor:
#      x y z
#    x 1.843030 0.000000 0.000000 
#    y 0.000000 1.809890 0.000000 
#    z 0.000000 0.000000 1.772150 
# 
# From -- ./inp_files/7602.got.cif
#   From: 2010.05.17/outbox.cif.g08.bks.cpg/sg59_4_cif.got.tgz:7602.got - 2010.06.03 14:40:33.
