data_PCOD9448891
_publ_section_title
;
Structure prediction by ZEFSAII (Michael W. Deem and Ramdas Pophale) SiO2 
 PCOD9448891
Probable space group: P M M N
;
_chemical_formula_sum "Si O2"
_cell_formula_units_Z 56
_cell_length_a 20.735504
_cell_length_b 17.655593
_cell_length_c 7.338868
_cell_angle_alpha 90.000000
_cell_angle_beta 90.000000
_cell_angle_gamma 90.000000
_cell_volume 2686.742103
_symmetry_space_group_name_H-M "P M M N"
_symmetry_group_IT_number 59
_space_group.IT_coordinate_system_code '2'
_symmetry_cell_setting 'orthorhombic'
loop_
_space_group_symop_operation_xyz
x,y,z
1/2-x,1/2-y,z
1/2+x,-y,-z
-x,1/2+y,-z
-x,-y,-z
1/2+x,1/2+y,-z
1/2-x,y,z
x,1/2-y,z
loop_
_atom_site_type_symbol
_atom_site_label
_atom_site_fract_x
_atom_site_fract_y
_atom_site_fract_z
Si Si1 0.110726 0.095058 0.193326
Si Si2 0.439741 0.334758 0.822559
Si Si3 0.323547 0.373324 0.560151
Si Si4 0.863087 0.044314 0.408783
Si Si5 0.326132 0.833916 0.876330
Si Si6 0.505629 0.992826 0.219823
Si Si7 0.327113 0.942818 0.186778
O O1 0.149620 0.136210 0.353721
O O2 0.155622 0.027126 0.115949
O O3 0.082949 0.144450 0.028756
O O4 0.052467 0.046662 0.285021
O O5 0.466719 0.250000 0.815111
O O6 0.375401 0.338905 0.698329
O O7 0.486888 0.402260 0.754332
O O8 0.250000 0.346926 0.578522
O O9 0.325546 0.464256 0.596077
O O10 0.860204 0.067485 0.618951
O O11 0.931133 0.027183 0.313246
O O12 0.833240 0.112805 0.296763
O O13 0.250000 0.826819 0.911477
O O14 0.353883 0.750000 0.855277
O O15 0.352911 0.881227 0.045993
O O16 0.500000 0.000000 0.000000
O O17 0.250000 0.937743 0.208122
#
# Coordination Sequence:
#
# PCOD9448891 Si02
#       7
#     8   8   8   8   8   8   8
#     4  10  20  38  61  82 110 148 191 235 282 330
#     4  10  22  38  57  83 117 152 185 232 293 346
#     4  10  21  36  59  89 114 144 193 241 281 340
#     4  10  19  34  56  78 107 144 187 233 283 334
#     4  10  20  33  51  77 111 147 180 225 286 340
#     4   9  19  37  60  83 107 143 190 234 274 327
#     4  10  20  34  55  82 107 139 189 237 275 333
#
# _framework density 20.843088000000002
#
# number of rings (size 3 to 8) (size 9 to 14) (size 15 to 20)
#    0.000    2.143    0.000    5.143    0.000    8.857 
#    0.000    7.857    0.000    4.286    0.000    0.000 
#    0.000    0.000    0.000    0.000    0.000    0.000 
#
# Total GULP energy -312443.460707 kJ/mol
# GULP energy per Si atom -5579.347513 kJ/mol
# Density = 2.079565 g / cm^3
# Si number density = 20.843088 Si / 1000 Ang^3
#
#
#
# Elastic Constant Matrix: (Units=GPa)
#
#
# Indices 1 2 3 4 5 6 
#
# 1 56.3208 -12.1214 -10.7885 0.0000 0.0000 0.0000
# 2 -12.1214 91.9957 16.8485 0.0000 0.0000 0.0000
# 3 -10.7885 16.8485 45.8506 0.0000 0.0000 0.0000
# 4 0.0000 0.0000 0.0000 -16.5619 0.0000 0.0000
# 5 0.0000 0.0000 0.0000 0.0000 26.7422 0.0000
# 6 0.0000 0.0000 0.0000 0.0000 0.0000 9.6478
#
#
#
# Elastic Compliance Matrix: (Units=1/GPa)
#
#
# Indices 1 2 3 4 5 6 
#
# 1 0.018865 0.001793 0.003780 0.000000 0.000000 0.000000
# 2 0.001793 0.011825 -0.003923 0.000000 0.000000 0.000000
# 3 0.003780 -0.003923 0.024141 0.000000 0.000000 0.000000
# 4 0.000000 0.000000 0.000000 -0.060380 0.000000 0.000000
# 5 0.000000 0.000000 0.000000 0.000000 0.037394 0.000000
# 6 0.000000 0.000000 0.000000 0.000000 0.000000 0.103650
#
#
# Mechanical properties :
#
#
# Convention : Reuss Voigt Hill
#
# Bulk Modulus (GPa) = 17.20230 20.22714 18.71472
# Shear Modulus (GPa) = 32.98742 17.31421 25.15081
#
# Velocity S-wave (km/s) = 3.98258 2.88530 3.47749
# Velocity P-wave (km/s) = 5.42393 4.56350 5.01221
#
# Compressibility (1/GPa) = 0.05813178
#
# Stress axis : x y z
#
# Youngs Moduli (GPa) = 53.00686 84.56736 41.42322
#
# Poissons Ratio (x) = -0.15167 -0.15658
# Poissons Ratio (y) = -0.09506 0.16251
# Poissons Ratio (z) = -0.20036 0.33178
#
# Static dielectric constant tensor:
#      x y z
#    x 1.804230 0.000000 0.000000 
#    y 0.000000 1.889930 0.000000 
#    z 0.000000 0.000000 1.759320 
# 
# From -- ./inp_files/11546.got.cif
#   From: 2010.05.17/outbox.cif.g08.bks.cpg/sg59_6_cif.got.tgz:11546.got - 2010.06.03 14:40:33.
