data_PCOD9448595
_publ_section_title
;
Structure prediction by ZEFSAII (Michael W. Deem and Ramdas Pophale) SiO2 
 PCOD9448595
Probable space group: P M M N
;
_chemical_formula_sum "Si O2"
_cell_formula_units_Z 56
_cell_length_a 20.368161
_cell_length_b 7.758971
_cell_length_c 17.870272
_cell_angle_alpha 90.000000
_cell_angle_beta 90.000000
_cell_angle_gamma 90.000000
_cell_volume 2824.145779
_symmetry_space_group_name_H-M "P M M N"
_symmetry_group_IT_number 59
_space_group.IT_coordinate_system_code '2'
_symmetry_cell_setting 'orthorhombic'
loop_
_space_group_symop_operation_xyz
x,y,z
1/2-x,1/2-y,z
1/2+x,-y,-z
-x,1/2+y,-z
-x,-y,-z
1/2+x,1/2+y,-z
1/2-x,y,z
x,1/2-y,z
loop_
_atom_site_type_symbol
_atom_site_label
_atom_site_fract_x
_atom_site_fract_y
_atom_site_fract_z
Si Si1 0.050554 0.457943 0.897733
Si Si2 0.675712 0.957852 0.384647
Si Si3 0.675663 0.042896 0.555818
Si Si4 0.676331 0.549165 0.808877
Si Si5 0.578805 0.049214 0.681262
Si Si6 0.404934 0.953741 0.055488
Si Si7 0.063859 0.461810 0.728851
O O1 0.048596 0.250000 0.898054
O O2 0.071101 0.515362 0.815255
O O3 0.976225 0.519444 0.915711
O O4 0.095621 0.512983 0.967018
O O5 0.750000 0.020603 0.370230
O O6 0.676871 0.750000 0.380661
O O7 0.622411 0.019100 0.324993
O O8 0.658628 0.005582 0.469864
O O9 0.750000 0.977070 0.569997
O O10 0.678271 0.250000 0.565243
O O11 0.622121 0.973214 0.613914
O O12 0.750000 0.479682 0.799374
O O13 0.676735 0.750000 0.788306
O O14 0.623397 0.460679 0.755381
O O15 0.651712 0.533176 0.893966
O O16 0.567930 0.250000 0.662840
O O17 0.506887 0.977128 0.698495
O O18 0.402903 0.750000 0.068523
O O19 0.063174 0.250000 0.729060
#
# Coordination Sequence:
#
# PCOD9448595 Si02
#       7
#     8   8   8   8   8   8   8
#     4   9  17  32  53  76 103 133 168 216 263 304
#     4   9  18  33  53  74  99 135 174 211 258 316
#     4   9  18  32  50  72 100 134 171 213 261 314
#     4  11  23  36  51  76 110 142 173 216 265 312
#     4  10  19  34  54  76 101 136 179 217 259 312
#     4  10  19  33  54  77 101 137 177 211 254 309
#     4   9  17  32  53  77 104 134 173 219 260 304
#
# _framework density 19.829006
#
# number of rings (size 3 to 8) (size 9 to 14) (size 15 to 20)
#    0.000    2.429    1.429    1.286    0.000    3.429 
#    0.000    3.571    0.000    2.571    0.000    0.000 
#    0.000    0.000    0.000    0.000    0.000    0.000 
#
# Total GULP energy -312504.369977 kJ/mol
# GULP energy per Si atom -5580.435178 kJ/mol
# Density = 1.978387 g / cm^3
# Si number density = 19.829006 Si / 1000 Ang^3
#
#
#
# Elastic Constant Matrix: (Units=GPa)
#
#
# Indices 1 2 3 4 5 6 
#
# 1 108.6471 -1.6182 86.4252 0.0000 0.0000 0.0000
# 2 -1.6182 27.7408 -5.2288 0.0000 0.0000 0.0000
# 3 86.4252 -5.2288 151.8783 0.0000 0.0000 0.0000
# 4 0.0000 0.0000 0.0000 25.4015 0.0000 0.0000
# 5 0.0000 0.0000 0.0000 0.0000 21.9022 0.0000
# 6 0.0000 0.0000 0.0000 0.0000 0.0000 -0.3454
#
#
#
# Elastic Compliance Matrix: (Units=1/GPa)
#
#
# Indices 1 2 3 4 5 6 
#
# 1 0.016835 -0.000829 -0.009608 0.000000 0.000000 0.000000
# 2 -0.000829 0.036324 0.001722 0.000000 0.000000 0.000000
# 3 -0.009608 0.001722 0.012111 0.000000 0.000000 0.000000
# 4 0.000000 0.000000 0.000000 0.039368 0.000000 0.000000
# 5 0.000000 0.000000 0.000000 0.000000 0.045658 0.000000
# 6 0.000000 0.000000 0.000000 0.000000 0.000000 -2.895536
#
#
# Mechanical properties :
#
#
# Convention : Reuss Voigt Hill
#
# Bulk Modulus (GPa) = 20.90294 49.71360 35.30827
# Shear Modulus (GPa) = -1.84375 23.30419 10.73022
#
# Velocity S-wave (km/s) = -0.96532 3.43192 2.32876
# Velocity P-wave (km/s) = 3.05320 6.38981 5.00758
#
# Compressibility (1/GPa) = 0.04784015
#
# Stress axis : x y z
#
# Youngs Moduli (GPa) = 59.40066 27.52980 82.56939
#
# Poissons Ratio (x) = 0.02282 0.79335
# Poissons Ratio (y) = 0.04925 -0.14221
# Poissons Ratio (z) = 0.57074 -0.04742
#
# Static dielectric constant tensor:
#      x y z
#    x 1.692440 0.000000 0.000000 
#    y 0.000000 1.731170 0.000000 
#    z 0.000000 0.000000 1.681930 
# 
# From -- ./inp_files/24240.got.cif
#   From: 2010.05.17/outbox.cif.g08.bks.cpg/sg59_13_cif.got.tgz:24240.got - 2010.06.03 14:40:33.
