data_PCOD9448683
_publ_section_title
;
Structure prediction by ZEFSAII (Michael W. Deem and Ramdas Pophale) SiO2 
 PCOD9448683
Probable space group: P M M N
;
_chemical_formula_sum "Si O2"
_cell_formula_units_Z 64
_cell_length_a 17.827916
_cell_length_b 8.773471
_cell_length_c 23.605427
_cell_angle_alpha 90.000000
_cell_angle_beta 90.000000
_cell_angle_gamma 90.000000
_cell_volume 3692.188667
_symmetry_space_group_name_H-M "P M M N"
_symmetry_group_IT_number 59
_space_group.IT_coordinate_system_code '2'
_symmetry_cell_setting 'orthorhombic'
loop_
_space_group_symop_operation_xyz
x,y,z
1/2-x,1/2-y,z
1/2+x,-y,-z
-x,1/2+y,-z
-x,-y,-z
1/2+x,1/2+y,-z
1/2-x,y,z
x,1/2-y,z
loop_
_atom_site_type_symbol
_atom_site_label
_atom_site_fract_x
_atom_site_fract_y
_atom_site_fract_z
Si Si1 0.908422 0.567602 0.572271
Si Si2 0.026317 0.433539 0.861386
Si Si3 0.332938 0.065642 0.309490
Si Si4 0.990264 0.933092 0.740409
Si Si5 0.444718 0.068596 0.627256
Si Si6 0.660839 0.428657 0.459280
Si Si7 0.835078 0.933599 0.057711
Si Si8 0.069557 0.932336 0.035267
O O1 0.918620 0.750000 0.570943
O O2 0.853389 0.530977 0.625116
O O3 0.875840 0.509006 0.513584
O O4 0.986675 0.488674 0.587834
O O5 0.029246 0.250000 0.855312
O O6 0.101379 0.480222 0.896409
O O7 0.018581 0.510042 0.800777
O O8 0.953586 0.470753 0.900436
O O9 0.250000 0.007333 0.294722
O O10 0.330920 0.250000 0.305324
O O11 0.404099 0.015385 0.272149
O O12 0.992024 0.750000 0.737481
O O13 0.039167 0.999710 0.689007
O O14 0.444071 0.250000 0.629867
O O15 0.370869 0.004750 0.597419
O O16 0.750000 0.443382 0.462823
O O17 0.640871 0.250000 0.459673
O O18 0.750000 0.977778 0.072673
O O19 0.838685 0.750000 0.054375
O O20 0.858741 0.999604 0.996475
O O21 0.070474 0.750000 0.030361
O O22 0.000000 0.000000 0.000000
#
# Coordination Sequence:
#
# PCOD9448683 Si02
#       8
#     8   8   8   8   8   8   8   8
#     4  10  19  33  55  80 104 131 168 211 259 319
#     4   9  18  33  52  74 102 137 174 212 256 308
#     4   8  15  29  49  73  99 126 160 206 256 304
#     4  10  20  34  54  77 101 134 177 220 259 305
#     4  11  22  37  56  75 101 137 175 214 260 315
#     4  11  23  37  53  76 106 135 168 215 266 314
#     4   9  18  33  53  78 107 137 173 219 265 306
#     4   9  17  30  50  75 103 134 167 204 249 301
#
# _framework density 17.333891000000001
#
# number of rings (size 3 to 8) (size 9 to 14) (size 15 to 20)
#    0.000    2.375    0.000    4.875    0.000    4.250 
#    0.000    1.250    0.000   12.000    0.000    0.000 
#    0.000    0.000    0.000    0.000    0.000    0.000 
#
# Total GULP energy -356867.367404 kJ/mol
# GULP energy per Si atom -5576.052616 kJ/mol
# Density = 1.729444 g / cm^3
# Si number density = 17.333891 Si / 1000 Ang^3
#
#
#
# Elastic Constant Matrix: (Units=GPa)
#
#
# Indices 1 2 3 4 5 6 
#
# 1 52.2272 19.6574 49.5855 0.0000 0.0000 0.0000
# 2 19.6574 52.4589 39.9606 0.0000 0.0000 0.0000
# 3 49.5855 39.9606 118.5311 0.0000 0.0000 0.0000
# 4 0.0000 0.0000 0.0000 30.6753 0.0000 0.0000
# 5 0.0000 0.0000 0.0000 0.0000 12.5772 0.0000
# 6 0.0000 0.0000 0.0000 0.0000 0.0000 19.2847
#
#
#
# Elastic Compliance Matrix: (Units=1/GPa)
#
#
# Indices 1 2 3 4 5 6 
#
# 1 0.031988 -0.002413 -0.012568 0.000000 0.000000 0.000000
# 2 -0.002413 0.025832 -0.007699 0.000000 0.000000 0.000000
# 3 -0.012568 -0.007699 0.016290 0.000000 0.000000 0.000000
# 4 0.000000 0.000000 0.000000 0.032600 0.000000 0.000000
# 5 0.000000 0.000000 0.000000 0.000000 0.079509 0.000000
# 6 0.000000 0.000000 0.000000 0.000000 0.000000 0.051855
#
#
# Mechanical properties :
#
#
# Convention : Reuss Voigt Hill
#
# Bulk Modulus (GPa) = 34.78384 49.06936 41.92660
# Shear Modulus (GPa) = 17.06394 20.10834 18.58614
#
# Velocity S-wave (km/s) = 3.14096 3.40966 3.27806
# Velocity P-wave (km/s) = 5.76756 6.62351 6.21029
#
# Compressibility (1/GPa) = 0.02874899
#
# Stress axis : x y z
#
# Youngs Moduli (GPa) = 31.26210 38.71229 61.38742
#
# Poissons Ratio (x) = 0.09340 0.77153
# Poissons Ratio (y) = 0.07542 0.47265
# Poissons Ratio (z) = 0.39291 0.29806
#
# Static dielectric constant tensor:
#      x y z
#    x 1.595190 0.000000 0.000000 
#    y 0.000000 1.581840 0.000000 
#    z 0.000000 0.000000 1.574330 
# 
# From -- ./inp_files/32310.got.cif
#   From: 2010.05.17/outbox.cif.g08.bks.cpg/sg59_17_cif.got.tgz:32310.got - 2010.06.03 14:40:33.
