data_PCOD9448182
_publ_section_title
;
Structure prediction by ZEFSAII (Michael W. Deem and Ramdas Pophale) SiO2 
 PCOD9448182
Probable space group: P M M N
;
_chemical_formula_sum "Si O2"
_cell_formula_units_Z 56
_cell_length_a 17.103915
_cell_length_b 8.805687
_cell_length_c 20.783541
_cell_angle_alpha 90.000000
_cell_angle_beta 90.000000
_cell_angle_gamma 90.000000
_cell_volume 3130.244899
_symmetry_space_group_name_H-M "P M M N"
_symmetry_group_IT_number 59
_space_group.IT_coordinate_system_code '2'
_symmetry_cell_setting 'orthorhombic'
loop_
_space_group_symop_operation_xyz
x,y,z
1/2-x,1/2-y,z
1/2+x,-y,-z
-x,1/2+y,-z
-x,-y,-z
1/2+x,1/2+y,-z
1/2-x,y,z
x,1/2-y,z
loop_
_atom_site_type_symbol
_atom_site_label
_atom_site_fract_x
_atom_site_fract_y
_atom_site_fract_z
Si Si1 0.062590 0.432317 0.269406
Si Si2 0.524881 0.568139 0.932078
Si Si3 0.250000 0.068039 0.775528
Si Si4 0.064769 0.569315 0.408896
Si Si5 0.841232 0.067780 0.848188
Si Si6 0.608515 0.932130 0.461726
Si Si7 0.250000 0.434917 0.627901
Si Si8 0.414000 0.568264 0.811650
O O1 0.067033 0.250000 0.266740
O O2 0.079270 0.491474 0.340655
O O3 0.122342 0.501300 0.217539
O O4 0.975052 0.476817 0.245038
O O5 0.531664 0.750000 0.935778
O O6 0.605567 0.499113 0.905249
O O7 0.459573 0.532611 0.877753
O O8 0.500000 0.500000 0.000000
O O9 0.250000 0.250000 0.776631
O O10 0.250000 0.013522 0.701233
O O11 0.169828 0.009064 0.806486
O O12 0.072861 0.750000 0.402664
O O13 0.115394 0.508285 0.468535
O O14 0.975770 0.533774 0.430785
O O15 0.750000 0.027971 0.854370
O O16 0.848286 0.250000 0.847469
O O17 0.386472 0.250000 0.530062
O O18 0.674368 0.982982 0.412046
O O19 0.250000 0.250000 0.629513
O O20 0.403836 0.750000 0.808275
#
# Coordination Sequence:
#
# PCOD9448182 Si02
#       8
#     8   8   4   8   8   8   4   8
#     4  10  20  35  57  81 107 145 188 229 280 336
#     4  10  21  39  63  88 117 154 191 229 275 327
#     4  11  21  33  55  85 113 144 185 230 273 325
#     4  10  19  32  51  75 102 135 177 228 278 330
#     4  10  21  38  60  87 117 148 185 231 281 331
#     4   9  18  33  51  70  98 135 178 223 275 335
#     4   9  18  33  51  73 101 134 173 222 275 323
#     4   9  20  37  55  80 114 148 182 225 273 324
#
# _framework density 17.889973000000001
#
# number of rings (size 3 to 8) (size 9 to 14) (size 15 to 20)
#    0.000    2.286    0.000    3.643    0.000    6.286 
#    2.571    1.786    0.000    0.000    0.000    0.000 
#    0.000    0.000    0.000    0.000    0.000    0.000 
#
# Total GULP energy -312566.817333 kJ/mol
# GULP energy per Si atom -5581.550310 kJ/mol
# Density = 1.784925 g / cm^3
# Si number density = 17.889973 Si / 1000 Ang^3
#
#
#
# Elastic Constant Matrix: (Units=GPa)
#
#
# Indices 1 2 3 4 5 6 
#
# 1 127.7763 50.0601 56.0570 0.0000 0.0000 0.0000
# 2 50.0601 45.9182 48.6306 0.0000 0.0000 0.0000
# 3 56.0570 48.6306 124.6915 0.0000 0.0000 0.0000
# 4 0.0000 0.0000 0.0000 31.6627 0.0000 0.0000
# 5 0.0000 0.0000 0.0000 0.0000 13.2860 0.0000
# 6 0.0000 0.0000 0.0000 0.0000 0.0000 26.3541
#
#
#
# Elastic Compliance Matrix: (Units=1/GPa)
#
#
# Indices 1 2 3 4 5 6 
#
# 1 0.013685 -0.014317 -0.000568 0.000000 0.000000 0.000000
# 2 -0.014317 0.052082 -0.013876 0.000000 0.000000 0.000000
# 3 -0.000568 -0.013876 0.013687 0.000000 0.000000 0.000000
# 4 0.000000 0.000000 0.000000 0.031583 0.000000 0.000000
# 5 0.000000 0.000000 0.000000 0.000000 0.075267 0.000000
# 6 0.000000 0.000000 0.000000 0.000000 0.000000 0.037945
#
#
# Mechanical properties :
#
#
# Convention : Reuss Voigt Hill
#
# Bulk Modulus (GPa) = 45.59777 67.54236 56.57007
# Shear Modulus (GPa) = 17.29618 23.83644 20.56631
#
# Velocity S-wave (km/s) = 3.11273 3.65415 3.39425
# Velocity P-wave (km/s) = 6.20177 7.45923 6.85937
#
# Compressibility (1/GPa) = 0.02193090
#
# Stress axis : x y z
#
# Youngs Moduli (GPa) = 73.07451 19.20059 73.06209
#
# Poissons Ratio (x) = 0.27490 0.04153
# Poissons Ratio (y) = 1.04621 1.01379
# Poissons Ratio (z) = 0.04154 0.26642
#
# Static dielectric constant tensor:
#      x y z
#    x 1.603130 0.000000 0.000000 
#    y 0.000000 1.596210 0.000000 
#    z 0.000000 0.000000 1.589650 
# 
# From -- ./inp_files/30458.got.cif
#   From: 2010.05.17/outbox.cif.g08.bks.cpg/sg59_16_cif.got.tgz:30458.got - 2010.06.03 14:40:33.
