data_PCOD9448524
_publ_section_title
;
Structure prediction by ZEFSAII (Michael W. Deem and Ramdas Pophale) SiO2 
 PCOD9448524
Probable space group: P M M N
;
_chemical_formula_sum "Si O2"
_cell_formula_units_Z 64
_cell_length_a 8.557754
_cell_length_b 17.801515
_cell_length_c 23.918981
_cell_angle_alpha 90.000000
_cell_angle_beta 90.000000
_cell_angle_gamma 90.000000
_cell_volume 3643.841154
_symmetry_space_group_name_H-M "P M M N"
_symmetry_group_IT_number 59
_space_group.IT_coordinate_system_code '2'
_symmetry_cell_setting 'orthorhombic'
loop_
_space_group_symop_operation_xyz
x,y,z
1/2-x,1/2-y,z
1/2+x,-y,-z
-x,1/2+y,-z
-x,-y,-z
1/2+x,1/2+y,-z
1/2-x,y,z
x,1/2-y,z
loop_
_atom_site_type_symbol
_atom_site_label
_atom_site_fract_x
_atom_site_fract_y
_atom_site_fract_z
Si Si1 0.059910 0.834526 0.567445
Si Si2 0.935372 0.938274 0.128670
Si Si3 0.061036 0.515274 0.634283
Si Si4 0.063353 0.333685 0.181378
Si Si5 0.434172 0.417420 0.068411
Si Si6 0.437852 0.519477 0.761137
Si Si7 0.435864 0.663808 0.039041
Si Si8 0.937138 0.429080 0.535028
O O1 0.250000 0.833644 0.570231
O O2 0.005413 0.750000 0.581325
O O3 0.009610 0.904101 0.607344
O O4 0.017802 0.858155 0.503644
O O5 0.750000 0.925987 0.130341
O O6 0.017744 0.868698 0.099235
O O7 0.992707 0.962137 0.190498
O O8 0.972589 0.009939 0.089279
O O9 0.250000 0.515918 0.632939
O O10 0.006717 0.507403 0.698053
O O11 0.003932 0.446236 0.596066
O O12 0.250000 0.336283 0.190490
O O13 0.006115 0.250000 0.193419
O O14 0.037985 0.354972 0.116415
O O15 0.985315 0.397912 0.218143
O O16 0.250000 0.435803 0.068006
O O17 0.485699 0.386246 0.008993
O O18 0.250000 0.515112 0.760721
O O19 0.250000 0.659564 0.032051
O O20 0.486310 0.750000 0.032903
O O21 0.750000 0.431169 0.537336
O O22 0.000000 0.500000 0.500000
#
# Coordination Sequence:
#
# PCOD9448524 Si02
#       8
#     8   8   8   8   8   8   8   8
#     4   8  14  25  43  68  96 123 150 182 221 266
#     4  10  20  35  53  72  97 128 162 199 242 292
#     4   9  17  30  48  69  93 121 157 198 233 272
#     4   9  18  31  46  67  97 130 160 192 232 280
#     4  10  19  33  53  74  98 128 161 195 237 293
#     4   9  19  33  49  70  93 123 163 202 237 276
#     4  11  23  36  51  73  98 122 154 201 253 300
#     4   9  16  27  45  67  92 124 157 189 225 265
#
# _framework density 17.563883000000001
#
# number of rings (size 3 to 8) (size 9 to 14) (size 15 to 20)
#    0.000    2.625    0.000    3.000    0.000    3.750 
#    0.000    1.250    0.000   10.125    0.000    3.500 
#    0.000    0.000    0.000    0.000    0.000    0.000 
#
# Total GULP energy -356665.302689 kJ/mol
# GULP energy per Si atom -5572.895355 kJ/mol
# Density = 1.752391 g / cm^3
# Si number density = 17.563883 Si / 1000 Ang^3
#
#
#
# Elastic Constant Matrix: (Units=GPa)
#
#
# Indices 1 2 3 4 5 6 
#
# 1 7.6913 -0.4627 10.3255 0.0000 0.0000 0.0000
# 2 -0.4627 22.2774 21.3860 0.0000 0.0000 0.0000
# 3 10.3255 21.3860 124.2361 0.0000 0.0000 0.0000
# 4 0.0000 0.0000 0.0000 8.7287 0.0000 0.0000
# 5 0.0000 0.0000 0.0000 0.0000 21.2427 0.0000
# 6 0.0000 0.0000 0.0000 0.0000 0.0000 20.4738
#
#
#
# Elastic Compliance Matrix: (Units=1/GPa)
#
#
# Indices 1 2 3 4 5 6 
#
# 1 0.152362 0.018354 -0.015823 0.000000 0.000000 0.000000
# 2 0.018354 0.055986 -0.011163 0.000000 0.000000 0.000000
# 3 -0.015823 -0.011163 0.011286 0.000000 0.000000 0.000000
# 4 0.000000 0.000000 0.000000 0.114565 0.000000 0.000000
# 5 0.000000 0.000000 0.000000 0.000000 0.047075 0.000000
# 6 0.000000 0.000000 0.000000 0.000000 0.000000 0.048843
#
#
# Mechanical properties :
#
#
# Convention : Reuss Voigt Hill
#
# Bulk Modulus (GPa) = 4.94143 24.07807 14.50975
# Shear Modulus (GPa) = 9.71181 18.28608 13.99895
#
# Velocity S-wave (km/s) = 2.35402 3.23014 2.82624
# Velocity P-wave (km/s) = 3.19501 5.25836 4.35077
#
# Compressibility (1/GPa) = 0.20237048
#
# Stress axis : x y z
#
# Youngs Moduli (GPa) = 6.56331 17.86162 88.60684
#
# Poissons Ratio (x) = -0.32783 1.40198
# Poissons Ratio (y) = -0.12046 0.98911
# Poissons Ratio (z) = 0.10385 0.19939
#
# Static dielectric constant tensor:
#      x y z
#    x 1.595700 0.000000 0.000000 
#    y 0.000000 1.593660 0.000000 
#    z 0.000000 0.000000 1.620130 
# 
# From -- ./inp_files/31777.got.cif
#   From: 2010.05.17/outbox.cif.g08.bks.cpg/sg59_16_cif.got.tgz:31777.got - 2010.06.03 14:40:33.
