data_PCOD9449924
_publ_section_title
;
Structure prediction by ZEFSAII (Michael W. Deem and Ramdas Pophale) SiO2 
 PCOD9449924
Probable space group: P M M N
;
_chemical_formula_sum "Si O2"
_cell_formula_units_Z 48
_cell_length_a 7.488658
_cell_length_b 18.482005
_cell_length_c 16.603715
_cell_angle_alpha 90.000000
_cell_angle_beta 90.000000
_cell_angle_gamma 90.000000
_cell_volume 2298.044058
_symmetry_space_group_name_H-M "P M M N"
_symmetry_group_IT_number 59
_space_group.IT_coordinate_system_code '2'
_symmetry_cell_setting 'orthorhombic'
loop_
_space_group_symop_operation_xyz
x,y,z
1/2-x,1/2-y,z
1/2+x,-y,-z
-x,1/2+y,-z
-x,-y,-z
1/2+x,1/2+y,-z
1/2-x,y,z
x,1/2-y,z
loop_
_atom_site_type_symbol
_atom_site_label
_atom_site_fract_x
_atom_site_fract_y
_atom_site_fract_z
Si Si1 0.531508 0.750000 0.110087
Si Si2 0.034427 0.394098 0.977600
Si Si3 0.967606 0.750000 0.294892
Si Si4 0.536637 0.667360 0.569642
Si Si5 0.035480 0.537806 0.687315
Si Si6 0.531725 0.890316 0.397487
Si Si7 0.539310 0.026748 0.130803
O O1 0.750000 0.750000 0.111718
O O2 0.473447 0.679542 0.062259
O O3 0.473580 0.750000 0.202614
O O4 0.250000 0.395701 0.975670
O O5 0.966015 0.459522 0.921176
O O6 0.982333 0.406427 0.070021
O O7 0.750000 0.750000 0.295605
O O8 0.022054 0.676898 0.340782
O O9 0.750000 0.673039 0.560824
O O10 0.469018 0.750000 0.578170
O O11 0.503329 0.613053 0.643011
O O12 0.470707 0.629100 0.487588
O O13 0.250000 0.531714 0.690059
O O14 0.971071 0.467756 0.636839
O O15 0.967316 0.535324 0.779296
O O16 0.750000 0.891885 0.397881
O O17 0.750000 0.012988 0.140053
#
# Coordination Sequence:
#
# PCOD9449924 Si02
#       7
#     4   8   4   8   8   8   8
#     4   9  16  26  45  76 101 120 154 201 247 289
#     4   9  17  31  51  73 100 128 158 201 249 292
#     4   9  14  24  48  78 105 128 156 205 259 297
#     4  10  20  35  52  73 102 134 168 206 251 299
#     4  10  20  33  52  77 101 130 171 210 245 295
#     4   9  16  29  50  76 103 130 162 204 253 300
#     4   9  18  33  50  71  98 130 165 200 241 292
#
# _framework density 20.887329999999999
#
# number of rings (size 3 to 8) (size 9 to 14) (size 15 to 20)
#    0.000    2.667    0.833    1.500    0.000    5.000 
#    1.500    0.417    0.000    0.000    0.000    3.500 
#    0.000    0.000    0.000    0.000    0.000    0.000 
#
# Total GULP energy -267920.285850 kJ/mol
# GULP energy per Si atom -5581.672622 kJ/mol
# Density = 2.083979 g / cm^3
# Si number density = 20.887330 Si / 1000 Ang^3
#
#
#
# Elastic Constant Matrix: (Units=GPa)
#
#
# Indices 1 2 3 4 5 6 
#
# 1 57.2570 0.5534 1.9911 0.0000 0.0000 0.0000
# 2 0.5534 123.4370 112.3777 0.0000 0.0000 0.0000
# 3 1.9911 112.3777 183.5258 0.0000 0.0000 0.0000
# 4 0.0000 0.0000 0.0000 29.4853 0.0000 0.0000
# 5 0.0000 0.0000 0.0000 0.0000 12.3947 0.0000
# 6 0.0000 0.0000 0.0000 0.0000 0.0000 3153.6423
#
#
#
# Elastic Compliance Matrix: (Units=1/GPa)
#
#
# Indices 1 2 3 4 5 6 
#
# 1 0.017474 0.000213 -0.000320 0.000000 0.000000 0.000000
# 2 0.000213 0.018309 -0.011214 0.000000 0.000000 0.000000
# 3 -0.000320 -0.011214 0.012319 0.000000 0.000000 0.000000
# 4 0.000000 0.000000 0.000000 0.033915 0.000000 0.000000
# 5 0.000000 0.000000 0.000000 0.000000 0.080679 0.000000
# 6 0.000000 0.000000 0.000000 0.000000 0.000000 0.000317
#
#
# Mechanical properties :
#
#
# Convention : Reuss Voigt Hill
#
# Bulk Modulus (GPa) = 39.27585 66.00715 52.64150
# Shear Modulus (GPa) = 25.75438 655.72429 340.73933
#
# Velocity S-wave (km/s) = 3.51524 17.73740 12.78617
# Velocity P-wave (km/s) = 5.94309 21.24047 15.59612
#
# Compressibility (1/GPa) = 0.02546094
#
# Stress axis : x y z
#
# Youngs Moduli (GPa) = 57.22731 54.61742 81.17792
#
# Poissons Ratio (x) = -0.01163 0.02598
# Poissons Ratio (y) = -0.01219 0.91029
# Poissons Ratio (z) = 0.01831 0.61245
#
# Static dielectric constant tensor:
#      x y z
#    x 1.813550 0.000000 0.000000 
#    y 0.000000 1.723570 0.000000 
#    z 0.000000 0.000000 1.723980 
# 
# From -- ./inp_files/20551.got.cif
#   From: 2010.05.17/outbox.cif.g08.bks.cpg/sg59_11_cif.got.tgz:20551.got - 2010.06.03 14:40:33.
