data_PCOD9449347
_publ_section_title
;
Structure prediction by ZEFSAII (Michael W. Deem and Ramdas Pophale) SiO2 
 PCOD9449347
Probable space group: P M M N
;
_chemical_formula_sum "Si O2"
_cell_formula_units_Z 56
_cell_length_a 19.360888
_cell_length_b 7.437804
_cell_length_c 18.789715
_cell_angle_alpha 90.000000
_cell_angle_beta 90.000000
_cell_angle_gamma 90.000000
_cell_volume 2705.765750
_symmetry_space_group_name_H-M "P M M N"
_symmetry_group_IT_number 59
_space_group.IT_coordinate_system_code '2'
_symmetry_cell_setting 'orthorhombic'
loop_
_space_group_symop_operation_xyz
x,y,z
1/2-x,1/2-y,z
1/2+x,-y,-z
-x,1/2+y,-z
-x,-y,-z
1/2+x,1/2+y,-z
1/2-x,y,z
x,1/2-y,z
loop_
_atom_site_type_symbol
_atom_site_label
_atom_site_fract_x
_atom_site_fract_y
_atom_site_fract_z
Si Si1 0.828626 0.465456 0.916795
Si Si2 0.333991 0.958139 0.505915
Si Si3 0.829270 0.032547 0.339071
Si Si4 0.671483 0.535458 0.078196
Si Si5 0.330016 0.970062 0.350400
Si Si6 0.576070 0.537864 0.204034
Si Si7 0.419940 0.970430 0.215658
O O1 0.750000 0.534055 0.908753
O O2 0.825491 0.250000 0.910227
O O3 0.851779 0.505100 0.997169
O O4 0.878684 0.529359 0.854645
O O5 0.250000 0.958955 0.506088
O O6 0.356667 0.750000 0.505792
O O7 0.353393 0.034704 0.582958
O O8 0.353480 0.033984 0.428871
O O9 0.750000 0.972819 0.326176
O O10 0.827367 0.250000 0.342999
O O11 0.878977 0.982053 0.275148
O O12 0.750000 0.464233 0.085438
O O13 0.675805 0.750000 0.088478
O O14 0.619716 0.462853 0.137668
O O15 0.250000 0.022666 0.338573
O O16 0.330009 0.750000 0.352486
O O17 0.378806 0.026886 0.286223
O O18 0.567610 0.750000 0.190118
O O19 0.498849 0.466553 0.213536
O O20 0.419667 0.750000 0.216614
#
# Coordination Sequence:
#
# PCOD9449347 Si02
#       7
#     8   8   8   8   8   8   8
#     4   9  17  30  49  71  91 111 142 187 231 263
#     4   7  11  21  39  64  89 112 143 184 225 261
#     4   9  17  30  48  68  89 114 149 192 228 257
#     4   9  18  32  47  62  83 114 150 183 218 266
#     4   8  12  21  41  66  90 117 149 184 222 263
#     4  10  20  32  45  64  93 125 152 178 215 267
#     4   9  17  28  42  64  94 122 147 179 220 265
#
# _framework density 20.696543999999999
#
# number of rings (size 3 to 8) (size 9 to 14) (size 15 to 20)
#    0.000    3.286    0.000    2.571    0.000    3.714 
#    0.000    2.857    0.000    0.000    0.000    1.000 
#    0.000    4.571    0.000    0.000    0.000    0.000 
#
# Total GULP energy -312265.539959 kJ/mol
# GULP energy per Si atom -5576.170356 kJ/mol
# Density = 2.064944 g / cm^3
# Si number density = 20.696544 Si / 1000 Ang^3
#
#
#
# Elastic Constant Matrix: (Units=GPa)
#
#
# Indices 1 2 3 4 5 6 
#
# 1 120.1367 0.4939 124.4059 0.0000 0.0000 0.0000
# 2 0.4939 61.0518 -7.4276 0.0000 0.0000 0.0000
# 3 124.4059 -7.4276 222.6115 0.0000 0.0000 0.0000
# 4 0.0000 0.0000 0.0000 26.7330 0.0000 0.0000
# 5 0.0000 0.0000 0.0000 0.0000 -30.9177 0.0000
# 6 0.0000 0.0000 0.0000 0.0000 0.0000 2.8397
#
#
#
# Elastic Compliance Matrix: (Units=1/GPa)
#
#
# Indices 1 2 3 4 5 6 
#
# 1 0.019897 -0.001520 -0.011170 0.000000 0.000000 0.000000
# 2 -0.001520 0.016562 0.001402 0.000000 0.000000 0.000000
# 3 -0.011170 0.001402 0.010781 0.000000 0.000000 0.000000
# 4 0.000000 0.000000 0.000000 0.037407 0.000000 0.000000
# 5 0.000000 0.000000 0.000000 0.000000 -0.032344 0.000000
# 6 0.000000 0.000000 0.000000 0.000000 0.000000 0.352151
#
#
# Mechanical properties :
#
#
# Convention : Reuss Voigt Hill
#
# Bulk Modulus (GPa) = 40.54371 70.97159 55.75765
# Shear Modulus (GPa) = 11.48757 18.81953 15.15355
#
# Velocity S-wave (km/s) = 2.35850 3.01874 2.70881
# Velocity P-wave (km/s) = 5.20085 6.82029 6.06487
#
# Compressibility (1/GPa) = 0.02466474
#
# Stress axis : x y z
#
# Youngs Moduli (GPa) = 50.25801 60.37772 92.75240
#
# Poissons Ratio (x) = 0.09177 1.03607
# Poissons Ratio (y) = 0.07639 -0.13004
# Poissons Ratio (z) = 0.56140 -0.08465
#
# Static dielectric constant tensor:
#      x y z
#    x 1.700050 0.000000 0.000000 
#    y 0.000000 1.799470 0.000000 
#    z 0.000000 0.000000 1.739780 
# 
# From -- ./inp_files/23252.got.cif
#   From: 2010.05.17/outbox.cif.g08.bks.cpg/sg59_12_cif.got.tgz:23252.got - 2010.06.03 14:40:33.
