data_PCOD9449970
_publ_section_title
;
Structure prediction by ZEFSAII (Michael W. Deem and Ramdas Pophale) SiO2 
 PCOD9449970
Probable space group: P M M N
;
_chemical_formula_sum "Si O2"
_cell_formula_units_Z 56
_cell_length_a 17.625501
_cell_length_b 9.352954
_cell_length_c 19.520544
_cell_angle_alpha 90.000000
_cell_angle_beta 90.000000
_cell_angle_gamma 90.000000
_cell_volume 3217.971440
_symmetry_space_group_name_H-M "P M M N"
_symmetry_group_IT_number 59
_space_group.IT_coordinate_system_code '2'
_symmetry_cell_setting 'orthorhombic'
loop_
_space_group_symop_operation_xyz
x,y,z
1/2-x,1/2-y,z
1/2+x,-y,-z
-x,1/2+y,-z
-x,-y,-z
1/2+x,1/2+y,-z
1/2-x,y,z
x,1/2-y,z
loop_
_atom_site_type_symbol
_atom_site_label
_atom_site_fract_x
_atom_site_fract_y
_atom_site_fract_z
Si Si1 0.837702 0.918768 0.856826
Si Si2 0.342560 0.413756 0.558884
Si Si3 0.158722 0.917800 0.423890
Si Si4 0.340867 0.916267 0.694597
Si Si5 0.107162 0.582357 0.273248
Si Si6 0.557897 0.586135 0.207561
Si Si7 0.028145 0.921038 0.067748
O O1 0.750000 0.933917 0.877167
O O2 0.857140 0.750000 0.857144
O O3 0.848833 0.984479 0.780952
O O4 0.894291 0.007183 0.905280
O O5 0.250000 0.415460 0.558397
O O6 0.367728 0.250000 0.561388
O O7 0.366877 0.490967 0.489070
O O8 0.366169 0.497375 0.627065
O O9 0.250000 0.933229 0.417013
O O10 0.143298 0.750000 0.436387
O O11 0.122163 0.959035 0.351502
O O12 0.250000 0.930607 0.700135
O O13 0.358977 0.750000 0.686227
O O14 0.381097 0.980899 0.760814
O O15 0.130216 0.750000 0.265334
O O16 0.019182 0.573509 0.252099
O O17 0.584810 0.750000 0.212794
O O18 0.531896 0.558356 0.129831
O O19 0.037212 0.750000 0.058381
O O20 0.000000 0.000000 0.000000
#
# Coordination Sequence:
#
# PCOD9449970 Si02
#       7
#     8   8   8   8   8   8   8
#     4  10  20  33  52  80 111 142 178 217 253 296
#     4   9  17  29  46  68  95 128 166 210 258 303
#     4   9  16  27  45  69  98 132 169 209 252 299
#     4  10  20  34  53  75  97 125 166 213 257 304
#     4   9  18  32  50  73 103 138 173 210 255 306
#     4   9  19  35  54  77 102 129 163 202 248 303
#     4  10  21  38  60  83 109 141 173 208 254 308
#
# _framework density 17.402267999999999
#
# number of rings (size 3 to 8) (size 9 to 14) (size 15 to 20)
#    0.000    2.571    0.000    3.000    0.000    7.714 
#    0.000    2.857    0.000    0.857    0.000    0.000 
#    0.000    0.000    0.000    0.000    0.000    0.000 
#
# Total GULP energy -312374.882791 kJ/mol
# GULP energy per Si atom -5578.122907 kJ/mol
# Density = 1.736266 g / cm^3
# Si number density = 17.402268 Si / 1000 Ang^3
#
#
#
# Elastic Constant Matrix: (Units=GPa)
#
#
# Indices 1 2 3 4 5 6 
#
# 1 23.8076 51.1936 45.0254 0.0000 0.0000 0.0000
# 2 51.1936 132.8340 97.1509 0.0000 0.0000 0.0000
# 3 45.0254 97.1509 129.0585 0.0000 0.0000 0.0000
# 4 0.0000 0.0000 0.0000 35.8409 0.0000 0.0000
# 5 0.0000 0.0000 0.0000 0.0000 17.9429 0.0000
# 6 0.0000 0.0000 0.0000 0.0000 0.0000 25.1283
#
#
#
# Elastic Compliance Matrix: (Units=1/GPa)
#
#
# Indices 1 2 3 4 5 6 
#
# 1 0.324015 -0.093890 -0.042363 0.000000 0.000000 0.000000
# 2 -0.093890 0.043957 -0.000333 0.000000 0.000000 0.000000
# 3 -0.042363 -0.000333 0.022779 0.000000 0.000000 0.000000
# 4 0.000000 0.000000 0.000000 0.027901 0.000000 0.000000
# 5 0.000000 0.000000 0.000000 0.000000 0.055732 0.000000
# 6 0.000000 0.000000 0.000000 0.000000 0.000000 0.039796
#
#
# Mechanical properties :
#
#
# Convention : Reuss Voigt Hill
#
# Bulk Modulus (GPa) = 8.50510 74.71555 41.61033
# Shear Modulus (GPa) = 6.04928 21.93777 13.99352
#
# Velocity S-wave (km/s) = 1.86646 3.55438 2.83878
# Velocity P-wave (km/s) = 3.08916 7.73773 5.89132
#
# Compressibility (1/GPa) = 0.11757651
#
# Stress axis : x y z
#
# Youngs Moduli (GPa) = 3.08628 22.74967 43.90078
#
# Poissons Ratio (x) = 2.13598 1.85978
# Poissons Ratio (y) = 0.28977 0.01462
# Poissons Ratio (z) = 0.13074 0.00758
#
# Static dielectric constant tensor:
#      x y z
#    x 1.585990 0.000000 0.000000 
#    y 0.000000 1.586340 0.000000 
#    z 0.000000 0.000000 1.571340 
# 
# From -- ./inp_files/28093.got.cif
#   From: 2010.05.17/outbox.cif.g08.bks.cpg/sg59_15_cif.got.tgz:28093.got - 2010.06.03 14:40:33.
