data_PCOD9449444
_publ_section_title
;
Structure prediction by ZEFSAII (Michael W. Deem and Ramdas Pophale) SiO2 
 PCOD9449444
Probable space group: P M M N
;
_chemical_formula_sum "Si O2"
_cell_formula_units_Z 40
_cell_length_a 9.747644
_cell_length_b 7.686072
_cell_length_c 26.681583
_cell_angle_alpha 90.000000
_cell_angle_beta 90.000000
_cell_angle_gamma 90.000000
_cell_volume 1999.013378
_symmetry_space_group_name_H-M "P M M N"
_symmetry_group_IT_number 59
_space_group.IT_coordinate_system_code '2'
_symmetry_cell_setting 'orthorhombic'
loop_
_space_group_symop_operation_xyz
x,y,z
1/2-x,1/2-y,z
1/2+x,-y,-z
-x,1/2+y,-z
-x,-y,-z
1/2+x,1/2+y,-z
1/2-x,y,z
x,1/2-y,z
loop_
_atom_site_type_symbol
_atom_site_label
_atom_site_fract_x
_atom_site_fract_y
_atom_site_fract_z
Si Si1 0.407496 0.037424 0.752777
Si Si2 0.093361 0.540633 0.452067
Si Si3 0.905230 0.543658 0.953188
Si Si4 0.091694 0.462398 0.639715
Si Si5 0.405390 0.957590 0.157015
O O1 0.250000 0.985547 0.761077
O O2 0.410071 0.250000 0.753111
O O3 0.446643 0.984248 0.696292
O O4 0.503424 0.973881 0.797505
O O5 0.250000 0.475442 0.456523
O O6 0.100870 0.750000 0.448251
O O7 0.000000 0.500000 0.500000
O O8 0.013129 0.476686 0.402655
O O9 0.750000 0.470714 0.958696
O O10 0.894911 0.750000 0.951303
O O11 0.961166 0.486664 0.898974
O O12 0.000000 0.500000 0.000000
O O13 0.250000 0.515325 0.629843
O O14 0.091530 0.250000 0.638947
O O15 0.250000 0.028103 0.158168
O O16 0.397322 0.750000 0.163779
#
# Coordination Sequence:
#
# PCOD9449444 Si02
#       5
#     8   8   8   8   8
#     4   8  14  25  43  68  95 122 154 192 234 280
#     4  10  20  32  48  71  97 127 164 204 246 292
#     4  10  21  36  53  73  98 129 164 202 243 286
#     4   8  14  26  44  66  93 123 155 196 243 286
#     4   9  17  29  46  69  96 123 152 191 238 285
#
# _framework density 20.009869999999999
#
# number of rings (size 3 to 8) (size 9 to 14) (size 15 to 20)
#    0.000    3.000    0.000    2.400    0.000    4.000 
#    0.000    6.000    0.000    1.200    0.000    5.600 
#    0.000    0.000    0.000    0.000    0.000    0.000 
#
# Total GULP energy -223075.897436 kJ/mol
# GULP energy per Si atom -5576.897436 kJ/mol
# Density = 1.996433 g / cm^3
# Si number density = 20.009870 Si / 1000 Ang^3
#
#
#
# Elastic Constant Matrix: (Units=GPa)
#
#
# Indices 1 2 3 4 5 6 
#
# 1 127.0310 5.1288 132.3707 0.0000 0.0000 0.0000
# 2 5.1288 35.1754 1.6768 0.0000 0.0000 0.0000
# 3 132.3707 1.6768 219.7710 0.0000 0.0000 0.0000
# 4 0.0000 0.0000 0.0000 17.7898 0.0000 0.0000
# 5 0.0000 0.0000 0.0000 0.0000 42.9021 0.0000
# 6 0.0000 0.0000 0.0000 0.0000 0.0000 8.9265
#
#
#
# Elastic Compliance Matrix: (Units=1/GPa)
#
#
# Indices 1 2 3 4 5 6 
#
# 1 0.021358 -0.002502 -0.012845 0.000000 0.000000 0.000000
# 2 -0.002502 0.028732 0.001288 0.000000 0.000000 0.000000
# 3 -0.012845 0.001288 0.012277 0.000000 0.000000 0.000000
# 4 0.000000 0.000000 0.000000 0.056212 0.000000 0.000000
# 5 0.000000 0.000000 0.000000 0.000000 0.023309 0.000000
# 6 0.000000 0.000000 0.000000 0.000000 0.000000 0.112027
#
#
# Mechanical properties :
#
#
# Convention : Reuss Voigt Hill
#
# Bulk Modulus (GPa) = 29.19792 73.36999 51.28396
# Shear Modulus (GPa) = 17.03864 30.11042 23.57453
#
# Velocity S-wave (km/s) = 2.92123 3.88336 3.43614
# Velocity P-wave (km/s) = 5.09917 7.54014 6.43643
#
# Compressibility (1/GPa) = 0.03424901
#
# Stress axis : x y z
#
# Youngs Moduli (GPa) = 46.82006 34.80397 81.45146
#
# Poissons Ratio (x) = 0.08707 1.04627
# Poissons Ratio (y) = 0.11714 -0.10488
# Poissons Ratio (z) = 0.60142 -0.04482
#
# Static dielectric constant tensor:
#      x y z
#    x 1.700030 0.000000 0.000000 
#    y 0.000000 1.761890 0.000000 
#    z 0.000000 0.000000 1.698480 
# 
# From -- ./inp_files/31151.got.cif
#   From: 2010.05.17/outbox.cif.g08.bks.cpg/sg59_16_cif.got.tgz:31151.got - 2010.06.03 14:40:33.
