data_PCOD9449593
_publ_section_title
;
Structure prediction by ZEFSAII (Michael W. Deem and Ramdas Pophale) SiO2 
 PCOD9449593
Probable space group: P M M N
;
_chemical_formula_sum "Si O2"
_cell_formula_units_Z 64
_cell_length_a 18.273687
_cell_length_b 8.990806
_cell_length_c 21.731975
_cell_angle_alpha 90.000000
_cell_angle_beta 90.000000
_cell_angle_gamma 90.000000
_cell_volume 3570.458630
_symmetry_space_group_name_H-M "P M M N"
_symmetry_group_IT_number 59
_space_group.IT_coordinate_system_code '2'
_symmetry_cell_setting 'orthorhombic'
loop_
_space_group_symop_operation_xyz
x,y,z
1/2-x,1/2-y,z
1/2+x,-y,-z
-x,1/2+y,-z
-x,-y,-z
1/2+x,1/2+y,-z
1/2-x,y,z
x,1/2-y,z
loop_
_atom_site_type_symbol
_atom_site_label
_atom_site_fract_x
_atom_site_fract_y
_atom_site_fract_z
Si Si1 0.337934 0.575545 0.231093
Si Si2 0.664361 0.071075 0.249512
Si Si3 0.584005 0.571696 0.884325
Si Si4 0.335689 0.570608 0.999527
Si Si5 0.914978 0.430907 0.125807
Si Si6 0.839281 0.923169 0.642722
Si Si7 0.160812 0.075933 0.624352
Si Si8 0.664656 0.568578 0.508956
O O1 0.250000 0.555461 0.226914
O O2 0.353506 0.750000 0.224624
O O3 0.375662 0.485682 0.176609
O O4 0.361786 0.516983 0.298159
O O5 0.750000 0.029205 0.242428
O O6 0.661168 0.250000 0.251433
O O7 0.619847 0.017737 0.190072
O O8 0.636790 0.009271 0.314708
O O9 0.587569 0.750000 0.887112
O O10 0.621894 0.503062 0.944213
O O11 0.499137 0.525300 0.881334
O O12 0.250000 0.534246 0.002590
O O13 0.342767 0.750000 0.004074
O O14 0.369091 0.523038 0.934006
O O15 0.912443 0.250000 0.127150
O O16 0.750000 0.927261 0.640181
O O17 0.859544 0.750000 0.651158
O O18 0.866371 0.976526 0.575468
O O19 0.250000 0.065467 0.622279
O O20 0.142910 0.250000 0.630370
O O21 0.133518 0.021083 0.557292
O O22 0.750000 0.522801 0.509045
O O23 0.664123 0.750000 0.508814
#
# Coordination Sequence:
#
# PCOD9449593 Si02
#       8
#     8   8   8   8   8   8   8   8
#     4  10  20  33  48  68  96 128 160 196 240 287
#     4   9  16  28  47  69  93 123 160 198 233 275
#     4  11  22  35  52  73  98 127 159 196 233 273
#     4  10  20  36  58  79  99 125 155 189 233 283
#     4   9  19  35  53  73  97 127 161 193 230 278
#     4   8  13  23  41  64  89 120 159 198 235 279
#     4   8  13  22  37  60  92 126 157 191 234 282
#     4   7  10  18  34  57  87 122 155 188 231 283
#
# _framework density 17.924868
#
# number of rings (size 3 to 8) (size 9 to 14) (size 15 to 20)
#    0.000    3.000    0.000    3.375    0.000    4.000 
#    0.000    3.125    0.000    5.250    0.000    0.875 
#    0.000    0.000    0.000    0.000    0.000    0.000 
#
# Total GULP energy -356499.528765 kJ/mol
# GULP energy per Si atom -5570.305137 kJ/mol
# Density = 1.788407 g / cm^3
# Si number density = 17.924868 Si / 1000 Ang^3
#
#
#
# Elastic Constant Matrix: (Units=GPa)
#
#
# Indices 1 2 3 4 5 6 
#
# 1 -377.8611 -254.4010 -666.0555 0.0000 0.0000 0.0000
# 2 -254.4010 -166.5991 -439.3143 0.0000 0.0000 0.0000
# 3 -666.0555 -439.3143-1031.8530 0.0000 0.0000 0.0000
# 4 0.0000 0.0000 0.0000 39.9915 0.0000 0.0000
# 5 0.0000 0.0000 0.0000 0.0000 -8.2508 0.0000
# 6 0.0000 0.0000 0.0000 0.0000 0.0000 12.7372
#
#
#
# Elastic Compliance Matrix: (Units=1/GPa)
#
#
# Indices 1 2 3 4 5 6 
#
# 1 0.095838 -0.136789 -0.003625 0.000000 0.000000 0.000000
# 2 -0.136789 0.244161 -0.015656 0.000000 0.000000 0.000000
# 3 -0.003625 -0.015656 0.008036 0.000000 0.000000 0.000000
# 4 0.000000 0.000000 0.000000 0.025005 0.000000 0.000000
# 5 0.000000 0.000000 0.000000 0.000000 -0.121200 0.000000
# 6 0.000000 0.000000 0.000000 0.000000 0.000000 0.078510
#
#
# Mechanical properties :
#
#
# Convention : Reuss Voigt Hill
#
# Bulk Modulus (GPa) = 27.85793 -477.31720 -224.72963
# Shear Modulus (GPa) = 7.63997 -5.54058 1.04969
#
# Velocity S-wave (km/s) = 2.06675 -1.76003 0.76608
# Velocity P-wave (km/s) = 4.61200 16.46196 11.17420
#
# Compressibility (1/GPa) = 0.03589642
#
# Stress axis : x y z
#
# Youngs Moduli (GPa) = 10.43429 4.09567 124.43896
#
# Poissons Ratio (x) = 0.56024 0.45105
# Poissons Ratio (y) = 1.42729 1.94818
# Poissons Ratio (z) = 0.03782 0.06412
#
# Static dielectric constant tensor:
#      x y z
#    x 1.595740 0.000000 0.000000 
#    y 0.000000 1.603240 0.000000 
#    z 0.000000 0.000000 1.635390 
# 
# From -- ./inp_files/30737.got.cif
#   From: 2010.05.17/outbox.cif.g08.bks.cpg/sg59_16_cif.got.tgz:30737.got - 2010.06.03 14:40:33.
