data_PCOD9449781
_publ_section_title
;
Structure prediction by ZEFSAII (Michael W. Deem and Ramdas Pophale) SiO2 
 PCOD9449781
Probable space group: P M M N
;
_chemical_formula_sum "Si O2"
_cell_formula_units_Z 56
_cell_length_a 7.401536
_cell_length_b 22.405450
_cell_length_c 14.137387
_cell_angle_alpha 90.000000
_cell_angle_beta 90.000000
_cell_angle_gamma 90.000000
_cell_volume 2344.469965
_symmetry_space_group_name_H-M "P M M N"
_symmetry_group_IT_number 59
_space_group.IT_coordinate_system_code '2'
_symmetry_cell_setting 'orthorhombic'
loop_
_space_group_symop_operation_xyz
x,y,z
1/2-x,1/2-y,z
1/2+x,-y,-z
-x,1/2+y,-z
-x,-y,-z
1/2+x,1/2+y,-z
1/2-x,y,z
x,1/2-y,z
loop_
_atom_site_type_symbol
_atom_site_label
_atom_site_fract_x
_atom_site_fract_y
_atom_site_fract_z
Si Si1 0.043195 0.862899 0.108892
Si Si2 0.970008 0.185094 0.293383
Si Si3 0.970237 0.434292 0.398818
Si Si4 0.029448 0.872718 0.894717
Si Si5 0.536519 0.503581 0.112555
Si Si6 0.956677 0.814536 0.302356
Si Si7 0.459382 0.063218 0.621039
O O1 0.250000 0.843091 0.103681
O O2 0.039327 0.932477 0.141667
O O3 0.952866 0.824049 0.189503
O O4 0.967178 0.861623 0.002064
O O5 0.750000 0.184567 0.297103
O O6 0.030352 0.250000 0.327806
O O7 0.030044 0.126842 0.350335
O O8 0.020276 0.175090 0.183775
O O9 0.750000 0.435608 0.397422
O O10 0.031307 0.497358 0.353086
O O11 0.031292 0.434538 0.507445
O O12 0.250000 0.875356 0.899972
O O13 0.972217 0.938172 0.856626
O O14 0.750000 0.506773 0.130550
O O15 0.500000 0.500000 0.000000
O O16 0.750000 0.813158 0.337556
O O17 0.038413 0.750000 0.325037
O O18 0.042733 0.875082 0.342540
O O19 0.250000 0.063386 0.652814
#
# Coordination Sequence:
#
# PCOD9449781 Si02
#       7
#     8   8   8   8   8   8   8
#     4  10  20  33  50  77 108 141 182 226 274 321
#     4   9  17  29  48  77 108 137 172 212 253 306
#     4   9  18  33  56  82 105 131 168 213 264 315
#     4   8  16  29  47  72 105 143 180 215 259 311
#     4   9  16  28  48  72 101 137 180 227 272 315
#     4  10  22  38  55  77 104 142 186 221 266 328
#     4   9  19  36  57  78 103 135 171 214 265 322
#
# _framework density 23.885994
#
# number of rings (size 3 to 8) (size 9 to 14) (size 15 to 20)
#    0.000    2.857    0.000    1.714    2.000    2.000 
#    0.000    1.429    0.000    1.714    0.000    0.000 
#    0.000    0.000    0.000    0.000    0.000    0.000 
#
# Total GULP energy -312562.602723 kJ/mol
# GULP energy per Si atom -5581.475049 kJ/mol
# Density = 2.383163 g / cm^3
# Si number density = 23.885994 Si / 1000 Ang^3
#
#
#
# Elastic Constant Matrix: (Units=GPa)
#
#
# Indices 1 2 3 4 5 6 
#
# 1 85.0697 3.9847 -5.2931 0.0000 0.0000 0.0000
# 2 3.9847 223.4191 64.6082 0.0000 0.0000 0.0000
# 3 -5.2931 64.6082 65.0580 0.0000 0.0000 0.0000
# 4 0.0000 0.0000 0.0000 22.0546 0.0000 0.0000
# 5 0.0000 0.0000 0.0000 0.0000 11.3034 0.0000
# 6 0.0000 0.0000 0.0000 0.0000 0.0000 -5.2588
#
#
#
# Elastic Compliance Matrix: (Units=1/GPa)
#
#
# Indices 1 2 3 4 5 6 
#
# 1 0.011890 -0.000690 0.001653 0.000000 0.000000 0.000000
# 2 -0.000690 0.006319 -0.006332 0.000000 0.000000 0.000000
# 3 0.001653 -0.006332 0.021793 0.000000 0.000000 0.000000
# 4 0.000000 0.000000 0.000000 0.045342 0.000000 0.000000
# 5 0.000000 0.000000 0.000000 0.000000 0.088469 0.000000
# 6 0.000000 0.000000 0.000000 0.000000 0.000000 -0.190157
#
#
# Mechanical properties :
#
#
# Convention : Reuss Voigt Hill
#
# Bulk Modulus (GPa) = 34.17100 55.57183 44.87142
# Shear Modulus (GPa) = 1205.11357 26.30296 615.70827
#
# Velocity S-wave (km/s) = 22.48605 3.32201 16.07262
# Velocity P-wave (km/s) = 26.23929 6.16687 19.05952
#
# Compressibility (1/GPa) = 0.02926458
#
# Stress axis : x y z
#
# Youngs Moduli (GPa) = 84.10285 158.24845 45.88582
#
# Poissons Ratio (x) = 0.10918 -0.07583
# Poissons Ratio (y) = 0.05803 0.29053
# Poissons Ratio (z) = -0.13899 1.00197
#
# Static dielectric constant tensor:
#      x y z
#    x 1.907280 0.000000 0.000000 
#    y 0.000000 1.935530 0.000000 
#    z 0.000000 0.000000 1.887210 
# 
# From -- ./inp_files/20975.got.cif
#   From: 2010.05.17/outbox.cif.g08.bks.cpg/sg59_11_cif.got.tgz:20975.got - 2010.06.03 14:40:33.
