data_PCOD9449831
_publ_section_title
;
Structure prediction by ZEFSAII (Michael W. Deem and Ramdas Pophale) SiO2 
 PCOD9449831
Probable space group: P M M N
;
_chemical_formula_sum "Si O2"
_cell_formula_units_Z 48
_cell_length_a 9.387088
_cell_length_b 7.513150
_cell_length_c 32.075084
_cell_angle_alpha 90.000000
_cell_angle_beta 90.000000
_cell_angle_gamma 90.000000
_cell_volume 2262.146626
_symmetry_space_group_name_H-M "P M M N"
_symmetry_group_IT_number 59
_space_group.IT_coordinate_system_code '2'
_symmetry_cell_setting 'orthorhombic'
loop_
_space_group_symop_operation_xyz
x,y,z
1/2-x,1/2-y,z
1/2+x,-y,-z
-x,1/2+y,-z
-x,-y,-z
1/2+x,1/2+y,-z
1/2-x,y,z
x,1/2-y,z
loop_
_atom_site_type_symbol
_atom_site_label
_atom_site_fract_x
_atom_site_fract_y
_atom_site_fract_z
Si Si1 0.087652 0.963553 0.458152
Si Si2 0.914039 0.467963 0.213996
Si Si3 0.916225 0.533130 0.867273
Si Si4 0.412164 0.036786 0.621554
Si Si5 0.587904 0.963640 0.705102
Si Si6 0.410855 0.462967 0.041024
O O1 0.250000 0.031496 0.460220
O O2 0.096508 0.750000 0.453943
O O3 0.001258 0.032048 0.418023
O O4 0.000000 0.000000 0.500000
O O5 0.750000 0.523680 0.217040
O O6 0.914790 0.250000 0.214080
O O7 0.987718 0.527039 0.171060
O O8 0.005707 0.527709 0.253741
O O9 0.750000 0.482593 0.862108
O O10 0.919320 0.750000 0.866406
O O11 0.964715 0.474812 0.913554
O O12 0.250000 0.968032 0.623006
O O13 0.402979 0.250000 0.616855
O O14 0.497219 0.002400 0.663950
O O15 0.750000 0.031322 0.702131
O O16 0.596145 0.750000 0.708731
O O17 0.250000 0.531203 0.035855
O O18 0.403367 0.250000 0.044357
O O19 0.500000 0.500000 0.000000
#
# Coordination Sequence:
#
# PCOD9449831 Si02
#       6
#     8   8   8   8   8   8
#     4  10  21  37  57  80 105 135 171 209 250 296
#     4   9  16  26  43  69  98 125 157 201 248 290
#     4   8  14  26  43  63  90 123 157 195 241 293
#     4  10  21  37  56  77 103 136 171 207 249 296
#     4  10  20  33  51  76 104 134 167 203 245 292
#     4   9  18  31  47  69  96 126 161 200 243 292
#
# _framework density 21.218782999999998
#
# number of rings (size 3 to 8) (size 9 to 14) (size 15 to 20)
#    0.000    2.667    0.000    3.000    0.000    6.667 
#    0.000    1.667    0.000    1.000    0.000    4.667 
#    0.000    0.000    0.000    0.000    0.000    0.000 
#
# Total GULP energy -268024.720996 kJ/mol
# GULP energy per Si atom -5583.848354 kJ/mol
# Density = 2.117049 g / cm^3
# Si number density = 21.218783 Si / 1000 Ang^3
#
#
#
# Elastic Constant Matrix: (Units=GPa)
#
#
# Indices 1 2 3 4 5 6 
#
# 1 210.7487 7.6392 151.9644 0.0000 0.0000 0.0000
# 2 7.6392 54.5026 1.3087 0.0000 0.0000 0.0000
# 3 151.9644 1.3087 251.7031 0.0000 0.0000 0.0000
# 4 0.0000 0.0000 0.0000 19.8336 0.0000 0.0000
# 5 0.0000 0.0000 0.0000 0.0000 44.7837 0.0000
# 6 0.0000 0.0000 0.0000 0.0000 0.0000 12.2642
#
#
#
# Elastic Compliance Matrix: (Units=1/GPa)
#
#
# Indices 1 2 3 4 5 6 
#
# 1 0.008465 -0.001064 -0.005105 0.000000 0.000000 0.000000
# 2 -0.001064 0.018484 0.000546 0.000000 0.000000 0.000000
# 3 -0.005105 0.000546 0.007052 0.000000 0.000000 0.000000
# 4 0.000000 0.000000 0.000000 0.050420 0.000000 0.000000
# 5 0.000000 0.000000 0.000000 0.000000 0.022330 0.000000
# 6 0.000000 0.000000 0.000000 0.000000 0.000000 0.081538
#
#
# Mechanical properties :
#
#
# Convention : Reuss Voigt Hill
#
# Bulk Modulus (GPa) = 43.94572 93.19766 68.57169
# Shear Modulus (GPa) = 24.14082 39.11242 31.62662
#
# Velocity S-wave (km/s) = 3.37665 4.29802 3.86489
# Velocity P-wave (km/s) = 5.99651 8.28542 7.23209
#
# Compressibility (1/GPa) = 0.02275535
#
# Stress axis : x y z
#
# Youngs Moduli (GPa) = 118.14019 54.10159 141.80093
#
# Poissons Ratio (x) = 0.05755 0.72388
# Poissons Ratio (y) = 0.12568 -0.07745
# Poissons Ratio (z) = 0.60309 -0.02955
#
# Static dielectric constant tensor:
#      x y z
#    x 1.737960 0.000000 0.000000 
#    y 0.000000 1.838670 0.000000 
#    z 0.000000 0.000000 1.731280 
# 
# From -- ./inp_files/31250.got.cif
#   From: 2010.05.17/outbox.cif.g08.bks.cpg/sg59_16_cif.got.tgz:31250.got - 2010.06.03 14:40:33.
