data_PCOD9449274
_publ_section_title
;
Structure prediction by ZEFSAII (Michael W. Deem and Ramdas Pophale) SiO2 
 PCOD9449274
Probable space group: P M M N
;
_chemical_formula_sum "Si O2"
_cell_formula_units_Z 64
_cell_length_a 24.798833
_cell_length_b 9.224117
_cell_length_c 19.050584
_cell_angle_alpha 90.000000
_cell_angle_beta 90.000000
_cell_angle_gamma 90.000000
_cell_volume 4357.770359
_symmetry_space_group_name_H-M "P M M N"
_symmetry_group_IT_number 59
_space_group.IT_coordinate_system_code '2'
_symmetry_cell_setting 'orthorhombic'
loop_
_space_group_symop_operation_xyz
x,y,z
1/2-x,1/2-y,z
1/2+x,-y,-z
-x,1/2+y,-z
-x,-y,-z
1/2+x,1/2+y,-z
1/2-x,y,z
x,1/2-y,z
loop_
_atom_site_type_symbol
_atom_site_label
_atom_site_fract_x
_atom_site_fract_y
_atom_site_fract_z
Si Si1 0.999938 0.921337 0.742132
Si Si2 0.079170 0.580355 0.533604
Si Si3 0.492494 0.577369 0.109628
Si Si4 0.957617 0.919696 0.596188
Si Si5 0.685715 0.585061 0.204814
Si Si6 0.379265 0.920957 0.679431
Si Si7 0.186613 0.576912 0.940336
Si Si8 0.086252 0.077143 0.001186
O O1 0.989750 0.750000 0.755436
O O2 0.962265 0.970277 0.676813
O O3 0.061128 0.931876 0.713493
O O4 0.994275 0.012274 0.812615
O O5 0.089173 0.750000 0.522436
O O6 0.080027 0.499858 0.459550
O O7 0.116448 0.530739 0.598213
O O8 0.018375 0.567553 0.564847
O O9 0.483210 0.750000 0.110460
O O10 0.446673 0.496685 0.064369
O O11 0.548794 0.552070 0.067921
O O12 0.944438 0.750000 0.597330
O O13 0.750000 0.588965 0.213136
O O14 0.666417 0.750000 0.192215
O O15 0.659312 0.516393 0.273194
O O16 0.674720 0.485308 0.137327
O O17 0.364573 0.750000 0.681016
O O18 0.250000 0.546473 0.955477
O O19 0.178945 0.750000 0.942059
O O20 0.144107 0.496748 0.990143
O O21 0.090882 0.250000 0.011134
#
# Coordination Sequence:
#
# PCOD9449274 Si02
#       8
#     8   8   8   8   8   8   8   8
#     4   9  17  28  41  59  84 112 142 175 210 249
#     4   8  14  24  37  55  78 104 135 168 200 234
#     4  10  20  31  44  64  88 116 149 181 217 261
#     4   8  14  24  37  54  78 107 135 164 199 237
#     4  10  20  31  42  59  83 109 140 178 214 248
#     4   9  17  28  42  59  81 111 144 176 210 250
#     4  10  20  33  49  67  87 113 144 179 219 260
#     4  10  20  33  48  65  87 115 146 181 219 259
#
# _framework density 14.686408999999999
#
# number of rings (size 3 to 8) (size 9 to 14) (size 15 to 20)
#    0.000    2.750    0.000    3.750    0.000    6.500 
#    0.000    2.500    0.000    0.000    0.000    0.000 
#    0.000    1.000    0.000    7.000    0.000    5.875 
#
# Total GULP energy -356472.036537 kJ/mol
# GULP energy per Si atom -5569.875571 kJ/mol
# Density = 1.465298 g / cm^3
# Si number density = 14.686409 Si / 1000 Ang^3
#
#
#
# Elastic Constant Matrix: (Units=GPa)
#
#
# Indices 1 2 3 4 5 6 
#
# 1 32.8941 29.9435 19.3192 0.0000 0.0000 0.0000
# 2 29.9435 67.4644 47.4764 0.0000 0.0000 0.0000
# 3 19.3192 47.4764 96.5364 0.0000 0.0000 0.0000
# 4 0.0000 0.0000 0.0000 29.1016 0.0000 0.0000
# 5 0.0000 0.0000 0.0000 0.0000 24.5593 0.0000
# 6 0.0000 0.0000 0.0000 0.0000 0.0000 21.3145
#
#
#
# Elastic Compliance Matrix: (Units=1/GPa)
#
#
# Indices 1 2 3 4 5 6 
#
# 1 0.051137 -0.023696 0.001420 0.000000 0.000000 0.000000
# 2 -0.023696 0.033648 -0.011806 0.000000 0.000000 0.000000
# 3 0.001420 -0.011806 0.015881 0.000000 0.000000 0.000000
# 4 0.000000 0.000000 0.000000 0.034362 0.000000 0.000000
# 5 0.000000 0.000000 0.000000 0.000000 0.040718 0.000000
# 6 0.000000 0.000000 0.000000 0.000000 0.000000 0.046916
#
#
# Mechanical properties :
#
#
# Convention : Reuss Voigt Hill
#
# Bulk Modulus (GPa) = 30.76744 43.37479 37.07112
# Shear Modulus (GPa) = 16.57492 21.67212 19.12352
#
# Velocity S-wave (km/s) = 3.36309 3.84560 3.61241
# Velocity P-wave (km/s) = 6.00630 7.02255 6.53421
#
# Compressibility (1/GPa) = 0.03250189
#
# Stress axis : x y z
#
# Youngs Moduli (GPa) = 19.55525 29.71943 62.96934
#
# Poissons Ratio (x) = 0.70423 -0.08941
# Poissons Ratio (y) = 0.46338 0.74341
# Poissons Ratio (z) = -0.02777 0.35086
#
# Static dielectric constant tensor:
#      x y z
#    x 1.478770 0.000000 0.000000 
#    y 0.000000 1.489840 0.000000 
#    z 0.000000 0.000000 1.489910 
# 
# From -- ./inp_files/28428.got.cif
#   From: 2010.05.17/outbox.cif.g08.bks.cpg/sg59_15_cif.got.tgz:28428.got - 2010.06.03 14:40:33.
