data_PCOD9449068
_publ_section_title
;
Structure prediction by ZEFSAII (Michael W. Deem and Ramdas Pophale) SiO2 
 PCOD9449068
Probable space group: P M M N
;
_chemical_formula_sum "Si O2"
_cell_formula_units_Z 48
_cell_length_a 15.678238
_cell_length_b 8.592301
_cell_length_c 19.460215
_cell_angle_alpha 90.000000
_cell_angle_beta 90.000000
_cell_angle_gamma 90.000000
_cell_volume 2621.527208
_symmetry_space_group_name_H-M "P M M N"
_symmetry_group_IT_number 59
_space_group.IT_coordinate_system_code '2'
_symmetry_cell_setting 'orthorhombic'
loop_
_space_group_symop_operation_xyz
x,y,z
1/2-x,1/2-y,z
1/2+x,-y,-z
-x,1/2+y,-z
-x,-y,-z
1/2+x,1/2+y,-z
1/2-x,y,z
x,1/2-y,z
loop_
_atom_site_type_symbol
_atom_site_label
_atom_site_fract_x
_atom_site_fract_y
_atom_site_fract_z
Si Si1 0.846420 0.936868 0.683797
Si Si2 0.107964 0.075524 0.689358
Si Si3 0.250000 0.067780 0.917464
Si Si4 0.055696 0.439591 0.936666
Si Si5 0.956826 0.074647 0.799746
Si Si6 0.750000 0.076751 0.226834
Si Si7 0.005825 0.437429 0.423053
O O1 0.750000 0.995465 0.674413
O O2 0.845179 0.750000 0.681960
O O3 0.910302 0.985429 0.621852
O O4 0.883214 0.985082 0.758547
O O5 0.144133 0.250000 0.682579
O O6 0.029862 0.085367 0.742246
O O7 0.170780 0.955774 0.724728
O O8 0.072716 0.010741 0.618514
O O9 0.250000 0.250000 0.935423
O O10 0.344411 0.006733 0.939674
O O11 0.250000 0.044789 0.835347
O O12 0.057948 0.250000 0.935324
O O13 0.004935 0.489776 0.867294
O O14 0.000000 0.500000 0.000000
O O15 0.926900 0.250000 0.816376
O O16 0.750000 0.250000 0.197658
O O17 0.002166 0.250000 0.422602
O O18 0.000000 0.500000 0.500000
#
# Coordination Sequence:
#
# PCOD9449068 Si02
#       7
#     8   8   4   8   8   4   8
#     4   9  19  36  57  80 107 143 188 231 275 335
#     4  10  19  35  57  79 107 145 183 223 278 334
#     4  10  20  40  62  80 110 155 194 229 284 356
#     4  10  21  38  59  83 114 150 190 233 283 342
#     4   9  18  34  57  81 106 139 181 227 275 329
#     4  12  22  32  54  88 116 137 178 235 280 330
#     4  10  20  36  56  80 112 147 188 233 282 336
#
# _framework density 18.309937999999999
#
# number of rings (size 3 to 8) (size 9 to 14) (size 15 to 20)
#    0.000    2.167    1.667    1.750    0.000    3.000 
#    3.000    0.000    0.000    0.000    0.000    0.000 
#    0.000    0.000    0.000    0.000    0.000    0.000 
#
# Total GULP energy -267287.182277 kJ/mol
# GULP energy per Si atom -5568.482964 kJ/mol
# Density = 1.826826 g / cm^3
# Si number density = 18.309938 Si / 1000 Ang^3
#
#
#
# Elastic Constant Matrix: (Units=GPa)
#
#
# Indices 1 2 3 4 5 6 
#
# 1 107.2553 9.9252 46.0909 0.0000 0.0000 0.0000
# 2 9.9252 22.4207 7.1696 0.0000 0.0000 0.0000
# 3 46.0909 7.1696 126.0659 0.0000 0.0000 0.0000
# 4 0.0000 0.0000 0.0000 28.9529 0.0000 0.0000
# 5 0.0000 0.0000 0.0000 0.0000 23.1038 0.0000
# 6 0.0000 0.0000 0.0000 0.0000 0.0000 16.1963
#
#
#
# Elastic Compliance Matrix: (Units=1/GPa)
#
#
# Indices 1 2 3 4 5 6 
#
# 1 0.011366 -0.003771 -0.003941 0.000000 0.000000 0.000000
# 2 -0.003771 0.046679 -0.001276 0.000000 0.000000 0.000000
# 3 -0.003941 -0.001276 0.009446 0.000000 0.000000 0.000000
# 4 0.000000 0.000000 0.000000 0.034539 0.000000 0.000000
# 5 0.000000 0.000000 0.000000 0.000000 0.043283 0.000000
# 6 0.000000 0.000000 0.000000 0.000000 0.000000 0.061743
#
#
# Mechanical properties :
#
#
# Convention : Reuss Voigt Hill
#
# Bulk Modulus (GPa) = 20.19611 42.45703 31.32657
# Shear Modulus (GPa) = 20.70077 26.48768 23.59423
#
# Velocity S-wave (km/s) = 3.36605 3.80758 3.59360
# Velocity P-wave (km/s) = 5.11480 6.52446 5.86215
#
# Compressibility (1/GPa) = 0.04951449
#
# Stress axis : x y z
#
# Youngs Moduli (GPa) = 87.98055 21.42285 105.86694
#
# Poissons Ratio (x) = 0.08079 0.41723
# Poissons Ratio (y) = 0.33180 0.13507
# Poissons Ratio (z) = 0.34674 0.02733
#
# Static dielectric constant tensor:
#      x y z
#    x 1.656520 0.000000 0.000000 
#    y 0.000000 1.656610 0.000000 
#    z 0.000000 0.000000 1.593420 
# 
# From -- ./inp_files/25511.got.cif
#   From: 2010.05.17/outbox.cif.g08.bks.cpg/sg59_13_cif.got.tgz:25511.got - 2010.06.03 14:40:33.
