data_PCOD9449992
_publ_section_title
;
Structure prediction by ZEFSAII (Michael W. Deem and Ramdas Pophale) SiO2 
 PCOD9449992
Probable space group: P M M N
;
_chemical_formula_sum "Si O2"
_cell_formula_units_Z 64
_cell_length_a 20.691932
_cell_length_b 8.658304
_cell_length_c 18.825918
_cell_angle_alpha 90.000000
_cell_angle_beta 90.000000
_cell_angle_gamma 90.000000
_cell_volume 3372.795699
_symmetry_space_group_name_H-M "P M M N"
_symmetry_group_IT_number 59
_space_group.IT_coordinate_system_code '2'
_symmetry_cell_setting 'orthorhombic'
loop_
_space_group_symop_operation_xyz
x,y,z
1/2-x,1/2-y,z
1/2+x,-y,-z
-x,1/2+y,-z
-x,-y,-z
1/2+x,1/2+y,-z
1/2-x,y,z
x,1/2-y,z
loop_
_atom_site_type_symbol
_atom_site_label
_atom_site_fract_x
_atom_site_fract_y
_atom_site_fract_z
Si Si1 0.324395 0.565622 0.914060
Si Si2 0.930687 0.565849 0.979082
Si Si3 0.822987 0.936588 0.244680
Si Si4 0.818067 0.931218 0.741007
Si Si5 0.444498 0.436078 0.185739
Si Si6 0.959678 0.935983 0.294179
Si Si7 0.179030 0.070179 0.429481
Si Si8 0.961203 0.065801 0.566177
O O1 0.250000 0.529851 0.934673
O O2 0.330997 0.750000 0.907802
O O3 0.334688 0.492702 0.836087
O O4 0.374841 0.504904 0.971961
O O5 0.929320 0.750000 0.988082
O O6 0.927099 0.531079 0.895381
O O7 0.000000 0.500000 0.000000
O O8 0.750000 0.988307 0.265387
O O9 0.822534 0.750000 0.244769
O O10 0.884352 0.986412 0.292469
O O11 0.750000 0.000324 0.766100
O O12 0.818293 0.750000 0.762329
O O13 0.883717 0.998999 0.769748
O O14 0.818414 0.933493 0.656218
O O15 0.451098 0.250000 0.193320
O O16 0.507609 0.509545 0.220723
O O17 0.960280 0.750000 0.296234
O O18 0.004092 0.991460 0.360497
O O19 0.250000 0.013490 0.454755
O O20 0.173054 0.250000 0.451252
O O21 0.113164 0.982722 0.445351
O O22 0.964845 0.250000 0.567586
O O23 0.000000 0.000000 0.500000
#
# Coordination Sequence:
#
# PCOD9449992 Si02
#       8
#     8   8   8   8   8   8   8   8
#     4  10  21  37  56  79 110 147 187 232 282 336
#     4  11  23  36  52  77 108 146 189 232 279 332
#     4   9  18  35  59  82 104 136 180 229 281 336
#     4   8  14  27  49  76 103 130 166 214 261 309
#     4  10  20  33  53  78 103 137 182 227 273 326
#     4  10  21  36  55  81 110 139 176 227 282 333
#     4   9  17  33  59  85 110 144 183 221 267 325
#     4  11  23  38  57  84 118 153 189 229 277 334
#
# _framework density 18.975356000000001
#
# number of rings (size 3 to 8) (size 9 to 14) (size 15 to 20)
#    0.000    2.250    1.250    2.625    0.000    5.500 
#    0.000    1.875    0.000    2.625    0.000    0.000 
#    0.000    0.000    0.000    0.000    0.000    0.000 
#
# Total GULP energy -356664.467859 kJ/mol
# GULP energy per Si atom -5572.882310 kJ/mol
# Density = 1.893217 g / cm^3
# Si number density = 18.975356 Si / 1000 Ang^3
#
#
#
# Elastic Constant Matrix: (Units=GPa)
#
#
# Indices 1 2 3 4 5 6 
#
# 1 169.6966 32.4253 39.8523 0.0000 0.0000 0.0000
# 2 32.4253 17.8163 16.3479 0.0000 0.0000 0.0000
# 3 39.8523 16.3479 35.5082 0.0000 0.0000 0.0000
# 4 0.0000 0.0000 0.0000 18.0479 0.0000 0.0000
# 5 0.0000 0.0000 0.0000 0.0000 17.9944 0.0000
# 6 0.0000 0.0000 0.0000 0.0000 0.0000 29.4109
#
#
#
# Elastic Compliance Matrix: (Units=1/GPa)
#
#
# Indices 1 2 3 4 5 6 
#
# 1 0.009460 -0.012942 -0.004659 0.000000 0.000000 0.000000
# 2 -0.012942 0.114890 -0.038370 0.000000 0.000000 0.000000
# 3 -0.004659 -0.038370 0.051057 0.000000 0.000000 0.000000
# 4 0.000000 0.000000 0.000000 0.055408 0.000000 0.000000
# 5 0.000000 0.000000 0.000000 0.000000 0.055573 0.000000
# 6 0.000000 0.000000 0.000000 0.000000 0.000000 0.034001
#
#
# Mechanical properties :
#
#
# Convention : Reuss Voigt Hill
#
# Bulk Modulus (GPa) = 15.75659 44.47467 30.11563
# Shear Modulus (GPa) = 11.02573 22.05035 16.53804
#
# Velocity S-wave (km/s) = 2.41312 3.41259 2.95541
# Velocity P-wave (km/s) = 4.01073 6.24633 5.24893
#
# Compressibility (1/GPa) = 0.06346551
#
# Stress axis : x y z
#
# Youngs Moduli (GPa) = 105.70943 8.70397 19.58611
#
# Poissons Ratio (x) = 0.11265 0.09125
# Poissons Ratio (y) = 1.36810 0.75151
# Poissons Ratio (z) = 0.49247 0.33397
#
# Static dielectric constant tensor:
#      x y z
#    x 1.717660 0.000000 0.000000 
#    y 0.000000 1.651590 0.000000 
#    z 0.000000 0.000000 1.556190 
# 
# From -- ./inp_files/28207.got.cif
#   From: 2010.05.17/outbox.cif.g08.bks.cpg/sg59_15_cif.got.tgz:28207.got - 2010.06.03 14:40:33.
