data_PCOD9449782
_publ_section_title
;
Structure prediction by ZEFSAII (Michael W. Deem and Ramdas Pophale) SiO2 
 PCOD9449782
Probable space group: P M M N
;
_chemical_formula_sum "Si O2"
_cell_formula_units_Z 64
_cell_length_a 30.761278
_cell_length_b 8.285648
_cell_length_c 15.180939
_cell_angle_alpha 90.000000
_cell_angle_beta 90.000000
_cell_angle_gamma 90.000000
_cell_volume 3869.274035
_symmetry_space_group_name_H-M "P M M N"
_symmetry_group_IT_number 59
_space_group.IT_coordinate_system_code '2'
_symmetry_cell_setting 'orthorhombic'
loop_
_space_group_symop_operation_xyz
x,y,z
1/2-x,1/2-y,z
1/2+x,-y,-z
-x,1/2+y,-z
-x,-y,-z
1/2+x,1/2+y,-z
1/2-x,y,z
x,1/2-y,z
loop_
_atom_site_type_symbol
_atom_site_label
_atom_site_fract_x
_atom_site_fract_y
_atom_site_fract_z
Si Si1 0.438522 0.059476 0.040751
Si Si2 0.701225 0.444654 0.703283
Si Si3 0.533734 0.941190 0.328856
Si Si4 0.201827 0.056592 0.497171
Si Si5 0.062119 0.441563 0.356231
Si Si6 0.392081 0.052893 0.538508
Si Si7 0.382754 0.559052 0.193050
Si Si8 0.972003 0.440520 0.133743
O O1 0.443444 0.250000 0.025936
O O2 0.481312 0.002560 0.095223
O O3 0.398348 0.024644 0.104023
O O4 0.439104 0.974483 0.946233
O O5 0.750000 0.483200 0.734019
O O6 0.697914 0.250000 0.693918
O O7 0.695767 0.519409 0.606469
O O8 0.663331 0.498348 0.768456
O O9 0.529187 0.750000 0.343269
O O10 0.575307 0.999074 0.384496
O O11 0.489003 0.022215 0.360700
O O12 0.538669 0.975020 0.225223
O O13 0.250000 0.993108 0.522389
O O14 0.203026 0.250000 0.508138
O O15 0.157910 0.996236 0.544016
O O16 0.068461 0.250000 0.346063
O O17 0.086958 0.494968 0.444670
O O18 0.082632 0.524868 0.270692
O O19 0.391216 0.250000 0.539186
O O20 0.380730 0.750000 0.177356
O O21 0.975421 0.250000 0.150881
#
# Coordination Sequence:
#
# PCOD9449782 Si02
#       8
#     8   8   8   8   8   8   8   8
#     4  10  20  33  51  71  95 124 154 195 240 282
#     4   9  18  31  46  68  98 128 159 196 237 282
#     4  11  21  33  48  66  95 131 166 201 241 284
#     4   9  16  29  49  69  91 122 160 200 242 283
#     4  11  20  32  46  65  97 131 167 203 232 273
#     4   9  19  32  46  68  96 128 164 202 239 280
#     4  11  20  30  48  72  98 130 163 194 236 287
#     4  10  20  34  50  70  95 122 157 199 239 281
#
# _framework density 16.540569999999999
#
# number of rings (size 3 to 8) (size 9 to 14) (size 15 to 20)
#    0.000    2.000    2.500    2.250    0.000    1.500 
#    0.000    3.125    0.000    0.000    0.000    0.875 
#    0.000    3.000    0.000    0.000    0.000    0.000 
#
# Total GULP energy -357035.924692 kJ/mol
# GULP energy per Si atom -5578.686323 kJ/mol
# Density = 1.650292 g / cm^3
# Si number density = 16.540570 Si / 1000 Ang^3
#
#
#
# Elastic Constant Matrix: (Units=GPa)
#
#
# Indices 1 2 3 4 5 6 
#
# 1 119.2246 -4.1807 34.1446 0.0000 0.0000 0.0000
# 2 -4.1807 8.6890 -3.9052 0.0000 0.0000 0.0000
# 3 34.1446 -3.9052 51.0881 0.0000 0.0000 0.0000
# 4 0.0000 0.0000 0.0000 18.8612 0.0000 0.0000
# 5 0.0000 0.0000 0.0000 0.0000 21.2357 0.0000
# 6 0.0000 0.0000 0.0000 0.0000 0.0000 11.9057
#
#
#
# Elastic Compliance Matrix: (Units=1/GPa)
#
#
# Indices 1 2 3 4 5 6 
#
# 1 0.010405 0.001948 -0.006805 0.000000 0.000000 0.000000
# 2 0.001948 0.119547 0.007836 0.000000 0.000000 0.000000
# 3 -0.006805 0.007836 0.024721 0.000000 0.000000 0.000000
# 4 0.000000 0.000000 0.000000 0.053019 0.000000 0.000000
# 5 0.000000 0.000000 0.000000 0.000000 0.047090 0.000000
# 6 0.000000 0.000000 0.000000 0.000000 0.000000 0.083993
#
#
# Mechanical properties :
#
#
# Convention : Reuss Voigt Hill
#
# Bulk Modulus (GPa) = 6.22543 25.67990 15.95267
# Shear Modulus (GPa) = 12.94124 20.59672 16.76898
#
# Velocity S-wave (km/s) = 2.80017 3.53260 3.18749
# Velocity P-wave (km/s) = 3.77180 5.67434 4.81792
#
# Compressibility (1/GPa) = 0.16063143
#
# Stress axis : x y z
#
# Youngs Moduli (GPa) = 96.11017 8.36488 40.45116
#
# Poissons Ratio (x) = -0.01629 0.27527
# Poissons Ratio (y) = -0.18720 -0.31699
# Poissons Ratio (z) = 0.65404 -0.06555
#
# Static dielectric constant tensor:
#      x y z
#    x 1.585360 0.000000 0.000000 
#    y 0.000000 1.572290 0.000000 
#    z 0.000000 0.000000 1.532360 
# 
# From -- ./inp_files/25098.got.cif
#   From: 2010.05.17/outbox.cif.g08.bks.cpg/sg59_13_cif.got.tgz:25098.got - 2010.06.03 14:40:33.
