data_PCOD9449492
_publ_section_title
;
Structure prediction by ZEFSAII (Michael W. Deem and Ramdas Pophale) SiO2 
 PCOD9449492
Probable space group: P M M N
;
_chemical_formula_sum "Si O2"
_cell_formula_units_Z 64
_cell_length_a 18.808590
_cell_length_b 9.260884
_cell_length_c 20.747837
_cell_angle_alpha 90.000000
_cell_angle_beta 90.000000
_cell_angle_gamma 90.000000
_cell_volume 3613.944771
_symmetry_space_group_name_H-M "P M M N"
_symmetry_group_IT_number 59
_space_group.IT_coordinate_system_code '2'
_symmetry_cell_setting 'orthorhombic'
loop_
_space_group_symop_operation_xyz
x,y,z
1/2-x,1/2-y,z
1/2+x,-y,-z
-x,1/2+y,-z
-x,-y,-z
1/2+x,1/2+y,-z
1/2-x,y,z
x,1/2-y,z
loop_
_atom_site_type_symbol
_atom_site_label
_atom_site_fract_x
_atom_site_fract_y
_atom_site_fract_z
Si Si1 0.836660 0.416403 0.914213
Si Si2 0.165539 0.080788 0.572532
Si Si3 0.925938 0.420672 0.678137
Si Si4 0.335051 0.578918 0.826450
Si Si5 0.091423 0.078850 0.708057
Si Si6 0.836607 0.916357 0.042516
Si Si7 0.429631 0.922607 0.473127
Si Si8 0.335142 0.419892 0.216161
O O1 0.750000 0.416687 0.915177
O O2 0.859807 0.250000 0.914624
O O3 0.858023 0.497082 0.848812
O O4 0.860328 0.500885 0.978135
O O5 0.250000 0.067524 0.578019
O O6 0.148005 0.250000 0.559978
O O7 0.129091 0.041757 0.640373
O O8 0.134435 0.983325 0.515919
O O9 0.910102 0.250000 0.685965
O O10 0.920097 0.455732 0.602438
O O11 0.874518 0.512995 0.722801
O O12 0.007451 0.444042 0.699486
O O13 0.250000 0.556034 0.817974
O O14 0.347097 0.750000 0.831574
O O15 0.375831 0.511424 0.766148
O O16 0.357018 0.499746 0.892517
O O17 0.103867 0.250000 0.719495
O O18 0.750000 0.916008 0.041138
O O19 0.859953 0.750000 0.043177
O O20 0.436746 0.750000 0.479396
O O21 0.500000 0.000000 0.500000
O O22 0.250000 0.437867 0.222762
O O23 0.349854 0.250000 0.209846
#
# Coordination Sequence:
#
# PCOD9449492 Si02
#       8
#     8   8   8   8   8   8   8   8
#     4   9  16  28  49  76 107 142 179 224 276 325
#     4  10  21  38  60  86 116 148 184 229 281 334
#     4  10  22  39  59  81 107 143 185 225 270 330
#     4  10  20  32  48  76 112 145 183 231 277 322
#     4  10  20  37  57  77 106 146 188 225 270 329
#     4   9  16  27  46  73 105 143 185 226 272 325
#     4  11  22  39  61  83 111 145 186 231 278 334
#     4  10  21  36  55  82 113 143 180 226 275 329
#
# _framework density 17.709181000000001
#
# number of rings (size 3 to 8) (size 9 to 14) (size 15 to 20)
#    0.000    2.125    1.250    2.250    0.000    7.750 
#    0.000    2.500    0.000    0.750    0.000    0.000 
#    0.000    0.000    0.000    0.000    0.000    0.000 
#
# Total GULP energy -357295.349282 kJ/mol
# GULP energy per Si atom -5582.739833 kJ/mol
# Density = 1.766887 g / cm^3
# Si number density = 17.709181 Si / 1000 Ang^3
#
#
#
# Elastic Constant Matrix: (Units=GPa)
#
#
# Indices 1 2 3 4 5 6 
#
# 1 32.0484 47.4494 46.5985 0.0000 0.0000 0.0000
# 2 47.4494 129.4076 115.9998 0.0000 0.0000 0.0000
# 3 46.5985 115.9998 179.2013 0.0000 0.0000 0.0000
# 4 0.0000 0.0000 0.0000 39.6873 0.0000 0.0000
# 5 0.0000 0.0000 0.0000 0.0000 -4.4517 0.0000
# 6 0.0000 0.0000 0.0000 0.0000 0.0000 25.6822
#
#
#
# Elastic Compliance Matrix: (Units=1/GPa)
#
#
# Indices 1 2 3 4 5 6 
#
# 1 0.069297 -0.022052 -0.003745 0.000000 0.000000 0.000000
# 2 -0.022052 0.025427 -0.010725 0.000000 0.000000 0.000000
# 3 -0.003745 -0.010725 0.013497 0.000000 0.000000 0.000000
# 4 0.000000 0.000000 0.000000 0.025197 0.000000 0.000000
# 5 0.000000 0.000000 0.000000 0.000000 -0.224635 0.000000
# 6 0.000000 0.000000 0.000000 0.000000 0.000000 0.038938
#
#
# Mechanical properties :
#
#
# Convention : Reuss Voigt Hill
#
# Bulk Modulus (GPa) = 28.42788 84.52806 56.47797
# Shear Modulus (GPa) = 153.89345 20.89086 87.39216
#
# Velocity S-wave (km/s) = 9.33215 3.43835 7.03247
# Velocity P-wave (km/s) = 11.49809 7.97482 9.89454
#
# Compressibility (1/GPa) = 0.03517674
#
# Stress axis : x y z
#
# Youngs Moduli (GPa) = 14.43063 39.32819 74.09213
#
# Poissons Ratio (x) = 0.86726 0.27749
# Poissons Ratio (y) = 0.31822 0.79465
# Poissons Ratio (z) = 0.05404 0.42180
#
# Static dielectric constant tensor:
#      x y z
#    x 1.595610 0.000000 0.000000 
#    y 0.000000 1.592700 0.000000 
#    z 0.000000 0.000000 1.576170 
# 
# From -- ./inp_files/30683.got.cif
#   From: 2010.05.17/outbox.cif.g08.bks.cpg/sg59_16_cif.got.tgz:30683.got - 2010.06.03 14:40:33.
