data_PCOD9449952
_publ_section_title
;
Structure prediction by ZEFSAII (Michael W. Deem and Ramdas Pophale) SiO2 
 PCOD9449952
Probable space group: P M M N
;
_chemical_formula_sum "Si O2"
_cell_formula_units_Z 48
_cell_length_a 7.860446
_cell_length_b 9.367637
_cell_length_c 32.047305
_cell_angle_alpha 90.000000
_cell_angle_beta 90.000000
_cell_angle_gamma 90.000000
_cell_volume 2359.765000
_symmetry_space_group_name_H-M "P M M N"
_symmetry_group_IT_number 59
_space_group.IT_coordinate_system_code '2'
_symmetry_cell_setting 'orthorhombic'
loop_
_space_group_symop_operation_xyz
x,y,z
1/2-x,1/2-y,z
1/2+x,-y,-z
-x,1/2+y,-z
-x,-y,-z
1/2+x,1/2+y,-z
1/2-x,y,z
x,1/2-y,z
loop_
_atom_site_type_symbol
_atom_site_label
_atom_site_fract_x
_atom_site_fract_y
_atom_site_fract_z
Si Si1 0.457608 0.416489 0.367275
Si Si2 0.455013 0.912923 0.796061
Si Si3 0.045886 0.412454 0.876232
Si Si4 0.955483 0.087358 0.713496
Si Si5 0.452940 0.087166 0.041375
Si Si6 0.545563 0.912247 0.540707
O O1 0.250000 0.419442 0.366574
O O2 0.506288 0.250000 0.362052
O O3 0.517733 0.512305 0.328973
O O4 0.512526 0.465522 0.413601
O O5 0.250000 0.906755 0.799317
O O6 0.518934 0.750000 0.796134
O O7 0.519663 0.002663 0.835763
O O8 0.497580 0.993664 0.753459
O O9 0.250000 0.403209 0.871974
O O10 0.979847 0.250000 0.878678
O O11 0.010934 0.501329 0.917911
O O12 0.750000 0.091729 0.711386
O O13 0.017366 0.250000 0.717526
O O14 0.250000 0.095546 0.042881
O O15 0.520720 0.250000 0.040572
O O16 0.500000 0.000000 0.000000
O O17 0.750000 0.907954 0.542743
O O18 0.482915 0.750000 0.536262
O O19 0.500000 0.000000 0.500000
#
# Coordination Sequence:
#
# PCOD9449952 Si02
#       6
#     8   8   8   8   8   8
#     4   8  15  30  50  70  96 132 171 211 255 304
#     4  10  21  37  57  80 107 142 180 216 260 313
#     4  10  21  38  60  84 110 142 180 221 266 315
#     4  10  20  33  52  79 106 133 170 215 261 310
#     4  11  24  40  59  85 115 147 184 224 267 315
#     4   9  18  32  50  73 100 130 167 210 256 308
#
# _framework density 20.341007000000001
#
# number of rings (size 3 to 8) (size 9 to 14) (size 15 to 20)
#    0.000    2.333    0.000    3.500    0.000    8.000 
#    0.000    2.500    0.000    1.000    0.000    0.000 
#    0.000    0.000    0.000    0.000    0.000    0.000 
#
# Total GULP energy -268007.087639 kJ/mol
# GULP energy per Si atom -5583.480992 kJ/mol
# Density = 2.029471 g / cm^3
# Si number density = 20.341007 Si / 1000 Ang^3
#
#
#
# Elastic Constant Matrix: (Units=GPa)
#
#
# Indices 1 2 3 4 5 6 
#
# 1 20.5921 10.4461 2.5805 0.0000 0.0000 0.0000
# 2 10.4461 196.5606 138.3064 0.0000 0.0000 0.0000
# 3 2.5805 138.3064 233.9197 0.0000 0.0000 0.0000
# 4 0.0000 0.0000 0.0000 44.1392 0.0000 0.0000
# 5 0.0000 0.0000 0.0000 0.0000 30.8115 0.0000
# 6 0.0000 0.0000 0.0000 0.0000 0.0000 21.4743
#
#
#
# Elastic Compliance Matrix: (Units=1/GPa)
#
#
# Indices 1 2 3 4 5 6 
#
# 1 0.050326 -0.003911 0.001757 0.000000 0.000000 0.000000
# 2 -0.003911 0.009016 -0.005287 0.000000 0.000000 0.000000
# 3 0.001757 -0.005287 0.007382 0.000000 0.000000 0.000000
# 4 0.000000 0.000000 0.000000 0.022656 0.000000 0.000000
# 5 0.000000 0.000000 0.000000 0.000000 0.032455 0.000000
# 6 0.000000 0.000000 0.000000 0.000000 0.000000 0.046567
#
#
# Mechanical properties :
#
#
# Convention : Reuss Voigt Hill
#
# Bulk Modulus (GPa) = 19.28968 83.74872 51.51920
# Shear Modulus (GPa) = 24.92959 39.26765 32.09862
#
# Velocity S-wave (km/s) = 3.50463 4.39847 3.97675
# Velocity P-wave (km/s) = 5.08727 8.18884 6.81680
#
# Compressibility (1/GPa) = 0.05184120
#
# Stress axis : x y z
#
# Youngs Moduli (GPa) = 19.87041 110.91657 135.46745
#
# Poissons Ratio (x) = 0.43379 -0.23804
# Poissons Ratio (y) = 0.07771 0.71628
# Poissons Ratio (z) = -0.03492 0.58647
#
# Static dielectric constant tensor:
#      x y z
#    x 1.753890 0.000000 0.000000 
#    y 0.000000 1.714220 0.000000 
#    z 0.000000 0.000000 1.701170 
# 
# From -- ./inp_files/32779.got.cif
#   From: 2010.05.17/outbox.cif.g08.bks.cpg/sg59_17_cif.got.tgz:32779.got - 2010.06.03 14:40:33.
