data_PCOD9449280
_publ_section_title
;
Structure prediction by ZEFSAII (Michael W. Deem and Ramdas Pophale) SiO2 
 PCOD9449280
Probable space group: P M M N
;
_chemical_formula_sum "Si O2"
_cell_formula_units_Z 48
_cell_length_a 7.699950
_cell_length_b 22.052284
_cell_length_c 15.996230
_cell_angle_alpha 90.000000
_cell_angle_beta 90.000000
_cell_angle_gamma 90.000000
_cell_volume 2716.183595
_symmetry_space_group_name_H-M "P M M N"
_symmetry_group_IT_number 59
_space_group.IT_coordinate_system_code '2'
_symmetry_cell_setting 'orthorhombic'
loop_
_space_group_symop_operation_xyz
x,y,z
1/2-x,1/2-y,z
1/2+x,-y,-z
-x,1/2+y,-z
-x,-y,-z
1/2+x,1/2+y,-z
1/2-x,y,z
x,1/2-y,z
loop_
_atom_site_type_symbol
_atom_site_label
_atom_site_fract_x
_atom_site_fract_y
_atom_site_fract_z
Si Si1 0.457705 0.318299 0.305326
Si Si2 0.046126 0.446891 0.617504
Si Si3 0.040034 0.902425 0.848150
Si Si4 0.462159 0.082677 0.437506
Si Si5 0.456005 0.036762 0.797186
Si Si6 0.956077 0.430695 0.974863
O O1 0.250000 0.314996 0.315698
O O2 0.527435 0.250000 0.308061
O O3 0.491038 0.351167 0.217286
O O4 0.522008 0.362580 0.378898
O O5 0.250000 0.431259 0.619760
O O6 0.976424 0.414835 0.533878
O O7 0.971886 0.437101 0.710306
O O8 0.026108 0.518785 0.599734
O O9 0.250000 0.905683 0.850611
O O10 0.975399 0.968550 0.815860
O O11 0.979603 0.893628 0.944163
O O12 0.250000 0.080505 0.436808
O O13 0.250000 0.029268 0.784826
O O14 0.478291 0.076434 0.880648
O O15 0.750000 0.424121 0.970669
O O16 0.000000 0.500000 0.000000
#
# Coordination Sequence:
#
# PCOD9449280 Si02
#       6
#     8   8   8   8   8   8
#     4  10  20  31  43  62  87 115 148 182 215 255
#     4   9  16  27  43  62  87 113 141 178 219 262
#     4   9  17  29  42  59  84 113 144 178 211 252
#     4   9  17  28  42  61  84 114 146 177 217 260
#     4   9  16  26  41  63  88 113 140 172 212 260
#     4   9  17  27  40  60  86 113 140 170 207 253
#
# _framework density 17.671854
#
# number of rings (size 3 to 8) (size 9 to 14) (size 15 to 20)
#    0.000    2.833    1.667    1.500    0.000    4.333 
#    0.000    0.000    0.000    0.000    0.000    1.167 
#    0.000    4.000    0.000    0.000    0.000    0.000 
#
# Total GULP energy -267211.978594 kJ/mol
# GULP energy per Si atom -5566.916221 kJ/mol
# Density = 1.763163 g / cm^3
# Si number density = 17.671854 Si / 1000 Ang^3
#
#
#
# Elastic Constant Matrix: (Units=GPa)
#
#
# Indices 1 2 3 4 5 6 
#
# 1 20.0200 -8.2299 -7.0592 0.0000 0.0000 0.0000
# 2 -8.2299 64.9436 51.4515 0.0000 0.0000 0.0000
# 3 -7.0592 51.4515 197.7745 0.0000 0.0000 0.0000
# 4 0.0000 0.0000 0.0000 11.9923 0.0000 0.0000
# 5 0.0000 0.0000 0.0000 0.0000 15.4548 0.0000
# 6 0.0000 0.0000 0.0000 0.0000 0.0000 10.8249
#
#
#
# Elastic Compliance Matrix: (Units=1/GPa)
#
#
# Indices 1 2 3 4 5 6 
#
# 1 0.052700 0.006535 0.000181 0.000000 0.000000 0.000000
# 2 0.006535 0.020206 -0.005023 0.000000 0.000000 0.000000
# 3 0.000181 -0.005023 0.006370 0.000000 0.000000 0.000000
# 4 0.000000 0.000000 0.000000 0.083387 0.000000 0.000000
# 5 0.000000 0.000000 0.000000 0.000000 0.064705 0.000000
# 6 0.000000 0.000000 0.000000 0.000000 0.000000 0.092380
#
#
# Mechanical properties :
#
#
# Convention : Reuss Voigt Hill
#
# Bulk Modulus (GPa) = 12.09759 39.45144 25.77451
# Shear Modulus (GPa) = 14.53845 24.09277 19.31561
#
# Velocity S-wave (km/s) = 2.87137 3.69635 3.30967
# Velocity P-wave (km/s) = 4.22535 6.37105 5.40573
#
# Compressibility (1/GPa) = 0.08266112
#
# Stress axis : x y z
#
# Youngs Moduli (GPa) = 18.97519 49.49058 156.99677
#
# Poissons Ratio (x) = -0.32343 -0.02840
# Poissons Ratio (y) = -0.12400 0.78865
# Poissons Ratio (z) = -0.00343 0.24861
#
# Static dielectric constant tensor:
#      x y z
#    x 1.559750 0.000000 0.000000 
#    y 0.000000 1.558580 0.000000 
#    z 0.000000 0.000000 1.679460 
# 
# From -- ./inp_files/20746.got.cif
#   From: 2010.05.17/outbox.cif.g08.bks.cpg/sg59_11_cif.got.tgz:20746.got - 2010.06.03 14:40:33.
