data_PCOD9449343
_publ_section_title
;
Structure prediction by ZEFSAII (Michael W. Deem and Ramdas Pophale) SiO2 
 PCOD9449343
Probable space group: P M M N
;
_chemical_formula_sum "Si O2"
_cell_formula_units_Z 64
_cell_length_a 20.733325
_cell_length_b 7.413303
_cell_length_c 20.891230
_cell_angle_alpha 90.000000
_cell_angle_beta 90.000000
_cell_angle_gamma 90.000000
_cell_volume 3211.032617
_symmetry_space_group_name_H-M "P M M N"
_symmetry_group_IT_number 59
_space_group.IT_coordinate_system_code '2'
_symmetry_cell_setting 'orthorhombic'
loop_
_space_group_symop_operation_xyz
x,y,z
1/2-x,1/2-y,z
1/2+x,-y,-z
-x,1/2+y,-z
-x,-y,-z
1/2+x,1/2+y,-z
1/2-x,y,z
x,1/2-y,z
loop_
_atom_site_type_symbol
_atom_site_label
_atom_site_fract_x
_atom_site_fract_y
_atom_site_fract_z
Si Si1 0.942685 0.467020 0.735410
Si Si2 0.322604 0.470874 0.652222
Si Si3 0.915434 0.532603 0.458743
Si Si4 0.422848 0.971079 0.120508
Si Si5 0.676060 0.463967 0.984143
Si Si6 0.552519 0.462383 0.595922
Si Si7 0.089700 0.467908 0.765801
Si Si8 0.431661 0.466943 0.907861
O O1 0.932778 0.250000 0.737422
O O2 0.918365 0.530558 0.805146
O O3 0.922525 0.532770 0.664494
O O4 0.019061 0.505286 0.738062
O O5 0.250000 0.530136 0.650668
O O6 0.324067 0.250000 0.653058
O O7 0.360861 0.527903 0.589579
O O8 0.357792 0.533250 0.716354
O O9 0.918347 0.750000 0.457700
O O10 0.904920 0.481191 0.532392
O O11 0.983474 0.464277 0.429271
O O12 0.423742 0.750000 0.120367
O O13 0.362307 0.032852 0.078434
O O14 0.492576 0.026359 0.089436
O O15 0.750000 0.533028 0.994320
O O16 0.682689 0.250000 0.975953
O O17 0.622617 0.486916 0.040208
O O18 0.541839 0.250000 0.607091
O O19 0.094522 0.250000 0.768764
O O20 0.092574 0.531792 0.838428
O O21 0.435034 0.250000 0.907595
#
# Coordination Sequence:
#
# PCOD9449343 Si02
#       8
#     8   8   8   8   8   8   8   8
#     4   8  12  22  42  64  85 106 134 177 221 252
#     4   9  15  23  37  57  83 113 141 170 204 246
#     4   9  16  25  38  60  86 108 135 170 205 245
#     4   8  15  28  47  69  88 112 148 187 224 260
#     4  10  20  32  45  63  91 123 150 178 217 268
#     4   9  15  24  42  63  83 107 134 171 214 248
#     4   8  13  23  39  63  88 105 132 177 218 246
#     4   9  17  29  49  71  89 111 144 188 227 260
#
# _framework density 19.931283000000001
#
# number of rings (size 3 to 8) (size 9 to 14) (size 15 to 20)
#    0.000    3.250    1.250    1.875    0.000    0.750 
#    0.000    1.250    0.000    5.625    0.000    1.750 
#    0.000    0.000    0.000    0.000    0.000    0.000 
#
# Total GULP energy -356359.050711 kJ/mol
# GULP energy per Si atom -5568.110167 kJ/mol
# Density = 1.988592 g / cm^3
# Si number density = 19.931283 Si / 1000 Ang^3
#
#
#
# Elastic Constant Matrix: (Units=GPa)
#
#
# Indices 1 2 3 4 5 6 
#
# 1 81.3550 5.0605 66.7854 0.0000 0.0000 0.0000
# 2 5.0605 62.4363 5.1951 0.0000 0.0000 0.0000
# 3 66.7854 5.1951 139.7096 0.0000 0.0000 0.0000
# 4 0.0000 0.0000 0.0000 -1.8042 0.0000 0.0000
# 5 0.0000 0.0000 0.0000 0.0000 13.8223 0.0000
# 6 0.0000 0.0000 0.0000 0.0000 0.0000 4.0358
#
#
#
# Elastic Compliance Matrix: (Units=1/GPa)
#
#
# Indices 1 2 3 4 5 6 
#
# 1 0.020275 -0.000839 -0.009661 0.000000 0.000000 0.000000
# 2 -0.000839 0.016101 -0.000197 0.000000 0.000000 0.000000
# 3 -0.009661 -0.000197 0.011783 0.000000 0.000000 0.000000
# 4 0.000000 0.000000 0.000000 -0.554274 0.000000 0.000000
# 5 0.000000 0.000000 0.000000 0.000000 0.072347 0.000000
# 6 0.000000 0.000000 0.000000 0.000000 0.000000 0.247781
#
#
# Mechanical properties :
#
#
# Convention : Reuss Voigt Hill
#
# Bulk Modulus (GPa) = 37.36438 48.62033 42.99235
# Shear Modulus (GPa) = -32.11891 16.97479 -7.57206
#
# Velocity S-wave (km/s) = -4.01868 2.92150 -1.95124
# Velocity P-wave (km/s) = 1.65704 5.98558 4.06702
#
# Compressibility (1/GPa) = 0.02676346
#
# Stress axis : x y z
#
# Youngs Moduli (GPa) = 49.32284 62.10877 84.86705
#
# Poissons Ratio (x) = 0.05214 0.81987
# Poissons Ratio (y) = 0.04140 0.01676
# Poissons Ratio (z) = 0.47649 0.01226
#
# Static dielectric constant tensor:
#      x y z
#    x 1.676910 0.000000 0.000000 
#    y 0.000000 1.786590 0.000000 
#    z 0.000000 0.000000 1.744220 
# 
# From -- ./inp_files/27967.got.cif
#   From: 2010.05.17/outbox.cif.g08.bks.cpg/sg59_14_cif.got.tgz:27967.got - 2010.06.03 14:40:33.
