data_PCOD9449699
_publ_section_title
;
Structure prediction by ZEFSAII (Michael W. Deem and Ramdas Pophale) SiO2 
 PCOD9449699
Probable space group: P M M N
;
_chemical_formula_sum "Si O2"
_cell_formula_units_Z 64
_cell_length_a 13.915751
_cell_length_b 13.909454
_cell_length_c 20.914254
_cell_angle_alpha 90.000000
_cell_angle_beta 90.000000
_cell_angle_gamma 90.000000
_cell_volume 4048.173428
_symmetry_space_group_name_H-M "P M M N"
_symmetry_group_IT_number 59
_space_group.IT_coordinate_system_code '2'
_symmetry_cell_setting 'orthorhombic'
loop_
_space_group_symop_operation_xyz
x,y,z
1/2-x,1/2-y,z
1/2+x,-y,-z
-x,1/2+y,-z
-x,-y,-z
1/2+x,1/2+y,-z
1/2-x,y,z
x,1/2-y,z
loop_
_atom_site_type_symbol
_atom_site_label
_atom_site_fract_x
_atom_site_fract_y
_atom_site_fract_z
Si Si1 0.527094 0.634450 0.944410
Si Si2 0.133626 0.141745 0.821928
Si Si3 0.363897 0.026768 0.697848
Si Si4 0.636429 0.965503 0.448583
Si Si5 0.858554 0.633701 0.815928
Si Si6 0.865045 0.518664 0.053480
Si Si7 0.508089 0.861340 0.549755
Si Si8 0.484226 0.363012 0.303655
O O1 0.519806 0.750000 0.950055
O O2 0.573648 0.609445 0.875608
O O3 0.425542 0.579731 0.951230
O O4 0.597485 0.589787 0.997929
O O5 0.250000 0.146419 0.821446
O O6 0.097422 0.250000 0.832434
O O7 0.104574 0.099471 0.753319
O O8 0.109194 0.070290 0.879480
O O9 0.250000 0.009661 0.704807
O O10 0.379834 0.063569 0.625566
O O11 0.422170 0.928261 0.705309
O O12 0.750000 0.972552 0.459202
O O13 0.586042 0.893771 0.497894
O O14 0.582989 0.067921 0.456927
O O15 0.750000 0.596754 0.823673
O O16 0.853210 0.750000 0.815622
O O17 0.905820 0.605988 0.748483
O O18 0.750000 0.505527 0.050048
O O19 0.482062 0.750000 0.542057
O O20 0.546439 0.874288 0.622391
O O21 0.505110 0.250000 0.293518
#
# Coordination Sequence:
#
# PCOD9449699 Si02
#       8
#     8   8   8   8   8   8   8   8
#     4  10  20  33  50  72  97 126 161 200 241 285
#     4   9  17  29  45  65  90 120 153 188 226 271
#     4   9  17  29  45  66  92 120 150 186 230 280
#     4   9  18  31  46  66  92 121 155 195 237 283
#     4   9  17  29  45  65  90 120 153 188 226 271
#     4  10  20  33  50  72  97 126 161 200 241 285
#     4   9  18  31  46  66  92 121 155 195 237 283
#     4   9  17  29  45  66  92 120 150 186 230 280
#
# _framework density 15.809599
#
# number of rings (size 3 to 8) (size 9 to 14) (size 15 to 20)
#    0.000    2.750    0.000    1.500    0.000    3.250 
#    0.000    5.000    0.000    4.500    0.000    0.000 
#    0.000    4.500    0.000    1.000    0.000    0.250 
#
# Total GULP energy -356409.775981 kJ/mol
# GULP energy per Si atom -5568.902750 kJ/mol
# Density = 1.577362 g / cm^3
# Si number density = 15.809599 Si / 1000 Ang^3
#
#
#
# Elastic Constant Matrix: (Units=GPa)
#
#
# Indices 1 2 3 4 5 6 
#
# 1 56.1757 12.3321 19.8672 0.0000 0.0000 0.0000
# 2 12.3321 48.0973 15.3924 0.0000 0.0000 0.0000
# 3 19.8672 15.3924 63.4316 0.0000 0.0000 0.0000
# 4 0.0000 0.0000 0.0000 24.7741 0.0000 0.0000
# 5 0.0000 0.0000 0.0000 0.0000 25.4386 0.0000
# 6 0.0000 0.0000 0.0000 0.0000 0.0000 9.9059
#
#
#
# Elastic Compliance Matrix: (Units=1/GPa)
#
#
# Indices 1 2 3 4 5 6 
#
# 1 0.020542 -0.003478 -0.005590 0.000000 0.000000 0.000000
# 2 -0.003478 0.023131 -0.004524 0.000000 0.000000 0.000000
# 3 -0.005590 -0.004524 0.018613 0.000000 0.000000 0.000000
# 4 0.000000 0.000000 0.000000 0.040365 0.000000 0.000000
# 5 0.000000 0.000000 0.000000 0.000000 0.039310 0.000000
# 6 0.000000 0.000000 0.000000 0.000000 0.000000 0.100949
#
#
# Mechanical properties :
#
#
# Convention : Reuss Voigt Hill
#
# Bulk Modulus (GPa) = 28.48758 29.20978 28.84868
# Shear Modulus (GPa) = 17.74345 20.03126 18.88736
#
# Velocity S-wave (km/s) = 3.35374 3.56340 3.46016
# Velocity P-wave (km/s) = 5.74935 5.95370 5.85242
#
# Compressibility (1/GPa) = 0.03510302
#
# Stress axis : x y z
#
# Youngs Moduli (GPa) = 48.68147 43.23275 53.72451
#
# Poissons Ratio (x) = 0.15036 0.30031
# Poissons Ratio (y) = 0.16931 0.24303
# Poissons Ratio (z) = 0.27212 0.19557
#
# Static dielectric constant tensor:
#      x y z
#    x 1.507140 0.000000 0.000000 
#    y 0.000000 1.512270 0.000000 
#    z 0.000000 0.000000 1.545850 
# 
# From -- ./inp_files/27720.got.cif
#   From: 2010.05.17/outbox.cif.g08.bks.cpg/sg59_14_cif.got.tgz:27720.got - 2010.06.03 14:40:33.
