data_PCOD9449366
_publ_section_title
;
Structure prediction by ZEFSAII (Michael W. Deem and Ramdas Pophale) SiO2 
 PCOD9449366
Probable space group: P M M N
;
_chemical_formula_sum "Si O2"
_cell_formula_units_Z 56
_cell_length_a 29.246381
_cell_length_b 8.680959
_cell_length_c 13.914082
_cell_angle_alpha 90.000000
_cell_angle_beta 90.000000
_cell_angle_gamma 90.000000
_cell_volume 3532.599449
_symmetry_space_group_name_H-M "P M M N"
_symmetry_group_IT_number 59
_space_group.IT_coordinate_system_code '2'
_symmetry_cell_setting 'orthorhombic'
loop_
_space_group_symop_operation_xyz
x,y,z
1/2-x,1/2-y,z
1/2+x,-y,-z
-x,1/2+y,-z
-x,-y,-z
1/2+x,1/2+y,-z
1/2-x,y,z
x,1/2-y,z
loop_
_atom_site_type_symbol
_atom_site_label
_atom_site_fract_x
_atom_site_fract_y
_atom_site_fract_z
Si Si1 0.302554 0.934245 0.005496
Si Si2 0.108008 0.433242 0.918282
Si Si3 0.983030 0.565383 0.600136
Si Si4 0.896382 0.936093 0.713505
Si Si5 0.946058 0.433303 0.899706
Si Si6 0.532614 0.434801 0.202663
Si Si7 0.699026 0.564593 0.779980
O O1 0.250000 0.972909 0.979450
O O2 0.307514 0.750000 0.005464
O O3 0.309668 0.994478 0.114474
O O4 0.340871 0.006769 0.937483
O O5 0.107577 0.250000 0.915118
O O6 0.082028 0.501707 0.825991
O O7 0.078204 0.491578 0.009025
O O8 0.985034 0.750000 0.595255
O O9 0.930761 0.522175 0.627602
O O10 0.000000 0.500000 0.500000
O O11 0.014147 0.518396 0.691894
O O12 0.900720 0.750000 0.727643
O O13 0.842798 0.974295 0.709508
O O14 0.915882 0.019820 0.807465
O O15 0.948221 0.250000 0.911911
O O16 0.995833 0.499769 0.873734
O O17 0.532043 0.250000 0.197076
O O18 0.750000 0.516494 0.749077
O O19 0.699037 0.750000 0.790698
#
# Coordination Sequence:
#
# PCOD9449366 Si02
#       7
#     8   8   8   8   8   8   8
#     4  10  20  32  46  67  96 130 168 204 237 275
#     4  12  22  32  47  68  96 130 165 199 236 281
#     4   9  19  34  52  71  94 122 154 197 247 297
#     4   9  17  30  46  68  97 128 159 195 239 286
#     4  11  20  30  45  67  96 130 163 194 233 279
#     4  10  21  36  50  68  94 123 158 199 241 288
#     4   9  16  27  45  67  93 127 163 195 230 277
#
# _framework density 15.852349999999999
#
# number of rings (size 3 to 8) (size 9 to 14) (size 15 to 20)
#    0.000    2.000    1.429    4.714    0.000    3.714 
#    0.000    0.000    0.000    0.000    0.000    1.000 
#    0.000    3.429    0.000    0.000    0.000    0.000 
#
# Total GULP energy -312332.641012 kJ/mol
# GULP energy per Si atom -5577.368589 kJ/mol
# Density = 1.581627 g / cm^3
# Si number density = 15.852350 Si / 1000 Ang^3
#
#
#
# Elastic Constant Matrix: (Units=GPa)
#
#
# Indices 1 2 3 4 5 6 
#
# 1 150.6825 40.8017 59.5005 0.0000 0.0000 0.0000
# 2 40.8017 49.4258 21.8504 0.0000 0.0000 0.0000
# 3 59.5005 21.8504 63.6974 0.0000 0.0000 0.0000
# 4 0.0000 0.0000 0.0000 22.6243 0.0000 0.0000
# 5 0.0000 0.0000 0.0000 0.0000 19.3904 0.0000
# 6 0.0000 0.0000 0.0000 0.0000 0.0000 23.8293
#
#
#
# Elastic Compliance Matrix: (Units=1/GPa)
#
#
# Indices 1 2 3 4 5 6 
#
# 1 0.011739 -0.005709 -0.009007 0.000000 0.000000 0.000000
# 2 -0.005709 0.026625 -0.003801 0.000000 0.000000 0.000000
# 3 -0.009007 -0.003801 0.025417 0.000000 0.000000 0.000000
# 4 0.000000 0.000000 0.000000 0.044200 0.000000 0.000000
# 5 0.000000 0.000000 0.000000 0.000000 0.051572 0.000000
# 6 0.000000 0.000000 0.000000 0.000000 0.000000 0.041965
#
#
# Mechanical properties :
#
#
# Convention : Reuss Voigt Hill
#
# Bulk Modulus (GPa) = 37.38661 56.45678 46.92169
# Shear Modulus (GPa) = 20.20466 22.61235 21.40851
#
# Velocity S-wave (km/s) = 3.57396 3.78092 3.67889
# Velocity P-wave (km/s) = 6.37702 7.39945 6.90718
#
# Compressibility (1/GPa) = 0.02674754
#
# Stress axis : x y z
#
# Youngs Moduli (GPa) = 85.18603 37.55833 39.34408
#
# Poissons Ratio (x) = 0.21441 0.35438
# Poissons Ratio (y) = 0.48631 0.14954
# Poissons Ratio (z) = 0.76729 0.14275
#
# Static dielectric constant tensor:
#      x y z
#    x 1.578210 0.000000 0.000000 
#    y 0.000000 1.529040 0.000000 
#    z 0.000000 0.000000 1.502120 
# 
# From -- ./inp_files/24980.got.cif
#   From: 2010.05.17/outbox.cif.g08.bks.cpg/sg59_13_cif.got.tgz:24980.got - 2010.06.03 14:40:33.
