data_PCOD9449889
_publ_section_title
;
Structure prediction by ZEFSAII (Michael W. Deem and Ramdas Pophale) SiO2 
 PCOD9449889
Probable space group: P M M N
;
_chemical_formula_sum "Si O2"
_cell_formula_units_Z 40
_cell_length_a 9.413627
_cell_length_b 7.739776
_cell_length_c 27.214893
_cell_angle_alpha 90.000000
_cell_angle_beta 90.000000
_cell_angle_gamma 90.000000
_cell_volume 1982.859804
_symmetry_space_group_name_H-M "P M M N"
_symmetry_group_IT_number 59
_space_group.IT_coordinate_system_code '2'
_symmetry_cell_setting 'orthorhombic'
loop_
_space_group_symop_operation_xyz
x,y,z
1/2-x,1/2-y,z
1/2+x,-y,-z
-x,1/2+y,-z
-x,-y,-z
1/2+x,1/2+y,-z
1/2-x,y,z
x,1/2-y,z
loop_
_atom_site_type_symbol
_atom_site_label
_atom_site_fract_x
_atom_site_fract_y
_atom_site_fract_z
Si Si1 0.423169 0.451214 0.346152
Si Si2 0.414931 0.462139 0.238743
Si Si3 0.410404 0.956782 0.855170
Si Si4 0.910998 0.044443 0.951540
Si Si5 0.911654 0.541742 0.548074
O O1 0.250000 0.453926 0.347057
O O2 0.467386 0.250000 0.345353
O O3 0.463096 0.524148 0.292887
O O4 0.468454 0.524757 0.399029
O O5 0.250000 0.511076 0.231137
O O6 0.416874 0.250000 0.239844
O O7 0.511300 0.522163 0.193803
O O8 0.250000 0.024480 0.860840
O O9 0.400875 0.750000 0.849654
O O10 0.504772 0.988517 0.903106
O O11 0.750000 0.973087 0.953162
O O12 0.900648 0.250000 0.949749
O O13 0.000000 0.000000 0.000000
O O14 0.750000 0.479264 0.541947
O O15 0.906741 0.750000 0.552450
O O16 0.000000 0.500000 0.500000
#
# Coordination Sequence:
#
# PCOD9449889 Si02
#       5
#     8   8   8   8   8
#     4   7  11  22  41  64  89 119 157 199 241 285
#     4   8  13  24  45  70  94 123 160 201 243 285
#     4  10  20  33  51  78 109 136 162 195 239 291
#     4  11  24  40  58  80 104 132 168 206 242 283
#     4   9  17  29  45  66  93 124 159 201 246 292
#
# _framework density 20.172885000000001
#
# number of rings (size 3 to 8) (size 9 to 14) (size 15 to 20)
#    0.000    3.000    0.000    4.200    0.000    5.600 
#    0.000    1.000    0.000    4.800    0.000    2.800 
#    0.000    0.000    0.000    0.000    0.000    0.000 
#
# Total GULP energy -222937.509900 kJ/mol
# GULP energy per Si atom -5573.437748 kJ/mol
# Density = 2.012697 g / cm^3
# Si number density = 20.172885 Si / 1000 Ang^3
#
#
#
# Elastic Constant Matrix: (Units=GPa)
#
#
# Indices 1 2 3 4 5 6 
#
# 1 125.8001 6.4184 112.2665 0.0000 0.0000 0.0000
# 2 6.4184 30.6058 4.7460 0.0000 0.0000 0.0000
# 3 112.2665 4.7460 250.6564 0.0000 0.0000 0.0000
# 4 0.0000 0.0000 0.0000 18.7419 0.0000 0.0000
# 5 0.0000 0.0000 0.0000 0.0000 36.2621 0.0000
# 6 0.0000 0.0000 0.0000 0.0000 0.0000 13.5661
#
#
#
# Elastic Compliance Matrix: (Units=1/GPa)
#
#
# Indices 1 2 3 4 5 6 
#
# 1 0.013349 -0.001878 -0.005943 0.000000 0.000000 0.000000
# 2 -0.001878 0.033034 0.000216 0.000000 0.000000 0.000000
# 3 -0.005943 0.000216 0.006647 0.000000 0.000000 0.000000
# 4 0.000000 0.000000 0.000000 0.053356 0.000000 0.000000
# 5 0.000000 0.000000 0.000000 0.000000 0.027577 0.000000
# 6 0.000000 0.000000 0.000000 0.000000 0.000000 0.073713
#
#
# Mechanical properties :
#
#
# Convention : Reuss Voigt Hill
#
# Bulk Modulus (GPa) = 26.44163 72.65822 49.54992
# Shear Modulus (GPa) = 21.23200 32.62280 26.92740
#
# Velocity S-wave (km/s) = 3.24775 4.02576 3.65750
# Velocity P-wave (km/s) = 5.21534 7.59637 6.51555
#
# Compressibility (1/GPa) = 0.03781916
#
# Stress axis : x y z
#
# Youngs Moduli (GPa) = 74.91324 30.27192 150.43573
#
# Poissons Ratio (x) = 0.05684 0.89407
# Poissons Ratio (y) = 0.14067 -0.03243
# Poissons Ratio (z) = 0.44523 -0.00653
#
# Static dielectric constant tensor:
#      x y z
#    x 1.701350 0.000000 0.000000 
#    y 0.000000 1.772760 0.000000 
#    z 0.000000 0.000000 1.809290 
# 
# From -- ./inp_files/32370.got.cif
#   From: 2010.05.17/outbox.cif.g08.bks.cpg/sg59_17_cif.got.tgz:32370.got - 2010.06.03 14:40:33.
