data_PCOD9449586
_publ_section_title
;
Structure prediction by ZEFSAII (Michael W. Deem and Ramdas Pophale) SiO2 
 PCOD9449586
Probable space group: P M M N
;
_chemical_formula_sum "Si O2"
_cell_formula_units_Z 64
_cell_length_a 8.868139
_cell_length_b 14.321135
_cell_length_c 32.380817
_cell_angle_alpha 90.000000
_cell_angle_beta 90.000000
_cell_angle_gamma 90.000000
_cell_volume 4112.422557
_symmetry_space_group_name_H-M "P M M N"
_symmetry_group_IT_number 59
_space_group.IT_coordinate_system_code '2'
_symmetry_cell_setting 'orthorhombic'
loop_
_space_group_symop_operation_xyz
x,y,z
1/2-x,1/2-y,z
1/2+x,-y,-z
-x,1/2+y,-z
-x,-y,-z
1/2+x,1/2+y,-z
1/2-x,y,z
x,1/2-y,z
loop_
_atom_site_type_symbol
_atom_site_label
_atom_site_fract_x
_atom_site_fract_y
_atom_site_fract_z
Si Si1 0.076588 0.136708 0.768824
Si Si2 0.069485 0.471652 0.606658
Si Si3 0.069904 0.360578 0.433541
Si Si4 0.568215 0.467691 0.937210
Si Si5 0.431789 0.859262 0.144796
Si Si6 0.433210 0.142153 0.526239
Si Si7 0.069748 0.640486 0.317654
Si Si8 0.568128 0.357513 0.020355
O O1 0.250000 0.106672 0.766773
O O2 0.073386 0.250000 0.769366
O O3 0.000822 0.107932 0.811836
O O4 0.989303 0.109504 0.727310
O O5 0.250000 0.466999 0.608612
O O6 0.016187 0.417930 0.565059
O O7 0.013811 0.576744 0.599748
O O8 0.001043 0.421119 0.646264
O O9 0.250000 0.376789 0.431169
O O10 0.045104 0.250000 0.428708
O O11 0.016814 0.386216 0.480231
O O12 0.750000 0.474931 0.937053
O O13 0.520436 0.421616 0.894085
O O14 0.499424 0.568645 0.947331
O O15 0.526851 0.398617 0.975142
O O16 0.250000 0.862320 0.147611
O O17 0.473216 0.750000 0.138036
O O18 0.250000 0.139372 0.525377
O O19 0.476994 0.250000 0.532512
O O20 0.250000 0.635019 0.318770
O O21 0.026602 0.750000 0.323488
O O22 0.750000 0.359412 0.023113
O O23 0.519033 0.250000 0.025118
#
# Coordination Sequence:
#
# PCOD9449586 Si02
#       8
#     8   8   8   8   8   8   8   8
#     4   9  17  29  45  66  92 119 146 179 220 264
#     4  11  20  29  46  70  94 119 148 185 226 266
#     4   9  18  33  49  63  85 119 156 191 224 260
#     4   9  17  28  43  64  88 117 155 193 226 264
#     4   9  16  27  44  65  90 120 151 182 219 265
#     4   8  15  28  45  65  90 120 150 180 218 262
#     4  10  20  33  48  67  93 123 152 180 214 265
#     4   9  17  29  43  60  87 122 156 191 231 269
#
# _framework density 15.562602999999999
#
# number of rings (size 3 to 8) (size 9 to 14) (size 15 to 20)
#    0.000    2.750    0.000    3.000    0.000    5.250 
#    0.000    0.625    0.000    3.750    0.000    0.875 
#    0.000    3.000    0.000    0.000    0.000    0.000 
#
# Total GULP energy -356688.562873 kJ/mol
# GULP energy per Si atom -5573.258795 kJ/mol
# Density = 1.552718 g / cm^3
# Si number density = 15.562603 Si / 1000 Ang^3
#
#
#
# Elastic Constant Matrix: (Units=GPa)
#
#
# Indices 1 2 3 4 5 6 
#
# 1 31.9828 31.8796 45.2874 0.0000 0.0000 0.0000
# 2 31.8796 83.8421 68.4624 0.0000 0.0000 0.0000
# 3 45.2874 68.4624 135.7334 0.0000 0.0000 0.0000
# 4 0.0000 0.0000 0.0000 26.0291 0.0000 0.0000
# 5 0.0000 0.0000 0.0000 0.0000 25.2614 0.0000
# 6 0.0000 0.0000 0.0000 0.0000 0.0000 20.7861
#
#
#
# Elastic Compliance Matrix: (Units=1/GPa)
#
#
# Indices 1 2 3 4 5 6 
#
# 1 0.065718 -0.012044 -0.015852 0.000000 0.000000 0.000000
# 2 -0.012044 0.022487 -0.007324 0.000000 0.000000 0.000000
# 3 -0.015852 -0.007324 0.016350 0.000000 0.000000 0.000000
# 4 0.000000 0.000000 0.000000 0.038419 0.000000 0.000000
# 5 0.000000 0.000000 0.000000 0.000000 0.039586 0.000000
# 6 0.000000 0.000000 0.000000 0.000000 0.000000 0.048109
#
#
# Mechanical properties :
#
#
# Convention : Reuss Voigt Hill
#
# Bulk Modulus (GPa) = 29.31167 60.31302 44.81234
# Shear Modulus (GPa) = 16.00096 21.47724 18.73910
#
# Velocity S-wave (km/s) = 3.20998 3.71894 3.47379
# Velocity P-wave (km/s) = 5.71089 7.56835 6.70426
#
# Compressibility (1/GPa) = 0.03411611
#
# Stress axis : x y z
#
# Youngs Moduli (GPa) = 15.21645 44.47005 61.16068
#
# Poissons Ratio (x) = 0.53561 0.96952
# Poissons Ratio (y) = 0.18327 0.44792
# Poissons Ratio (z) = 0.24121 0.32568
#
# Static dielectric constant tensor:
#      x y z
#    x 1.521020 0.000000 0.000000 
#    y 0.000000 1.510630 0.000000 
#    z 0.000000 0.000000 1.509580 
# 
# From -- ./inp_files/33218.got.cif
#   From: 2010.05.17/outbox.cif.g08.bks.cpg/sg59_17_cif.got.tgz:33218.got - 2010.06.03 14:40:33.
