data_PCOD9449691
_publ_section_title
;
Structure prediction by ZEFSAII (Michael W. Deem and Ramdas Pophale) SiO2 
 PCOD9449691
Probable space group: P M M N
;
_chemical_formula_sum "Si O2"
_cell_formula_units_Z 64
_cell_length_a 9.008703
_cell_length_b 16.166597
_cell_length_c 23.999219
_cell_angle_alpha 90.000000
_cell_angle_beta 90.000000
_cell_angle_gamma 90.000000
_cell_volume 3495.247957
_symmetry_space_group_name_H-M "P M M N"
_symmetry_group_IT_number 59
_space_group.IT_coordinate_system_code '2'
_symmetry_cell_setting 'orthorhombic'
loop_
_space_group_symop_operation_xyz
x,y,z
1/2-x,1/2-y,z
1/2+x,-y,-z
-x,1/2+y,-z
-x,-y,-z
1/2+x,1/2+y,-z
1/2-x,y,z
x,1/2-y,z
loop_
_atom_site_type_symbol
_atom_site_label
_atom_site_fract_x
_atom_site_fract_y
_atom_site_fract_z
Si Si1 0.078740 0.414725 0.864005
Si Si2 0.580563 0.345612 0.966009
Si Si3 0.071426 0.655588 0.453763
Si Si4 0.076150 0.903283 0.917662
Si Si5 0.429375 0.343329 0.424568
Si Si6 0.570738 0.485699 0.758582
Si Si7 0.430764 0.513358 0.367576
Si Si8 0.071522 0.160295 0.190421
O O1 0.250000 0.395276 0.854265
O O2 0.068069 0.503482 0.895305
O O3 0.006197 0.354427 0.908671
O O4 0.995284 0.426035 0.805615
O O5 0.750000 0.374231 0.956069
O O6 0.583080 0.250000 0.983018
O O7 0.518070 0.394085 0.019501
O O8 0.250000 0.648937 0.460535
O O9 0.039978 0.750000 0.434542
O O10 0.022637 0.584619 0.410778
O O11 0.994994 0.644899 0.513654
O O12 0.250000 0.878471 0.918602
O O13 0.989435 0.850338 0.872012
O O14 0.250000 0.345182 0.427426
O O15 0.471633 0.250000 0.405469
O O16 0.476910 0.421408 0.387204
O O17 0.750000 0.481864 0.761227
O O18 0.522291 0.468442 0.695584
O O19 0.524298 0.579652 0.774917
O O20 0.250000 0.513335 0.367483
O O21 0.250000 0.158540 0.188985
O O22 0.024806 0.250000 0.213003
#
# Coordination Sequence:
#
# PCOD9449691 Si02
#       8
#     8   8   8   8   8   8   8   8
#     4  10  20  34  51  70  94 124 156 192 236 282
#     4  10  20  33  50  72  95 120 153 192 235 285
#     4   9  17  30  48  70  96 125 158 196 237 281
#     4   9  18  32  50  71  94 122 154 187 230 286
#     4   9  17  29  47  73 102 128 155 190 235 286
#     4   9  18  33  50  66  90 125 163 199 232 274
#     4   9  17  30  49  71  94 125 164 201 235 274
#     4   9  17  28  44  68  95 122 153 191 236 283
#
# _framework density 18.310576000000001
#
# number of rings (size 3 to 8) (size 9 to 14) (size 15 to 20)
#    0.000    2.750    0.000    1.500    0.000    2.500 
#    0.000    4.375    0.000    2.250    0.000    1.750 
#    0.000    0.000    0.000    0.000    0.000    0.000 
#
# Total GULP energy -356642.365206 kJ/mol
# GULP energy per Si atom -5572.536956 kJ/mol
# Density = 1.826890 g / cm^3
# Si number density = 18.310576 Si / 1000 Ang^3
#
#
#
# Elastic Constant Matrix: (Units=GPa)
#
#
# Indices 1 2 3 4 5 6 
#
# 1 9.9326 8.9498 14.6593 0.0000 0.0000 0.0000
# 2 8.9498 38.2900 25.8847 0.0000 0.0000 0.0000
# 3 14.6593 25.8847 98.5325 0.0000 0.0000 0.0000
# 4 0.0000 0.0000 0.0000 12.4600 0.0000 0.0000
# 5 0.0000 0.0000 0.0000 0.0000 23.3896 0.0000
# 6 0.0000 0.0000 0.0000 0.0000 0.0000 14.5884
#
#
#
# Elastic Compliance Matrix: (Units=1/GPa)
#
#
# Indices 1 2 3 4 5 6 
#
# 1 0.144382 -0.023378 -0.015339 0.000000 0.000000 0.000000
# 2 -0.023378 0.035541 -0.005859 0.000000 0.000000 0.000000
# 3 -0.015339 -0.005859 0.013970 0.000000 0.000000 0.000000
# 4 0.000000 0.000000 0.000000 0.080257 0.000000 0.000000
# 5 0.000000 0.000000 0.000000 0.000000 0.042754 0.000000
# 6 0.000000 0.000000 0.000000 0.000000 0.000000 0.068548
#
#
# Mechanical properties :
#
#
# Convention : Reuss Voigt Hill
#
# Bulk Modulus (GPa) = 9.54727 27.30474 18.42601
# Shear Modulus (GPa) = 9.81322 16.57169 13.19246
#
# Velocity S-wave (km/s) = 2.31753 3.01164 2.68709
# Velocity P-wave (km/s) = 3.51947 5.19978 4.43984
#
# Compressibility (1/GPa) = 0.10474195
#
# Stress axis : x y z
#
# Youngs Moduli (GPa) = 6.92608 28.13634 71.58116
#
# Poissons Ratio (x) = 0.65776 1.09800
# Poissons Ratio (y) = 0.16192 0.41937
# Poissons Ratio (z) = 0.10624 0.16484
#
# Static dielectric constant tensor:
#      x y z
#    x 1.626550 0.000000 0.000000 
#    y 0.000000 1.659790 0.000000 
#    z 0.000000 0.000000 1.612790 
# 
# From -- ./inp_files/29578.got.cif
#   From: 2010.05.17/outbox.cif.g08.bks.cpg/sg59_15_cif.got.tgz:29578.got - 2010.06.03 14:40:33.
