data_PCOD9449216
_publ_section_title
;
Structure prediction by ZEFSAII (Michael W. Deem and Ramdas Pophale) SiO2 
 PCOD9449216
Probable space group: P M M N
;
_chemical_formula_sum "Si O2"
_cell_formula_units_Z 64
_cell_length_a 8.832593
_cell_length_b 31.650418
_cell_length_c 12.236027
_cell_angle_alpha 90.000000
_cell_angle_beta 90.000000
_cell_angle_gamma 90.000000
_cell_volume 3420.645715
_symmetry_space_group_name_H-M "P M M N"
_symmetry_group_IT_number 59
_space_group.IT_coordinate_system_code '2'
_symmetry_cell_setting 'orthorhombic'
loop_
_space_group_symop_operation_xyz
x,y,z
1/2-x,1/2-y,z
1/2+x,-y,-z
-x,1/2+y,-z
-x,-y,-z
1/2+x,1/2+y,-z
1/2-x,y,z
x,1/2-y,z
loop_
_atom_site_type_symbol
_atom_site_label
_atom_site_fract_x
_atom_site_fract_y
_atom_site_fract_z
Si Si1 0.567178 0.624664 0.125664
Si Si2 0.569925 0.954348 0.978551
Si Si3 0.566568 0.621853 0.380066
Si Si4 0.567228 0.202954 0.006800
Si Si5 0.568536 0.454052 0.479963
Si Si6 0.071810 0.580104 0.760051
Si Si7 0.432233 0.203549 0.481948
Si Si8 0.428872 0.819047 0.748451
O O1 0.750000 0.626483 0.120099
O O2 0.523454 0.624083 0.252843
O O3 0.502163 0.665309 0.063483
O O4 0.517582 0.581870 0.063722
O O5 0.750000 0.957499 0.987818
O O6 0.523439 0.938684 0.858653
O O7 0.500000 0.000000 0.000000
O O8 0.750000 0.619535 0.385961
O O9 0.498550 0.580785 0.438180
O O10 0.515634 0.663982 0.445010
O O11 0.750000 0.199114 0.004604
O O12 0.525907 0.250000 0.967671
O O13 0.520970 0.198455 0.134094
O O14 0.500000 0.500000 0.500000
O O15 0.750000 0.455089 0.490597
O O16 0.531590 0.439568 0.356604
O O17 0.250000 0.571801 0.781197
O O18 0.052016 0.630430 0.753254
O O19 0.250000 0.202761 0.483858
O O20 0.482125 0.250000 0.521702
O O21 0.486411 0.197815 0.357626
O O22 0.250000 0.809661 0.736064
#
# Coordination Sequence:
#
# PCOD9449216 Si02
#       8
#     8   8   8   8   8   8   8   8
#     4  10  23  41  60  84 115 155 197 241 289 344
#     4  11  24  40  61  89 120 154 198 245 296 351
#     4  10  22  41  61  83 117 157 196 241 292 344
#     4  10  21  37  59  87 117 151 191 236 289 347
#     4  11  24  41  62  90 120 153 196 242 293 351
#     4  10  21  39  63  88 118 154 193 240 292 348
#     4  10  21  36  57  86 117 151 193 239 287 343
#     4  10  19  36  60  86 118 153 189 236 293 346
#
# _framework density 18.709917999999998
#
# number of rings (size 3 to 8) (size 9 to 14) (size 15 to 20)
#    0.000    1.750    2.500    1.125    1.750    4.500 
#    0.000    1.250    0.000    0.000    0.000    0.000 
#    0.000    0.000    0.000    0.000    0.000    0.000 
#
# Total GULP energy -357524.596060 kJ/mol
# GULP energy per Si atom -5586.321813 kJ/mol
# Density = 1.866733 g / cm^3
# Si number density = 18.709918 Si / 1000 Ang^3
#
#
#
# Elastic Constant Matrix: (Units=GPa)
#
#
# Indices 1 2 3 4 5 6 
#
# 1 18.0524 41.3705 37.2770 0.0000 0.0000 0.0000
# 2 41.3705 177.1620 95.5528 0.0000 0.0000 0.0000
# 3 37.2770 95.5528 145.7995 0.0000 0.0000 0.0000
# 4 0.0000 0.0000 0.0000 52.7478 0.0000 0.0000
# 5 0.0000 0.0000 0.0000 0.0000 29.0056 0.0000
# 6 0.0000 0.0000 0.0000 0.0000 0.0000 28.2658
#
#
#
# Elastic Compliance Matrix: (Units=1/GPa)
#
#
# Indices 1 2 3 4 5 6 
#
# 1 0.166217 -0.024583 -0.026386 0.000000 0.000000 0.000000
# 2 -0.024583 0.012366 -0.001819 0.000000 0.000000 0.000000
# 3 -0.026386 -0.001819 0.014797 0.000000 0.000000 0.000000
# 4 0.000000 0.000000 0.000000 0.018958 0.000000 0.000000
# 5 0.000000 0.000000 0.000000 0.000000 0.034476 0.000000
# 6 0.000000 0.000000 0.000000 0.000000 0.000000 0.035378
#
#
# Mechanical properties :
#
#
# Convention : Reuss Voigt Hill
#
# Bulk Modulus (GPa) = 11.38906 76.60160 43.99533
# Shear Modulus (GPa) = 11.98928 33.12474 22.55701
#
# Velocity S-wave (km/s) = 2.53415 4.21222 3.47597
# Velocity P-wave (km/s) = 3.82922 8.04286 6.29883
#
# Compressibility (1/GPa) = 0.08780358
#
# Stress axis : x y z
#
# Youngs Moduli (GPa) = 6.01622 80.86410 67.57983
#
# Poissons Ratio (x) = 1.98790 1.78317
# Poissons Ratio (y) = 0.14790 0.12295
# Poissons Ratio (z) = 0.15875 0.14712
#
# Static dielectric constant tensor:
#      x y z
#    x 1.636310 0.000000 0.000000 
#    y 0.000000 1.637970 0.000000 
#    z 0.000000 0.000000 1.618370 
# 
# From -- ./inp_files/14897.got.cif
#   From: 2010.05.17/outbox.cif.g08.bks.cpg/sg59_8_cif.got.tgz:14897.got - 2010.06.03 14:40:33.
