data_PCOD9449183
_publ_section_title
;
Structure prediction by ZEFSAII (Michael W. Deem and Ramdas Pophale) SiO2 
 PCOD9449183
Probable space group: P M M N
;
_chemical_formula_sum "Si O2"
_cell_formula_units_Z 48
_cell_length_a 14.971970
_cell_length_b 9.600504
_cell_length_c 18.512365
_cell_angle_alpha 90.000000
_cell_angle_beta 90.000000
_cell_angle_gamma 90.000000
_cell_volume 2660.938797
_symmetry_space_group_name_H-M "P M M N"
_symmetry_group_IT_number 59
_space_group.IT_coordinate_system_code '2'
_symmetry_cell_setting 'orthorhombic'
loop_
_space_group_symop_operation_xyz
x,y,z
1/2-x,1/2-y,z
1/2+x,-y,-z
-x,1/2+y,-z
-x,-y,-z
1/2+x,1/2+y,-z
1/2-x,y,z
x,1/2-y,z
loop_
_atom_site_type_symbol
_atom_site_label
_atom_site_fract_x
_atom_site_fract_y
_atom_site_fract_z
Si Si1 0.902400 0.587003 0.816950
Si Si2 0.250000 0.418049 0.907711
Si Si3 0.750000 0.084723 0.741085
Si Si4 0.445223 0.582994 0.710157
Si Si5 0.587008 0.911956 0.986966
Si Si6 0.250000 0.920240 0.756323
Si Si7 0.453283 0.084696 0.436706
Si Si8 0.250000 0.087835 0.402168
O O1 0.883614 0.750000 0.797710
O O2 0.835166 0.482657 0.779411
O O3 0.890210 0.574057 0.902443
O O4 0.000133 0.553897 0.784061
O O5 0.250000 0.250000 0.893607
O O6 0.250000 0.506245 0.834504
O O7 0.334902 0.451462 0.958051
O O8 0.750000 0.250000 0.743619
O O9 0.750000 0.023595 0.661157
O O10 0.441261 0.750000 0.704515
O O11 0.342224 0.536740 0.716237
O O12 0.504285 0.537913 0.640784
O O13 0.567558 0.750000 0.999595
O O14 0.500000 0.000000 0.000000
O O15 0.250000 0.750000 0.763699
O O16 0.471320 0.250000 0.443745
O O17 0.345695 0.068662 0.440426
O O18 0.500000 0.000000 0.500000
O O19 0.250000 0.250000 0.375444
#
# Coordination Sequence:
#
# PCOD9449183 Si02
#       8
#     8   4   4   8   8   4   8   4
#     4  10  19  36  58  78 108 156 197 228 280 358
#     4  10  21  37  52  79 119 153 184 229 295 352
#     4  12  23  33  54  89 116 138 180 247 299 322
#     4   9  18  34  58  84 109 143 194 239 275 329
#     4  10  21  36  57  81 110 150 195 239 288 345
#     4  10  20  36  60  85 106 144 200 243 274 327
#     4  10  21  38  61  89 119 155 190 233 283 338
#     4  10  20  40  64  83 115 159 192 219 274 353
#
# _framework density 18.038747999999998
#
# number of rings (size 3 to 8) (size 9 to 14) (size 15 to 20)
#    0.000    2.000    1.667    2.250    0.000    5.333 
#    0.000    3.333    0.000    0.000    0.000    0.000 
#    0.000    0.000    0.000    0.000    0.000    0.000 
#
# Total GULP energy -267582.896002 kJ/mol
# GULP energy per Si atom -5574.643667 kJ/mol
# Density = 1.799769 g / cm^3
# Si number density = 18.038748 Si / 1000 Ang^3
#
#
#
# Elastic Constant Matrix: (Units=GPa)
#
#
# Indices 1 2 3 4 5 6 
#
# 1 144.5980 44.1407 46.6644 0.0000 0.0000 0.0000
# 2 44.1407 54.2917 32.5399 0.0000 0.0000 0.0000
# 3 46.6644 32.5399 76.7568 0.0000 0.0000 0.0000
# 4 0.0000 0.0000 0.0000 32.8475 0.0000 0.0000
# 5 0.0000 0.0000 0.0000 0.0000 377.2093 0.0000
# 6 0.0000 0.0000 0.0000 0.0000 0.0000 25.3475
#
#
#
# Elastic Compliance Matrix: (Units=1/GPa)
#
#
# Indices 1 2 3 4 5 6 
#
# 1 0.009845 -0.005921 -0.003475 0.000000 0.000000 0.000000
# 2 -0.005921 0.028255 -0.008378 0.000000 0.000000 0.000000
# 3 -0.003475 -0.008378 0.018693 0.000000 0.000000 0.000000
# 4 0.000000 0.000000 0.000000 0.030444 0.000000 0.000000
# 5 0.000000 0.000000 0.000000 0.000000 0.002651 0.000000
# 6 0.000000 0.000000 0.000000 0.000000 0.000000 0.039452
#
#
# Mechanical properties :
#
#
# Convention : Reuss Voigt Hill
#
# Bulk Modulus (GPa) = 47.07416 58.03736 52.55576
# Shear Modulus (GPa) = 29.07511 97.23431 63.15471
#
# Velocity S-wave (km/s) = 4.01910 7.34983 5.92339
# Velocity P-wave (km/s) = 6.90582 10.21128 8.71667
#
# Compressibility (1/GPa) = 0.02124308
#
# Stress axis : x y z
#
# Youngs Moduli (GPa) = 101.57757 35.39222 53.49729
#
# Poissons Ratio (x) = 0.20957 0.18589
# Poissons Ratio (y) = 0.60148 0.44822
# Poissons Ratio (z) = 0.35296 0.29653
#
# Static dielectric constant tensor:
#      x y z
#    x 1.637110 0.000000 0.000000 
#    y 0.000000 1.581120 0.000000 
#    z 0.000000 0.000000 1.634710 
# 
# From -- ./inp_files/27502.got.cif
#   From: 2010.05.17/outbox.cif.g08.bks.cpg/sg59_14_cif.got.tgz:27502.got - 2010.06.03 14:40:33.
