data_PCOD9449141
_publ_section_title
;
Structure prediction by ZEFSAII (Michael W. Deem and Ramdas Pophale) SiO2 
 PCOD9449141
Probable space group: P M M N
;
_chemical_formula_sum "Si O2"
_cell_formula_units_Z 48
_cell_length_a 31.041624
_cell_length_b 8.732453
_cell_length_c 9.735305
_cell_angle_alpha 90.000000
_cell_angle_beta 90.000000
_cell_angle_gamma 90.000000
_cell_volume 2638.944479
_symmetry_space_group_name_H-M "P M M N"
_symmetry_group_IT_number 59
_space_group.IT_coordinate_system_code '2'
_symmetry_cell_setting 'orthorhombic'
loop_
_space_group_symop_operation_xyz
x,y,z
1/2-x,1/2-y,z
1/2+x,-y,-z
-x,1/2+y,-z
-x,-y,-z
1/2+x,1/2+y,-z
1/2-x,y,z
x,1/2-y,z
loop_
_atom_site_type_symbol
_atom_site_label
_atom_site_fract_x
_atom_site_fract_y
_atom_site_fract_z
Si Si1 0.075143 0.933454 0.661080
Si Si2 0.327789 0.434017 0.350013
Si Si3 0.921848 0.065059 0.654940
Si Si4 0.999137 0.566923 0.152274
Si Si5 0.675181 0.433508 0.348190
Si Si6 0.750000 0.563791 0.845416
Si Si7 0.750000 0.934171 0.161334
O O1 0.070138 0.750000 0.672992
O O2 0.066069 0.976666 0.502184
O O3 0.125375 0.970378 0.686522
O O4 0.042820 0.013275 0.764729
O O5 0.327756 0.250000 0.358304
O O6 0.375511 0.492593 0.314198
O O7 0.316387 0.501250 0.499551
O O8 0.292389 0.483576 0.238723
O O9 0.917459 0.250000 0.658002
O O10 0.958889 0.017685 0.760216
O O11 0.999725 0.750000 0.144997
O O12 0.000000 0.500000 0.000000
O O13 0.679451 0.250000 0.351629
O O14 0.708296 0.504108 0.241021
O O15 0.750000 0.750000 0.846671
O O16 0.750000 0.513492 0.003019
O O17 0.750000 0.750000 0.165090
#
# Coordination Sequence:
#
# PCOD9449141 Si02
#       7
#     8   8   8   8   8   4   4
#     4   9  19  37  59  81 108 140 180 229 277 327
#     4  10  19  35  60  85 108 141 183 227 273 326
#     4   9  20  38  57  81 111 142 179 228 278 325
#     4  11  23  37  55  80 113 149 184 224 275 330
#     4  10  21  38  58  83 113 144 180 227 279 328
#     4   9  21  37  52  78 114 143 176 225 274 316
#     4  11  22  37  56  80 112 149 188 229 270 322
#
# _framework density 18.18909
#
# number of rings (size 3 to 8) (size 9 to 14) (size 15 to 20)
#    0.000    2.167    0.000    3.750    0.000    6.667 
#    0.000    7.917    0.000    0.000    0.000    0.000 
#    0.000    0.000    0.000    0.000    0.000    0.000 
#
# Total GULP energy -268076.474539 kJ/mol
# GULP energy per Si atom -5584.926553 kJ/mol
# Density = 1.814769 g / cm^3
# Si number density = 18.189090 Si / 1000 Ang^3
#
#
#
# Elastic Constant Matrix: (Units=GPa)
#
#
# Indices 1 2 3 4 5 6 
#
# 1 145.0260 53.1233 140.4285 0.0000 0.0000 0.0000
# 2 53.1233 44.0335 56.0216 0.0000 0.0000 0.0000
# 3 140.4285 56.0216 181.2437 0.0000 0.0000 0.0000
# 4 0.0000 0.0000 0.0000 26.9099 0.0000 0.0000
# 5 0.0000 0.0000 0.0000 0.0000 -12.2643 0.0000
# 6 0.0000 0.0000 0.0000 0.0000 0.0000 34.9841
#
#
#
# Elastic Compliance Matrix: (Units=1/GPa)
#
#
# Indices 1 2 3 4 5 6 
#
# 1 0.030593 -0.011127 -0.020264 0.000000 0.000000 0.000000
# 2 -0.011127 0.041476 -0.004199 0.000000 0.000000 0.000000
# 3 -0.020264 -0.004199 0.022516 0.000000 0.000000 0.000000
# 4 0.000000 0.000000 0.000000 0.037161 0.000000 0.000000
# 5 0.000000 0.000000 0.000000 0.000000 -0.081537 0.000000
# 6 0.000000 0.000000 0.000000 0.000000 0.000000 0.028584
#
#
# Mechanical properties :
#
#
# Convention : Reuss Voigt Hill
#
# Bulk Modulus (GPa) = 42.72627 96.60557 69.66592
# Shear Modulus (GPa) = 31.69059 17.97458 24.83259
#
# Velocity S-wave (km/s) = 4.17860 3.14699 3.69893
# Velocity P-wave (km/s) = 6.84266 8.15057 7.52508
#
# Compressibility (1/GPa) = 0.02340481
#
# Stress axis : x y z
#
# Youngs Moduli (GPa) = 32.68687 24.11045 44.41240
#
# Poissons Ratio (x) = 0.26828 0.89999
# Poissons Ratio (y) = 0.36371 0.18647
# Poissons Ratio (z) = 0.66238 0.10123
#
# Static dielectric constant tensor:
#      x y z
#    x 1.608740 0.000000 0.000000 
#    y 0.000000 1.613730 0.000000 
#    z 0.000000 0.000000 1.597940 
# 
# From -- ./inp_files/13034.got.cif
#   From: 2010.05.17/outbox.cif.g08.bks.cpg/sg59_7_cif.got.tgz:13034.got - 2010.06.03 14:40:33.
