data_PCOD9449748
_publ_section_title
;
Structure prediction by ZEFSAII (Michael W. Deem and Ramdas Pophale) SiO2 
 PCOD9449748
Probable space group: P M M N
;
_chemical_formula_sum "Si O2"
_cell_formula_units_Z 64
_cell_length_a 20.461396
_cell_length_b 8.677784
_cell_length_c 20.746872
_cell_angle_alpha 90.000000
_cell_angle_beta 90.000000
_cell_angle_gamma 90.000000
_cell_volume 3683.805771
_symmetry_space_group_name_H-M "P M M N"
_symmetry_group_IT_number 59
_space_group.IT_coordinate_system_code '2'
_symmetry_cell_setting 'orthorhombic'
loop_
_space_group_symop_operation_xyz
x,y,z
1/2-x,1/2-y,z
1/2+x,-y,-z
-x,1/2+y,-z
-x,-y,-z
1/2+x,1/2+y,-z
1/2-x,y,z
x,1/2-y,z
loop_
_atom_site_type_symbol
_atom_site_label
_atom_site_fract_x
_atom_site_fract_y
_atom_site_fract_z
Si Si1 0.825729 0.934531 0.677618
Si Si2 0.422897 0.565501 0.429150
Si Si3 0.071684 0.565697 0.926506
Si Si4 0.571325 0.436113 0.925717
Si Si5 0.325594 0.064213 0.825834
Si Si6 0.926044 0.563679 0.429761
Si Si7 0.825306 0.063818 0.818294
Si Si8 0.175363 0.437740 0.678829
O O1 0.750000 0.980746 0.665240
O O2 0.828652 0.750000 0.677889
O O3 0.873894 0.999014 0.623625
O O4 0.843307 0.997110 0.748513
O O5 0.419118 0.750000 0.428815
O O6 0.407786 0.503467 0.500625
O O7 0.498585 0.520841 0.415602
O O8 0.069331 0.750000 0.924887
O O9 0.125533 0.506083 0.877205
O O10 0.000269 0.500048 0.909792
O O11 0.086526 0.517408 0.000499
O O12 0.568722 0.250000 0.924110
O O13 0.625596 0.486871 0.874447
O O14 0.250000 0.022412 0.838700
O O15 0.330113 0.250000 0.828319
O O16 0.340833 0.015956 0.752144
O O17 0.923228 0.750000 0.433494
O O18 0.876733 0.510858 0.374056
O O19 0.750000 0.019474 0.831951
O O20 0.827705 0.250000 0.814683
O O21 0.250000 0.485757 0.664402
O O22 0.175130 0.250000 0.678378
#
# Coordination Sequence:
#
# PCOD9449748 Si02
#       8
#     8   8   8   8   8   8   8   8
#     4  10  21  36  53  74 101 132 166 207 254 303
#     4  10  20  33  50  74 104 135 167 205 248 297
#     4  10  20  33  51  76 104 134 170 212 253 295
#     4   9  19  35  53  73 101 136 170 206 251 303
#     4   9  18  33  52  74 101 133 168 207 254 307
#     4   9  18  33  52  74 100 131 168 208 249 293
#     4   9  18  34  55  76  98 128 168 211 254 303
#     4   8  15  30  52  74  95 124 165 207 243 288
#
# _framework density 17.373336999999999
#
# number of rings (size 3 to 8) (size 9 to 14) (size 15 to 20)
#    0.000    2.750    0.000    1.875    0.000    4.500 
#    0.000    5.625    0.000    2.250    0.000    0.000 
#    0.000    0.000    0.000    0.000    0.000    0.000 
#
# Total GULP energy -356911.603705 kJ/mol
# GULP energy per Si atom -5576.743808 kJ/mol
# Density = 1.733379 g / cm^3
# Si number density = 17.373337 Si / 1000 Ang^3
#
#
#
# Elastic Constant Matrix: (Units=GPa)
#
#
# Indices 1 2 3 4 5 6 
#
# 1 133.8282 32.5453 136.2807 0.0000 0.0000 0.0000
# 2 32.5453 14.3281 34.7885 0.0000 0.0000 0.0000
# 3 136.2807 34.7885 165.6560 0.0000 0.0000 0.0000
# 4 0.0000 0.0000 0.0000 30.0613 0.0000 0.0000
# 5 0.0000 0.0000 0.0000 0.0000 44.2081 0.0000
# 6 0.0000 0.0000 0.0000 0.0000 0.0000 22.4418
#
#
#
# Elastic Compliance Matrix: (Units=1/GPa)
#
#
# Indices 1 2 3 4 5 6 
#
# 1 0.051232 -0.028640 -0.036132 0.000000 0.000000 0.000000
# 2 -0.028640 0.158413 -0.009706 0.000000 0.000000 0.000000
# 3 -0.036132 -0.009706 0.037800 0.000000 0.000000 0.000000
# 4 0.000000 0.000000 0.000000 0.033265 0.000000 0.000000
# 5 0.000000 0.000000 0.000000 0.000000 0.022620 0.000000
# 6 0.000000 0.000000 0.000000 0.000000 0.000000 0.044560
#
#
# Mechanical properties :
#
#
# Convention : Reuss Voigt Hill
#
# Bulk Modulus (GPa) = 10.15355 80.11570 45.13463
# Shear Modulus (GPa) = 9.43973 26.68875 18.06424
#
# Velocity S-wave (km/s) = 2.33351 3.92368 3.22804
# Velocity P-wave (km/s) = 3.62179 8.16953 6.31897
#
# Compressibility (1/GPa) = 0.09848776
#
# Stress axis : x y z
#
# Youngs Moduli (GPa) = 19.51918 6.31261 26.45503
#
# Poissons Ratio (x) = 0.18079 0.95588
# Poissons Ratio (y) = 0.55903 0.25677
# Poissons Ratio (z) = 0.70527 0.06127
#
# Static dielectric constant tensor:
#      x y z
#    x 1.575560 0.000000 0.000000 
#    y 0.000000 1.590590 0.000000 
#    z 0.000000 0.000000 1.568440 
# 
# From -- ./inp_files/28225.got.cif
#   From: 2010.05.17/outbox.cif.g08.bks.cpg/sg59_15_cif.got.tgz:28225.got - 2010.06.03 14:40:33.
