data_PCOD9449601
_publ_section_title
;
Structure prediction by ZEFSAII (Michael W. Deem and Ramdas Pophale) SiO2 
 PCOD9449601
Probable space group: P M M N
;
_chemical_formula_sum "Si O2"
_cell_formula_units_Z 48
_cell_length_a 9.644366
_cell_length_b 12.917427
_cell_length_c 17.937228
_cell_angle_alpha 90.000000
_cell_angle_beta 90.000000
_cell_angle_gamma 90.000000
_cell_volume 2234.626927
_symmetry_space_group_name_H-M "P M M N"
_symmetry_group_IT_number 59
_space_group.IT_coordinate_system_code '2'
_symmetry_cell_setting 'orthorhombic'
loop_
_space_group_symop_operation_xyz
x,y,z
1/2-x,1/2-y,z
1/2+x,-y,-z
-x,1/2+y,-z
-x,-y,-z
1/2+x,1/2+y,-z
1/2-x,y,z
x,1/2-y,z
loop_
_atom_site_type_symbol
_atom_site_label
_atom_site_fract_x
_atom_site_fract_y
_atom_site_fract_z
Si Si1 0.596448 0.096586 0.589399
Si Si2 0.911561 0.868265 0.940196
Si Si3 0.094486 0.868007 0.717339
Si Si4 0.413039 0.436313 0.891545
Si Si5 0.535954 0.862551 0.565542
Si Si6 0.583188 0.435480 0.753284
O O1 0.750000 0.138524 0.580693
O O2 0.505900 0.133817 0.520692
O O3 0.548055 0.116717 0.673642
O O4 0.607072 0.971772 0.581143
O O5 0.750000 0.895656 0.922169
O O6 0.936178 0.750000 0.917167
O O7 0.925033 0.876893 0.029963
O O8 0.018754 0.950840 0.907272
O O9 0.250000 0.898352 0.740030
O O10 0.068346 0.750000 0.741527
O O11 0.086643 0.867576 0.626888
O O12 0.979441 0.948258 0.744898
O O13 0.250000 0.441896 0.873529
O O14 0.503412 0.389974 0.824217
O O15 0.601654 0.750000 0.580057
O O16 0.750000 0.435585 0.761135
#
# Coordination Sequence:
#
# PCOD9449601 Si02
#       6
#     8   8   8   8   8   8
#     4   9  18  31  47  69  97 130 169 211 255 304
#     4   9  19  37  60  84 108 134 165 202 247 299
#     4   9  17  29  47  71  96 126 169 219 268 313
#     4  10  20  35  57  82 107 136 169 206 247 294
#     4   9  17  30  49  71  95 126 167 216 265 308
#     4  10  20  33  48  69 102 140 172 205 250 301
#
# _framework density 21.480094000000001
#
# number of rings (size 3 to 8) (size 9 to 14) (size 15 to 20)
#    0.000    2.667    0.000    1.500    0.000    3.333 
#    0.000    5.000    0.000    1.000    0.000    0.000 
#    0.000    0.000    0.000    0.000    0.000    0.000 
#
# Total GULP energy -267533.339884 kJ/mol
# GULP energy per Si atom -5573.611248 kJ/mol
# Density = 2.143120 g / cm^3
# Si number density = 21.480094 Si / 1000 Ang^3
#
#
#
# Elastic Constant Matrix: (Units=GPa)
#
#
# Indices 1 2 3 4 5 6 
#
# 1 90.5035 9.7183 35.6340 0.0000 0.0000 0.0000
# 2 9.7183 83.5088 -10.8174 0.0000 0.0000 0.0000
# 3 35.6340 -10.8174 127.0451 0.0000 0.0000 0.0000
# 4 0.0000 0.0000 0.0000 7.5288 0.0000 0.0000
# 5 0.0000 0.0000 0.0000 0.0000 1.7809 0.0000
# 6 0.0000 0.0000 0.0000 0.0000 0.0000 -22.8933
#
#
#
# Elastic Compliance Matrix: (Units=1/GPa)
#
#
# Indices 1 2 3 4 5 6 
#
# 1 0.012732 -0.001966 -0.003739 0.000000 0.000000 0.000000
# 2 -0.001966 0.012412 0.001608 0.000000 0.000000 0.000000
# 3 -0.003739 0.001608 0.009057 0.000000 0.000000 0.000000
# 4 0.000000 0.000000 0.000000 0.132823 0.000000 0.000000
# 5 0.000000 0.000000 0.000000 0.000000 0.561511 0.000000
# 6 0.000000 0.000000 0.000000 0.000000 0.000000 -0.043681
#
#
# Mechanical properties :
#
#
# Convention : Reuss Voigt Hill
#
# Bulk Modulus (GPa) = 38.44920 41.12524 39.78722
# Shear Modulus (GPa) = 7.12538 15.05147 11.08842
#
# Velocity S-wave (km/s) = 1.82329 2.64998 2.27451
# Velocity P-wave (km/s) = 4.72983 5.34327 5.04588
#
# Compressibility (1/GPa) = 0.02600835
#
# Stress axis : x y z
#
# Youngs Moduli (GPa) = 78.53970 80.56781 110.41457
#
# Poissons Ratio (x) = 0.15840 0.41280
# Poissons Ratio (y) = 0.15441 -0.17758
# Poissons Ratio (z) = 0.29363 -0.12957
#
# Static dielectric constant tensor:
#      x y z
#    x 1.753800 0.000000 0.000000 
#    y 0.000000 1.783200 0.000000 
#    z 0.000000 0.000000 1.824440 
# 
# From -- ./inp_files/28828.got.cif
#   From: 2010.05.17/outbox.cif.g08.bks.cpg/sg59_15_cif.got.tgz:28828.got - 2010.06.03 14:40:33.
