data_PCOD9449576
_publ_section_title
;
Structure prediction by ZEFSAII (Michael W. Deem and Ramdas Pophale) SiO2 
 PCOD9449576
Probable space group: P M M N
;
_chemical_formula_sum "Si O2"
_cell_formula_units_Z 64
_cell_length_a 14.277489
_cell_length_b 8.950615
_cell_length_c 32.475601
_cell_angle_alpha 90.000000
_cell_angle_beta 90.000000
_cell_angle_gamma 90.000000
_cell_volume 4150.131980
_symmetry_space_group_name_H-M "P M M N"
_symmetry_group_IT_number 59
_space_group.IT_coordinate_system_code '2'
_symmetry_cell_setting 'orthorhombic'
loop_
_space_group_symop_operation_xyz
x,y,z
1/2-x,1/2-y,z
1/2+x,-y,-z
-x,1/2+y,-z
-x,-y,-z
1/2+x,1/2+y,-z
1/2-x,y,z
x,1/2-y,z
loop_
_atom_site_type_symbol
_atom_site_label
_atom_site_fract_x
_atom_site_fract_y
_atom_site_fract_z
Si Si1 0.137010 0.076449 0.470298
Si Si2 0.363712 0.577973 0.230254
Si Si3 0.639707 0.571548 0.684211
Si Si4 0.538765 0.071538 0.606570
Si Si5 0.357874 0.069923 0.979551
Si Si6 0.031962 0.070026 0.062640
Si Si7 0.643913 0.931850 0.437441
Si Si8 0.640294 0.929990 0.855362
O O1 0.250000 0.075543 0.468311
O O2 0.106923 0.250000 0.465488
O O3 0.113047 0.022088 0.516444
O O4 0.096162 0.978763 0.433747
O O5 0.250000 0.574080 0.230037
O O6 0.393419 0.750000 0.231563
O O7 0.392153 0.493287 0.271797
O O8 0.392306 0.500571 0.187643
O O9 0.750000 0.532156 0.678605
O O10 0.633073 0.750000 0.684552
O O11 0.581631 0.504578 0.646638
O O12 0.542942 0.250000 0.611053
O O13 0.432162 0.025054 0.596252
O O14 0.250000 0.021876 0.974845
O O15 0.360453 0.250000 0.976349
O O16 0.431438 0.000482 0.947553
O O17 0.398466 0.030300 0.024826
O O18 0.023588 0.250000 0.062830
O O19 0.078203 0.023275 0.105678
O O20 0.750000 0.983000 0.429807
O O21 0.645937 0.750000 0.438939
O O22 0.750000 0.969913 0.862180
O O23 0.636613 0.750000 0.852142
#
# Coordination Sequence:
#
# PCOD9449576 Si02
#       8
#     8   8   8   8   8   8   8   8
#     4   9  17  30  46  62  85 118 148 172 205 253
#     4   9  17  29  45  66  91 115 141 177 216 253
#     4  10  20  33  47  63  88 121 148 169 204 260
#     4  11  20  28  44  68  89 111 142 181 218 249
#     4   9  17  29  43  60  87 122 156 191 230 266
#     4   9  17  28  43  64  88 117 155 192 223 261
#     4   8  16  31  47  62  83 113 147 179 212 252
#     4   9  16  27  44  65  90 120 150 178 214 263
#
# _framework density 15.421196999999999
#
# number of rings (size 3 to 8) (size 9 to 14) (size 15 to 20)
#    0.000    2.750    0.000    3.000    0.000    6.250 
#    0.000    0.625    0.000    5.250    0.000    0.875 
#    0.000    5.000    0.000    0.000    0.000    0.000 
#
# Total GULP energy -356692.987559 kJ/mol
# GULP energy per Si atom -5573.327931 kJ/mol
# Density = 1.538610 g / cm^3
# Si number density = 15.421197 Si / 1000 Ang^3
#
#
#
# Elastic Constant Matrix: (Units=GPa)
#
#
# Indices 1 2 3 4 5 6 
#
# 1 90.0228 30.9988 73.7355 0.0000 0.0000 0.0000
# 2 30.9988 31.3488 45.5514 0.0000 0.0000 0.0000
# 3 73.7355 45.5514 148.6516 0.0000 0.0000 0.0000
# 4 0.0000 0.0000 0.0000 25.3633 0.0000 0.0000
# 5 0.0000 0.0000 0.0000 0.0000 25.9196 0.0000
# 6 0.0000 0.0000 0.0000 0.0000 0.0000 17.9480
#
#
#
# Elastic Compliance Matrix: (Units=1/GPa)
#
#
# Indices 1 2 3 4 5 6 
#
# 1 0.020248 -0.009785 -0.007045 0.000000 0.000000 0.000000
# 2 -0.009785 0.062231 -0.014216 0.000000 0.000000 0.000000
# 3 -0.007045 -0.014216 0.014578 0.000000 0.000000 0.000000
# 4 0.000000 0.000000 0.000000 0.039427 0.000000 0.000000
# 5 0.000000 0.000000 0.000000 0.000000 0.038581 0.000000
# 6 0.000000 0.000000 0.000000 0.000000 0.000000 0.055716
#
#
# Mechanical properties :
#
#
# Convention : Reuss Voigt Hill
#
# Bulk Modulus (GPa) = 28.59997 63.39939 45.99968
# Shear Modulus (GPa) = 16.41876 21.82870 19.12373
#
# Velocity S-wave (km/s) = 3.26650 3.76639 3.52532
# Velocity P-wave (km/s) = 5.72825 7.75341 6.81646
#
# Compressibility (1/GPa) = 0.03496507
#
# Stress axis : x y z
#
# Youngs Moduli (GPa) = 49.38659 16.06909 68.59651
#
# Poissons Ratio (x) = 0.15724 0.48329
# Poissons Ratio (y) = 0.48325 0.97516
# Poissons Ratio (z) = 0.34795 0.22844
#
# Static dielectric constant tensor:
#      x y z
#    x 1.511190 0.000000 0.000000 
#    y 0.000000 1.518990 0.000000 
#    z 0.000000 0.000000 1.499600 
# 
# From -- ./inp_files/33219.got.cif
#   From: 2010.05.17/outbox.cif.g08.bks.cpg/sg59_17_cif.got.tgz:33219.got - 2010.06.03 14:40:33.
