data_PCOD9449289
_publ_section_title
;
Structure prediction by ZEFSAII (Michael W. Deem and Ramdas Pophale) SiO2 
 PCOD9449289
Probable space group: P M M N
;
_chemical_formula_sum "Si O2"
_cell_formula_units_Z 64
_cell_length_a 19.289141
_cell_length_b 7.355301
_cell_length_c 21.523975
_cell_angle_alpha 90.000000
_cell_angle_beta 90.000000
_cell_angle_gamma 90.000000
_cell_volume 3053.766430
_symmetry_space_group_name_H-M "P M M N"
_symmetry_group_IT_number 59
_space_group.IT_coordinate_system_code '2'
_symmetry_cell_setting 'orthorhombic'
loop_
_space_group_symop_operation_xyz
x,y,z
1/2-x,1/2-y,z
1/2+x,-y,-z
-x,1/2+y,-z
-x,-y,-z
1/2+x,1/2+y,-z
1/2-x,y,z
x,1/2-y,z
loop_
_atom_site_type_symbol
_atom_site_label
_atom_site_fract_x
_atom_site_fract_y
_atom_site_fract_z
Si Si1 0.670647 0.528142 0.442908
Si Si2 0.830567 0.472518 0.810440
Si Si3 0.332762 0.969311 0.919869
Si Si4 0.329275 0.030473 0.415978
Si Si5 0.830515 0.029893 0.215678
Si Si6 0.425716 0.959747 0.300947
Si Si7 0.832867 0.468662 0.946721
Si Si8 0.574876 0.539351 0.332909
O O1 0.750000 0.472215 0.429263
O O2 0.671094 0.750000 0.441616
O O3 0.653378 0.474309 0.513528
O O4 0.617064 0.462020 0.391314
O O5 0.750000 0.527613 0.801985
O O6 0.829450 0.250000 0.810111
O O7 0.879540 0.537027 0.754999
O O8 0.856668 0.531318 0.878889
O O9 0.250000 0.005896 0.919486
O O10 0.340010 0.750000 0.920401
O O11 0.357806 0.031669 0.852262
O O12 0.360509 0.036273 0.986569
O O13 0.250000 0.973861 0.402998
O O14 0.330707 0.250000 0.414667
O O15 0.380632 0.963872 0.363418
O O16 0.750000 0.974044 0.222569
O O17 0.831121 0.250000 0.215762
O O18 0.876094 0.966886 0.272896
O O19 0.438331 0.750000 0.282748
O O20 0.500640 0.042542 0.315362
O O21 0.750000 0.503067 0.946876
O O22 0.841328 0.250000 0.947249
O O23 0.561567 0.750000 0.349576
#
# Coordination Sequence:
#
# PCOD9449289 Si02
#       8
#     8   8   8   8   8   8   8   8
#     4   8  15  30  50  67  84 111 149 188 220 258
#     4   8  13  22  38  60  86 115 145 180 222 262
#     4   7  10  18  34  58  85 107 133 178 228 264
#     4   9  18  33  52  70  86 110 147 186 224 269
#     4   9  17  29  46  68  91 113 142 187 236 269
#     4  10  20  31  44  67  97 123 148 183 224 261
#     4   7   9  15  31  56  82 107 138 176 218 262
#     4  10  20  32  46  65  91 125 158 181 210 262
#
# _framework density 20.957726999999998
#
# number of rings (size 3 to 8) (size 9 to 14) (size 15 to 20)
#    0.000    3.500    0.000    3.750    0.000    2.500 
#    0.000    0.625    0.000    1.500    0.000    0.875 
#    0.000    3.000    0.000    0.000    0.000    0.000 
#
# Total GULP energy -356647.977417 kJ/mol
# GULP energy per Si atom -5572.624647 kJ/mol
# Density = 2.091003 g / cm^3
# Si number density = 20.957727 Si / 1000 Ang^3
#
#
#
# Elastic Constant Matrix: (Units=GPa)
#
#
# Indices 1 2 3 4 5 6 
#
# 1 70.2646 -6.0784 66.6340 0.0000 0.0000 0.0000
# 2 -6.0784 71.6208 -13.9232 0.0000 0.0000 0.0000
# 3 66.6340 -13.9232 145.6132 0.0000 0.0000 0.0000
# 4 0.0000 0.0000 0.0000 7.8987 0.0000 0.0000
# 5 0.0000 0.0000 0.0000 0.0000 -8.5051 0.0000
# 6 0.0000 0.0000 0.0000 0.0000 0.0000 5.5540
#
#
#
# Elastic Compliance Matrix: (Units=1/GPa)
#
#
# Indices 1 2 3 4 5 6 
#
# 1 0.025144 -0.000105 -0.011516 0.000000 0.000000 0.000000
# 2 -0.000105 0.014227 0.001408 0.000000 0.000000 0.000000
# 3 -0.011516 0.001408 0.012272 0.000000 0.000000 0.000000
# 4 0.000000 0.000000 0.000000 0.126602 0.000000 0.000000
# 5 0.000000 0.000000 0.000000 0.000000 -0.117576 0.000000
# 6 0.000000 0.000000 0.000000 0.000000 0.000000 0.180051
#
#
# Mechanical properties :
#
#
# Convention : Reuss Voigt Hill
#
# Bulk Modulus (GPa) = 32.03268 42.30704 37.16986
# Shear Modulus (GPa) = 18.41265 17.04726 17.72996
#
# Velocity S-wave (km/s) = 2.96727 2.85513 2.91174
# Velocity P-wave (km/s) = 5.20165 5.57671 5.39244
#
# Compressibility (1/GPa) = 0.03121812
#
# Stress axis : x y z
#
# Youngs Moduli (GPa) = 39.77110 70.28730 81.48602
#
# Poissons Ratio (x) = 0.00737 0.93840
# Poissons Ratio (y) = 0.00417 -0.11476
# Poissons Ratio (z) = 0.45801 -0.09899
#
# Static dielectric constant tensor:
#      x y z
#    x 1.707700 0.000000 0.000000 
#    y 0.000000 1.807570 0.000000 
#    z 0.000000 0.000000 1.776760 
# 
# From -- ./inp_files/30902.got.cif
#   From: 2010.05.17/outbox.cif.g08.bks.cpg/sg59_16_cif.got.tgz:30902.got - 2010.06.03 14:40:33.
