data_PCOD9449912
_publ_section_title
;
Structure prediction by ZEFSAII (Michael W. Deem and Ramdas Pophale) SiO2 
 PCOD9449912
Probable space group: P M M N
;
_chemical_formula_sum "Si O2"
_cell_formula_units_Z 56
_cell_length_a 8.765546
_cell_length_b 23.892947
_cell_length_c 15.757249
_cell_angle_alpha 90.000000
_cell_angle_beta 90.000000
_cell_angle_gamma 90.000000
_cell_volume 3300.115127
_symmetry_space_group_name_H-M "P M M N"
_symmetry_group_IT_number 59
_space_group.IT_coordinate_system_code '2'
_symmetry_cell_setting 'orthorhombic'
loop_
_space_group_symop_operation_xyz
x,y,z
1/2-x,1/2-y,z
1/2+x,-y,-z
-x,1/2+y,-z
-x,-y,-z
1/2+x,1/2+y,-z
1/2-x,y,z
x,1/2-y,z
loop_
_atom_site_type_symbol
_atom_site_label
_atom_site_fract_x
_atom_site_fract_y
_atom_site_fract_z
Si Si1 0.433454 0.889431 0.339758
Si Si2 0.432474 0.184510 0.169543
Si Si3 0.565918 0.124292 0.331922
Si Si4 0.066850 0.997279 0.595395
Si Si5 0.424847 0.682197 0.009641
Si Si6 0.932352 0.815679 0.189182
Si Si7 0.564430 0.186919 0.501718
O O1 0.250000 0.893190 0.338934
O O2 0.504158 0.950612 0.351121
O O3 0.490408 0.855198 0.258524
O O4 0.482080 0.854173 0.423014
O O5 0.250000 0.182820 0.166316
O O6 0.478307 0.250000 0.183125
O O7 0.493721 0.146822 0.245818
O O8 0.498839 0.165311 0.078889
O O9 0.750000 0.127241 0.324572
O O10 0.517559 0.163736 0.410374
O O11 0.525585 0.061267 0.359575
O O12 0.250000 0.999626 0.589248
O O13 0.000000 0.000000 0.500000
O O14 0.250000 0.663040 0.014473
O O15 0.424586 0.750000 0.008279
O O16 0.515108 0.667020 0.094790
O O17 0.750000 0.818972 0.195804
O O18 0.976698 0.750000 0.202184
O O19 0.750000 0.187428 0.502111
O O20 0.510755 0.250000 0.516185
#
# Coordination Sequence:
#
# PCOD9449912 Si02
#       7
#     8   8   8   8   8   8   8
#     4  11  21  35  54  78 107 143 184 224 268 321
#     4  10  20  33  51  80 114 143 173 216 270 321
#     4  10  20  35  54  75 102 140 183 222 263 316
#     4  11  22  38  57  77 102 138 186 233 274 318
#     4   9  17  31  53  79 107 143 182 217 258 317
#     4  10  20  34  53  81 115 146 177 220 272 320
#     4   9  17  30  49  74 104 137 173 214 260 311
#
# _framework density 16.969104999999999
#
# number of rings (size 3 to 8) (size 9 to 14) (size 15 to 20)
#    0.000    2.000    1.429    3.000    0.000    5.714 
#    0.000    0.000    0.000    3.429    0.000    0.000 
#    0.000    0.000    0.000    0.000    0.000    0.000 
#
# Total GULP energy -312544.923285 kJ/mol
# GULP energy per Si atom -5581.159344 kJ/mol
# Density = 1.693048 g / cm^3
# Si number density = 16.969105 Si / 1000 Ang^3
#
#
#
# Elastic Constant Matrix: (Units=GPa)
#
#
# Indices 1 2 3 4 5 6 
#
# 1 46.2873 24.1943 27.1095 0.0000 0.0000 0.0000
# 2 24.1943 69.1337 23.9658 0.0000 0.0000 0.0000
# 3 27.1095 23.9658 107.5317 0.0000 0.0000 0.0000
# 4 0.0000 0.0000 0.0000 5.0745 0.0000 0.0000
# 5 0.0000 0.0000 0.0000 0.0000 27.7908 0.0000
# 6 0.0000 0.0000 0.0000 0.0000 0.0000 23.9053
#
#
#
# Elastic Compliance Matrix: (Units=1/GPa)
#
#
# Indices 1 2 3 4 5 6 
#
# 1 0.029165 -0.008299 -0.005503 0.000000 0.000000 0.000000
# 2 -0.008299 0.018037 -0.001928 0.000000 0.000000 0.000000
# 3 -0.005503 -0.001928 0.011117 0.000000 0.000000 0.000000
# 4 0.000000 0.000000 0.000000 0.197065 0.000000 0.000000
# 5 0.000000 0.000000 0.000000 0.000000 0.035983 0.000000
# 6 0.000000 0.000000 0.000000 0.000000 0.000000 0.041832
#
#
# Mechanical properties :
#
#
# Convention : Reuss Voigt Hill
#
# Bulk Modulus (GPa) = 37.23115 41.49913 39.36514
# Shear Modulus (GPa) = 13.38286 21.19966 17.29126
#
# Velocity S-wave (km/s) = 2.81136 3.53839 3.19562
# Velocity P-wave (km/s) = 5.70320 6.41891 6.07161
#
# Compressibility (1/GPa) = 0.02685923
#
# Stress axis : x y z
#
# Youngs Moduli (GPa) = 34.28751 55.44047 89.95552
#
# Poissons Ratio (x) = 0.46010 0.49504
# Poissons Ratio (y) = 0.28455 0.17341
# Poissons Ratio (z) = 0.18869 0.10688
#
# Static dielectric constant tensor:
#      x y z
#    x 1.573560 0.000000 0.000000 
#    y 0.000000 1.559900 0.000000 
#    z 0.000000 0.000000 1.550740 
# 
# From -- ./inp_files/20899.got.cif
#   From: 2010.05.17/outbox.cif.g08.bks.cpg/sg59_11_cif.got.tgz:20899.got - 2010.06.03 14:40:33.
