data_PCOD9449450
_publ_section_title
;
Structure prediction by ZEFSAII (Michael W. Deem and Ramdas Pophale) SiO2 
 PCOD9449450
Probable space group: P M M N
;
_chemical_formula_sum "Si O2"
_cell_formula_units_Z 64
_cell_length_a 14.410424
_cell_length_b 9.245159
_cell_length_c 23.320502
_cell_angle_alpha 90.000000
_cell_angle_beta 90.000000
_cell_angle_gamma 90.000000
_cell_volume 3106.912618
_symmetry_space_group_name_H-M "P M M N"
_symmetry_group_IT_number 59
_space_group.IT_coordinate_system_code '2'
_symmetry_cell_setting 'orthorhombic'
loop_
_space_group_symop_operation_xyz
x,y,z
1/2-x,1/2-y,z
1/2+x,-y,-z
-x,1/2+y,-z
-x,-y,-z
1/2+x,1/2+y,-z
1/2-x,y,z
x,1/2-y,z
loop_
_atom_site_type_symbol
_atom_site_label
_atom_site_fract_x
_atom_site_fract_y
_atom_site_fract_z
Si Si1 0.348458 0.422082 0.739330
Si Si2 0.463590 0.080479 0.414725
Si Si3 0.137095 0.084428 0.968579
Si Si4 0.394534 0.586832 0.852130
Si Si5 0.143233 0.589882 0.077407
Si Si6 0.945425 0.076766 0.698832
Si Si7 0.393600 0.414024 0.189350
Si Si8 0.140582 0.420090 0.535748
O O1 0.250000 0.454993 0.708950
O O2 0.351944 0.250000 0.748988
O O3 0.347421 0.500784 0.800421
O O4 0.444503 0.458478 0.708109
O O5 0.632108 0.750000 0.447166
O O6 0.421336 0.991055 0.362155
O O7 0.565214 0.014356 0.429609
O O8 0.397221 0.068499 0.470389
O O9 0.250000 0.088620 0.969549
O O10 0.105140 0.250000 0.967685
O O11 0.110532 0.999074 0.911327
O O12 0.101935 0.004753 0.026004
O O13 0.358963 0.750000 0.859535
O O14 0.499567 0.596092 0.830177
O O15 0.250000 0.608136 0.060147
O O16 0.101401 0.750000 0.083926
O O17 0.146211 0.506325 0.137236
O O18 0.933987 0.250000 0.700694
O O19 0.891535 0.999777 0.750897
O O20 0.357816 0.250000 0.193897
O O21 0.250000 0.459196 0.540363
O O22 0.027655 0.250000 0.400322
#
# Coordination Sequence:
#
# PCOD9449450 Si02
#       8
#     8   8   8   8   8   8   8   8
#     4   9  18  32  49  70  98 135 178 219 261 315
#     4  10  20  35  57  86 118 150 188 235 280 323
#     4  10  20  33  50  72  98 130 167 206 254 315
#     4  10  20  32  48  72 100 130 165 208 260 315
#     4  10  21  37  56  76  97 123 161 212 267 321
#     4  10  20  35  55  78 108 147 185 222 265 313
#     4  10  21  37  55  75 101 134 172 214 261 314
#     4   9  19  37  60  85 116 155 193 227 271 328
#
# _framework density 20.599226999999999
#
# number of rings (size 3 to 8) (size 9 to 14) (size 15 to 20)
#    0.000    2.250    0.000    2.625    0.000    7.000 
#    0.000    1.875    0.000    2.250    0.000    0.000 
#    0.000    0.000    0.000    0.000    0.000    0.000 
#
# Total GULP energy -357161.280598 kJ/mol
# GULP energy per Si atom -5580.645009 kJ/mol
# Density = 2.055234 g / cm^3
# Si number density = 20.599227 Si / 1000 Ang^3
#
#
#
# Elastic Constant Matrix: (Units=GPa)
#
#
# Indices 1 2 3 4 5 6 
#
# 1 54.9084 0.9974 -12.5974 0.0000 0.0000 0.0000
# 2 0.9974 96.9671 51.4273 0.0000 0.0000 0.0000
# 3 -12.5974 51.4273 90.9125 0.0000 0.0000 0.0000
# 4 0.0000 0.0000 0.0000 36.2724 0.0000 0.0000
# 5 0.0000 0.0000 0.0000 0.0000 5.7814 0.0000
# 6 0.0000 0.0000 0.0000 0.0000 0.0000 16.1390
#
#
#
# Elastic Compliance Matrix: (Units=1/GPa)
#
#
# Indices 1 2 3 4 5 6 
#
# 1 0.019161 -0.002293 0.003952 0.000000 0.000000 0.000000
# 2 -0.002293 0.015007 -0.008807 0.000000 0.000000 0.000000
# 3 0.003952 -0.008807 0.016529 0.000000 0.000000 0.000000
# 4 0.000000 0.000000 0.000000 0.027569 0.000000 0.000000
# 5 0.000000 0.000000 0.000000 0.000000 0.172968 0.000000
# 6 0.000000 0.000000 0.000000 0.000000 0.000000 0.061962
#
#
# Mechanical properties :
#
#
# Convention : Reuss Voigt Hill
#
# Bulk Modulus (GPa) = 27.47179 35.82693 31.64936
# Shear Modulus (GPa) = 14.72210 25.16929 19.94570
#
# Velocity S-wave (km/s) = 2.67627 3.49930 3.11509
# Velocity P-wave (km/s) = 4.78698 5.81007 5.32316
#
# Compressibility (1/GPa) = 0.03640098
#
# Stress axis : x y z
#
# Youngs Moduli (GPa) = 52.19060 66.63446 60.49908
#
# Poissons Ratio (x) = 0.15280 -0.23910
# Poissons Ratio (y) = 0.11968 0.53282
# Poissons Ratio (z) = -0.20627 0.58685
#
# Static dielectric constant tensor:
#      x y z
#    x 1.830380 0.000000 0.000000 
#    y 0.000000 1.725270 0.000000 
#    z 0.000000 0.000000 1.696960 
# 
# From -- ./inp_files/32299.got.cif
#   From: 2010.05.17/outbox.cif.g08.bks.cpg/sg59_17_cif.got.tgz:32299.got - 2010.06.03 14:40:33.
