data_PCOD9449767
_publ_section_title
;
Structure prediction by ZEFSAII (Michael W. Deem and Ramdas Pophale) SiO2 
 PCOD9449767
Probable space group: P M M N
;
_chemical_formula_sum "Si O2"
_cell_formula_units_Z 64
_cell_length_a 8.942455
_cell_length_b 14.203363
_cell_length_c 26.870102
_cell_angle_alpha 90.000000
_cell_angle_beta 90.000000
_cell_angle_gamma 90.000000
_cell_volume 3412.850505
_symmetry_space_group_name_H-M "P M M N"
_symmetry_group_IT_number 59
_space_group.IT_coordinate_system_code '2'
_symmetry_cell_setting 'orthorhombic'
loop_
_space_group_symop_operation_xyz
x,y,z
1/2-x,1/2-y,z
1/2+x,-y,-z
-x,1/2+y,-z
-x,-y,-z
1/2+x,1/2+y,-z
1/2-x,y,z
x,1/2-y,z
loop_
_atom_site_type_symbol
_atom_site_label
_atom_site_fract_x
_atom_site_fract_y
_atom_site_fract_z
Si Si1 0.429934 0.357681 0.374401
Si Si2 0.077235 0.363785 0.580783
Si Si3 0.571702 0.360161 0.078481
Si Si4 0.430141 0.957349 0.323753
Si Si5 0.567702 0.141377 0.777608
Si Si6 0.076030 0.363064 0.972186
Si Si7 0.078540 0.864877 0.521141
Si Si8 0.429621 0.965564 0.121727
O O1 0.250000 0.358225 0.379699
O O2 0.476416 0.250000 0.364033
O O3 0.471420 0.433530 0.332610
O O4 0.499866 0.389094 0.426964
O O5 0.250000 0.391979 0.583332
O O6 0.070091 0.250000 0.581466
O O7 0.990817 0.402069 0.628494
O O8 0.006560 0.396118 0.528507
O O9 0.750000 0.372810 0.078604
O O10 0.538785 0.250000 0.087391
O O11 0.493866 0.429387 0.117346
O O12 0.506740 0.384952 0.023921
O O13 0.250000 0.951427 0.324093
O O14 0.483335 0.911532 0.272338
O O15 0.750000 0.142213 0.776846
O O16 0.518153 0.250000 0.778241
O O17 0.524175 0.086657 0.827587
O O18 0.250000 0.391900 0.975089
O O19 0.070656 0.250000 0.966223
O O20 0.996284 0.410235 0.925448
O O21 0.250000 0.896166 0.520219
O O22 0.077708 0.750000 0.519908
O O23 0.250000 0.966606 0.118879
#
# Coordination Sequence:
#
# PCOD9449767 Si02
#       8
#     8   8   8   8   8   8   8   8
#     4   9  18  33  52  75 104 134 166 210 261 308
#     4  10  20  33  50  75 107 138 168 209 263 316
#     4  10  21  37  56  79 111 149 185 223 269 320
#     4  10  20  35  56  78 100 134 178 218 259 309
#     4   9  19  36  57  81 108 137 172 216 263 311
#     4  10  20  34  54  82 115 149 186 227 270 320
#     4   9  17  30  50  75 102 135 173 209 249 305
#     4  11  21  34  55  81 110 145 185 227 272 322
#
# _framework density 18.752651
#
# number of rings (size 3 to 8) (size 9 to 14) (size 15 to 20)
#    0.000    2.250    0.000    3.000    0.000    5.750 
#    0.000    1.875    0.000    5.250    0.000    1.750 
#    0.000    0.000    0.000    0.000    0.000    0.000 
#
# Total GULP energy -357468.271890 kJ/mol
# GULP energy per Si atom -5585.441748 kJ/mol
# Density = 1.870997 g / cm^3
# Si number density = 18.752651 Si / 1000 Ang^3
#
#
#
# Elastic Constant Matrix: (Units=GPa)
#
#
# Indices 1 2 3 4 5 6 
#
# 1 49.1135 39.9405 40.2699 0.0000 0.0000 0.0000
# 2 39.9405 111.7848 91.2453 0.0000 0.0000 0.0000
# 3 40.2699 91.2453 139.4564 0.0000 0.0000 0.0000
# 4 0.0000 0.0000 0.0000 34.0753 0.0000 0.0000
# 5 0.0000 0.0000 0.0000 0.0000 22.3353 0.0000
# 6 0.0000 0.0000 0.0000 0.0000 0.0000 23.7802
#
#
#
# Elastic Compliance Matrix: (Units=1/GPa)
#
#
# Indices 1 2 3 4 5 6 
#
# 1 0.029466 -0.007690 -0.003477 0.000000 0.000000 0.000000
# 2 -0.007690 0.021207 -0.011655 0.000000 0.000000 0.000000
# 3 -0.003477 -0.011655 0.015801 0.000000 0.000000 0.000000
# 4 0.000000 0.000000 0.000000 0.029347 0.000000 0.000000
# 5 0.000000 0.000000 0.000000 0.000000 0.044772 0.000000
# 6 0.000000 0.000000 0.000000 0.000000 0.000000 0.042052
#
#
# Mechanical properties :
#
#
# Convention : Reuss Voigt Hill
#
# Bulk Modulus (GPa) = 48.00967 71.47402 59.74185
# Shear Modulus (GPa) = 21.25578 24.63143 22.94361
#
# Velocity S-wave (km/s) = 3.37037 3.62814 3.50163
# Velocity P-wave (km/s) = 6.38772 7.46646 6.94806
#
# Compressibility (1/GPa) = 0.02082914
#
# Stress axis : x y z
#
# Youngs Moduli (GPa) = 33.93790 47.15506 63.28904
#
# Poissons Ratio (x) = 0.36260 0.22008
# Poissons Ratio (y) = 0.26097 0.73763
# Poissons Ratio (z) = 0.11801 0.54959
#
# Static dielectric constant tensor:
#      x y z
#    x 1.630700 0.000000 0.000000 
#    y 0.000000 1.698430 0.000000 
#    z 0.000000 0.000000 1.603210 
# 
# From -- ./inp_files/31502.got.cif
#   From: 2010.05.17/outbox.cif.g08.bks.cpg/sg59_16_cif.got.tgz:31502.got - 2010.06.03 14:40:33.
