data_PCOD9449338
_publ_section_title
;
Structure prediction by ZEFSAII (Michael W. Deem and Ramdas Pophale) SiO2 
 PCOD9449338
Probable space group: P M M N
;
_chemical_formula_sum "Si O2"
_cell_formula_units_Z 64
_cell_length_a 29.454528
_cell_length_b 8.540223
_cell_length_c 16.177426
_cell_angle_alpha 90.000000
_cell_angle_beta 90.000000
_cell_angle_gamma 90.000000
_cell_volume 4069.402997
_symmetry_space_group_name_H-M "P M M N"
_symmetry_group_IT_number 59
_space_group.IT_coordinate_system_code '2'
_symmetry_cell_setting 'orthorhombic'
loop_
_space_group_symop_operation_xyz
x,y,z
1/2-x,1/2-y,z
1/2+x,-y,-z
-x,1/2+y,-z
-x,-y,-z
1/2+x,1/2+y,-z
1/2-x,y,z
x,1/2-y,z
loop_
_atom_site_type_symbol
_atom_site_label
_atom_site_fract_x
_atom_site_fract_y
_atom_site_fract_z
Si Si1 0.800736 0.439307 0.590208
Si Si2 0.053388 0.061028 0.819506
Si Si3 0.393959 0.941052 0.337523
Si Si4 0.947234 0.061092 0.824379
Si Si5 0.948846 0.439255 0.498869
Si Si6 0.607460 0.062781 0.337143
Si Si7 0.551521 0.937366 0.998275
Si Si8 0.301382 0.062586 0.595660
O O1 0.750000 0.490549 0.614800
O O2 0.801236 0.250000 0.588271
O O3 0.842075 0.491267 0.648003
O O4 0.809079 0.496997 0.496851
O O5 0.054410 0.250000 0.813572
O O6 0.070620 0.016749 0.911652
O O7 0.000159 0.012805 0.813300
O O8 0.082623 0.991470 0.745787
O O9 0.394471 0.750000 0.336131
O O10 0.417655 0.993936 0.253267
O O11 0.422670 0.989389 0.418081
O O12 0.947193 0.250000 0.826095
O O13 0.929054 0.002425 0.912745
O O14 0.949546 0.250000 0.498327
O O15 0.921774 0.491733 0.417056
O O16 0.000000 0.500000 0.500000
O O17 0.609030 0.250000 0.339774
O O18 0.658311 0.998809 0.347214
O O19 0.550885 0.750000 0.994699
O O20 0.500000 0.000000 0.000000
O O21 0.250000 0.015266 0.620238
O O22 0.302996 0.250000 0.592652
#
# Coordination Sequence:
#
# PCOD9449338 Si02
#       8
#     8   8   8   8   8   8   8   8
#     4   9  16  29  49  68  89 119 155 195 234 272
#     4   9  18  31  46  65  91 124 154 189 237 279
#     4   9  16  29  45  64  92 122 153 188 229 275
#     4   9  17  29  47  67  92 126 158 191 230 273
#     4  10  20  32  43  60  90 126 159 186 221 266
#     4  11  21  32  48  69  92 122 158 195 231 273
#     4   9  17  30  47  66  91 120 153 193 235 276
#     4  10  20  33  49  68  91 120 154 194 238 280
#
# _framework density 15.727123000000001
#
# number of rings (size 3 to 8) (size 9 to 14) (size 15 to 20)
#    0.000    2.500    1.250    2.625    0.000    5.250 
#    0.000    1.250    0.000    0.000    0.000    0.875 
#    0.000    3.000    0.000    0.000    0.000    0.000 
#
# Total GULP energy -356674.016217 kJ/mol
# GULP energy per Si atom -5573.031503 kJ/mol
# Density = 1.569133 g / cm^3
# Si number density = 15.727123 Si / 1000 Ang^3
#
#
#
# Elastic Constant Matrix: (Units=GPa)
#
#
# Indices 1 2 3 4 5 6 
#
# 1 113.2099 20.0640 75.5595 0.0000 0.0000 0.0000
# 2 20.0640 10.4953 23.6883 0.0000 0.0000 0.0000
# 3 75.5595 23.6883 149.9048 0.0000 0.0000 0.0000
# 4 0.0000 0.0000 0.0000 23.4305 0.0000 0.0000
# 5 0.0000 0.0000 0.0000 0.0000 9.8172 0.0000
# 6 0.0000 0.0000 0.0000 0.0000 0.0000 18.6602
#
#
#
# Elastic Compliance Matrix: (Units=1/GPa)
#
#
# Indices 1 2 3 4 5 6 
#
# 1 0.015302 -0.018411 -0.004804 0.000000 0.000000 0.000000
# 2 -0.018411 0.170256 -0.017624 0.000000 0.000000 0.000000
# 3 -0.004804 -0.017624 0.011877 0.000000 0.000000 0.000000
# 4 0.000000 0.000000 0.000000 0.042679 0.000000 0.000000
# 5 0.000000 0.000000 0.000000 0.000000 0.101862 0.000000
# 6 0.000000 0.000000 0.000000 0.000000 0.000000 0.053590
#
#
# Mechanical properties :
#
#
# Convention : Reuss Voigt Hill
#
# Bulk Modulus (GPa) = 8.63874 56.91483 32.77679
# Shear Modulus (GPa) = 9.69308 20.66813 15.18061
#
# Velocity S-wave (km/s) = 2.48529 3.62908 3.11022
# Velocity P-wave (km/s) = 3.70680 7.33675 5.81241
#
# Compressibility (1/GPa) = 0.11575767
#
# Stress axis : x y z
#
# Youngs Moduli (GPa) = 65.34961 5.87349 84.19501
#
# Poissons Ratio (x) = 0.10814 0.40445
# Poissons Ratio (y) = 1.20318 1.48385
# Poissons Ratio (z) = 0.31392 0.10351
#
# Static dielectric constant tensor:
#      x y z
#    x 1.520490 0.000000 0.000000 
#    y 0.000000 1.538860 0.000000 
#    z 0.000000 0.000000 1.529740 
# 
# From -- ./inp_files/25020.got.cif
#   From: 2010.05.17/outbox.cif.g08.bks.cpg/sg59_13_cif.got.tgz:25020.got - 2010.06.03 14:40:33.
