data_PCOD9449287
_publ_section_title
;
Structure prediction by ZEFSAII (Michael W. Deem and Ramdas Pophale) SiO2 
 PCOD9449287
Probable space group: P M M N
;
_chemical_formula_sum "Si O2"
_cell_formula_units_Z 64
_cell_length_a 18.342099
_cell_length_b 7.583633
_cell_length_c 23.987901
_cell_angle_alpha 90.000000
_cell_angle_beta 90.000000
_cell_angle_gamma 90.000000
_cell_volume 3336.710967
_symmetry_space_group_name_H-M "P M M N"
_symmetry_group_IT_number 59
_space_group.IT_coordinate_system_code '2'
_symmetry_cell_setting 'orthorhombic'
loop_
_space_group_symop_operation_xyz
x,y,z
1/2-x,1/2-y,z
1/2+x,-y,-z
-x,1/2+y,-z
-x,-y,-z
1/2+x,1/2+y,-z
1/2-x,y,z
x,1/2-y,z
loop_
_atom_site_type_symbol
_atom_site_label
_atom_site_fract_x
_atom_site_fract_y
_atom_site_fract_z
Si Si1 0.048641 0.462346 0.369563
Si Si2 0.930621 0.960857 0.960924
Si Si3 0.583584 0.044811 0.442517
Si Si4 0.167810 0.538819 0.451359
Si Si5 0.028758 0.537469 0.864533
Si Si6 0.668165 0.538170 0.333083
Si Si7 0.470732 0.541421 0.739179
Si Si8 0.332178 0.037594 0.942083
O O1 0.040289 0.250000 0.368064
O O2 0.127475 0.504317 0.393315
O O3 0.989394 0.532425 0.414688
O O4 0.025604 0.528922 0.308489
O O5 0.921270 0.750000 0.955799
O O6 0.960021 0.027968 0.901515
O O7 0.862615 0.027186 0.997629
O O8 0.000000 0.000000 0.000000
O O9 0.567745 0.250000 0.454128
O O10 0.617657 0.966053 0.498386
O O11 0.642629 0.033198 0.392984
O O12 0.250000 0.470018 0.453777
O O13 0.171660 0.750000 0.459049
O O14 0.023552 0.750000 0.862987
O O15 0.026944 0.468153 0.801519
O O16 0.105256 0.501476 0.896331
O O17 0.750000 0.480955 0.319933
O O18 0.666487 0.750000 0.336308
O O19 0.609103 0.480825 0.287703
O O20 0.485304 0.750000 0.743916
O O21 0.250000 0.973782 0.930030
O O22 0.328992 0.250000 0.944941
#
# Coordination Sequence:
#
# PCOD9449287 Si02
#       8
#     8   8   8   8   8   8   8   8
#     4   9  18  32  49  68  90 118 152 190 230 269
#     4   8  14  26  44  64  87 116 147 178 213 252
#     4   9  18  33  51  69  91 120 151 183 225 278
#     4  10  20  32  48  71  95 119 148 183 228 281
#     4   9  17  30  48  67  87 116 156 194 220 255
#     4  10  20  31  44  66  94 121 151 187 225 269
#     4   9  19  34  49  65  87 119 158 194 228 267
#     4   9  17  28  43  67  99 126 145 175 223 272
#
# _framework density 19.180564
#
# number of rings (size 3 to 8) (size 9 to 14) (size 15 to 20)
#    0.000    2.875    0.000    1.875    0.000    5.500 
#    0.000    2.500    0.000    0.750    0.000    3.500 
#    0.000    0.000    0.000    0.000    0.000    0.000 
#
# Total GULP energy -356586.050670 kJ/mol
# GULP energy per Si atom -5571.657042 kJ/mol
# Density = 1.913691 g / cm^3
# Si number density = 19.180564 Si / 1000 Ang^3
#
#
#
# Elastic Constant Matrix: (Units=GPa)
#
#
# Indices 1 2 3 4 5 6 
#
# 1 64.5386 4.5883 63.0735 0.0000 0.0000 0.0000
# 2 4.5883 44.1855 1.1410 0.0000 0.0000 0.0000
# 3 63.0735 1.1410 143.7714 0.0000 0.0000 0.0000
# 4 0.0000 0.0000 0.0000 -1.0693 0.0000 0.0000
# 5 0.0000 0.0000 0.0000 0.0000 4.2918 0.0000
# 6 0.0000 0.0000 0.0000 0.0000 0.0000 15.9356
#
#
#
# Elastic Compliance Matrix: (Units=1/GPa)
#
#
# Indices 1 2 3 4 5 6 
#
# 1 0.027405 -0.002536 -0.012003 0.000000 0.000000 0.000000
# 2 -0.002536 0.022871 0.000931 0.000000 0.000000 0.000000
# 3 -0.012003 0.000931 0.012214 0.000000 0.000000 0.000000
# 4 0.000000 0.000000 0.000000 -0.935219 0.000000 0.000000
# 5 0.000000 0.000000 0.000000 0.000000 0.233000 0.000000
# 6 0.000000 0.000000 0.000000 0.000000 0.000000 0.062753
#
#
# Mechanical properties :
#
#
# Convention : Reuss Voigt Hill
#
# Bulk Modulus (GPa) = 28.34877 43.34457 35.84667
# Shear Modulus (GPa) = -9.29364 16.07782 3.39209
#
# Velocity S-wave (km/s) = -2.20360 2.89837 1.33129
# Velocity P-wave (km/s) = 2.88748 5.81790 4.59269
#
# Compressibility (1/GPa) = 0.03527490
#
# Stress axis : x y z
#
# Youngs Moduli (GPa) = 36.48963 43.72323 81.87499
#
# Poissons Ratio (x) = 0.11088 0.98272
# Poissons Ratio (y) = 0.09253 -0.07622
# Poissons Ratio (z) = 0.43797 -0.04071
#
# Static dielectric constant tensor:
#      x y z
#    x 1.667550 0.000000 0.000000 
#    y 0.000000 1.701360 0.000000 
#    z 0.000000 0.000000 1.691070 
# 
# From -- ./inp_files/32293.got.cif
#   From: 2010.05.17/outbox.cif.g08.bks.cpg/sg59_17_cif.got.tgz:32293.got - 2010.06.03 14:40:33.
