data_PCOD9449612
_publ_section_title
;
Structure prediction by ZEFSAII (Michael W. Deem and Ramdas Pophale) SiO2 
 PCOD9449612
Probable space group: P M M N
;
_chemical_formula_sum "Si O2"
_cell_formula_units_Z 56
_cell_length_a 9.265419
_cell_length_b 14.843482
_cell_length_c 21.401467
_cell_angle_alpha 90.000000
_cell_angle_beta 90.000000
_cell_angle_gamma 90.000000
_cell_volume 2943.366873
_symmetry_space_group_name_H-M "P M M N"
_symmetry_group_IT_number 59
_space_group.IT_coordinate_system_code '2'
_symmetry_cell_setting 'orthorhombic'
loop_
_space_group_symop_operation_xyz
x,y,z
1/2-x,1/2-y,z
1/2+x,-y,-z
-x,1/2+y,-z
-x,-y,-z
1/2+x,1/2+y,-z
1/2-x,y,z
x,1/2-y,z
loop_
_atom_site_type_symbol
_atom_site_label
_atom_site_fract_x
_atom_site_fract_y
_atom_site_fract_z
Si Si1 0.077130 0.345955 0.779542
Si Si2 0.087298 0.646881 0.969392
Si Si3 0.576755 0.457410 0.268490
Si Si4 0.923690 0.143863 0.529745
Si Si5 0.922833 0.476735 0.409232
Si Si6 0.914876 0.098675 0.898469
Si Si7 0.587041 0.604736 0.848312
O O1 0.250000 0.347662 0.783087
O O2 0.032900 0.250000 0.750111
O O3 0.035028 0.437822 0.744764
O O4 0.012261 0.349809 0.849005
O O5 0.250000 0.612846 0.956171
O O6 0.095484 0.750000 0.990540
O O7 0.998100 0.646868 0.905989
O O8 0.027661 0.597084 0.030718
O O9 0.750000 0.449127 0.260045
O O10 0.540332 0.440408 0.340489
O O11 0.497124 0.396529 0.217197
O O12 0.750000 0.140749 0.538297
O O13 0.966760 0.250000 0.533957
O O14 0.956021 0.098023 0.462092
O O15 0.999328 0.071905 0.576025
O O16 0.750000 0.492769 0.410671
O O17 0.750000 0.133711 0.900822
O O18 0.907209 0.998864 0.870869
O O19 0.750000 0.638576 0.841913
#
# Coordination Sequence:
#
# PCOD9449612 Si02
#       7
#     8   8   8   8   8   8   8
#     4   9  17  28  43  66  95 125 158 199 247 295
#     4  10  20  33  49  68  91 121 158 201 248 296
#     4   9  18  33  51  70  97 133 168 201 238 286
#     4   9  18  33  53  79 110 138 166 207 257 302
#     4   9  18  33  54  78 104 138 177 212 247 295
#     4   9  18  32  49  68  90 120 157 197 246 301
#     4  10  20  33  50  71  95 124 159 200 244 292
#
# _framework density 19.025831
#
# number of rings (size 3 to 8) (size 9 to 14) (size 15 to 20)
#    0.000    2.714    0.000    1.286    0.000    3.714 
#    0.000    2.143    0.000    2.571    0.000    0.000 
#    0.000    0.000    0.000    0.000    0.000    0.000 
#
# Total GULP energy -311855.238613 kJ/mol
# GULP energy per Si atom -5568.843547 kJ/mol
# Density = 1.898253 g / cm^3
# Si number density = 19.025831 Si / 1000 Ang^3
#
#
#
# Elastic Constant Matrix: (Units=GPa)
#
#
# Indices 1 2 3 4 5 6 
#
# 1 23.9876 1.9193 24.4085 0.0000 0.0000 0.0000
# 2 1.9193 38.9288 -10.7503 0.0000 0.0000 0.0000
# 3 24.4085 -10.7503 105.6705 0.0000 0.0000 0.0000
# 4 0.0000 0.0000 0.0000 12.5656 0.0000 0.0000
# 5 0.0000 0.0000 0.0000 0.0000 27.1086 0.0000
# 6 0.0000 0.0000 0.0000 0.0000 0.0000 -9.9199
#
#
#
# Elastic Compliance Matrix: (Units=1/GPa)
#
#
# Indices 1 2 3 4 5 6 
#
# 1 0.056062 -0.006523 -0.013613 0.000000 0.000000 0.000000
# 2 -0.006523 0.027189 0.004273 0.000000 0.000000 0.000000
# 3 -0.013613 0.004273 0.013043 0.000000 0.000000 0.000000
# 4 0.000000 0.000000 0.000000 0.079582 0.000000 0.000000
# 5 0.000000 0.000000 0.000000 0.000000 0.036889 0.000000
# 6 0.000000 0.000000 0.000000 0.000000 0.000000 -0.100807
#
#
# Mechanical properties :
#
#
# Convention : Reuss Voigt Hill
#
# Bulk Modulus (GPa) = 15.48780 22.19353 18.84067
# Shear Modulus (GPa) = 30.26493 16.15149 23.20821
#
# Velocity S-wave (km/s) = 3.99272 2.91679 3.49639
# Velocity P-wave (km/s) = 5.42345 4.79936 5.12092
#
# Compressibility (1/GPa) = 0.06456693
#
# Stress axis : x y z
#
# Youngs Moduli (GPa) = 17.83732 36.77891 76.67202
#
# Poissons Ratio (x) = 0.23992 1.04376
# Poissons Ratio (y) = 0.11636 -0.32761
# Poissons Ratio (z) = 0.24282 -0.15715
#
# Static dielectric constant tensor:
#      x y z
#    x 1.666600 0.000000 0.000000 
#    y 0.000000 1.698540 0.000000 
#    z 0.000000 0.000000 1.660130 
# 
# From -- ./inp_files/29037.got.cif
#   From: 2010.05.17/outbox.cif.g08.bks.cpg/sg59_15_cif.got.tgz:29037.got - 2010.06.03 14:40:33.
