data_PCOD9449810
_publ_section_title
;
Structure prediction by ZEFSAII (Michael W. Deem and Ramdas Pophale) SiO2 
 PCOD9449810
Probable space group: P M M N
;
_chemical_formula_sum "Si O2"
_cell_formula_units_Z 64
_cell_length_a 7.974108
_cell_length_b 16.376355
_cell_length_c 23.680425
_cell_angle_alpha 90.000000
_cell_angle_beta 90.000000
_cell_angle_gamma 90.000000
_cell_volume 3092.351478
_symmetry_space_group_name_H-M "P M M N"
_symmetry_group_IT_number 59
_space_group.IT_coordinate_system_code '2'
_symmetry_cell_setting 'orthorhombic'
loop_
_space_group_symop_operation_xyz
x,y,z
1/2-x,1/2-y,z
1/2+x,-y,-z
-x,1/2+y,-z
-x,-y,-z
1/2+x,1/2+y,-z
1/2-x,y,z
x,1/2-y,z
loop_
_atom_site_type_symbol
_atom_site_label
_atom_site_fract_x
_atom_site_fract_y
_atom_site_fract_z
Si Si1 0.060174 0.568528 0.581909
Si Si2 0.451435 0.488741 0.870390
Si Si3 0.952647 0.008824 0.742717
Si Si4 0.046778 0.158310 0.950187
Si Si5 0.440021 0.907527 0.367188
Si Si6 0.547036 0.839905 0.686823
Si Si7 0.554941 0.660652 0.478962
Si Si8 0.549144 0.340623 0.080981
O O1 0.250000 0.539526 0.590253
O O2 0.941083 0.496689 0.603178
O O3 0.022033 0.643155 0.624090
O O4 0.035358 0.594906 0.517820
O O5 0.250000 0.491090 0.877020
O O6 0.491850 0.471846 0.805477
O O7 0.513536 0.415905 0.910955
O O8 0.517135 0.578936 0.887356
O O9 0.750000 0.009285 0.740006
O O10 0.010783 0.072880 0.694814
O O11 0.008410 0.917376 0.724356
O O12 0.250000 0.156608 0.950746
O O13 0.995808 0.250000 0.931329
O O14 0.986172 0.148264 0.014438
O O15 0.250000 0.876925 0.362433
O O16 0.536410 0.853638 0.412399
O O17 0.750000 0.841515 0.684483
O O18 0.495301 0.750000 0.707082
O O19 0.750000 0.656899 0.494199
O O20 0.487310 0.750000 0.492856
O O21 0.750000 0.338474 0.089121
O O22 0.483216 0.250000 0.097319
#
# Coordination Sequence:
#
# PCOD9449810 Si02
#       8
#     8   8   8   8   8   8   8   8
#     4  11  21  33  53  80 107 134 168 208 253 311
#     4  10  20  33  51  75 104 137 170 210 257 302
#     4   9  20  36  53  74  99 132 174 214 252 299
#     4   9  18  33  52  75 102 133 172 214 254 298
#     4  10  21  39  58  74  99 135 173 214 259 305
#     4   9  18  34  53  73 102 137 171 212 260 307
#     4  11  23  37  54  78 106 133 164 207 260 315
#     4   9  18  32  50  76 109 139 166 201 250 305
#
# _framework density 20.696225999999999
#
# number of rings (size 3 to 8) (size 9 to 14) (size 15 to 20)
#    0.000    2.250    0.000    3.750    0.000    6.750 
#    0.000    0.625    0.000    2.250    0.000    0.000 
#    0.000    0.000    0.000    0.000    0.000    0.000 
#
# Total GULP energy -357130.385093 kJ/mol
# GULP energy per Si atom -5580.162267 kJ/mol
# Density = 2.064912 g / cm^3
# Si number density = 20.696226 Si / 1000 Ang^3
#
#
#
# Elastic Constant Matrix: (Units=GPa)
#
#
# Indices 1 2 3 4 5 6 
#
# 1 24.5688 -0.4634 -8.6727 0.0000 0.0000 0.0000
# 2 -0.4634 51.0390 19.9486 0.0000 0.0000 0.0000
# 3 -8.6727 19.9486 73.3804 0.0000 0.0000 0.0000
# 4 0.0000 0.0000 0.0000 14.5433 0.0000 0.0000
# 5 0.0000 0.0000 0.0000 0.0000 26.0030 0.0000
# 6 0.0000 0.0000 0.0000 0.0000 0.0000 6.3670
#
#
#
# Elastic Compliance Matrix: (Units=1/GPa)
#
#
# Indices 1 2 3 4 5 6 
#
# 1 0.042616 -0.001770 0.005518 0.000000 0.000000 0.000000
# 2 -0.001770 0.021996 -0.006189 0.000000 0.000000 0.000000
# 3 0.005518 -0.006189 0.015962 0.000000 0.000000 0.000000
# 4 0.000000 0.000000 0.000000 0.068760 0.000000 0.000000
# 5 0.000000 0.000000 0.000000 0.000000 0.038457 0.000000
# 6 0.000000 0.000000 0.000000 0.000000 0.000000 0.157060
#
#
# Mechanical properties :
#
#
# Convention : Reuss Voigt Hill
#
# Bulk Modulus (GPa) = 13.21124 18.95702 16.08413
# Shear Modulus (GPa) = 13.33463 18.59438 15.96450
#
# Velocity S-wave (km/s) = 2.54107 3.00066 2.78037
# Velocity P-wave (km/s) = 3.87384 4.60269 4.25390
#
# Compressibility (1/GPa) = 0.07569314
#
# Stress axis : x y z
#
# Youngs Moduli (GPa) = 23.46509 45.46358 62.64811
#
# Poissons Ratio (x) = 0.08046 -0.34569
# Poissons Ratio (y) = 0.04153 0.38771
# Poissons Ratio (z) = -0.12948 0.28136
#
# Static dielectric constant tensor:
#      x y z
#    x 1.725300 0.000000 0.000000 
#    y 0.000000 1.781660 0.000000 
#    z 0.000000 0.000000 1.720440 
# 
# From -- ./inp_files/29432.got.cif
#   From: 2010.05.17/outbox.cif.g08.bks.cpg/sg59_15_cif.got.tgz:29432.got - 2010.06.03 14:40:33.
