data_PCOD9449892
_publ_section_title
;
Structure prediction by ZEFSAII (Michael W. Deem and Ramdas Pophale) SiO2 
 PCOD9449892
Probable space group: P M M N
;
_chemical_formula_sum "Si O2"
_cell_formula_units_Z 48
_cell_length_a 20.559852
_cell_length_b 14.348033
_cell_length_c 9.284219
_cell_angle_alpha 90.000000
_cell_angle_beta 90.000000
_cell_angle_gamma 90.000000
_cell_volume 2738.783654
_symmetry_space_group_name_H-M "P M M N"
_symmetry_group_IT_number 59
_space_group.IT_coordinate_system_code '2'
_symmetry_cell_setting 'orthorhombic'
loop_
_space_group_symop_operation_xyz
x,y,z
1/2-x,1/2-y,z
1/2+x,-y,-z
-x,1/2+y,-z
-x,-y,-z
1/2+x,1/2+y,-z
1/2-x,y,z
x,1/2-y,z
loop_
_atom_site_type_symbol
_atom_site_label
_atom_site_fract_x
_atom_site_fract_y
_atom_site_fract_z
Si Si1 0.629571 0.145280 0.230429
Si Si2 0.578788 0.011302 0.987142
Si Si3 0.491335 0.853698 0.550112
Si Si4 0.077069 0.989174 0.343222
Si Si5 0.178250 0.480633 0.593690
Si Si6 0.171249 0.361039 0.860803
O O1 0.654125 0.250000 0.205967
O O2 0.571852 0.150611 0.348140
O O3 0.677746 0.070970 0.302198
O O4 0.600970 0.096668 0.088308
O O5 0.593973 0.030406 0.820341
O O6 0.622220 0.922437 0.040413
O O7 0.500000 0.000000 0.000000
O O8 0.512398 0.750000 0.513456
O O9 0.473024 0.913353 0.408973
O O10 0.542666 0.911024 0.642829
O O11 0.135155 0.995836 0.456637
O O12 0.250000 0.457674 0.544206
O O13 0.155388 0.397184 0.698470
O O14 0.250000 0.379951 0.883401
O O15 0.161891 0.250000 0.876634
#
# Coordination Sequence:
#
# PCOD9449892 Si02
#       6
#     8   8   8   8   8   8
#     4   9  18  34  54  75 103 141 180 217 265 327
#     4  11  21  34  53  83 118 147 182 229 284 333
#     4   9  18  33  51  72 103 140 176 218 264 315
#     4  10  20  33  51  78 109 137 179 221 274 328
#     4   9  19  36  56  77 102 138 183 230 271 321
#     4   9  20  39  59  79 109 151 192 227 274 340
#
# _framework density 17.526028
#
# number of rings (size 3 to 8) (size 9 to 14) (size 15 to 20)
#    0.000    2.500    1.667    0.000    2.333    3.667 
#    0.000    0.000    0.000    2.000    0.000    4.667 
#    0.000    0.000    0.000    0.000    0.000    0.000 
#
# Total GULP energy -267233.961283 kJ/mol
# GULP energy per Si atom -5567.374193 kJ/mol
# Density = 1.748614 g / cm^3
# Si number density = 17.526028 Si / 1000 Ang^3
#
#
#
# Elastic Constant Matrix: (Units=GPa)
#
#
# Indices 1 2 3 4 5 6 
#
# 1 47.9244 12.8805 21.1390 0.0000 0.0000 0.0000
# 2 12.8805 112.8131 21.4945 0.0000 0.0000 0.0000
# 3 21.1390 21.4945 89.3072 0.0000 0.0000 0.0000
# 4 0.0000 0.0000 0.0000 11.7062 0.0000 0.0000
# 5 0.0000 0.0000 0.0000 0.0000 16.2835 0.0000
# 6 0.0000 0.0000 0.0000 0.0000 0.0000 18.5074
#
#
#
# Elastic Compliance Matrix: (Units=1/GPa)
#
#
# Indices 1 2 3 4 5 6 
#
# 1 0.023609 -0.001709 -0.005177 0.000000 0.000000 0.000000
# 2 -0.001709 0.009414 -0.001861 0.000000 0.000000 0.000000
# 3 -0.005177 -0.001861 0.012871 0.000000 0.000000 0.000000
# 4 0.000000 0.000000 0.000000 0.085425 0.000000 0.000000
# 5 0.000000 0.000000 0.000000 0.000000 0.061412 0.000000
# 6 0.000000 0.000000 0.000000 0.000000 0.000000 0.054032
#
#
# Mechanical properties :
#
#
# Convention : Reuss Voigt Hill
#
# Bulk Modulus (GPa) = 35.21239 40.11918 37.66578
# Shear Modulus (GPa) = 18.26658 22.26813 20.26735
#
# Velocity S-wave (km/s) = 3.23190 3.56838 3.40430
# Velocity P-wave (km/s) = 5.83627 6.31812 6.08197
#
# Compressibility (1/GPa) = 0.02839909
#
# Stress axis : x y z
#
# Youngs Moduli (GPa) = 42.35660 106.22496 77.69628
#
# Poissons Ratio (x) = 0.18156 0.40222
# Poissons Ratio (y) = 0.07240 0.14461
# Poissons Ratio (z) = 0.21928 0.19770
#
# Static dielectric constant tensor:
#      x y z
#    x 1.635740 0.000000 0.000000 
#    y 0.000000 1.617380 0.000000 
#    z 0.000000 0.000000 1.583690 
# 
# From -- ./inp_files/9178.got.cif
#   From: 2010.05.17/outbox.cif.g08.bks.cpg/sg59_5_cif.got.tgz:9178.got - 2010.06.03 14:40:33.
