data_PCOD9449549
_publ_section_title
;
Structure prediction by ZEFSAII (Michael W. Deem and Ramdas Pophale) SiO2 
 PCOD9449549
Probable space group: P M M N
;
_chemical_formula_sum "Si O2"
_cell_formula_units_Z 64
_cell_length_a 21.786195
_cell_length_b 8.803684
_cell_length_c 17.108445
_cell_angle_alpha 90.000000
_cell_angle_beta 90.000000
_cell_angle_gamma 90.000000
_cell_volume 3281.378816
_symmetry_space_group_name_H-M "P M M N"
_symmetry_group_IT_number 59
_space_group.IT_coordinate_system_code '2'
_symmetry_cell_setting 'orthorhombic'
loop_
_space_group_symop_operation_xyz
x,y,z
1/2-x,1/2-y,z
1/2+x,-y,-z
-x,1/2+y,-z
-x,-y,-z
1/2+x,1/2+y,-z
1/2-x,y,z
x,1/2-y,z
loop_
_atom_site_type_symbol
_atom_site_label
_atom_site_fract_x
_atom_site_fract_y
_atom_site_fract_z
Si Si1 0.374147 0.432225 0.388736
Si Si2 0.636366 0.069860 0.453075
Si Si3 0.986890 0.066783 0.367559
Si Si4 0.440447 0.567734 0.957639
Si Si5 0.819173 0.427063 0.283025
Si Si6 0.323542 0.074011 0.222907
Si Si7 0.679117 0.067213 0.944429
Si Si8 0.934948 0.928150 0.212325
O O1 0.368560 0.250000 0.387844
O O2 0.342867 0.493093 0.467059
O O3 0.445705 0.475171 0.395730
O O4 0.350498 0.486969 0.304391
O O5 0.633792 0.250000 0.466716
O O6 0.568524 0.017345 0.424203
O O7 0.676968 0.043984 0.375964
O O8 0.983509 0.250000 0.361617
O O9 0.975418 0.996953 0.282361
O O10 0.442391 0.750000 0.961929
O O11 0.443970 0.513099 0.868755
O O12 0.500000 0.500000 0.000000
O O13 0.375524 0.517611 0.997322
O O14 0.750000 0.441894 0.255113
O O15 0.838951 0.250000 0.271920
O O16 0.865675 0.536613 0.239939
O O17 0.250000 0.072717 0.230940
O O18 0.343591 0.250000 0.213767
O O19 0.337959 0.985777 0.143288
O O20 0.750000 0.014508 0.960873
O O21 0.680745 0.250000 0.946523
O O22 0.946166 0.750000 0.203897
#
# Coordination Sequence:
#
# PCOD9449549 Si02
#       8
#     8   8   8   8   8   8   8   8
#     4  10  20  32  51  77 105 145 189 231 282 336
#     4   9  18  32  50  76 108 142 185 236 284 333
#     4   9  19  36  54  74 106 148 191 232 280 338
#     4  11  24  41  62  90 123 155 192 240 295 353
#     4   9  19  38  61  82 111 153 194 233 283 341
#     4   9  19  35  53  77 109 143 181 227 280 335
#     4   9  20  40  63  85 111 147 191 235 281 339
#     4  11  23  38  57  86 117 146 185 234 287 343
#
# _framework density 19.503995
#
# number of rings (size 3 to 8) (size 9 to 14) (size 15 to 20)
#    0.000    2.375    0.000    2.625    1.750    5.250 
#    0.000    1.250    0.000    0.000    0.000    0.000 
#    0.000    0.000    0.000    0.000    0.000    0.000 
#
# Total GULP energy -357069.596732 kJ/mol
# GULP energy per Si atom -5579.212449 kJ/mol
# Density = 1.945960 g / cm^3
# Si number density = 19.503995 Si / 1000 Ang^3
#
#
#
# Elastic Constant Matrix: (Units=GPa)
#
#
# Indices 1 2 3 4 5 6 
#
# 1 41.4123 16.6853 25.6786 0.0000 0.0000 0.0000
# 2 16.6853 18.0880 22.7177 0.0000 0.0000 0.0000
# 3 25.6786 22.7177 118.0318 0.0000 0.0000 0.0000
# 4 0.0000 0.0000 0.0000 32.7642 0.0000 0.0000
# 5 0.0000 0.0000 0.0000 0.0000 3.8796 0.0000
# 6 0.0000 0.0000 0.0000 0.0000 0.0000 20.0761
#
#
#
# Elastic Compliance Matrix: (Units=1/GPa)
#
#
# Indices 1 2 3 4 5 6 
#
# 1 0.038802 -0.033222 -0.002047 0.000000 0.000000 0.000000
# 2 -0.033222 0.101354 -0.012280 0.000000 0.000000 0.000000
# 3 -0.002047 -0.012280 0.011281 0.000000 0.000000 0.000000
# 4 0.000000 0.000000 0.000000 0.030521 0.000000 0.000000
# 5 0.000000 0.000000 0.000000 0.000000 0.257758 0.000000
# 6 0.000000 0.000000 0.000000 0.000000 0.000000 0.049810
#
#
# Mechanical properties :
#
#
# Convention : Reuss Voigt Hill
#
# Bulk Modulus (GPa) = 17.74965 34.18836 25.96901
# Shear Modulus (GPa) = 8.28630 18.84068 13.56349
#
# Velocity S-wave (km/s) = 2.06343 3.11141 2.63994
# Velocity P-wave (km/s) = 3.84672 5.52040 4.75773
#
# Compressibility (1/GPa) = 0.05633913
#
# Stress axis : x y z
#
# Youngs Moduli (GPa) = 25.77174 9.86639 88.64222
#
# Poissons Ratio (x) = 0.32778 0.18149
# Poissons Ratio (y) = 0.85618 1.08854
# Poissons Ratio (z) = 0.05277 0.12116
#
# Static dielectric constant tensor:
#      x y z
#    x 1.713430 0.000000 0.000000 
#    y 0.000000 1.665020 0.000000 
#    z 0.000000 0.000000 1.668000 
# 
# From -- ./inp_files/24658.got.cif
#   From: 2010.05.17/outbox.cif.g08.bks.cpg/sg59_13_cif.got.tgz:24658.got - 2010.06.03 14:40:33.
