data_PCOD9449523
_publ_section_title
;
Structure prediction by ZEFSAII (Michael W. Deem and Ramdas Pophale) SiO2 
 PCOD9449523
Probable space group: P M M N
;
_chemical_formula_sum "Si O2"
_cell_formula_units_Z 64
_cell_length_a 20.318981
_cell_length_b 9.546377
_cell_length_c 19.249840
_cell_angle_alpha 90.000000
_cell_angle_beta 90.000000
_cell_angle_gamma 90.000000
_cell_volume 3733.942532
_symmetry_space_group_name_H-M "P M M N"
_symmetry_group_IT_number 59
_space_group.IT_coordinate_system_code '2'
_symmetry_cell_setting 'orthorhombic'
loop_
_space_group_symop_operation_xyz
x,y,z
1/2-x,1/2-y,z
1/2+x,-y,-z
-x,1/2+y,-z
-x,-y,-z
1/2+x,1/2+y,-z
1/2-x,y,z
x,1/2-y,z
loop_
_atom_site_type_symbol
_atom_site_label
_atom_site_fract_x
_atom_site_fract_y
_atom_site_fract_z
Si Si1 0.541033 0.581155 0.207082
Si Si2 0.672042 0.584087 0.433585
Si Si3 0.064521 0.911882 0.482691
Si Si4 0.677881 0.415818 0.897804
Si Si5 0.675580 0.920187 0.270367
Si Si6 0.468377 0.918441 0.063594
Si Si7 0.569713 0.090435 0.683139
Si Si8 0.176058 0.088632 0.244267
O O1 0.545283 0.750000 0.202310
O O2 0.615235 0.529330 0.222319
O O3 0.502719 0.537086 0.136888
O O4 0.496267 0.551379 0.274724
O O5 0.750000 0.566657 0.447961
O O6 0.656217 0.750000 0.442154
O O7 0.626442 0.489537 0.482138
O O8 0.662074 0.548584 0.351791
O O9 0.060882 0.750000 0.506472
O O10 0.065784 0.909928 0.399247
O O11 0.000000 0.000000 0.500000
O O12 0.750000 0.443424 0.931096
O O13 0.675673 0.250000 0.881528
O O14 0.610009 0.447549 0.936500
O O15 0.675260 0.503698 0.827371
O O16 0.750000 0.968608 0.253036
O O17 0.676724 0.750000 0.266325
O O18 0.476925 0.750000 0.057238
O O19 0.500000 0.000000 0.000000
O O20 0.586256 0.250000 0.705919
O O21 0.625337 0.983884 0.705519
O O22 0.250000 0.081310 0.272853
O O23 0.159794 0.250000 0.231168
#
# Coordination Sequence:
#
# PCOD9449523 Si02
#       8
#     8   8   8   8   8   8   8   8
#     4   9  16  30  51  73  98 128 170 217 255 300
#     4   9  18  34  55  77 105 142 180 219 267 324
#     4  11  23  36  53  76 105 140 180 227 275 323
#     4   9  17  33  56  76 100 140 182 210 243 305
#     4   8  14  27  51  79 102 130 170 213 258 310
#     4  10  20  34  53  78 107 139 174 215 264 313
#     4  10  20  35  53  72  97 136 181 220 256 308
#     4  10  20  32  49  77 108 133 163 212 266 308
#
# _framework density 17.140060999999999
#
# number of rings (size 3 to 8) (size 9 to 14) (size 15 to 20)
#    0.000    2.500    1.250    2.250    0.000    5.000 
#    0.000    3.125    0.000    1.500    0.000    0.000 
#    0.000    0.000    0.000    0.000    0.000    0.000 
#
# Total GULP energy -356465.918239 kJ/mol
# GULP energy per Si atom -5569.779972 kJ/mol
# Density = 1.710105 g / cm^3
# Si number density = 17.140061 Si / 1000 Ang^3
#
#
#
# Elastic Constant Matrix: (Units=GPa)
#
#
# Indices 1 2 3 4 5 6 
#
# 1 141.2109 58.1416 67.5101 0.0000 0.0000 0.0000
# 2 58.1416 43.7865 24.6211 0.0000 0.0000 0.0000
# 3 67.5101 24.6211 60.7028 0.0000 0.0000 0.0000
# 4 0.0000 0.0000 0.0000 24.4079 0.0000 0.0000
# 5 0.0000 0.0000 0.0000 0.0000 24.3469 0.0000
# 6 0.0000 0.0000 0.0000 0.0000 0.0000 23.0882
#
#
#
# Elastic Compliance Matrix: (Units=1/GPa)
#
#
# Indices 1 2 3 4 5 6 
#
# 1 0.026221 -0.023862 -0.019483 0.000000 0.000000 0.000000
# 2 -0.023862 0.051301 0.005730 0.000000 0.000000 0.000000
# 3 -0.019483 0.005730 0.035817 0.000000 0.000000 0.000000
# 4 0.000000 0.000000 0.000000 0.040970 0.000000 0.000000
# 5 0.000000 0.000000 0.000000 0.000000 0.041073 0.000000
# 6 0.000000 0.000000 0.000000 0.000000 0.000000 0.043312
#
#
# Mechanical properties :
#
#
# Convention : Reuss Voigt Hill
#
# Bulk Modulus (GPa) = 26.23999 60.69398 43.46699
# Shear Modulus (GPa) = 15.30800 20.73042 18.01921
#
# Velocity S-wave (km/s) = 2.99174 3.48152 3.24588
# Velocity P-wave (km/s) = 5.22268 7.18671 6.28193
#
# Compressibility (1/GPa) = 0.03810976
#
# Stress axis : x y z
#
# Youngs Moduli (GPa) = 38.13772 19.49283 27.91959
#
# Poissons Ratio (x) = 0.46514 0.54395
# Poissons Ratio (y) = 0.91004 -0.15998
# Poissons Ratio (z) = 0.74303 -0.11170
#
# Static dielectric constant tensor:
#      x y z
#    x 1.622500 0.000000 0.000000 
#    y 0.000000 1.567830 0.000000 
#    z 0.000000 0.000000 1.540270 
# 
# From -- ./inp_files/26206.got.cif
#   From: 2010.05.17/outbox.cif.g08.bks.cpg/sg59_14_cif.got.tgz:26206.got - 2010.06.03 14:40:33.
