data_PCOD9449254
_publ_section_title
;
Structure prediction by ZEFSAII (Michael W. Deem and Ramdas Pophale) SiO2 
 PCOD9449254
Probable space group: P M M N
;
_chemical_formula_sum "Si O2"
_cell_formula_units_Z 64
_cell_length_a 29.092980
_cell_length_b 12.949360
_cell_length_c 7.646092
_cell_angle_alpha 90.000000
_cell_angle_beta 90.000000
_cell_angle_gamma 90.000000
_cell_volume 2880.554075
_symmetry_space_group_name_H-M "P M M N"
_symmetry_group_IT_number 59
_space_group.IT_coordinate_system_code '2'
_symmetry_cell_setting 'orthorhombic'
loop_
_space_group_symop_operation_xyz
x,y,z
1/2-x,1/2-y,z
1/2+x,-y,-z
-x,1/2+y,-z
-x,-y,-z
1/2+x,1/2+y,-z
1/2-x,y,z
x,1/2-y,z
loop_
_atom_site_type_symbol
_atom_site_label
_atom_site_fract_x
_atom_site_fract_y
_atom_site_fract_z
Si Si1 0.303442 0.635590 0.297418
Si Si2 0.800949 0.586976 0.828722
Si Si3 0.538147 0.367157 0.384241
Si Si4 0.606558 0.643472 0.641746
Si Si5 0.517545 0.437499 0.771116
Si Si6 0.065119 0.088155 0.004580
Si Si7 0.130649 0.958408 0.578486
Si Si8 0.160230 0.132841 0.808899
O O1 0.250000 0.633036 0.356919
O O2 0.311802 0.750000 0.223564
O O3 0.308593 0.536975 0.171349
O O4 0.338868 0.612034 0.452646
O O5 0.750000 0.608734 0.761394
O O6 0.840970 0.634202 0.709897
O O7 0.806808 0.625923 0.024649
O O8 0.525743 0.250000 0.336447
O O9 0.533009 0.378358 0.596786
O O10 0.507052 0.456377 0.297698
O O11 0.591146 0.391248 0.331310
O O12 0.597892 0.750000 0.543968
O O13 0.576713 0.644456 0.815488
O O14 0.599741 0.542266 0.528622
O O15 0.555909 0.473715 0.912405
O O16 0.478574 0.383203 0.888385
O O17 0.109482 0.108927 0.886598
O O18 0.165085 0.035769 0.680013
O O19 0.163466 0.250000 0.739292
#
# Coordination Sequence:
#
# PCOD9449254 Si02
#       8
#     8   8   8   8   8   8   8   8
#     4   9  19  38  65  89 111 151 196 234 285 342
#     4   9  19  36  59  87 119 147 186 241 282 337
#     4  11  23  40  59  83 113 153 189 234 297 342
#     4  10  20  34  59  85 111 153 193 229 281 339
#     4  10  22  40  59  84 113 143 193 246 279 344
#     4  10  19  38  59  78 115 144 188 240 280 326
#     4  11  21  40  56  82 124 149 190 240 280 340
#     4  11  23  37  59  85 117 158 193 231 289 346
#
# _framework density 22.217949000000001
#
# number of rings (size 3 to 8) (size 9 to 14) (size 15 to 20)
#    0.000    1.875    2.500    2.250    0.000    3.500 
#    0.000    3.125    0.000    3.750    0.000    0.000 
#    0.000    0.000    0.000    0.000    0.000    0.000 
#
# Total GULP energy -356914.668330 kJ/mol
# GULP energy per Si atom -5576.791693 kJ/mol
# Density = 2.216738 g / cm^3
# Si number density = 22.217949 Si / 1000 Ang^3
#
#
#
# Elastic Constant Matrix: (Units=GPa)
#
#
# Indices 1 2 3 4 5 6 
#
# 1 65.4291 18.9961 -8.6930 0.0000 0.0000 0.0000
# 2 18.9961 116.3901 -0.4634 0.0000 0.0000 0.0000
# 3 -8.6930 -0.4634 41.2567 0.0000 0.0000 0.0000
# 4 0.0000 0.0000 0.0000 -52.6405 0.0000 0.0000
# 5 0.0000 0.0000 0.0000 0.0000 25.0840 0.0000
# 6 0.0000 0.0000 0.0000 0.0000 0.0000 -12.6465
#
#
#
# Elastic Compliance Matrix: (Units=1/GPa)
#
#
# Indices 1 2 3 4 5 6 
#
# 1 0.016521 -0.002683 0.003451 0.000000 0.000000 0.000000
# 2 -0.002683 0.009028 -0.000464 0.000000 0.000000 0.000000
# 3 0.003451 -0.000464 0.024960 0.000000 0.000000 0.000000
# 4 0.000000 0.000000 0.000000 -0.018997 0.000000 0.000000
# 5 0.000000 0.000000 0.000000 0.000000 0.039866 0.000000
# 6 0.000000 0.000000 0.000000 0.000000 0.000000 -0.079073
#
#
# Mechanical properties :
#
#
# Convention : Reuss Voigt Hill
#
# Bulk Modulus (GPa) = 19.56252 26.97281 23.26766
# Shear Modulus (GPa) = 572.34117 6.17514 289.25816
#
# Velocity S-wave (km/s) = 16.06743 1.66895 11.42251
# Velocity P-wave (km/s) = 18.78937 3.98501 13.58162
#
# Compressibility (1/GPa) = 0.05111817
#
# Stress axis : x y z
#
# Youngs Moduli (GPa) = 60.52874 110.76906 40.06339
#
# Poissons Ratio (x) = 0.29716 -0.13826
# Poissons Ratio (y) = 0.16238 0.01858
# Poissons Ratio (z) = -0.20888 0.05138
#
# Static dielectric constant tensor:
#      x y z
#    x 1.839130 0.000000 0.000000 
#    y 0.000000 1.842060 0.000000 
#    z 0.000000 0.000000 1.860780 
# 
# From -- ./inp_files/13218.got.cif
#   From: 2010.05.17/outbox.cif.g08.bks.cpg/sg59_7_cif.got.tgz:13218.got - 2010.06.03 14:40:33.
