data_PCOD9449063
_publ_section_title
;
Structure prediction by ZEFSAII (Michael W. Deem and Ramdas Pophale) SiO2 
 PCOD9449063
Probable space group: P M M N
;
_chemical_formula_sum "Si O2"
_cell_formula_units_Z 48
_cell_length_a 18.194398
_cell_length_b 7.466838
_cell_length_c 15.357161
_cell_angle_alpha 90.000000
_cell_angle_beta 90.000000
_cell_angle_gamma 90.000000
_cell_volume 2086.341308
_symmetry_space_group_name_H-M "P M M N"
_symmetry_group_IT_number 59
_space_group.IT_coordinate_system_code '2'
_symmetry_cell_setting 'orthorhombic'
loop_
_space_group_symop_operation_xyz
x,y,z
1/2-x,1/2-y,z
1/2+x,-y,-z
-x,1/2+y,-z
-x,-y,-z
1/2+x,1/2+y,-z
1/2-x,y,z
x,1/2-y,z
loop_
_atom_site_type_symbol
_atom_site_label
_atom_site_fract_x
_atom_site_fract_y
_atom_site_fract_z
Si Si1 0.560835 0.540720 0.125032
Si Si2 0.894842 0.952935 0.309116
Si Si3 0.448812 0.455430 0.377395
Si Si4 0.169576 0.966850 0.234811
Si Si5 0.401559 0.966044 0.060602
Si Si6 0.831206 0.969756 0.483807
O O1 0.547314 0.750000 0.144822
O O2 0.594406 0.463081 0.213618
O O3 0.481174 0.467356 0.095840
O O4 0.609252 0.527781 0.038074
O O5 0.867557 0.750000 0.295668
O O6 0.844401 0.031403 0.384921
O O7 0.976099 0.949035 0.352149
O O8 0.468063 0.250000 0.397553
O O9 0.395164 0.460847 0.294290
O O10 0.398346 0.529642 0.455188
O O11 0.250000 0.025707 0.264419
O O12 0.166102 0.750000 0.239914
O O13 0.156061 0.017007 0.134431
O O14 0.404122 0.750000 0.056908
O O15 0.750000 0.023268 0.514726
O O16 0.833503 0.750000 0.485220
#
# Coordination Sequence:
#
# PCOD9449063 Si02
#       6
#     8   8   8   8   8   8
#     4   9  17  30  50  75 100 129 168 213 254 297
#     4  10  19  35  57  78 104 138 180 221 257 313
#     4  11  21  33  53  81 110 137 173 221 268 312
#     4  10  20  35  54  76 106 144 180 214 262 322
#     4   9  17  31  49  72 102 133 168 210 254 306
#     4   9  19  35  54  77 106 140 174 214 267 318
#
# _framework density 23.006781
#
# number of rings (size 3 to 8) (size 9 to 14) (size 15 to 20)
#    0.000    2.333    1.667    1.500    0.000    2.333 
#    0.000    1.667    0.000    3.500    0.000    0.000 
#    0.000    0.000    0.000    0.000    0.000    0.000 
#
# Total GULP energy -268038.597731 kJ/mol
# GULP energy per Si atom -5584.137453 kJ/mol
# Density = 2.295442 g / cm^3
# Si number density = 23.006781 Si / 1000 Ang^3
#
#
#
# Elastic Constant Matrix: (Units=GPa)
#
#
# Indices 1 2 3 4 5 6 
#
# 1 39.4490 -6.7549 7.6760 0.0000 0.0000 0.0000
# 2 -6.7549 69.7571 -5.0780 0.0000 0.0000 0.0000
# 3 7.6760 -5.0780 150.1997 0.0000 0.0000 0.0000
# 4 0.0000 0.0000 0.0000 5.7992 0.0000 0.0000
# 5 0.0000 0.0000 0.0000 0.0000 -11.3579 0.0000
# 6 0.0000 0.0000 0.0000 0.0000 0.0000 322.8070
#
#
#
# Elastic Compliance Matrix: (Units=1/GPa)
#
#
# Indices 1 2 3 4 5 6 
#
# 1 0.026008 0.002428 -0.001247 0.000000 0.000000 0.000000
# 2 0.002428 0.014597 0.000369 0.000000 0.000000 0.000000
# 3 -0.001247 0.000369 0.006734 0.000000 0.000000 0.000000
# 4 0.000000 0.000000 0.000000 0.172439 0.000000 0.000000
# 5 0.000000 0.000000 0.000000 0.000000 -0.088044 0.000000
# 6 0.000000 0.000000 0.000000 0.000000 0.000000 0.003098
#
#
# Mechanical properties :
#
#
# Convention : Reuss Voigt Hill
#
# Bulk Modulus (GPa) = 19.82592 27.89913 23.86253
# Shear Modulus (GPa) = 33.65997 81.02048 57.34023
#
# Velocity S-wave (km/s) = 3.82913 5.94074 4.99773
# Velocity P-wave (km/s) = 5.30903 7.69476 6.61041
#
# Compressibility (1/GPa) = 0.05043902
#
# Stress axis : x y z
#
# Youngs Moduli (GPa) = 38.45045 68.50518 148.49959
#
# Poissons Ratio (x) = -0.16631 0.18519
# Poissons Ratio (y) = -0.09334 -0.05486
# Poissons Ratio (z) = 0.04795 -0.02531
#
# Static dielectric constant tensor:
#      x y z
#    x 1.806840 0.000000 0.000000 
#    y 0.000000 1.902390 0.000000 
#    z 0.000000 0.000000 1.886930 
# 
# From -- ./inp_files/20329.got.cif
#   From: 2010.05.17/outbox.cif.g08.bks.cpg/sg59_11_cif.got.tgz:20329.got - 2010.06.03 14:40:33.
