data_PCOD9449883
_publ_section_title
;
Structure prediction by ZEFSAII (Michael W. Deem and Ramdas Pophale) SiO2 
 PCOD9449883
Probable space group: P M M N
;
_chemical_formula_sum "Si O2"
_cell_formula_units_Z 64
_cell_length_a 7.568467
_cell_length_b 25.950992
_cell_length_c 12.931872
_cell_angle_alpha 90.000000
_cell_angle_beta 90.000000
_cell_angle_gamma 90.000000
_cell_volume 2539.938978
_symmetry_space_group_name_H-M "P M M N"
_symmetry_group_IT_number 59
_space_group.IT_coordinate_system_code '2'
_symmetry_cell_setting 'orthorhombic'
loop_
_space_group_symop_operation_xyz
x,y,z
1/2-x,1/2-y,z
1/2+x,-y,-z
-x,1/2+y,-z
-x,-y,-z
1/2+x,1/2+y,-z
1/2-x,y,z
x,1/2-y,z
loop_
_atom_site_type_symbol
_atom_site_label
_atom_site_fract_x
_atom_site_fract_y
_atom_site_fract_z
Si Si1 0.965086 0.585491 0.035642
Si Si2 0.033467 0.470179 0.754048
Si Si3 0.047653 0.806199 0.769864
Si Si4 0.460953 0.442574 0.533188
Si Si5 0.955246 0.807471 0.104202
Si Si6 0.452944 0.156398 0.440293
Si Si7 0.950694 0.311665 0.666128
Si Si8 0.455128 0.920441 0.808230
O O1 0.750000 0.585218 0.033992
O O2 0.021946 0.555985 0.138965
O O3 0.030618 0.644774 0.041661
O O4 0.032352 0.563357 0.928301
O O5 0.250000 0.471265 0.753692
O O6 0.977750 0.438792 0.652166
O O7 0.970594 0.529676 0.748978
O O8 0.250000 0.805923 0.807690
O O9 0.969429 0.750000 0.800027
O O10 0.967538 0.862437 0.798795
O O11 0.048467 0.809648 0.644667
O O12 0.500000 0.500000 0.500000
O O13 0.250000 0.434518 0.533904
O O14 0.531974 0.400831 0.452478
O O15 0.750000 0.803435 0.075809
O O16 0.033780 0.750000 0.093558
O O17 0.962572 0.824915 0.224477
O O18 0.250000 0.155706 0.406308
O O19 0.459092 0.174223 0.558921
O O20 0.750000 0.330668 0.664654
O O21 0.946761 0.250000 0.667466
O O22 0.250000 0.915420 0.778514
#
# Coordination Sequence:
#
# PCOD9449883 Si02
#       8
#     8   8   8   8   8   8   8   8
#     4  10  20  35  56  80 107 141 181 227 281 338
#     4   9  18  35  57  79 108 145 180 220 274 334
#     4  10  22  40  59  79 108 149 193 234 280 337
#     4  10  21  37  57  82 112 146 183 221 268 327
#     4   9  18  33  52  75 106 143 180 220 271 332
#     4  11  22  35  55  83 112 143 181 225 273 327
#     4  10  20  33  51  77 108 142 179 219 266 322
#     4  10  21  37  57  79 104 138 182 231 282 331
#
# _framework density 25.197455999999999
#
# number of rings (size 3 to 8) (size 9 to 14) (size 15 to 20)
#    0.000    2.125    0.000    3.000    0.000    8.000 
#    0.000    1.250    0.000    0.000    0.000    0.000 
#    0.000    0.000    0.000    0.000    0.000    0.000 
#
# Total GULP energy -357632.928431 kJ/mol
# GULP energy per Si atom -5588.014507 kJ/mol
# Density = 2.514011 g / cm^3
# Si number density = 25.197456 Si / 1000 Ang^3
#
#
#
# Elastic Constant Matrix: (Units=GPa)
#
#
# Indices 1 2 3 4 5 6 
#
# 1 71.1648 13.9754 -0.2902 0.0000 0.0000 0.0000
# 2 13.9754 121.1455 6.3256 0.0000 0.0000 0.0000
# 3 -0.2902 6.3256 70.7359 0.0000 0.0000 0.0000
# 4 0.0000 0.0000 0.0000 36.1106 0.0000 0.0000
# 5 0.0000 0.0000 0.0000 0.0000 18.5430 0.0000
# 6 0.0000 0.0000 0.0000 0.0000 0.0000 2.9427
#
#
#
# Elastic Compliance Matrix: (Units=1/GPa)
#
#
# Indices 1 2 3 4 5 6 
#
# 1 0.014381 -0.001670 0.000208 0.000000 0.000000 0.000000
# 2 -0.001670 0.008487 -0.000766 0.000000 0.000000 0.000000
# 3 0.000208 -0.000766 0.014206 0.000000 0.000000 0.000000
# 4 0.000000 0.000000 0.000000 0.027693 0.000000 0.000000
# 5 0.000000 0.000000 0.000000 0.000000 0.053929 0.000000
# 6 0.000000 0.000000 0.000000 0.000000 0.000000 0.339828
#
#
# Mechanical properties :
#
#
# Convention : Reuss Voigt Hill
#
# Bulk Modulus (GPa) = 30.65645 33.67421 32.16533
# Shear Modulus (GPa) = 10.55182 27.72160 19.13671
#
# Velocity S-wave (km/s) = 2.04860 3.32049 2.75884
# Velocity P-wave (km/s) = 4.21765 5.30038 4.78970
#
# Compressibility (1/GPa) = 0.03261956
#
# Stress axis : x y z
#
# Youngs Moduli (GPa) = 69.53785 117.82507 70.39065
#
# Poissons Ratio (x) = 0.19675 -0.01466
# Poissons Ratio (y) = 0.11612 0.05391
# Poissons Ratio (z) = -0.01449 0.09023
#
# Static dielectric constant tensor:
#      x y z
#    x 1.937370 0.000000 0.000000 
#    y 0.000000 2.058880 0.000000 
#    z 0.000000 0.000000 1.979330 
# 
# From -- ./inp_files/21608.got.cif
#   From: 2010.05.17/outbox.cif.g08.bks.cpg/sg59_11_cif.got.tgz:21608.got - 2010.06.03 14:40:33.
