data_PCOD9449190
_publ_section_title
;
Structure prediction by ZEFSAII (Michael W. Deem and Ramdas Pophale) SiO2 
 PCOD9449190
Probable space group: P M M N
;
_chemical_formula_sum "Si O2"
_cell_formula_units_Z 48
_cell_length_a 14.990281
_cell_length_b 8.730611
_cell_length_c 20.201821
_cell_angle_alpha 90.000000
_cell_angle_beta 90.000000
_cell_angle_gamma 90.000000
_cell_volume 2643.899428
_symmetry_space_group_name_H-M "P M M N"
_symmetry_group_IT_number 59
_space_group.IT_coordinate_system_code '2'
_symmetry_cell_setting 'orthorhombic'
loop_
_space_group_symop_operation_xyz
x,y,z
1/2-x,1/2-y,z
1/2+x,-y,-z
-x,1/2+y,-z
-x,-y,-z
1/2+x,1/2+y,-z
1/2-x,y,z
x,1/2-y,z
loop_
_atom_site_type_symbol
_atom_site_label
_atom_site_fract_x
_atom_site_fract_y
_atom_site_fract_z
Si Si1 0.146159 0.433073 0.913996
Si Si2 0.445160 0.935346 0.562110
Si Si3 0.855450 0.432312 0.942489
Si Si4 0.750000 0.436125 0.477521
Si Si5 0.487612 0.066407 0.166252
Si Si6 0.750000 0.433802 0.632007
Si Si7 0.434107 0.064925 0.314208
O O1 0.250000 0.473156 0.902844
O O2 0.137984 0.250000 0.915551
O O3 0.081471 0.501690 0.859136
O O4 0.120203 0.498800 0.985989
O O5 0.446584 0.750000 0.558374
O O6 0.342283 0.986329 0.556084
O O7 0.494444 0.980985 0.629687
O O8 0.500000 0.000000 0.500000
O O9 0.750000 0.462249 0.932127
O O10 0.869458 0.250000 0.943787
O O11 0.913465 0.505551 0.884679
O O12 0.750000 0.250000 0.476381
O O13 0.750000 0.482376 0.554716
O O14 0.489564 0.250000 0.163830
O O15 0.464302 0.018296 0.240916
O O16 0.750000 0.250000 0.633910
O O17 0.661283 0.496272 0.666530
O O18 0.427321 0.250000 0.315292
#
# Coordination Sequence:
#
# PCOD9449190 Si02
#       7
#     8   8   8   4   8   4   8
#     4  10  21  39  62  85 111 147 189 236 286 334
#     4  10  19  36  58  82 112 145 187 232 278 332
#     4  10  21  37  59  87 115 147 189 235 282 336
#     4   9  18  33  57  85 109 140 183 234 283 329
#     4  11  23  38  56  82 116 154 191 231 282 338
#     4  11  21  35  59  87 113 148 185 230 285 337
#     4  10  23  39  56  83 117 153 187 229 283 340
#
# _framework density 18.155002
#
# number of rings (size 3 to 8) (size 9 to 14) (size 15 to 20)
#    0.000    1.833    1.667    2.250    1.167    3.333 
#    1.500    0.417    0.000    0.000    0.000    0.000 
#    0.000    0.000    0.000    0.000    0.000    0.000 
#
# Total GULP energy -268153.283552 kJ/mol
# GULP energy per Si atom -5586.526741 kJ/mol
# Density = 1.811368 g / cm^3
# Si number density = 18.155002 Si / 1000 Ang^3
#
#
#
# Elastic Constant Matrix: (Units=GPa)
#
#
# Indices 1 2 3 4 5 6 
#
# 1 165.9094 43.2839 117.8306 0.0000 0.0000 0.0000
# 2 43.2839 31.7299 45.0425 0.0000 0.0000 0.0000
# 3 117.8306 45.0425 175.5194 0.0000 0.0000 0.0000
# 4 0.0000 0.0000 0.0000 25.7556 0.0000 0.0000
# 5 0.0000 0.0000 0.0000 0.0000 54.9915 0.0000
# 6 0.0000 0.0000 0.0000 0.0000 0.0000 23.5619
#
#
#
# Elastic Compliance Matrix: (Units=1/GPa)
#
#
# Indices 1 2 3 4 5 6 
#
# 1 0.012760 -0.008253 -0.006448 0.000000 0.000000 0.000000
# 2 -0.008253 0.054914 -0.008552 0.000000 0.000000 0.000000
# 3 -0.006448 -0.008552 0.012221 0.000000 0.000000 0.000000
# 4 0.000000 0.000000 0.000000 0.038827 0.000000 0.000000
# 5 0.000000 0.000000 0.000000 0.000000 0.018185 0.000000
# 6 0.000000 0.000000 0.000000 0.000000 0.000000 0.042441
#
#
# Mechanical properties :
#
#
# Convention : Reuss Voigt Hill
#
# Bulk Modulus (GPa) = 29.95012 87.27476 58.61244
# Shear Modulus (GPa) = 21.09857 31.99526 26.54691
#
# Velocity S-wave (km/s) = 3.41271 4.20258 3.82807
# Velocity P-wave (km/s) = 5.66229 8.46908 7.20370
#
# Compressibility (1/GPa) = 0.03338885
#
# Stress axis : x y z
#
# Youngs Moduli (GPa) = 78.36932 18.21037 81.82674
#
# Poissons Ratio (x) = 0.15028 0.52765
# Poissons Ratio (y) = 0.64676 0.69978
# Poissons Ratio (z) = 0.50535 0.15573
#
# Static dielectric constant tensor:
#      x y z
#    x 1.617910 0.000000 0.000000 
#    y 0.000000 1.610050 0.000000 
#    z 0.000000 0.000000 1.592070 
# 
# From -- ./inp_files/27398.got.cif
#   From: 2010.05.17/outbox.cif.g08.bks.cpg/sg59_14_cif.got.tgz:27398.got - 2010.06.03 14:40:33.
