data_PCOD9449753
_publ_section_title
;
Structure prediction by ZEFSAII (Michael W. Deem and Ramdas Pophale) SiO2 
 PCOD9449753
Probable space group: P M M N
;
_chemical_formula_sum "Si O2"
_cell_formula_units_Z 64
_cell_length_a 9.178994
_cell_length_b 22.806645
_cell_length_c 16.599268
_cell_angle_alpha 90.000000
_cell_angle_beta 90.000000
_cell_angle_gamma 90.000000
_cell_volume 3474.924918
_symmetry_space_group_name_H-M "P M M N"
_symmetry_group_IT_number 59
_space_group.IT_coordinate_system_code '2'
_symmetry_cell_setting 'orthorhombic'
loop_
_space_group_symop_operation_xyz
x,y,z
1/2-x,1/2-y,z
1/2+x,-y,-z
-x,1/2+y,-z
-x,-y,-z
1/2+x,1/2+y,-z
1/2-x,y,z
x,1/2-y,z
loop_
_atom_site_type_symbol
_atom_site_label
_atom_site_fract_x
_atom_site_fract_y
_atom_site_fract_z
Si Si1 0.922806 0.039534 0.387680
Si Si2 0.423756 0.416258 0.228092
Si Si3 0.587698 0.819551 0.012732
Si Si4 0.077111 0.504311 0.086292
Si Si5 0.917773 0.179635 0.145761
Si Si6 0.423096 0.409785 0.542951
Si Si7 0.924889 0.319610 0.660816
Si Si8 0.076912 0.631616 0.161610
O O1 0.750000 0.050591 0.385086
O O2 0.999135 0.055380 0.304462
O O3 0.996558 0.077495 0.458674
O O4 0.944449 0.970698 0.407852
O O5 0.250000 0.417457 0.237573
O O6 0.463063 0.452979 0.148079
O O7 0.483887 0.351410 0.212313
O O8 0.750000 0.845727 0.004438
O O9 0.600458 0.750000 0.003770
O O10 0.517567 0.832105 0.098468
O O11 0.481300 0.838706 0.941274
O O12 0.250000 0.501612 0.071830
O O13 0.048848 0.564613 0.135176
O O14 0.000000 0.500000 0.000000
O O15 0.750000 0.161510 0.153455
O O16 0.924617 0.250000 0.151363
O O17 0.250000 0.401679 0.531136
O O18 0.492054 0.356009 0.592157
O O19 0.750000 0.324673 0.648774
O O20 0.960279 0.250000 0.662609
O O21 0.958512 0.349872 0.747213
O O22 0.250000 0.643093 0.150474
#
# Coordination Sequence:
#
# PCOD9449753 Si02
#       8
#     8   8   8   8   8   8   8   8
#     4  10  21  38  62  89 115 146 184 227 278 337
#     4  11  22  37  58  84 113 143 180 227 277 327
#     4  10  20  33  50  74 104 139 183 233 278 319
#     4  10  22  36  52  78 112 150 188 232 283 331
#     4  10  21  37  56  77 104 140 180 222 270 325
#     4  10  21  38  61  88 116 147 184 229 280 334
#     4  10  21  37  58  84 116 155 196 240 291 348
#     4  10  20  35  54  76 106 147 193 233 275 333
#
# _framework density 18.417663000000001
#
# number of rings (size 3 to 8) (size 9 to 14) (size 15 to 20)
#    0.000    1.875    0.000    3.750    0.000    8.750 
#    0.000    0.625    0.000    3.750    0.000    0.000 
#    0.000    0.000    0.000    0.000    0.000    0.000 
#
# Total GULP energy -357342.374695 kJ/mol
# GULP energy per Si atom -5583.474605 kJ/mol
# Density = 1.837574 g / cm^3
# Si number density = 18.417663 Si / 1000 Ang^3
#
#
#
# Elastic Constant Matrix: (Units=GPa)
#
#
# Indices 1 2 3 4 5 6 
#
# 1 81.9419 55.9446 68.2464 0.0000 0.0000 0.0000
# 2 55.9446 75.5256 65.5602 0.0000 0.0000 0.0000
# 3 68.2464 65.5602 125.3905 0.0000 0.0000 0.0000
# 4 0.0000 0.0000 0.0000 29.2804 0.0000 0.0000
# 5 0.0000 0.0000 0.0000 0.0000 33.5426 0.0000
# 6 0.0000 0.0000 0.0000 0.0000 0.0000 26.4220
#
#
#
# Elastic Compliance Matrix: (Units=1/GPa)
#
#
# Indices 1 2 3 4 5 6 
#
# 1 0.028699 -0.014098 -0.008249 0.000000 0.000000 0.000000
# 2 -0.014098 0.031169 -0.008624 0.000000 0.000000 0.000000
# 3 -0.008249 -0.008624 0.016974 0.000000 0.000000 0.000000
# 4 0.000000 0.000000 0.000000 0.034153 0.000000 0.000000
# 5 0.000000 0.000000 0.000000 0.000000 0.029813 0.000000
# 6 0.000000 0.000000 0.000000 0.000000 0.000000 0.037847
#
#
# Mechanical properties :
#
#
# Convention : Reuss Voigt Hill
#
# Bulk Modulus (GPa) = 67.11066 73.59559 70.35313
# Shear Modulus (GPa) = 20.36135 24.05613 22.20874
#
# Velocity S-wave (km/s) = 3.32856 3.61798 3.47629
# Velocity P-wave (km/s) = 7.16169 7.58281 7.37526
#
# Compressibility (1/GPa) = 0.01490076
#
# Stress axis : x y z
#
# Youngs Moduli (GPa) = 34.84395 32.08299 58.91473
#
# Poissons Ratio (x) = 0.45231 0.48600
# Poissons Ratio (y) = 0.49123 0.50806
# Poissons Ratio (z) = 0.28743 0.27667
#
# Static dielectric constant tensor:
#      x y z
#    x 1.620920 0.000000 0.000000 
#    y 0.000000 1.691180 0.000000 
#    z 0.000000 0.000000 1.602740 
# 
# From -- ./inp_files/21457.got.cif
#   From: 2010.05.17/outbox.cif.g08.bks.cpg/sg59_11_cif.got.tgz:21457.got - 2010.06.03 14:40:33.
