data_PCOD9449144
_publ_section_title
;
Structure prediction by ZEFSAII (Michael W. Deem and Ramdas Pophale) SiO2 
 PCOD9449144
Probable space group: P M M N
;
_chemical_formula_sum "Si O2"
_cell_formula_units_Z 48
_cell_length_a 15.900711
_cell_length_b 9.234019
_cell_length_c 16.787837
_cell_angle_alpha 90.000000
_cell_angle_beta 90.000000
_cell_angle_gamma 90.000000
_cell_volume 2464.915591
_symmetry_space_group_name_H-M "P M M N"
_symmetry_group_IT_number 59
_space_group.IT_coordinate_system_code '2'
_symmetry_cell_setting 'orthorhombic'
loop_
_space_group_symop_operation_xyz
x,y,z
1/2-x,1/2-y,z
1/2+x,-y,-z
-x,1/2+y,-z
-x,-y,-z
1/2+x,1/2+y,-z
1/2-x,y,z
x,1/2-y,z
loop_
_atom_site_type_symbol
_atom_site_label
_atom_site_fract_x
_atom_site_fract_y
_atom_site_fract_z
Si Si1 0.420471 0.585307 0.268640
Si Si2 0.079902 0.575386 0.457487
Si Si3 0.750000 0.574558 0.291791
Si Si4 0.901380 0.581495 0.180493
Si Si5 0.851495 0.079669 0.024442
Si Si6 0.250000 0.426835 0.522221
Si Si7 0.650210 0.910153 0.868885
O O1 0.388355 0.750000 0.259542
O O2 0.427485 0.555614 0.362122
O O3 0.510864 0.576493 0.226208
O O4 0.364939 0.477022 0.217504
O O5 0.081389 0.750000 0.472948
O O6 0.165951 0.497777 0.485351
O O7 0.000000 0.500000 0.500000
O O8 0.750000 0.750000 0.291942
O O9 0.831096 0.526870 0.242353
O O10 0.750000 0.534259 0.383893
O O11 0.882816 0.750000 0.161316
O O12 0.896182 0.492823 0.099518
O O13 0.750000 0.056106 0.033584
O O14 0.866121 0.250000 0.022499
O O15 0.880513 0.010299 0.941084
O O16 0.250000 0.250000 0.513791
O O17 0.750000 0.900510 0.880130
O O18 0.612827 0.750000 0.874753
#
# Coordination Sequence:
#
# PCOD9449144 Si02
#       7
#     8   8   4   8   8   4   8
#     4  10  23  40  60  87 120 158 202 248 304 363
#     4  11  24  44  67  95 130 169 214 266 323 385
#     4   9  18  35  61  88 117 154 197 243 296 361
#     4  10  19  35  60  86 114 154 199 243 291 352
#     4  10  20  35  56  85 120 156 193 240 301 356
#     4  11  23  41  67  96 127 168 213 261 324 391
#     4  10  22  39  60  85 114 154 205 251 296 354
#
# _framework density 19.473282999999999
#
# number of rings (size 3 to 8) (size 9 to 14) (size 15 to 20)
#    0.000    1.833    0.833    2.750    1.167    7.000 
#    0.000    3.333    0.000    0.000    0.000    0.000 
#    0.000    0.000    0.000    0.000    0.000    0.000 
#
# Total GULP energy -268062.733506 kJ/mol
# GULP energy per Si atom -5584.640281 kJ/mol
# Density = 1.942896 g / cm^3
# Si number density = 19.473283 Si / 1000 Ang^3
#
#
#
# Elastic Constant Matrix: (Units=GPa)
#
#
# Indices 1 2 3 4 5 6 
#
# 1 66.3630 54.0404 35.4328 0.0000 0.0000 0.0000
# 2 54.0404 112.6036 86.1431 0.0000 0.0000 0.0000
# 3 35.4328 86.1431 147.1351 0.0000 0.0000 0.0000
# 4 0.0000 0.0000 0.0000 37.2131 0.0000 0.0000
# 5 0.0000 0.0000 0.0000 0.0000 28.3076 0.0000
# 6 0.0000 0.0000 0.0000 0.0000 0.0000 12.6245
#
#
#
# Elastic Compliance Matrix: (Units=1/GPa)
#
#
# Indices 1 2 3 4 5 6 
#
# 1 0.025001 -0.013390 0.001818 0.000000 0.000000 0.000000
# 2 -0.013390 0.023256 -0.010391 0.000000 0.000000 0.000000
# 3 0.001818 -0.010391 0.012442 0.000000 0.000000 0.000000
# 4 0.000000 0.000000 0.000000 0.026872 0.000000 0.000000
# 5 0.000000 0.000000 0.000000 0.000000 0.035326 0.000000
# 6 0.000000 0.000000 0.000000 0.000000 0.000000 0.079211
#
#
# Mechanical properties :
#
#
# Convention : Reuss Voigt Hill
#
# Bulk Modulus (GPa) = 59.61362 75.25937 67.43649
# Shear Modulus (GPa) = 19.87082 25.66139 22.76610
#
# Velocity S-wave (km/s) = 3.19786 3.63405 3.42291
# Velocity P-wave (km/s) = 6.65692 7.50599 7.09417
#
# Compressibility (1/GPa) = 0.01677469
#
# Stress axis : x y z
#
# Youngs Moduli (GPa) = 39.99836 42.99966 80.37103
#
# Poissons Ratio (x) = 0.57575 -0.14615
# Poissons Ratio (y) = 0.53556 0.83515
# Poissons Ratio (z) = -0.07274 0.44682
#
# Static dielectric constant tensor:
#      x y z
#    x 1.769100 0.000000 0.000000 
#    y 0.000000 1.672250 0.000000 
#    z 0.000000 0.000000 1.640090 
# 
# From -- ./inp_files/23773.got.cif
#   From: 2010.05.17/outbox.cif.g08.bks.cpg/sg59_12_cif.got.tgz:23773.got - 2010.06.03 14:40:33.
