data_PCOD9449111
_publ_section_title
;
Structure prediction by ZEFSAII (Michael W. Deem and Ramdas Pophale) SiO2 
 PCOD9449111
Probable space group: P M M N
;
_chemical_formula_sum "Si O2"
_cell_formula_units_Z 64
_cell_length_a 7.761621
_cell_length_b 28.949004
_cell_length_c 13.419925
_cell_angle_alpha 90.000000
_cell_angle_beta 90.000000
_cell_angle_gamma 90.000000
_cell_volume 3015.339017
_symmetry_space_group_name_H-M "P M M N"
_symmetry_group_IT_number 59
_space_group.IT_coordinate_system_code '2'
_symmetry_cell_setting 'orthorhombic'
loop_
_space_group_symop_operation_xyz
x,y,z
1/2-x,1/2-y,z
1/2+x,-y,-z
-x,1/2+y,-z
-x,-y,-z
1/2+x,1/2+y,-z
1/2-x,y,z
x,1/2-y,z
loop_
_atom_site_type_symbol
_atom_site_label
_atom_site_fract_x
_atom_site_fract_y
_atom_site_fract_z
Si Si1 0.056129 0.551415 0.972913
Si Si2 0.949523 0.648972 0.026887
Si Si3 0.539982 0.641287 0.635363
Si Si4 0.460785 0.303170 0.172817
Si Si5 0.038943 0.133811 0.586449
Si Si6 0.544112 0.972563 0.398621
Si Si7 0.048649 0.449742 0.251690
Si Si8 0.461294 0.303614 0.771498
O O1 0.250000 0.557767 0.006870
O O2 0.043424 0.554849 0.853509
O O3 0.000000 0.500000 0.000000
O O4 0.955510 0.593639 0.022688
O O5 0.750000 0.663434 0.025906
O O6 0.022218 0.671577 0.126947
O O7 0.023660 0.668147 0.922916
O O8 0.750000 0.642735 0.633225
O O9 0.481019 0.675313 0.722581
O O10 0.482238 0.650282 0.523122
O O11 0.491434 0.589830 0.671240
O O12 0.250000 0.305648 0.174638
O O13 0.509313 0.250000 0.162640
O O14 0.250000 0.133606 0.586930
O O15 0.983997 0.080448 0.599063
O O16 0.982629 0.166881 0.675717
O O17 0.750000 0.971842 0.390378
O O18 0.500000 0.000000 0.500000
O O19 0.473631 0.001474 0.305541
O O20 0.250000 0.441612 0.230160
O O21 0.250000 0.304396 0.770832
O O22 0.513005 0.250000 0.768181
#
# Coordination Sequence:
#
# PCOD9449111 Si02
#       8
#     8   8   8   8   8   8   8   8
#     4  12  26  42  60  87 119 154 193 234 293 359
#     4  10  19  35  58  84 117 153 192 240 292 346
#     4   9  16  29  49  77 113 150 186 235 293 343
#     4   9  16  27  49  80 109 143 191 243 295 348
#     4   9  18  31  48  76 115 154 195 244 294 341
#     4  11  21  34  54  83 117 158 203 249 299 357
#     4  11  21  38  59  83 117 154 192 240 299 360
#     4   9  18  32  53  82 116 155 198 248 301 349
#
# _framework density 21.224810000000002
#
# number of rings (size 3 to 8) (size 9 to 14) (size 15 to 20)
#    0.000    2.000    2.500    2.250    1.750    2.000 
#    0.000    2.500    0.000    1.500    0.000    0.000 
#    0.000    1.000    0.000    0.000    0.000    0.000 
#
# Total GULP energy -357482.369168 kJ/mol
# GULP energy per Si atom -5585.662018 kJ/mol
# Density = 2.117650 g / cm^3
# Si number density = 21.224810 Si / 1000 Ang^3
#
#
#
# Elastic Constant Matrix: (Units=GPa)
#
#
# Indices 1 2 3 4 5 6 
#
# 1 30.0634 -6.5304 -1.9601 0.0000 0.0000 0.0000
# 2 -6.5304 157.4471 99.2512 0.0000 0.0000 0.0000
# 3 -1.9601 99.2512 163.4084 0.0000 0.0000 0.0000
# 4 0.0000 0.0000 0.0000 34.6902 0.0000 0.0000
# 5 0.0000 0.0000 0.0000 0.0000 11.0082 0.0000
# 6 0.0000 0.0000 0.0000 0.0000 0.0000 13.8783
#
#
#
# Elastic Compliance Matrix: (Units=1/GPa)
#
#
# Indices 1 2 3 4 5 6 
#
# 1 0.033618 0.001848 -0.000719 0.000000 0.000000 0.000000
# 2 0.001848 0.010393 -0.006291 0.000000 0.000000 0.000000
# 3 -0.000719 -0.006291 0.009932 0.000000 0.000000 0.000000
# 4 0.000000 0.000000 0.000000 0.028827 0.000000 0.000000
# 5 0.000000 0.000000 0.000000 0.000000 0.090841 0.000000
# 6 0.000000 0.000000 0.000000 0.000000 0.000000 0.072055
#
#
# Mechanical properties :
#
#
# Convention : Reuss Voigt Hill
#
# Bulk Modulus (GPa) = 22.92590 59.16001 41.04295
# Shear Modulus (GPa) = 18.48227 29.25920 23.87074
#
# Velocity S-wave (km/s) = 2.95411 3.71689 3.35724
# Velocity P-wave (km/s) = 4.73926 6.80837 5.86577
#
# Compressibility (1/GPa) = 0.04361880
#
# Stress axis : x y z
#
# Youngs Moduli (GPa) = 29.74639 96.21453 100.68646
#
# Poissons Ratio (x) = -0.17776 0.07238
# Poissons Ratio (y) = -0.05496 0.63338
# Poissons Ratio (z) = 0.02138 0.60525
#
# Static dielectric constant tensor:
#      x y z
#    x 1.735090 0.000000 0.000000 
#    y 0.000000 1.688800 0.000000 
#    z 0.000000 0.000000 1.735700 
# 
# From -- ./inp_files/15038.got.cif
#   From: 2010.05.17/outbox.cif.g08.bks.cpg/sg59_8_cif.got.tgz:15038.got - 2010.06.03 14:40:33.
