data_PCOD9449837
_publ_section_title
;
Structure prediction by ZEFSAII (Michael W. Deem and Ramdas Pophale) SiO2 
 PCOD9449837
Probable space group: P M M N
;
_chemical_formula_sum "Si O2"
_cell_formula_units_Z 48
_cell_length_a 7.802463
_cell_length_b 9.451957
_cell_length_c 31.658821
_cell_angle_alpha 90.000000
_cell_angle_beta 90.000000
_cell_angle_gamma 90.000000
_cell_volume 2334.791978
_symmetry_space_group_name_H-M "P M M N"
_symmetry_group_IT_number 59
_space_group.IT_coordinate_system_code '2'
_symmetry_cell_setting 'orthorhombic'
loop_
_space_group_symop_operation_xyz
x,y,z
1/2-x,1/2-y,z
1/2+x,-y,-z
-x,1/2+y,-z
-x,-y,-z
1/2+x,1/2+y,-z
1/2-x,y,z
x,1/2-y,z
loop_
_atom_site_type_symbol
_atom_site_label
_atom_site_fract_x
_atom_site_fract_y
_atom_site_fract_z
Si Si1 0.956766 0.411630 0.958335
Si Si2 0.457092 0.087549 0.283591
Si Si3 0.459166 0.412845 0.378789
Si Si4 0.543381 0.410091 0.541237
Si Si5 0.453766 0.090040 0.121329
Si Si6 0.047305 0.089971 0.797724
O O1 0.750000 0.404490 0.955362
O O2 0.020744 0.250000 0.960368
O O3 0.022733 0.495120 0.917134
O O4 0.000000 0.500000 0.000000
O O5 0.250000 0.088480 0.283465
O O6 0.512892 0.250000 0.275101
O O7 0.513244 0.048729 0.331169
O O8 0.514826 0.981628 0.247461
O O9 0.250000 0.415590 0.378888
O O10 0.509587 0.250000 0.386740
O O11 0.519876 0.513250 0.416242
O O12 0.500000 0.500000 0.500000
O O13 0.750000 0.404821 0.544119
O O14 0.478762 0.250000 0.537618
O O15 0.250000 0.101694 0.114412
O O16 0.524215 0.250000 0.122101
O O17 0.477444 0.009908 0.165408
O O18 0.250000 0.097606 0.804148
O O19 0.976731 0.250000 0.799811
#
# Coordination Sequence:
#
# PCOD9449837 Si02
#       6
#     8   8   8   8   8   8
#     4  10  21  37  58  84 113 145 180 218 263 313
#     4   9  18  34  57  82 104 131 171 215 260 313
#     4   8  15  30  52  76 102 132 168 212 259 307
#     4  10  20  33  51  76 104 135 173 214 257 308
#     4  10  21  38  60  83 106 137 180 225 266 312
#     4  11  24  38  52  76 110 144 177 215 261 312
#
# _framework density 20.558577
#
# number of rings (size 3 to 8) (size 9 to 14) (size 15 to 20)
#    0.000    2.333    0.000    3.500    0.000    8.000 
#    0.000    2.500    0.000    1.000    0.000    0.000 
#    0.000    0.000    0.000    0.000    0.000    0.000 
#
# Total GULP energy -268070.411809 kJ/mol
# GULP energy per Si atom -5584.800246 kJ/mol
# Density = 2.051178 g / cm^3
# Si number density = 20.558577 Si / 1000 Ang^3
#
#
#
# Elastic Constant Matrix: (Units=GPa)
#
#
# Indices 1 2 3 4 5 6 
#
# 1 24.6663 7.1191 -4.4375 0.0000 0.0000 0.0000
# 2 7.1191 206.4675 128.2216 0.0000 0.0000 0.0000
# 3 -4.4375 128.2216 168.0068 0.0000 0.0000 0.0000
# 4 0.0000 0.0000 0.0000 43.5826 0.0000 0.0000
# 5 0.0000 0.0000 0.0000 0.0000 24.6092 0.0000
# 6 0.0000 0.0000 0.0000 0.0000 0.0000 18.3305
#
#
#
# Elastic Compliance Matrix: (Units=1/GPa)
#
#
# Indices 1 2 3 4 5 6 
#
# 1 0.042494 -0.004110 0.004259 0.000000 0.000000 0.000000
# 2 -0.004110 0.009605 -0.007439 0.000000 0.000000 0.000000
# 3 0.004259 -0.007439 0.011742 0.000000 0.000000 0.000000
# 4 0.000000 0.000000 0.000000 0.022945 0.000000 0.000000
# 5 0.000000 0.000000 0.000000 0.000000 0.040635 0.000000
# 6 0.000000 0.000000 0.000000 0.000000 0.000000 0.054554
#
#
# Mechanical properties :
#
#
# Convention : Reuss Voigt Hill
#
# Bulk Modulus (GPa) = 20.30012 73.43854 46.86933
# Shear Modulus (GPa) = 23.47697 35.18696 29.33196
#
# Velocity S-wave (km/s) = 3.38295 4.14157 3.78133
# Velocity P-wave (km/s) = 5.01546 7.65959 6.47395
#
# Compressibility (1/GPa) = 0.04926078
#
# Stress axis : x y z
#
# Youngs Moduli (GPa) = 23.53284 104.11381 85.16448
#
# Poissons Ratio (x) = 0.42795 -0.36275
# Poissons Ratio (y) = 0.09673 0.63353
# Poissons Ratio (z) = -0.10024 0.77450
#
# Static dielectric constant tensor:
#      x y z
#    x 1.772660 0.000000 0.000000 
#    y 0.000000 1.725420 0.000000 
#    z 0.000000 0.000000 1.694250 
# 
# From -- ./inp_files/32817.got.cif
#   From: 2010.05.17/outbox.cif.g08.bks.cpg/sg59_17_cif.got.tgz:32817.got - 2010.06.03 14:40:33.
