data_PCOD9449616
_publ_section_title
;
Structure prediction by ZEFSAII (Michael W. Deem and Ramdas Pophale) SiO2 
 PCOD9449616
Probable space group: P M M N
;
_chemical_formula_sum "Si O2"
_cell_formula_units_Z 56
_cell_length_a 14.792051
_cell_length_b 7.410246
_cell_length_c 21.702730
_cell_angle_alpha 90.000000
_cell_angle_beta 90.000000
_cell_angle_gamma 90.000000
_cell_volume 2378.895630
_symmetry_space_group_name_H-M "P M M N"
_symmetry_group_IT_number 59
_space_group.IT_coordinate_system_code '2'
_symmetry_cell_setting 'orthorhombic'
loop_
_space_group_symop_operation_xyz
x,y,z
1/2-x,1/2-y,z
1/2+x,-y,-z
-x,1/2+y,-z
-x,-y,-z
1/2+x,1/2+y,-z
1/2-x,y,z
x,1/2-y,z
loop_
_atom_site_type_symbol
_atom_site_label
_atom_site_fract_x
_atom_site_fract_y
_atom_site_fract_z
Si Si1 0.999292 0.534419 0.072237
Si Si2 0.145942 0.534656 0.565237
Si Si3 0.853723 0.471150 0.832543
Si Si4 0.359722 0.964952 0.434246
Si Si5 0.139684 0.538911 0.301659
Si Si6 0.854087 0.965392 0.301888
Si Si7 0.145578 0.470231 0.832037
O O1 0.999204 0.750000 0.078457
O O2 0.085743 0.468862 0.110629
O O3 0.913025 0.466537 0.110535
O O4 0.000000 0.500000 0.000000
O O5 0.250000 0.465614 0.569562
O O6 0.150862 0.750000 0.558625
O O7 0.106587 0.464288 0.500449
O O8 0.102203 0.502455 0.631802
O O9 0.750000 0.525500 0.840099
O O10 0.854931 0.250000 0.830405
O O11 0.887617 0.533388 0.765106
O O12 0.250000 0.983232 0.437002
O O13 0.378267 0.750000 0.431731
O O14 0.388183 0.040523 0.367758
O O15 0.250000 0.534980 0.300950
O O16 0.112413 0.750000 0.302183
O O17 0.750000 0.034132 0.304538
O O18 0.850132 0.750000 0.298260
O O19 0.890775 0.026510 0.235654
O O20 0.250000 0.524357 0.836568
O O21 0.144249 0.250000 0.832700
#
# Coordination Sequence:
#
# PCOD9449616 Si02
#       7
#     8   8   8   8   8   8   8
#     4  10  20  33  49  69  91 113 139 172 212 259
#     4   8  12  17  27  48  78 105 129 164 208 247
#     4   8  14  25  42  65  91 114 137 173 219 257
#     4   7   9  13  23  43  73 105 132 160 198 243
#     4   7   9  15  29  50  77 107 135 163 200 246
#     4   8  13  22  36  52  71 100 139 176 204 233
#     4   8  15  29  47  64  84 114 150 181 206 240
#
# _framework density 23.540336
#
# number of rings (size 3 to 8) (size 9 to 14) (size 15 to 20)
#    0.000    4.000    0.000    3.429    0.000    0.571 
#    0.000    0.714    0.000    0.857    0.000    2.000 
#    0.000    3.429    0.000    0.000    0.000    0.000 
#
# Total GULP energy -312030.457099 kJ/mol
# GULP energy per Si atom -5571.972448 kJ/mol
# Density = 2.348676 g / cm^3
# Si number density = 23.540336 Si / 1000 Ang^3
#
#
#
# Elastic Constant Matrix: (Units=GPa)
#
#
# Indices 1 2 3 4 5 6 
#
# 1 89.8272 2.3927 82.1159 0.0000 0.0000 0.0000
# 2 2.3927 76.2641 8.8940 0.0000 0.0000 0.0000
# 3 82.1159 8.8940 325.3100 0.0000 0.0000 0.0000
# 4 0.0000 0.0000 0.0000 21.2126 0.0000 0.0000
# 5 0.0000 0.0000 0.0000 0.0000 79.2373 0.0000
# 6 0.0000 0.0000 0.0000 0.0000 0.0000 -10.0552
#
#
#
# Elastic Compliance Matrix: (Units=1/GPa)
#
#
# Indices 1 2 3 4 5 6 
#
# 1 0.014472 -0.000028 -0.003652 0.000000 0.000000 0.000000
# 2 -0.000028 0.013154 -0.000353 0.000000 0.000000 0.000000
# 3 -0.003652 -0.000353 0.004006 0.000000 0.000000 0.000000
# 4 0.000000 0.000000 0.000000 0.047142 0.000000 0.000000
# 5 0.000000 0.000000 0.000000 0.000000 0.012620 0.000000
# 6 0.000000 0.000000 0.000000 0.000000 0.000000 -0.099451
#
#
# Mechanical properties :
#
#
# Convention : Reuss Voigt Hill
#
# Bulk Modulus (GPa) = 42.43408 75.35627 58.89518
# Shear Modulus (GPa) = 635.78850 44.61218 340.20034
#
# Velocity S-wave (km/s) = 16.45208 4.35804 12.03461
# Velocity P-wave (km/s) = 19.46689 7.57657 14.77099
#
# Compressibility (1/GPa) = 0.02356597
#
# Stress axis : x y z
#
# Youngs Moduli (GPa) = 69.09892 76.02057 249.65311
#
# Poissons Ratio (x) = 0.00214 0.91181
# Poissons Ratio (y) = 0.00194 0.08801
# Poissons Ratio (z) = 0.25237 0.02680
#
# Static dielectric constant tensor:
#      x y z
#    x 1.948870 0.000000 0.000000 
#    y 0.000000 1.948430 0.000000 
#    z 0.000000 0.000000 1.936790 
# 
# From -- ./inp_files/27934.got.cif
#   From: 2010.05.17/outbox.cif.g08.bks.cpg/sg59_14_cif.got.tgz:27934.got - 2010.06.03 14:40:33.
