data_PCOD9449116
_publ_section_title
;
Structure prediction by ZEFSAII (Michael W. Deem and Ramdas Pophale) SiO2 
 PCOD9449116
Probable space group: P M M N
;
_chemical_formula_sum "Si O2"
_cell_formula_units_Z 64
_cell_length_a 29.012348
_cell_length_b 8.412340
_cell_length_c 13.299323
_cell_angle_alpha 90.000000
_cell_angle_beta 90.000000
_cell_angle_gamma 90.000000
_cell_volume 3245.855853
_symmetry_space_group_name_H-M "P M M N"
_symmetry_group_IT_number 59
_space_group.IT_coordinate_system_code '2'
_symmetry_cell_setting 'orthorhombic'
loop_
_space_group_symop_operation_xyz
x,y,z
1/2-x,1/2-y,z
1/2+x,-y,-z
-x,1/2+y,-z
-x,-y,-z
1/2+x,1/2+y,-z
1/2-x,y,z
x,1/2-y,z
loop_
_atom_site_type_symbol
_atom_site_label
_atom_site_fract_x
_atom_site_fract_y
_atom_site_fract_z
Si Si1 0.470728 0.942041 0.095433
Si Si2 0.865203 0.058600 0.918608
Si Si3 0.802849 0.441879 0.733240
Si Si4 0.952513 0.558420 0.246014
Si Si5 0.450026 0.936968 0.530302
Si Si6 0.196932 0.444050 0.666259
Si Si7 0.354838 0.439535 0.463854
Si Si8 0.858706 0.558796 0.137579
O O1 0.470286 0.750000 0.092527
O O2 0.418061 0.999543 0.093736
O O3 0.499353 0.988385 0.194833
O O4 0.500000 0.000000 0.000000
O O5 0.866601 0.250000 0.913066
O O6 0.832120 0.000950 0.829453
O O7 0.848098 0.010897 0.028958
O O8 0.750000 0.499410 0.734186
O O9 0.801708 0.250000 0.737523
O O10 0.828604 0.490347 0.631486
O O11 0.951828 0.750000 0.260631
O O12 0.943694 0.479049 0.352547
O O13 0.911011 0.518494 0.170044
O O14 0.448168 0.750000 0.514138
O O15 0.500000 0.000000 0.500000
O O16 0.408404 0.015088 0.468652
O O17 0.250000 0.493235 0.659460
O O18 0.195612 0.250000 0.666489
O O19 0.168596 0.496556 0.568258
O O20 0.173597 0.495502 0.770580
O O21 0.350484 0.250000 0.460685
O O22 0.855668 0.750000 0.131419
#
# Coordination Sequence:
#
# PCOD9449116 Si02
#       8
#     8   8   8   8   8   8   8   8
#     4  10  20  34  55  82 114 153 199 245 298 360
#     4  10  22  38  57  84 118 161 208 257 311 367
#     4  10  23  43  63  86 122 168 215 266 322 372
#     4  10  20  37  58  84 119 158 197 247 307 366
#     4  12  26  42  62  91 126 163 200 243 302 370
#     4   9  18  34  58  87 118 151 190 244 309 366
#     4  11  22  41  66  93 122 157 205 256 311 373
#     4  10  19  35  58  85 119 157 197 246 306 369
#
# _framework density 19.717448999999998
#
# number of rings (size 3 to 8) (size 9 to 14) (size 15 to 20)
#    0.000    1.750    2.500    1.875    1.750    2.750 
#    0.000    0.000    0.000    1.500    0.000    0.000 
#    0.000    0.000    0.000    0.000    0.000    0.000 
#
# Total GULP energy -357576.549403 kJ/mol
# GULP energy per Si atom -5587.133584 kJ/mol
# Density = 1.967257 g / cm^3
# Si number density = 19.717449 Si / 1000 Ang^3
#
#
#
# Elastic Constant Matrix: (Units=GPa)
#
#
# Indices 1 2 3 4 5 6 
#
# 1 158.5257 11.2598 84.8304 0.0000 0.0000 0.0000
# 2 11.2598 5.1361 12.6888 0.0000 0.0000 0.0000
# 3 84.8304 12.6888 139.0388 0.0000 0.0000 0.0000
# 4 0.0000 0.0000 0.0000 34.5722 0.0000 0.0000
# 5 0.0000 0.0000 0.0000 0.0000 29.4593 0.0000
# 6 0.0000 0.0000 0.0000 0.0000 0.0000 18.1769
#
#
#
# Elastic Compliance Matrix: (Units=1/GPa)
#
#
# Indices 1 2 3 4 5 6 
#
# 1 0.009647 -0.008532 -0.005107 0.000000 0.000000 0.000000
# 2 -0.008532 0.258919 -0.018424 0.000000 0.000000 0.000000
# 3 -0.005107 -0.018424 0.011990 0.000000 0.000000 0.000000
# 4 0.000000 0.000000 0.000000 0.028925 0.000000 0.000000
# 5 0.000000 0.000000 0.000000 0.000000 0.033945 0.000000
# 6 0.000000 0.000000 0.000000 0.000000 0.000000 0.055015
#
#
# Mechanical properties :
#
#
# Convention : Reuss Voigt Hill
#
# Bulk Modulus (GPa) = 4.62042 57.80650 31.21346
# Shear Modulus (GPa) = 9.35086 29.36977 19.36031
#
# Velocity S-wave (km/s) = 2.18007 3.86363 3.13691
# Velocity P-wave (km/s) = 2.94709 7.02030 5.38377
#
# Compressibility (1/GPa) = 0.21643047
#
# Stress axis : x y z
#
# Youngs Moduli (GPa) = 103.65770 3.86221 83.40486
#
# Poissons Ratio (x) = 0.03295 0.42598
# Poissons Ratio (y) = 0.88436 1.53665
# Poissons Ratio (z) = 0.52941 0.07116
#
# Static dielectric constant tensor:
#      x y z
#    x 1.691610 0.000000 0.000000 
#    y 0.000000 1.685150 0.000000 
#    z 0.000000 0.000000 1.669100 
# 
# From -- ./inp_files/19257.got.cif
#   From: 2010.05.17/outbox.cif.g08.bks.cpg/sg59_10_cif.got.tgz:19257.got - 2010.06.03 14:40:33.
