data_PCOD9449752
_publ_section_title
;
Structure prediction by ZEFSAII (Michael W. Deem and Ramdas Pophale) SiO2 
 PCOD9449752
Probable space group: P M M N
;
_chemical_formula_sum "Si O2"
_cell_formula_units_Z 64
_cell_length_a 9.132247
_cell_length_b 18.828879
_cell_length_c 22.358767
_cell_angle_alpha 90.000000
_cell_angle_beta 90.000000
_cell_angle_gamma 90.000000
_cell_volume 3844.589399
_symmetry_space_group_name_H-M "P M M N"
_symmetry_group_IT_number 59
_space_group.IT_coordinate_system_code '2'
_symmetry_cell_setting 'orthorhombic'
loop_
_space_group_symop_operation_xyz
x,y,z
1/2-x,1/2-y,z
1/2+x,-y,-z
-x,1/2+y,-z
-x,-y,-z
1/2+x,1/2+y,-z
1/2-x,y,z
x,1/2-y,z
loop_
_atom_site_type_symbol
_atom_site_label
_atom_site_fract_x
_atom_site_fract_y
_atom_site_fract_z
Si Si1 0.424580 0.956834 0.946187
Si Si2 0.419771 0.333435 0.999207
Si Si3 0.583161 0.390777 0.478378
Si Si4 0.575109 0.831222 0.634378
Si Si5 0.917253 0.546895 0.416283
Si Si6 0.424779 0.035986 0.821826
Si Si7 0.426769 0.963592 0.697372
Si Si8 0.076023 0.667873 0.129018
O O1 0.250000 0.955083 0.954551
O O2 0.456332 0.993047 0.882751
O O3 0.493577 0.879058 0.952461
O O4 0.500000 0.000000 0.000000
O O5 0.250000 0.356148 0.995183
O O6 0.424177 0.250000 0.012552
O O7 0.496323 0.343648 0.934794
O O8 0.750000 0.365152 0.480403
O O9 0.487473 0.345446 0.432215
O O10 0.514438 0.401093 0.543801
O O11 0.585202 0.470251 0.449775
O O12 0.750000 0.840769 0.634068
O O13 0.541863 0.750000 0.652078
O O14 0.501951 0.890565 0.676750
O O15 0.750000 0.572870 0.413886
O O16 0.969019 0.525237 0.350176
O O17 0.250000 0.049828 0.820095
O O18 0.510256 0.110049 0.826249
O O19 0.462429 0.989662 0.763741
O O20 0.250000 0.954952 0.692074
O O21 0.250000 0.658199 0.121658
O O22 0.049264 0.750000 0.146461
#
# Coordination Sequence:
#
# PCOD9449752 Si02
#       8
#     8   8   8   8   8   8   8   8
#     4  11  21  33  52  77 105 135 170 216 269 321
#     4  10  20  34  52  74 101 133 168 209 261 318
#     4   9  16  26  45  72  98 126 160 199 246 296
#     4  10  20  33  50  74 104 138 177 220 264 306
#     4   8  14  26  45  69  97 124 155 201 248 293
#     4  10  21  36  54  77 104 136 175 217 261 315
#     4   9  19  35  53  74 100 136 181 219 257 309
#     4  10  20  33  52  78 103 128 161 204 257 316
#
# _framework density 16.64677
#
# number of rings (size 3 to 8) (size 9 to 14) (size 15 to 20)
#    0.000    2.375    1.250    2.625    0.000    6.500 
#    0.000    0.625    0.000    4.500    0.000    1.750 
#    0.000    0.000    0.000    0.000    0.000    0.000 
#
# Total GULP energy -356797.480881 kJ/mol
# GULP energy per Si atom -5574.960639 kJ/mol
# Density = 1.660888 g / cm^3
# Si number density = 16.646770 Si / 1000 Ang^3
#
#
#
# Elastic Constant Matrix: (Units=GPa)
#
#
# Indices 1 2 3 4 5 6 
#
# 1 74.1845 55.2726 57.0259 0.0000 0.0000 0.0000
# 2 55.2726 90.4991 55.6887 0.0000 0.0000 0.0000
# 3 57.0259 55.6887 117.1537 0.0000 0.0000 0.0000
# 4 0.0000 0.0000 0.0000 17.5434 0.0000 0.0000
# 5 0.0000 0.0000 0.0000 0.0000 22.8329 0.0000
# 6 0.0000 0.0000 0.0000 0.0000 0.0000 27.5335
#
#
#
# Elastic Compliance Matrix: (Units=1/GPa)
#
#
# Indices 1 2 3 4 5 6 
#
# 1 0.029380 -0.012924 -0.008158 0.000000 0.000000 0.000000
# 2 -0.012924 0.021304 -0.003836 0.000000 0.000000 0.000000
# 3 -0.008158 -0.003836 0.014330 0.000000 0.000000 0.000000
# 4 0.000000 0.000000 0.000000 0.057001 0.000000 0.000000
# 5 0.000000 0.000000 0.000000 0.000000 0.043796 0.000000
# 6 0.000000 0.000000 0.000000 0.000000 0.000000 0.036319
#
#
# Mechanical properties :
#
#
# Convention : Reuss Voigt Hill
#
# Bulk Modulus (GPa) = 65.88178 68.64575 67.26377
# Shear Modulus (GPa) = 19.45334 21.17198 20.31266
#
# Velocity S-wave (km/s) = 3.42218 3.57015 3.49695
# Velocity P-wave (km/s) = 7.43487 7.63681 7.53652
#
# Compressibility (1/GPa) = 0.01517870
#
# Stress axis : x y z
#
# Youngs Moduli (GPa) = 34.03655 46.94047 69.78439
#
# Poissons Ratio (x) = 0.60667 0.56928
# Poissons Ratio (y) = 0.43990 0.26766
# Poissons Ratio (z) = 0.27766 0.18004
#
# Static dielectric constant tensor:
#      x y z
#    x 1.563160 0.000000 0.000000 
#    y 0.000000 1.574460 0.000000 
#    z 0.000000 0.000000 1.554470 
# 
# From -- ./inp_files/31766.got.cif
#   From: 2010.05.17/outbox.cif.g08.bks.cpg/sg59_16_cif.got.tgz:31766.got - 2010.06.03 14:40:33.
