data_PCOD9449920
_publ_section_title
;
Structure prediction by ZEFSAII (Michael W. Deem and Ramdas Pophale) SiO2 
 PCOD9449920
Probable space group: P M M N
;
_chemical_formula_sum "Si O2"
_cell_formula_units_Z 64
_cell_length_a 22.625789
_cell_length_b 9.793732
_cell_length_c 16.833695
_cell_angle_alpha 90.000000
_cell_angle_beta 90.000000
_cell_angle_gamma 90.000000
_cell_volume 3730.193857
_symmetry_space_group_name_H-M "P M M N"
_symmetry_group_IT_number 59
_space_group.IT_coordinate_system_code '2'
_symmetry_cell_setting 'orthorhombic'
loop_
_space_group_symop_operation_xyz
x,y,z
1/2-x,1/2-y,z
1/2+x,-y,-z
-x,1/2+y,-z
-x,-y,-z
1/2+x,1/2+y,-z
1/2-x,y,z
x,1/2-y,z
loop_
_atom_site_type_symbol
_atom_site_label
_atom_site_fract_x
_atom_site_fract_y
_atom_site_fract_z
Si Si1 0.819372 0.399914 0.302916
Si Si2 0.912422 0.911295 0.033639
Si Si3 0.351901 0.096233 0.559112
Si Si4 0.179633 0.913756 0.872237
Si Si5 0.582210 0.086930 0.711612
Si Si6 0.461253 0.910183 0.109434
Si Si7 0.179629 0.413478 0.376960
Si Si8 0.990725 0.903552 0.425977
O O1 0.750000 0.384054 0.287655
O O2 0.845188 0.250000 0.319945
O O3 0.824349 0.495387 0.378009
O O4 0.841810 0.449900 0.217491
O O5 0.901159 0.750000 0.022321
O O6 0.968446 0.923781 0.093801
O O7 0.857320 0.993487 0.068598
O O8 0.931413 0.986672 0.952565
O O9 0.327826 0.250000 0.566046
O O10 0.341709 0.055092 0.467443
O O11 0.420487 0.099056 0.584133
O O12 0.250000 0.937332 0.880850
O O13 0.169857 0.750000 0.882410
O O14 0.594629 0.250000 0.705781
O O15 0.560122 0.060541 0.801161
O O16 0.528611 0.055006 0.650536
O O17 0.638671 0.999820 0.682743
O O18 0.446815 0.750000 0.091839
O O19 0.250000 0.441737 0.370187
O O20 0.171083 0.250000 0.365294
O O21 0.010103 0.750000 0.446773
O O22 0.000000 0.000000 0.500000
#
# Coordination Sequence:
#
# PCOD9449920 Si02
#       8
#     8   8   8   8   8   8   8   8
#     4   9  19  34  50  73 106 142 181 220 255 303
#     4  10  20  35  59  87 111 137 176 221 267 323
#     4  10  20  33  52  76 105 142 179 217 268 320
#     4   9  19  36  55  77 111 150 181 215 266 325
#     4  10  21  37  57  81 108 140 180 223 266 316
#     4   9  20  38  58  80 111 144 174 218 274 329
#     4  10  21  37  55  76 106 144 184 227 273 318
#     4  10  20  34  53  77 107 139 174 216 262 314
#
# _framework density 17.157285999999999
#
# number of rings (size 3 to 8) (size 9 to 14) (size 15 to 20)
#    0.000    2.375    1.250    1.500    1.750    3.750 
#    0.000    1.875    0.000    0.750    0.000    0.000 
#    0.000    0.000    0.000    0.000    0.000    0.000 
#
# Total GULP energy -356517.471258 kJ/mol
# GULP energy per Si atom -5570.585488 kJ/mol
# Density = 1.711823 g / cm^3
# Si number density = 17.157286 Si / 1000 Ang^3
#
#
#
# Elastic Constant Matrix: (Units=GPa)
#
#
# Indices 1 2 3 4 5 6 
#
# 1 86.7629 50.4511 62.2585 0.0000 0.0000 0.0000
# 2 50.4511 72.0207 72.5497 0.0000 0.0000 0.0000
# 3 62.2585 72.5497 120.0053 0.0000 0.0000 0.0000
# 4 0.0000 0.0000 0.0000 27.3816 0.0000 0.0000
# 5 0.0000 0.0000 0.0000 0.0000 27.2919 0.0000
# 6 0.0000 0.0000 0.0000 0.0000 0.0000 29.9296
#
#
#
# Elastic Compliance Matrix: (Units=1/GPa)
#
#
# Indices 1 2 3 4 5 6 
#
# 1 0.020562 -0.009355 -0.005012 0.000000 0.000000 0.000000
# 2 -0.009355 0.039767 -0.019188 0.000000 0.000000 0.000000
# 3 -0.005012 -0.019188 0.022533 0.000000 0.000000 0.000000
# 4 0.000000 0.000000 0.000000 0.036521 0.000000 0.000000
# 5 0.000000 0.000000 0.000000 0.000000 0.036641 0.000000
# 6 0.000000 0.000000 0.000000 0.000000 0.000000 0.033412
#
#
# Mechanical properties :
#
#
# Convention : Reuss Voigt Hill
#
# Bulk Modulus (GPa) = 63.48219 72.14528 67.81373
# Shear Modulus (GPa) = 19.09883 23.15593 21.12738
#
# Velocity S-wave (km/s) = 3.34003 3.67771 3.51293
# Velocity P-wave (km/s) = 7.20797 7.75724 7.48764
#
# Compressibility (1/GPa) = 0.01575245
#
# Stress axis : x y z
#
# Youngs Moduli (GPa) = 48.63389 25.14635 44.37914
#
# Poissons Ratio (x) = 0.23525 0.22241
# Poissons Ratio (y) = 0.45498 0.85154
# Poissons Ratio (z) = 0.24374 0.48251
#
# Static dielectric constant tensor:
#      x y z
#    x 1.538550 0.000000 0.000000 
#    y 0.000000 1.592200 0.000000 
#    z 0.000000 0.000000 1.574950 
# 
# From -- ./inp_files/24788.got.cif
#   From: 2010.05.17/outbox.cif.g08.bks.cpg/sg59_13_cif.got.tgz:24788.got - 2010.06.03 14:40:33.
