data_PCOD9449225
_publ_section_title
;
Structure prediction by ZEFSAII (Michael W. Deem and Ramdas Pophale) SiO2 
 PCOD9449225
Probable space group: P M M N
;
_chemical_formula_sum "Si O2"
_cell_formula_units_Z 64
_cell_length_a 29.665631
_cell_length_b 8.615304
_cell_length_c 12.860906
_cell_angle_alpha 90.000000
_cell_angle_beta 90.000000
_cell_angle_gamma 90.000000
_cell_volume 3286.970156
_symmetry_space_group_name_H-M "P M M N"
_symmetry_group_IT_number 59
_space_group.IT_coordinate_system_code '2'
_symmetry_cell_setting 'orthorhombic'
loop_
_space_group_symop_operation_xyz
x,y,z
1/2-x,1/2-y,z
1/2+x,-y,-z
-x,1/2+y,-z
-x,-y,-z
1/2+x,1/2+y,-z
1/2-x,y,z
x,1/2-y,z
loop_
_atom_site_type_symbol
_atom_site_label
_atom_site_fract_x
_atom_site_fract_y
_atom_site_fract_z
Si Si1 0.556454 0.067266 0.241405
Si Si2 0.021149 0.934690 0.105877
Si Si3 0.843783 0.437724 0.213645
Si Si4 0.877812 0.437520 0.839531
Si Si5 0.302040 0.437583 0.573300
Si Si6 0.549540 0.067610 0.486532
Si Si7 0.800540 0.060656 0.998608
Si Si8 0.367663 0.065173 0.389347
O O1 0.550253 0.250000 0.217732
O O2 0.604247 0.015167 0.194232
O O3 0.561519 0.050636 0.365106
O O4 0.513313 0.979704 0.197413
O O5 0.023472 0.750000 0.096791
O O6 0.071898 0.992362 0.129007
O O7 0.000000 0.000000 0.000000
O O8 0.843717 0.250000 0.220426
O O9 0.825468 0.502102 0.322010
O O10 0.813507 0.485298 0.115926
O O11 0.878683 0.250000 0.842568
O O12 0.865763 0.489605 0.723566
O O13 0.839437 0.491325 0.919843
O O14 0.250000 0.487609 0.570122
O O15 0.303294 0.250000 0.575293
O O16 0.329508 0.488831 0.471112
O O17 0.550546 0.250000 0.512821
O O18 0.500000 0.000000 0.500000
O O19 0.584989 0.978671 0.557640
O O20 0.750000 0.009319 0.971444
O O21 0.800727 0.250000 0.996948
O O22 0.364163 0.250000 0.378371
#
# Coordination Sequence:
#
# PCOD9449225 Si02
#       8
#     8   8   8   8   8   8   8   8
#     4  10  21  36  56  83 117 152 191 243 296 351
#     4  11  23  38  58  84 116 157 199 243 295 355
#     4  10  19  36  61  89 118 149 192 247 304 361
#     4  10  22  40  60  83 117 155 196 246 298 355
#     4  10  22  39  58  84 121 161 199 245 301 356
#     4  11  22  37  58  85 117 154 196 241 294 351
#     4   9  18  34  59  88 114 144 187 244 307 362
#     4  11  23  39  59  84 118 158 202 247 295 353
#
# _framework density 19.470818000000001
#
# number of rings (size 3 to 8) (size 9 to 14) (size 15 to 20)
#    0.000    1.750    1.250    3.000    0.000    8.250 
#    0.000    0.625    0.000    0.750    0.000    0.000 
#    0.000    0.000    0.000    0.000    0.000    0.000 
#
# Total GULP energy -357588.309850 kJ/mol
# GULP energy per Si atom -5587.317341 kJ/mol
# Density = 1.942650 g / cm^3
# Si number density = 19.470818 Si / 1000 Ang^3
#
#
#
# Elastic Constant Matrix: (Units=GPa)
#
#
# Indices 1 2 3 4 5 6 
#
# 1 170.9004 19.5159 75.2161 0.0000 0.0000 0.0000
# 2 19.5159 12.5149 21.0356 0.0000 0.0000 0.0000
# 3 75.2161 21.0356 118.2074 0.0000 0.0000 0.0000
# 4 0.0000 0.0000 0.0000 30.4198 0.0000 0.0000
# 5 0.0000 0.0000 0.0000 0.0000 34.0174 0.0000
# 6 0.0000 0.0000 0.0000 0.0000 0.0000 21.1767
#
#
#
# Elastic Compliance Matrix: (Units=1/GPa)
#
#
# Indices 1 2 3 4 5 6 
#
# 1 0.008421 -0.005886 -0.004311 0.000000 0.000000 0.000000
# 2 -0.005886 0.118119 -0.017275 0.000000 0.000000 0.000000
# 3 -0.004311 -0.017275 0.014277 0.000000 0.000000 0.000000
# 4 0.000000 0.000000 0.000000 0.032873 0.000000 0.000000
# 5 0.000000 0.000000 0.000000 0.000000 0.029397 0.000000
# 6 0.000000 0.000000 0.000000 0.000000 0.000000 0.047222
#
#
# Mechanical properties :
#
#
# Convention : Reuss Voigt Hill
#
# Bulk Modulus (GPa) = 11.64493 59.23975 35.44234
# Shear Modulus (GPa) = 14.97563 29.51314 22.24438
#
# Velocity S-wave (km/s) = 2.77633 3.89750 3.38368
# Velocity P-wave (km/s) = 4.03374 7.12355 5.78861
#
# Compressibility (1/GPa) = 0.08587429
#
# Stress axis : x y z
#
# Youngs Moduli (GPa) = 118.75487 8.46602 70.04349
#
# Poissons Ratio (x) = 0.04983 0.30194
# Poissons Ratio (y) = 0.69894 1.20999
# Poissons Ratio (z) = 0.51193 0.14625
#
# Static dielectric constant tensor:
#      x y z
#    x 1.680540 0.000000 0.000000 
#    y 0.000000 1.672820 0.000000 
#    z 0.000000 0.000000 1.662300 
# 
# From -- ./inp_files/19296.got.cif
#   From: 2010.05.17/outbox.cif.g08.bks.cpg/sg59_10_cif.got.tgz:19296.got - 2010.06.03 14:40:33.
