data_PCOD9449285
_publ_section_title
;
Structure prediction by ZEFSAII (Michael W. Deem and Ramdas Pophale) SiO2 
 PCOD9449285
Probable space group: P M M N
;
_chemical_formula_sum "Si O2"
_cell_formula_units_Z 64
_cell_length_a 7.605948
_cell_length_b 18.287765
_cell_length_c 23.936988
_cell_angle_alpha 90.000000
_cell_angle_beta 90.000000
_cell_angle_gamma 90.000000
_cell_volume 3329.534247
_symmetry_space_group_name_H-M "P M M N"
_symmetry_group_IT_number 59
_space_group.IT_coordinate_system_code '2'
_symmetry_cell_setting 'orthorhombic'
loop_
_space_group_symop_operation_xyz
x,y,z
1/2-x,1/2-y,z
1/2+x,-y,-z
-x,1/2+y,-z
-x,-y,-z
1/2+x,1/2+y,-z
1/2-x,y,z
x,1/2-y,z
loop_
_atom_site_type_symbol
_atom_site_label
_atom_site_fract_x
_atom_site_fract_y
_atom_site_fract_z
Si Si1 0.966488 0.027278 0.366836
Si Si2 0.961646 0.548785 0.130888
Si Si3 0.456322 0.831896 0.562765
Si Si4 0.041629 0.071747 0.536853
Si Si5 0.461376 0.331927 0.171467
Si Si6 0.043414 0.526219 0.759262
Si Si7 0.960808 0.167582 0.952062
Si Si8 0.543387 0.086162 0.060083
O O1 0.750000 0.028926 0.368139
O O2 0.026629 0.102126 0.398023
O O3 0.028705 0.023771 0.303185
O O4 0.020605 0.955718 0.402493
O O5 0.750000 0.540292 0.132807
O O6 0.028952 0.527113 0.192289
O O7 0.031360 0.488341 0.086517
O O8 0.002894 0.627227 0.105963
O O9 0.250000 0.827323 0.576046
O O10 0.531079 0.750000 0.569554
O O11 0.470086 0.860677 0.498871
O O12 0.250000 0.082196 0.539566
O O13 0.000000 0.000000 0.500000
O O14 0.250000 0.334002 0.171142
O O15 0.519495 0.250000 0.185121
O O16 0.525811 0.392938 0.214583
O O17 0.524578 0.355148 0.109865
O O18 0.250000 0.509393 0.753784
O O19 0.750000 0.171184 0.959087
O O20 0.029085 0.250000 0.954512
O O21 0.032709 0.118305 0.003079
O O22 0.750000 0.072834 0.050290
#
# Coordination Sequence:
#
# PCOD9449285 Si02
#       8
#     8   8   8   8   8   8   8   8
#     4   8  15  29  49  70  90 118 159 199 227 261
#     4   9  18  31  48  70  92 116 148 188 233 275
#     4   9  17  29  46  71 102 129 152 184 228 275
#     4   9  16  28  47  69  93 122 155 189 227 269
#     4  10  20  31  43  65  97 126 151 184 228 275
#     4   9  18  33  51  68  87 118 161 198 227 265
#     4  10  20  32  48  70  93 118 149 186 230 280
#     4   9  18  33  51  69  89 117 154 189 224 275
#
# _framework density 19.221907000000002
#
# number of rings (size 3 to 8) (size 9 to 14) (size 15 to 20)
#    0.000    2.875    0.000    3.000    0.000    5.000 
#    0.000    4.375    0.000    0.750    0.000    5.250 
#    0.000    0.000    0.000    0.000    0.000    0.000 
#
# Total GULP energy -356636.249467 kJ/mol
# GULP energy per Si atom -5572.441398 kJ/mol
# Density = 1.917816 g / cm^3
# Si number density = 19.221907 Si / 1000 Ang^3
#
#
#
# Elastic Constant Matrix: (Units=GPa)
#
#
# Indices 1 2 3 4 5 6 
#
# 1 37.8223 2.9468 -4.8898 0.0000 0.0000 0.0000
# 2 2.9468 59.4184 55.3363 0.0000 0.0000 0.0000
# 3 -4.8898 55.3363 136.0756 0.0000 0.0000 0.0000
# 4 0.0000 0.0000 0.0000 4.1943 0.0000 0.0000
# 5 0.0000 0.0000 0.0000 0.0000 11.5072 0.0000
# 6 0.0000 0.0000 0.0000 0.0000 0.0000 17.8243
#
#
#
# Elastic Compliance Matrix: (Units=1/GPa)
#
#
# Indices 1 2 3 4 5 6 
#
# 1 0.027037 -0.003615 0.002441 0.000000 0.000000 0.000000
# 2 -0.003615 0.027572 -0.011342 0.000000 0.000000 0.000000
# 3 0.002441 -0.011342 0.012049 0.000000 0.000000 0.000000
# 4 0.000000 0.000000 0.000000 0.238418 0.000000 0.000000
# 5 0.000000 0.000000 0.000000 0.000000 0.086902 0.000000
# 6 0.000000 0.000000 0.000000 0.000000 0.000000 0.056103
#
#
# Mechanical properties :
#
#
# Convention : Reuss Voigt Hill
#
# Bulk Modulus (GPa) = 24.02291 37.78922 30.90606
# Shear Modulus (GPa) = 10.26719 18.70003 14.48361
#
# Velocity S-wave (km/s) = 2.31365 3.12244 2.74796
# Velocity P-wave (km/s) = 4.43420 5.71853 5.11682
#
# Compressibility (1/GPa) = 0.04162693
#
# Stress axis : x y z
#
# Youngs Moduli (GPa) = 36.98682 36.26846 82.99405
#
# Poissons Ratio (x) = 0.13110 -0.20263
# Poissons Ratio (y) = 0.13369 0.94135
# Poissons Ratio (z) = -0.09030 0.41137
#
# Static dielectric constant tensor:
#      x y z
#    x 1.728130 0.000000 0.000000 
#    y 0.000000 1.670140 0.000000 
#    z 0.000000 0.000000 1.686540 
# 
# From -- ./inp_files/31743.got.cif
#   From: 2010.05.17/outbox.cif.g08.bks.cpg/sg59_16_cif.got.tgz:31743.got - 2010.06.03 14:40:33.
