data_PCOD9449181
_publ_section_title
;
Structure prediction by ZEFSAII (Michael W. Deem and Ramdas Pophale) SiO2 
 PCOD9449181
Probable space group: P M M N
;
_chemical_formula_sum "Si O2"
_cell_formula_units_Z 48
_cell_length_a 21.104755
_cell_length_b 8.616376
_cell_length_c 14.460899
_cell_angle_alpha 90.000000
_cell_angle_beta 90.000000
_cell_angle_gamma 90.000000
_cell_volume 2629.663935
_symmetry_space_group_name_H-M "P M M N"
_symmetry_group_IT_number 59
_space_group.IT_coordinate_system_code '2'
_symmetry_cell_setting 'orthorhombic'
loop_
_space_group_symop_operation_xyz
x,y,z
1/2-x,1/2-y,z
1/2+x,-y,-z
-x,1/2+y,-z
-x,-y,-z
1/2+x,1/2+y,-z
1/2-x,y,z
x,1/2-y,z
loop_
_atom_site_type_symbol
_atom_site_label
_atom_site_fract_x
_atom_site_fract_y
_atom_site_fract_z
Si Si1 0.250000 0.063575 0.109564
Si Si2 0.926198 0.064219 0.400908
Si Si3 0.999464 0.062902 0.896750
Si Si4 0.875510 0.937785 0.215002
Si Si5 0.750000 0.939100 0.104854
Si Si6 0.926209 0.564245 0.602403
Si Si7 0.126696 0.563833 0.212560
O O1 0.250000 0.250000 0.109689
O O2 0.311931 0.003704 0.162541
O O3 0.250000 0.010340 0.002156
O O4 0.924235 0.250000 0.405283
O O5 0.999831 0.016986 0.382267
O O6 0.883161 0.003273 0.317796
O O7 0.908651 0.995004 0.500482
O O8 0.999878 0.250000 0.899319
O O9 0.936118 0.013035 0.843509
O O10 0.062208 0.012558 0.841996
O O11 0.000000 0.000000 0.000000
O O12 0.875275 0.750000 0.219836
O O13 0.812805 0.987898 0.160121
O O14 0.750000 0.750000 0.103424
O O15 0.923104 0.750000 0.605339
O O16 0.883464 0.493803 0.683033
O O17 0.129816 0.750000 0.211636
#
# Coordination Sequence:
#
# PCOD9449181 Si02
#       7
#     4   8   8   8   4   8   8
#     4  11  23  41  62  83 114 157 199 238 288 351
#     4  10  20  34  56  87 118 149 187 237 293 347
#     4  10  21  34  54  81 113 148 189 242 292 341
#     4  10  19  36  57  82 113 151 194 236 286 343
#     4   9  20  37  60  83 112 155 199 238 278 337
#     4  10  20  35  58  86 116 151 190 235 289 351
#     4  11  22  38  58  85 117 151 192 242 294 343
#
# _framework density 18.253283
#
# number of rings (size 3 to 8) (size 9 to 14) (size 15 to 20)
#    0.000    1.833    1.667    2.750    0.000    4.667 
#    0.000    2.917    0.000    1.000    0.000    0.000 
#    0.000    0.000    0.000    0.000    0.000    0.000 
#
# Total GULP energy -268134.193073 kJ/mol
# GULP energy per Si atom -5586.129022 kJ/mol
# Density = 1.821174 g / cm^3
# Si number density = 18.253283 Si / 1000 Ang^3
#
#
#
# Elastic Constant Matrix: (Units=GPa)
#
#
# Indices 1 2 3 4 5 6 
#
# 1 154.2350 36.9106 101.4830 0.0000 0.0000 0.0000
# 2 36.9106 34.8191 40.1383 0.0000 0.0000 0.0000
# 3 101.4830 40.1383 194.3054 0.0000 0.0000 0.0000
# 4 0.0000 0.0000 0.0000 35.4999 0.0000 0.0000
# 5 0.0000 0.0000 0.0000 0.0000 32.7967 0.0000
# 6 0.0000 0.0000 0.0000 0.0000 0.0000 15.2696
#
#
#
# Elastic Compliance Matrix: (Units=1/GPa)
#
#
# Indices 1 2 3 4 5 6 
#
# 1 0.010912 -0.006559 -0.004344 0.000000 0.000000 0.000000
# 2 -0.006559 0.041640 -0.005176 0.000000 0.000000 0.000000
# 3 -0.004344 -0.005176 0.008485 0.000000 0.000000 0.000000
# 4 0.000000 0.000000 0.000000 0.028169 0.000000 0.000000
# 5 0.000000 0.000000 0.000000 0.000000 0.030491 0.000000
# 6 0.000000 0.000000 0.000000 0.000000 0.000000 0.065490
#
#
# Mechanical properties :
#
#
# Convention : Reuss Voigt Hill
#
# Bulk Modulus (GPa) = 34.62901 82.26925 58.44913
# Shear Modulus (GPa) = 22.02937 30.36841 26.19889
#
# Velocity S-wave (km/s) = 3.47777 4.08330 3.79264
# Velocity P-wave (km/s) = 5.92783 8.20974 7.16027
#
# Compressibility (1/GPa) = 0.02887752
#
# Stress axis : x y z
#
# Youngs Moduli (GPa) = 91.64544 24.01551 117.86191
#
# Poissons Ratio (x) = 0.15753 0.51199
# Poissons Ratio (y) = 0.60115 0.61002
# Poissons Ratio (z) = 0.39811 0.12430
#
# Static dielectric constant tensor:
#      x y z
#    x 1.614900 0.000000 0.000000 
#    y 0.000000 1.605790 0.000000 
#    z 0.000000 0.000000 1.601520 
# 
# From -- ./inp_files/23713.got.cif
#   From: 2010.05.17/outbox.cif.g08.bks.cpg/sg59_12_cif.got.tgz:23713.got - 2010.06.03 14:40:33.
