data_PCOD9449325
_publ_section_title
;
Structure prediction by ZEFSAII (Michael W. Deem and Ramdas Pophale) SiO2 
 PCOD9449325
Probable space group: P M M N
;
_chemical_formula_sum "Si O2"
_cell_formula_units_Z 48
_cell_length_a 7.944986
_cell_length_b 27.302966
_cell_length_c 12.191821
_cell_angle_alpha 90.000000
_cell_angle_beta 90.000000
_cell_angle_gamma 90.000000
_cell_volume 2644.670326
_symmetry_space_group_name_H-M "P M M N"
_symmetry_group_IT_number 59
_space_group.IT_coordinate_system_code '2'
_symmetry_cell_setting 'orthorhombic'
loop_
_space_group_symop_operation_xyz
x,y,z
1/2-x,1/2-y,z
1/2+x,-y,-z
-x,1/2+y,-z
-x,-y,-z
1/2+x,1/2+y,-z
1/2-x,y,z
x,1/2-y,z
loop_
_atom_site_type_symbol
_atom_site_label
_atom_site_fract_x
_atom_site_fract_y
_atom_site_fract_z
Si Si1 0.952210 0.111834 0.341092
Si Si2 0.443955 0.126895 0.986264
Si Si3 0.547243 0.565374 0.203419
Si Si4 0.049533 0.805047 0.819717
Si Si5 0.548593 0.053774 0.544605
Si Si6 0.451611 0.540878 0.859994
O O1 0.750000 0.118575 0.351225
O O2 0.019438 0.159390 0.276480
O O3 0.017765 0.094576 0.458705
O O4 0.976198 0.066468 0.258032
O O5 0.250000 0.141228 0.974565
O O6 0.526109 0.167333 0.064320
O O7 0.458160 0.076069 0.054205
O O8 0.515133 0.111739 0.867315
O O9 0.750000 0.564814 0.192409
O O10 0.508045 0.563593 0.331634
O O11 0.485863 0.514434 0.149442
O O12 0.250000 0.802077 0.802648
O O13 0.980519 0.750000 0.819464
O O14 0.750000 0.055669 0.542939
O O15 0.500000 0.000000 0.500000
O O16 0.250000 0.541889 0.882407
#
# Coordination Sequence:
#
# PCOD9449325 Si02
#       6
#     8   8   8   8   8   8
#     4   8  15  29  48  71  97 125 159 204 247 281
#     4  10  20  31  47  73 102 128 161 206 253 298
#     4  10  20  33  46  66 101 140 171 200 239 290
#     4   9  18  35  58  76  93 123 161 203 257 312
#     4  11  20  31  48  70 101 138 174 207 240 291
#     4   9  16  30  48  65  97 135 167 202 236 286
#
# _framework density 18.149709999999999
#
# number of rings (size 3 to 8) (size 9 to 14) (size 15 to 20)
#    0.000    2.500    1.667    2.500    0.000    2.333 
#    0.000    0.833    0.000    1.000    0.000    2.333 
#    0.000    0.000    0.000    0.000    0.000    0.000 
#
# Total GULP energy -267497.570786 kJ/mol
# GULP energy per Si atom -5572.866058 kJ/mol
# Density = 1.810840 g / cm^3
# Si number density = 18.149710 Si / 1000 Ang^3
#
#
#
# Elastic Constant Matrix: (Units=GPa)
#
#
# Indices 1 2 3 4 5 6 
#
# 1 12.2668 0.0924 -9.6819 0.0000 0.0000 0.0000
# 2 0.0924 117.4460 46.9626 0.0000 0.0000 0.0000
# 3 -9.6819 46.9626 88.5472 0.0000 0.0000 0.0000
# 4 0.0000 0.0000 0.0000 10.8985 0.0000 0.0000
# 5 0.0000 0.0000 0.0000 0.0000 22.2415 0.0000
# 6 0.0000 0.0000 0.0000 0.0000 0.0000 13.6952
#
#
#
# Elastic Compliance Matrix: (Units=1/GPa)
#
#
# Indices 1 2 3 4 5 6 
#
# 1 0.091635 -0.005176 0.012765 0.000000 0.000000 0.000000
# 2 -0.005176 0.011099 -0.006452 0.000000 0.000000 0.000000
# 3 0.012765 -0.006452 0.016111 0.000000 0.000000 0.000000
# 4 0.000000 0.000000 0.000000 0.091756 0.000000 0.000000
# 5 0.000000 0.000000 0.000000 0.000000 0.044961 0.000000
# 6 0.000000 0.000000 0.000000 0.000000 0.000000 0.073018
#
#
# Mechanical properties :
#
#
# Convention : Reuss Voigt Hill
#
# Bulk Modulus (GPa) = 8.25648 32.55624 20.40636
# Shear Modulus (GPa) = 13.63588 21.42617 17.53103
#
# Velocity S-wave (km/s) = 2.74396 3.43960 3.11128
# Velocity P-wave (km/s) = 3.82074 5.80956 4.91676
#
# Compressibility (1/GPa) = 0.12111696
#
# Stress axis : x y z
#
# Youngs Moduli (GPa) = 10.91290 90.10053 62.06832
#
# Poissons Ratio (x) = 0.46639 -0.79229
# Poissons Ratio (y) = 0.05649 0.40049
# Poissons Ratio (z) = -0.13930 0.58136
#
# Static dielectric constant tensor:
#      x y z
#    x 1.645150 0.000000 0.000000 
#    y 0.000000 1.628550 0.000000 
#    z 0.000000 0.000000 1.667100 
# 
# From -- ./inp_files/14490.got.cif
#   From: 2010.05.17/outbox.cif.g08.bks.cpg/sg59_8_cif.got.tgz:14490.got - 2010.06.03 14:40:33.
