data_PCOD9449994
_publ_section_title
;
Structure prediction by ZEFSAII (Michael W. Deem and Ramdas Pophale) SiO2 
 PCOD9449994
Probable space group: P M M N
;
_chemical_formula_sum "Si O2"
_cell_formula_units_Z 48
_cell_length_a 19.673258
_cell_length_b 7.590622
_cell_length_c 15.309781
_cell_angle_alpha 90.000000
_cell_angle_beta 90.000000
_cell_angle_gamma 90.000000
_cell_volume 2286.244273
_symmetry_space_group_name_H-M "P M M N"
_symmetry_group_IT_number 59
_space_group.IT_coordinate_system_code '2'
_symmetry_cell_setting 'orthorhombic'
loop_
_space_group_symop_operation_xyz
x,y,z
1/2-x,1/2-y,z
1/2+x,-y,-z
-x,1/2+y,-z
-x,-y,-z
1/2+x,1/2+y,-z
1/2-x,y,z
x,1/2-y,z
loop_
_atom_site_type_symbol
_atom_site_label
_atom_site_fract_x
_atom_site_fract_y
_atom_site_fract_z
Si Si1 0.565986 0.956262 0.616407
Si Si2 0.325776 0.456373 0.248240
Si Si3 0.414633 0.536037 0.580295
Si Si4 0.827412 0.465379 0.256493
Si Si5 0.913957 0.457716 0.911407
Si Si6 0.432673 0.537152 0.891236
O O1 0.557591 0.750000 0.638752
O O2 0.618497 0.035048 0.685588
O O3 0.489129 0.027805 0.612252
O O4 0.594789 0.972471 0.518410
O O5 0.250000 0.532496 0.253252
O O6 0.320249 0.250000 0.271176
O O7 0.357120 0.466691 0.151761
O O8 0.416081 0.750000 0.577174
O O9 0.358259 0.482150 0.650049
O O10 0.750000 0.523344 0.243896
O O11 0.827415 0.250000 0.254812
O O12 0.878944 0.523898 0.180574
O O13 0.902212 0.250000 0.916208
O O14 0.989279 0.488605 0.872500
O O15 0.915755 0.527382 0.010763
O O16 0.430408 0.750000 0.892521
#
# Coordination Sequence:
#
# PCOD9449994 Si02
#       6
#     8   8   8   8   8   8
#     4   9  18  33  51  70  95 130 170 207 246 298
#     4  10  21  36  53  73 101 139 175 206 249 306
#     4   9  17  30  50  74  97 124 162 209 252 289
#     4   9  17  30  50  75 101 131 166 201 242 297
#     4  10  20  33  53  79 103 130 168 215 258 294
#     4   9  18  34  55  76 101 135 171 206 247 300
#
# _framework density 20.995131000000001
#
# number of rings (size 3 to 8) (size 9 to 14) (size 15 to 20)
#    0.000    2.667    0.000    1.500    0.000    5.667 
#    0.000    5.833    0.000    1.500    0.000    0.000 
#    0.000    0.000    0.000    0.000    0.000    0.000 
#
# Total GULP energy -267938.881427 kJ/mol
# GULP energy per Si atom -5582.060030 kJ/mol
# Density = 2.094735 g / cm^3
# Si number density = 20.995131 Si / 1000 Ang^3
#
#
#
# Elastic Constant Matrix: (Units=GPa)
#
#
# Indices 1 2 3 4 5 6 
#
# 1 64.9202 -11.1871 24.1350 0.0000 0.0000 0.0000
# 2 -11.1871 42.8940 -15.2656 0.0000 0.0000 0.0000
# 3 24.1350 -15.2656 37.2925 0.0000 0.0000 0.0000
# 4 0.0000 0.0000 0.0000 18.5007 0.0000 0.0000
# 5 0.0000 0.0000 0.0000 0.0000 8.7608 0.0000
# 6 0.0000 0.0000 0.0000 0.0000 0.0000 6.7043
#
#
#
# Elastic Compliance Matrix: (Units=1/GPa)
#
#
# Indices 1 2 3 4 5 6 
#
# 1 0.020303 0.000724 -0.012843 0.000000 0.000000 0.000000
# 2 0.000724 0.027315 0.010712 0.000000 0.000000 0.000000
# 3 -0.012843 0.010712 0.039512 0.000000 0.000000 0.000000
# 4 0.000000 0.000000 0.000000 0.054052 0.000000 0.000000
# 5 0.000000 0.000000 0.000000 0.000000 0.114144 0.000000
# 6 0.000000 0.000000 0.000000 0.000000 0.000000 0.149159
#
#
# Mechanical properties :
#
#
# Convention : Reuss Voigt Hill
#
# Bulk Modulus (GPa) = 11.86000 15.60790 13.73395
# Shear Modulus (GPa) = 11.48361 16.62145 14.05253
#
# Velocity S-wave (km/s) = 2.34127 2.81674 2.58994
# Velocity P-wave (km/s) = 3.60137 4.24604 3.93693
#
# Compressibility (1/GPa) = 0.08431702
#
# Stress axis : x y z
#
# Youngs Moduli (GPa) = 49.25376 36.61034 25.30870
#
# Poissons Ratio (x) = -0.02652 0.32505
# Poissons Ratio (y) = -0.03568 -0.27112
# Poissons Ratio (z) = 0.63258 -0.39219
#
# Static dielectric constant tensor:
#      x y z
#    x 1.737380 0.000000 0.000000 
#    y 0.000000 1.792570 0.000000 
#    z 0.000000 0.000000 1.739280 
# 
# From -- ./inp_files/20434.got.cif
#   From: 2010.05.17/outbox.cif.g08.bks.cpg/sg59_11_cif.got.tgz:20434.got - 2010.06.03 14:40:33.
