data_PCOD9449454
_publ_section_title
;
Structure prediction by ZEFSAII (Michael W. Deem and Ramdas Pophale) SiO2 
 PCOD9449454
Probable space group: P M M N
;
_chemical_formula_sum "Si O2"
_cell_formula_units_Z 64
_cell_length_a 32.423183
_cell_length_b 7.618329
_cell_length_c 11.807189
_cell_angle_alpha 90.000000
_cell_angle_beta 90.000000
_cell_angle_gamma 90.000000
_cell_volume 2916.499367
_symmetry_space_group_name_H-M "P M M N"
_symmetry_group_IT_number 59
_space_group.IT_coordinate_system_code '2'
_symmetry_cell_setting 'orthorhombic'
loop_
_space_group_symop_operation_xyz
x,y,z
1/2-x,1/2-y,z
1/2+x,-y,-z
-x,1/2+y,-z
-x,-y,-z
1/2+x,1/2+y,-z
1/2-x,y,z
x,1/2-y,z
loop_
_atom_site_type_symbol
_atom_site_label
_atom_site_fract_x
_atom_site_fract_y
_atom_site_fract_z
Si Si1 0.702594 0.534471 0.984202
Si Si2 0.015837 0.542613 0.835422
Si Si3 0.620102 0.951750 0.566107
Si Si4 0.204009 0.542334 0.552886
Si Si5 0.919894 0.962056 0.341737
Si Si6 0.641185 0.951125 0.805731
Si Si7 0.162375 0.461915 0.783234
Si Si8 0.566013 0.048461 0.949032
O O1 0.750000 0.482026 0.992736
O O2 0.701401 0.750000 0.983452
O O3 0.677026 0.476280 0.094420
O O4 0.680493 0.471659 0.869760
O O5 0.010669 0.750000 0.854277
O O6 0.037277 0.512745 0.715522
O O7 0.971666 0.459595 0.859745
O O8 0.046972 0.476387 0.934005
O O9 0.606099 0.750000 0.581420
O O10 0.590806 0.028216 0.467870
O O11 0.624318 0.034439 0.690086
O O12 0.666060 0.954885 0.512748
O O13 0.250000 0.478390 0.525027
O O14 0.202112 0.750000 0.529324
O O15 0.194578 0.514073 0.685632
O O16 0.917836 0.750000 0.345039
O O17 0.882398 0.023763 0.260182
O O18 0.652025 0.750000 0.776145
O O19 0.604798 0.950864 0.897753
O O20 0.161027 0.250000 0.786270
O O21 0.578154 0.250000 0.967327
#
# Coordination Sequence:
#
# PCOD9449454 Si02
#       8
#     8   8   8   8   8   8   8   8
#     4   9  17  29  49  78 106 133 169 213 259 305
#     4  10  20  34  55  83 109 134 168 206 248 304
#     4   9  20  36  53  73  98 135 179 217 255 304
#     4  10  20  32  48  72 101 133 171 218 266 306
#     4   9  17  31  51  76 104 134 171 215 261 302
#     4  10  20  36  56  76 102 136 175 216 254 300
#     4   9  17  30  50  75 104 137 170 207 255 311
#     4  10  21  36  55  80 109 138 166 203 253 306
#
# _framework density 21.944116000000001
#
# number of rings (size 3 to 8) (size 9 to 14) (size 15 to 20)
#    0.000    2.500    0.000    3.000    0.000    7.000 
#    0.000    2.500    0.000    1.125    0.000    0.000 
#    0.000    0.000    0.000    0.000    0.000    0.000 
#
# Total GULP energy -357280.820745 kJ/mol
# GULP energy per Si atom -5582.512824 kJ/mol
# Density = 2.189417 g / cm^3
# Si number density = 21.944116 Si / 1000 Ang^3
#
#
#
# Elastic Constant Matrix: (Units=GPa)
#
#
# Indices 1 2 3 4 5 6 
#
# 1 21.4608 -9.7387 6.8690 0.0000 0.0000 0.0000
# 2 -9.7387 51.8966 3.4758 0.0000 0.0000 0.0000
# 3 6.8690 3.4758 77.3802 0.0000 0.0000 0.0000
# 4 0.0000 0.0000 0.0000 -3.2159 0.0000 0.0000
# 5 0.0000 0.0000 0.0000 0.0000 7.4316 0.0000
# 6 0.0000 0.0000 0.0000 0.0000 0.0000 -4.9435
#
#
#
# Elastic Compliance Matrix: (Units=1/GPa)
#
#
# Indices 1 2 3 4 5 6 
#
# 1 0.052910 0.010274 -0.005158 0.000000 0.000000 0.000000
# 2 0.010274 0.021322 -0.001870 0.000000 0.000000 0.000000
# 3 -0.005158 -0.001870 0.013465 0.000000 0.000000 0.000000
# 4 0.000000 0.000000 0.000000 -0.310953 0.000000 0.000000
# 5 0.000000 0.000000 0.000000 0.000000 0.134560 0.000000
# 6 0.000000 0.000000 0.000000 0.000000 0.000000 -0.202284
#
#
# Mechanical properties :
#
#
# Convention : Reuss Voigt Hill
#
# Bulk Modulus (GPa) = 10.61685 16.88333 13.75009
# Shear Modulus (GPa) = -18.79165 9.86320 -4.46423
#
# Velocity S-wave (km/s) = -2.92951 2.12237 -1.42786
# Velocity P-wave (km/s) = 2.56789 3.70357 1.88711
#
# Compressibility (1/GPa) = 0.09418988
#
# Stress axis : x y z
#
# Youngs Moduli (GPa) = 18.90001 46.89914 74.26612
#
# Poissons Ratio (x) = -0.48186 0.38309
# Poissons Ratio (y) = -0.19419 0.13886
# Poissons Ratio (z) = 0.09749 0.08769
#
# Static dielectric constant tensor:
#      x y z
#    x 1.773640 0.000000 0.000000 
#    y 0.000000 1.820920 0.000000 
#    z 0.000000 0.000000 1.822640 
# 
# From -- ./inp_files/19224.got.cif
#   From: 2010.05.17/outbox.cif.g08.bks.cpg/sg59_10_cif.got.tgz:19224.got - 2010.06.03 14:40:33.
