data_PCOD9449458
_publ_section_title
;
Structure prediction by ZEFSAII (Michael W. Deem and Ramdas Pophale) SiO2 
 PCOD9449458
Probable space group: P M M N
;
_chemical_formula_sum "Si O2"
_cell_formula_units_Z 56
_cell_length_a 10.060957
_cell_length_b 15.016406
_cell_length_c 18.370717
_cell_angle_alpha 90.000000
_cell_angle_beta 90.000000
_cell_angle_gamma 90.000000
_cell_volume 2775.437179
_symmetry_space_group_name_H-M "P M M N"
_symmetry_group_IT_number 59
_space_group.IT_coordinate_system_code '2'
_symmetry_cell_setting 'orthorhombic'
loop_
_space_group_symop_operation_xyz
x,y,z
1/2-x,1/2-y,z
1/2+x,-y,-z
-x,1/2+y,-z
-x,-y,-z
1/2+x,1/2+y,-z
1/2-x,y,z
x,1/2-y,z
loop_
_atom_site_type_symbol
_atom_site_label
_atom_site_fract_x
_atom_site_fract_y
_atom_site_fract_z
Si Si1 0.399853 0.854644 0.646501
Si Si2 0.096541 0.893461 0.067613
Si Si3 0.402281 0.141009 0.476431
Si Si4 0.899859 0.856946 0.358472
Si Si5 0.400502 0.598188 0.230212
Si Si6 0.598218 0.889536 0.941298
Si Si7 0.900229 0.884549 0.776576
O O1 0.250000 0.891662 0.652139
O O2 0.386166 0.750000 0.630287
O O3 0.491185 0.892960 0.581824
O O4 0.486380 0.859969 0.719794
O O5 0.250000 0.866978 0.057489
O O6 0.056170 0.868483 0.150064
O O7 0.093214 0.001954 0.062793
O O8 0.002065 0.859980 0.003750
O O9 0.250000 0.113647 0.459569
O O10 0.402084 0.250000 0.473973
O O11 0.434756 0.114367 0.559293
O O12 0.750000 0.888487 0.342015
O O13 0.895713 0.750000 0.360924
O O14 0.002005 0.881688 0.295961
O O15 0.250000 0.630765 0.243886
O O16 0.394246 0.491538 0.223805
O O17 0.750000 0.865357 0.958858
O O18 0.569196 0.857061 0.859478
O O19 0.750000 0.853403 0.757107
#
# Coordination Sequence:
#
# PCOD9449458 Si02
#       7
#     8   8   8   8   8   8   8
#     4  10  20  32  48  72  96 117 150 194 233 273
#     4   8  14  25  41  63  91 119 148 185 227 268
#     4   8  15  30  50  68  88 118 154 189 227 272
#     4   9  18  32  50  72  95 120 154 193 230 272
#     4   9  18  31  47  70  98 125 154 189 229 274
#     4   8  14  25  42  64  88 116 152 189 222 263
#     4   9  18  32  48  68  96 126 155 188 228 276
#
# _framework density 20.177002000000002
#
# number of rings (size 3 to 8) (size 9 to 14) (size 15 to 20)
#    0.000    3.286    0.000    3.000    0.000    3.429 
#    0.000    5.000    0.000    0.857    0.000    0.000 
#    0.000    0.000    0.000    0.000    0.000    0.000 
#
# Total GULP energy -312244.038254 kJ/mol
# GULP energy per Si atom -5575.786397 kJ/mol
# Density = 2.013108 g / cm^3
# Si number density = 20.177002 Si / 1000 Ang^3
#
#
#
# Elastic Constant Matrix: (Units=GPa)
#
#
# Indices 1 2 3 4 5 6 
#
# 1 168.7961 6.5756 151.1973 0.0000 0.0000 0.0000
# 2 6.5756 43.7342 5.3654 0.0000 0.0000 0.0000
# 3 151.1973 5.3654 181.9753 0.0000 0.0000 0.0000
# 4 0.0000 0.0000 0.0000 21.0549 0.0000 0.0000
# 5 0.0000 0.0000 0.0000 0.0000 38.3375 0.0000
# 6 0.0000 0.0000 0.0000 0.0000 0.0000 13.4532
#
#
#
# Elastic Compliance Matrix: (Units=1/GPa)
#
#
# Indices 1 2 3 4 5 6 
#
# 1 0.023219 -0.001128 -0.019259 0.000000 0.000000 0.000000
# 2 -0.001128 0.023003 0.000259 0.000000 0.000000 0.000000
# 3 -0.019259 0.000259 0.021489 0.000000 0.000000 0.000000
# 4 0.000000 0.000000 0.000000 0.047495 0.000000 0.000000
# 5 0.000000 0.000000 0.000000 0.000000 0.026084 0.000000
# 6 0.000000 0.000000 0.000000 0.000000 0.000000 0.074332
#
#
# Mechanical properties :
#
#
# Convention : Reuss Voigt Hill
#
# Bulk Modulus (GPa) = 36.42221 80.08692 58.25457
# Shear Modulus (GPa) = 18.86586 29.99361 24.42974
#
# Velocity S-wave (km/s) = 3.06112 3.85973 3.48339
# Velocity P-wave (km/s) = 5.53033 7.72280 6.71663
#
# Compressibility (1/GPa) = 0.02745577
#
# Stress axis : x y z
#
# Youngs Moduli (GPa) = 43.06839 43.47215 46.53569
#
# Poissons Ratio (x) = 0.04905 0.89621
# Poissons Ratio (y) = 0.04860 -0.01207
# Poissons Ratio (z) = 0.82943 -0.01127
#
# Static dielectric constant tensor:
#      x y z
#    x 1.701380 0.000000 0.000000 
#    y 0.000000 1.784470 0.000000 
#    z 0.000000 0.000000 1.701250 
# 
# From -- ./inp_files/26124.got.cif
#   From: 2010.05.17/outbox.cif.g08.bks.cpg/sg59_14_cif.got.tgz:26124.got - 2010.06.03 14:40:33.
