data_PCOD9449515
_publ_section_title
;
Structure prediction by ZEFSAII (Michael W. Deem and Ramdas Pophale) SiO2 
 PCOD9449515
Probable space group: P M M N
;
_chemical_formula_sum "Si O2"
_cell_formula_units_Z 48
_cell_length_a 8.260800
_cell_length_b 9.741280
_cell_length_c 31.564428
_cell_angle_alpha 90.000000
_cell_angle_beta 90.000000
_cell_angle_gamma 90.000000
_cell_volume 2540.013694
_symmetry_space_group_name_H-M "P M M N"
_symmetry_group_IT_number 59
_space_group.IT_coordinate_system_code '2'
_symmetry_cell_setting 'orthorhombic'
loop_
_space_group_symop_operation_xyz
x,y,z
1/2-x,1/2-y,z
1/2+x,-y,-z
-x,1/2+y,-z
-x,-y,-z
1/2+x,1/2+y,-z
1/2-x,y,z
x,1/2-y,z
loop_
_atom_site_type_symbol
_atom_site_label
_atom_site_fract_x
_atom_site_fract_y
_atom_site_fract_z
Si Si1 0.447559 0.591235 0.366674
Si Si2 0.056960 0.406577 0.038959
Si Si3 0.054548 0.093789 0.787636
Si Si4 0.945193 0.906351 0.711249
Si Si5 0.555038 0.092884 0.538546
Si Si6 0.445568 0.406727 0.884733
O O1 0.250000 0.589896 0.366148
O O2 0.496083 0.750000 0.359668
O O3 0.504935 0.492336 0.329406
O O4 0.498425 0.548926 0.414177
O O5 0.250000 0.399649 0.036998
O O6 0.993247 0.250000 0.036722
O O7 0.007873 0.483100 0.082064
O O8 0.000000 0.500000 0.000000
O O9 0.250000 0.091486 0.786887
O O10 0.002851 0.250000 0.776987
O O11 0.004170 0.065471 0.836174
O O12 0.990826 0.986771 0.753730
O O13 0.750000 0.902459 0.708645
O O14 0.005044 0.750000 0.711334
O O15 0.750000 0.093180 0.539116
O O16 0.500314 0.250000 0.532478
O O17 0.500000 0.000000 0.500000
O O18 0.250000 0.408194 0.885850
O O19 0.496432 0.250000 0.895635
#
# Coordination Sequence:
#
# PCOD9449515 Si02
#       6
#     8   8   8   8   8   8
#     4   8  15  30  50  69  93 129 170 208 247 295
#     4  11  24  39  56  81 111 141 175 215 257 303
#     4   9  19  36  56  77 103 137 174 210 251 301
#     4  10  20  32  49  76 105 131 165 210 255 300
#     4   9  18  32  50  73  99 127 163 206 250 300
#     4   9  19  37  59  81 105 135 174 216 255 300
#
# _framework density 18.897537
#
# number of rings (size 3 to 8) (size 9 to 14) (size 15 to 20)
#    0.000    2.667    0.000    3.500    0.000    7.333 
#    0.000    7.500    0.000    1.000    0.000    0.000 
#    0.000    0.000    0.000    0.000    0.000    0.000 
#
# Total GULP energy -267791.532472 kJ/mol
# GULP energy per Si atom -5578.990260 kJ/mol
# Density = 1.885453 g / cm^3
# Si number density = 18.897537 Si / 1000 Ang^3
#
#
#
# Elastic Constant Matrix: (Units=GPa)
#
#
# Indices 1 2 3 4 5 6 
#
# 1 9.5932 20.4819 17.8976 0.0000 0.0000 0.0000
# 2 20.4819 168.8778 134.3897 0.0000 0.0000 0.0000
# 3 17.8976 134.3897 164.0548 0.0000 0.0000 0.0000
# 4 0.0000 0.0000 0.0000 38.4332 0.0000 0.0000
# 5 0.0000 0.0000 0.0000 0.0000 31.2969 0.0000
# 6 0.0000 0.0000 0.0000 0.0000 0.0000 25.5967
#
#
#
# Elastic Compliance Matrix: (Units=1/GPa)
#
#
# Indices 1 2 3 4 5 6 
#
# 1 0.141557 -0.014015 -0.003962 0.000000 0.000000 0.000000
# 2 -0.014015 0.018398 -0.013542 0.000000 0.000000 0.000000
# 3 -0.003962 -0.013542 0.017621 0.000000 0.000000 0.000000
# 4 0.000000 0.000000 0.000000 0.026019 0.000000 0.000000
# 5 0.000000 0.000000 0.000000 0.000000 0.031952 0.000000
# 6 0.000000 0.000000 0.000000 0.000000 0.000000 0.039067
#
#
# Mechanical properties :
#
#
# Convention : Reuss Voigt Hill
#
# Bulk Modulus (GPa) = 8.73085 76.45158 42.59121
# Shear Modulus (GPa) = 13.30384 30.38246 21.84315
#
# Velocity S-wave (km/s) = 2.65618 4.01402 3.40350
# Velocity P-wave (km/s) = 3.74662 7.87571 6.16701
#
# Compressibility (1/GPa) = 0.11453642
#
# Stress axis : x y z
#
# Youngs Moduli (GPa) = 7.06431 54.35490 56.75060
#
# Poissons Ratio (x) = 0.76180 0.22486
# Poissons Ratio (y) = 0.09901 0.76851
# Poissons Ratio (z) = 0.02799 0.73607
#
# Static dielectric constant tensor:
#      x y z
#    x 1.670200 0.000000 0.000000 
#    y 0.000000 1.615120 0.000000 
#    z 0.000000 0.000000 1.641530 
# 
# From -- ./inp_files/32909.got.cif
#   From: 2010.05.17/outbox.cif.g08.bks.cpg/sg59_17_cif.got.tgz:32909.got - 2010.06.03 14:40:33.
