data_PCOD9449231
_publ_section_title
;
Structure prediction by ZEFSAII (Michael W. Deem and Ramdas Pophale) SiO2 
 PCOD9449231
Probable space group: P M M N
;
_chemical_formula_sum "Si O2"
_cell_formula_units_Z 56
_cell_length_a 14.571732
_cell_length_b 16.119306
_cell_length_c 11.968204
_cell_angle_alpha 90.000000
_cell_angle_beta 90.000000
_cell_angle_gamma 90.000000
_cell_volume 2811.166043
_symmetry_space_group_name_H-M "P M M N"
_symmetry_group_IT_number 59
_space_group.IT_coordinate_system_code '2'
_symmetry_cell_setting 'orthorhombic'
loop_
_space_group_symop_operation_xyz
x,y,z
1/2-x,1/2-y,z
1/2+x,-y,-z
-x,1/2+y,-z
-x,-y,-z
1/2+x,1/2+y,-z
1/2-x,y,z
x,1/2-y,z
loop_
_atom_site_type_symbol
_atom_site_label
_atom_site_fract_x
_atom_site_fract_y
_atom_site_fract_z
Si Si1 0.355462 0.039895 0.071545
Si Si2 0.403264 0.840895 0.734548
Si Si3 0.147777 0.076694 0.487194
Si Si4 0.477161 0.157945 0.656443
Si Si5 0.444870 0.016035 0.837194
Si Si6 0.621724 0.658560 0.738424
Si Si7 0.356334 0.611240 0.486775
O O1 0.250000 0.005151 0.079603
O O2 0.353186 0.125606 0.139979
O O3 0.446814 0.996772 0.127844
O O4 0.387288 0.047102 0.943704
O O5 0.372327 0.750000 0.781394
O O6 0.512717 0.837348 0.727929
O O7 0.365734 0.848329 0.608779
O O8 0.395146 0.929251 0.799328
O O9 0.250000 0.080796 0.535291
O O10 0.084629 0.143436 0.546645
O O11 0.151994 0.094755 0.356051
O O12 0.111996 0.983910 0.503117
O O13 0.463367 0.250000 0.703269
O O14 0.449160 0.084414 0.740013
O O15 0.579943 0.149205 0.608521
O O16 0.656308 0.750000 0.715187
O O17 0.250000 0.610917 0.453572
#
# Coordination Sequence:
#
# PCOD9449231 Si02
#       7
#     8   8   8   8   8   8   8
#     4  10  22  41  64  86 114 158 208 261 315 362
#     4  10  19  36  62  88 119 155 200 256 308 362
#     4  11  22  36  59  89 124 166 207 255 311 365
#     4  12  24  39  60  90 132 170 202 246 306 384
#     4  10  23  42  63  88 122 159 205 256 310 377
#     4  10  20  35  59  90 120 154 202 257 304 359
#     4  11  22  37  59  88 126 167 209 254 303 365
#
# _framework density 19.920559999999998
#
# number of rings (size 3 to 8) (size 9 to 14) (size 15 to 20)
#    0.000    1.429    2.857    3.429    0.000    6.571 
#    0.000    2.143    0.000    0.857    0.000    0.000 
#    0.000    0.000    0.000    0.000    0.000    0.000 
#
# Total GULP energy -312087.101462 kJ/mol
# GULP energy per Si atom -5572.983955 kJ/mol
# Density = 1.987522 g / cm^3
# Si number density = 19.920560 Si / 1000 Ang^3
#
#
#
# Elastic Constant Matrix: (Units=GPa)
#
#
# Indices 1 2 3 4 5 6 
#
# 1 40.5826 41.5913 6.1731 0.0000 0.0000 0.0000
# 2 41.5913 96.9761 45.4191 0.0000 0.0000 0.0000
# 3 6.1731 45.4191 90.9757 0.0000 0.0000 0.0000
# 4 0.0000 0.0000 0.0000 12.6821 0.0000 0.0000
# 5 0.0000 0.0000 0.0000 0.0000 -4.7975 0.0000
# 6 0.0000 0.0000 0.0000 0.0000 0.0000 -26.6367
#
#
#
# Elastic Compliance Matrix: (Units=1/GPa)
#
#
# Indices 1 2 3 4 5 6 
#
# 1 0.049494 -0.025652 0.009448 0.000000 0.000000 0.000000
# 2 -0.025652 0.026754 -0.011616 0.000000 0.000000 0.000000
# 3 0.009448 -0.011616 0.016150 0.000000 0.000000 0.000000
# 4 0.000000 0.000000 0.000000 0.078851 0.000000 0.000000
# 5 0.000000 0.000000 0.000000 0.000000 -0.208440 0.000000
# 6 0.000000 0.000000 0.000000 0.000000 0.000000 -0.037542
#
#
# Mechanical properties :
#
#
# Convention : Reuss Voigt Hill
#
# Bulk Modulus (GPa) = 27.20510 46.10016 36.65263
# Shear Modulus (GPa) = -730.91074 5.27297 -362.81888
#
# Velocity S-wave (km/s) = -19.17575 1.62873 -13.51030
# Velocity P-wave (km/s) = 21.83100 5.17003 14.99772
#
# Compressibility (1/GPa) = 0.03675782
#
# Stress axis : x y z
#
# Youngs Moduli (GPa) = 20.20465 37.37755 61.91890
#
# Poissons Ratio (x) = 0.95881 -0.58503
# Poissons Ratio (y) = 0.51829 0.71926
# Poissons Ratio (z) = -0.19090 0.43418
#
# Static dielectric constant tensor:
#      x y z
#    x 1.745500 0.000000 0.000000 
#    y 0.000000 1.743430 0.000000 
#    z 0.000000 0.000000 1.671220 
# 
# From -- ./inp_files/16960.got.cif
#   From: 2010.05.17/outbox.cif.g08.bks.cpg/sg59_9_cif.got.tgz:16960.got - 2010.06.03 14:40:33.
