data_PCOD9449380
_publ_section_title
;
Structure prediction by ZEFSAII (Michael W. Deem and Ramdas Pophale) SiO2 
 PCOD9449380
Probable space group: P M M N
;
_chemical_formula_sum "Si O2"
_cell_formula_units_Z 48
_cell_length_a 9.438713
_cell_length_b 7.332630
_cell_length_c 31.937415
_cell_angle_alpha 90.000000
_cell_angle_beta 90.000000
_cell_angle_gamma 90.000000
_cell_volume 2210.407339
_symmetry_space_group_name_H-M "P M M N"
_symmetry_group_IT_number 59
_space_group.IT_coordinate_system_code '2'
_symmetry_cell_setting 'orthorhombic'
loop_
_space_group_symop_operation_xyz
x,y,z
1/2-x,1/2-y,z
1/2+x,-y,-z
-x,1/2+y,-z
-x,-y,-z
1/2+x,1/2+y,-z
1/2-x,y,z
x,1/2-y,z
loop_
_atom_site_type_symbol
_atom_site_label
_atom_site_fract_x
_atom_site_fract_y
_atom_site_fract_z
Si Si1 0.588667 0.032327 0.957979
Si Si2 0.913459 0.527821 0.379310
Si Si3 0.412823 0.527449 0.204744
Si Si4 0.590575 0.032134 0.541533
Si Si5 0.413536 0.472733 0.877238
Si Si6 0.586319 0.971941 0.285361
O O1 0.750000 0.962299 0.960544
O O2 0.598771 0.250000 0.952992
O O3 0.501639 0.965377 0.917727
O O4 0.500000 0.000000 0.000000
O O5 0.750000 0.474049 0.386183
O O6 0.915377 0.750000 0.379533
O O7 0.955672 0.471369 0.332334
O O8 0.011539 0.463170 0.416971
O O9 0.250000 0.469609 0.201053
O O10 0.412720 0.750000 0.204856
O O11 0.506709 0.471285 0.165077
O O12 0.485272 0.467899 0.248013
O O13 0.750000 0.961383 0.537183
O O14 0.599404 0.250000 0.546355
O O15 0.500000 0.000000 0.500000
O O16 0.250000 0.530803 0.878483
O O17 0.412410 0.250000 0.877577
O O18 0.750000 0.026000 0.278205
O O19 0.585085 0.750000 0.285106
#
# Coordination Sequence:
#
# PCOD9449380 Si02
#       6
#     8   8   8   8   8   8
#     4  10  20  33  49  69  93 121 154 191 230 273
#     4   8  14  25  40  57  80 111 144 179 220 264
#     4   9  15  21  31  50  77 108 141 177 216 259
#     4  10  20  32  47  67  90 118 152 188 227 271
#     4   9  16  26  40  57  80 112 147 182 222 267
#     4   8  13  21  33  50  74 106 141 173 210 259
#
# _framework density 21.715453
#
# number of rings (size 3 to 8) (size 9 to 14) (size 15 to 20)
#    0.000    3.000    0.000    3.000    0.000    6.667 
#    0.000    3.333    0.000    0.000    0.000    0.000 
#    0.000    1.333    0.000   11.667    0.000   16.500 
#
# Total GULP energy -268141.980966 kJ/mol
# GULP energy per Si atom -5586.291270 kJ/mol
# Density = 2.166603 g / cm^3
# Si number density = 21.715453 Si / 1000 Ang^3
#
#
#
# Elastic Constant Matrix: (Units=GPa)
#
#
# Indices 1 2 3 4 5 6 
#
# 1 228.6124 7.5842 168.2287 0.0000 0.0000 0.0000
# 2 7.5842 85.0251 3.7241 0.0000 0.0000 0.0000
# 3 168.2287 3.7241 240.0204 0.0000 0.0000 0.0000
# 4 0.0000 0.0000 0.0000 6.6620 0.0000 0.0000
# 5 0.0000 0.0000 0.0000 0.0000 47.7254 0.0000
# 6 0.0000 0.0000 0.0000 0.0000 0.0000 -3.3544
#
#
#
# Elastic Compliance Matrix: (Units=1/GPa)
#
#
# Indices 1 2 3 4 5 6 
#
# 1 0.009057 -0.000530 -0.006340 0.000000 0.000000 0.000000
# 2 -0.000530 0.011800 0.000189 0.000000 0.000000 0.000000
# 3 -0.006340 0.000189 0.008607 0.000000 0.000000 0.000000
# 4 0.000000 0.000000 0.000000 0.150106 0.000000 0.000000
# 5 0.000000 0.000000 0.000000 0.000000 0.020953 0.000000
# 6 0.000000 0.000000 0.000000 0.000000 0.000000 -0.298118
#
#
# Mechanical properties :
#
#
# Convention : Reuss Voigt Hill
#
# Bulk Modulus (GPa) = 62.10685 101.41465 81.76075
# Shear Modulus (GPa) = -63.39979 35.14800 -14.12589
#
# Velocity S-wave (km/s) = -5.40917 4.02751 -2.55326
# Velocity P-wave (km/s) = 3.21710 8.27229 5.38893
#
# Compressibility (1/GPa) = 0.01610128
#
# Stress axis : x y z
#
# Youngs Moduli (GPa) = 110.41095 84.74380 116.18559
#
# Poissons Ratio (x) = 0.04493 0.73660
# Poissons Ratio (y) = 0.05854 -0.02190
# Poissons Ratio (z) = 0.69998 -0.01598
#
# Static dielectric constant tensor:
#      x y z
#    x 1.708060 0.000000 0.000000 
#    y 0.000000 1.968150 0.000000 
#    z 0.000000 0.000000 1.739010 
# 
# From -- ./inp_files/32587.got.cif
#   From: 2010.05.17/outbox.cif.g08.bks.cpg/sg59_17_cif.got.tgz:32587.got - 2010.06.03 14:40:33.
