data_PCOD9449596
_publ_section_title
;
Structure prediction by ZEFSAII (Michael W. Deem and Ramdas Pophale) SiO2 
 PCOD9449596
Probable space group: P M M N
;
_chemical_formula_sum "Si O2"
_cell_formula_units_Z 56
_cell_length_a 7.672569
_cell_length_b 15.575227
_cell_length_c 21.697084
_cell_angle_alpha 90.000000
_cell_angle_beta 90.000000
_cell_angle_gamma 90.000000
_cell_volume 2592.845016
_symmetry_space_group_name_H-M "P M M N"
_symmetry_group_IT_number 59
_space_group.IT_coordinate_system_code '2'
_symmetry_cell_setting 'orthorhombic'
loop_
_space_group_symop_operation_xyz
x,y,z
1/2-x,1/2-y,z
1/2+x,-y,-z
-x,1/2+y,-z
-x,-y,-z
1/2+x,1/2+y,-z
1/2-x,y,z
x,1/2-y,z
loop_
_atom_site_type_symbol
_atom_site_label
_atom_site_fract_x
_atom_site_fract_y
_atom_site_fract_z
Si Si1 0.052022 0.103782 0.346012
Si Si2 0.952311 0.489216 0.085296
Si Si3 0.040851 0.157258 0.717846
Si Si4 0.961192 0.843908 0.527020
Si Si5 0.956053 0.349242 0.988395
Si Si6 0.960765 0.571967 0.405961
Si Si7 0.045736 0.024840 0.224471
O O1 0.250000 0.136080 0.337056
O O2 0.968117 0.152779 0.403464
O O3 0.972115 0.086503 0.278803
O O4 0.053345 0.009726 0.376989
O O5 0.750000 0.495410 0.068770
O O6 0.024830 0.584216 0.068993
O O7 0.968609 0.467893 0.156941
O O8 0.027270 0.410535 0.043977
O O9 0.250000 0.155531 0.725844
O O10 0.975133 0.250000 0.739123
O O11 0.008205 0.145428 0.644800
O O12 0.972984 0.073311 0.752446
O O13 0.750000 0.854507 0.531819
O O14 0.992952 0.750000 0.501043
O O15 0.023558 0.908172 0.474592
O O16 0.750000 0.339600 0.999077
O O17 0.024180 0.250000 0.982845
O O18 0.750000 0.557577 0.407229
O O19 0.250000 0.043921 0.220112
#
# Coordination Sequence:
#
# PCOD9449596 Si02
#       7
#     8   8   8   8   8   8   8
#     4   9  18  31  46  65  90 122 159 196 236 286
#     4  10  20  35  57  83 109 138 172 207 243 288
#     4   9  17  29  45  67  94 123 161 208 254 303
#     4   9  16  27  45  67  89 115 152 199 247 292
#     4   9  19  37  60  85 112 139 166 200 245 294
#     4   9  16  27  46  68  88 115 152 197 250 302
#     4  10  20  33  48  68  98 135 170 202 241 288
#
# _framework density 21.597897
#
# number of rings (size 3 to 8) (size 9 to 14) (size 15 to 20)
#    0.000    2.714    0.000    1.714    0.000    4.000 
#    0.000    0.714    0.000    3.429    0.000    0.000 
#    0.000    0.000    0.000    0.000    0.000    0.000 
#
# Total GULP energy -311795.031711 kJ/mol
# GULP energy per Si atom -5567.768423 kJ/mol
# Density = 2.154874 g / cm^3
# Si number density = 21.597897 Si / 1000 Ang^3
#
#
#
# Elastic Constant Matrix: (Units=GPa)
#
#
# Indices 1 2 3 4 5 6 
#
# 1 42.6172 7.1858 2.1507 0.0000 0.0000 0.0000
# 2 7.1858 57.5806 17.9347 0.0000 0.0000 0.0000
# 3 2.1507 17.9347 131.7815 0.0000 0.0000 0.0000
# 4 0.0000 0.0000 0.0000 17.1956 0.0000 0.0000
# 5 0.0000 0.0000 0.0000 0.0000 -12.8700 0.0000
# 6 0.0000 0.0000 0.0000 0.0000 0.0000 8.8818
#
#
#
# Elastic Compliance Matrix: (Units=1/GPa)
#
#
# Indices 1 2 3 4 5 6 
#
# 1 0.023969 -0.002996 0.000017 0.000000 0.000000 0.000000
# 2 -0.002996 0.018510 -0.002470 0.000000 0.000000 0.000000
# 3 0.000017 -0.002470 0.007924 0.000000 0.000000 0.000000
# 4 0.000000 0.000000 0.000000 0.058154 0.000000 0.000000
# 5 0.000000 0.000000 0.000000 0.000000 -0.077700 0.000000
# 6 0.000000 0.000000 0.000000 0.000000 0.000000 0.112590
#
#
# Mechanical properties :
#
#
# Convention : Reuss Voigt Hill
#
# Bulk Modulus (GPa) = 25.31415 31.83573 28.57494
# Shear Modulus (GPa) = 29.84793 16.28868 23.06831
#
# Velocity S-wave (km/s) = 3.72154 2.74921 3.27170
# Velocity P-wave (km/s) = 5.49659 4.98495 5.24701
#
# Compressibility (1/GPa) = 0.03950360
#
# Stress axis : x y z
#
# Youngs Moduli (GPa) = 41.72036 54.02390 126.19512
#
# Poissons Ratio (x) = 0.16188 -0.00210
# Poissons Ratio (y) = 0.12501 0.31173
# Poissons Ratio (z) = -0.00069 0.13345
#
# Static dielectric constant tensor:
#      x y z
#    x 1.813370 0.000000 0.000000 
#    y 0.000000 1.844450 0.000000 
#    z 0.000000 0.000000 1.812980 
# 
# From -- ./inp_files/29071.got.cif
#   From: 2010.05.17/outbox.cif.g08.bks.cpg/sg59_15_cif.got.tgz:29071.got - 2010.06.03 14:40:33.
