data_PCOD9449265
_publ_section_title
;
Structure prediction by ZEFSAII (Michael W. Deem and Ramdas Pophale) SiO2 
 PCOD9449265
Probable space group: P M M N
;
_chemical_formula_sum "Si O2"
_cell_formula_units_Z 32
_cell_length_a 5.754273
_cell_length_b 24.913899
_cell_length_c 7.931916
_cell_angle_alpha 90.000000
_cell_angle_beta 90.000000
_cell_angle_gamma 90.000000
_cell_volume 1137.130395
_symmetry_space_group_name_H-M "P M M N"
_symmetry_group_IT_number 59
_space_group.IT_coordinate_system_code '2'
_symmetry_cell_setting 'orthorhombic'
loop_
_space_group_symop_operation_xyz
x,y,z
1/2-x,1/2-y,z
1/2+x,-y,-z
-x,1/2+y,-z
-x,-y,-z
1/2+x,1/2+y,-z
1/2-x,y,z
x,1/2-y,z
loop_
_atom_site_type_symbol
_atom_site_label
_atom_site_fract_x
_atom_site_fract_y
_atom_site_fract_z
Si Si1 0.250000 0.016457 0.698325
Si Si2 0.999932 0.168186 0.331780
Si Si3 0.750000 0.115194 0.877802
Si Si4 0.498702 0.250000 0.641580
Si Si5 0.250000 0.580258 0.509589
Si Si6 0.250000 0.495088 0.134175
Si Si7 0.250000 0.387858 0.907242
O O1 0.250000 0.080609 0.725653
O O2 0.250000 0.983129 0.526172
O O3 0.496397 0.999320 0.779622
O O4 0.750000 0.182746 0.249273
O O5 0.002845 0.200820 0.507995
O O6 0.963202 0.106899 0.388119
O O7 0.250000 0.177060 0.248799
O O8 0.750000 0.102386 0.678172
O O9 0.499921 0.140446 0.920492
O O10 0.750000 0.054893 0.955263
O O11 0.750000 0.250000 0.730290
O O12 0.250000 0.250000 0.733367
O O13 0.250000 0.439019 0.033355
#
# Coordination Sequence:
#
# PCOD9449265 Si02
#       7
#     4   8   4   4   4   4   4
#     4  10  20  30  49  64  88 113 143 185 225 272
#     4   8  16  26  40  55  90 119 146 165 190 261
#     4  10  20  30  49  64  88 113 143 185 225 272
#     4   8  12  24  40  56  70 124 156 162 182 220
#     4  10  22  27  42  70 102 118 132 164 244 273
#     4  10  20  36  50  61  75 114 166 197 213 240
#     4  10  20  36  50  61  75 114 166 197 213 240
#
# _framework density 28.141012
#
# number of rings (size 3 to 8) (size 9 to 14) (size 15 to 20)
#    0.750    2.000    0.000    3.750    3.500    4.000 
#    0.000    0.000    0.000    0.000    0.000    0.000 
#    0.000    0.000    0.000   49.500    0.000    0.000 
#
# Total GULP energy -178391.845604 kJ/mol
# GULP energy per Si atom -5574.745175 kJ/mol
# Density = 2.807696 g / cm^3
# Si number density = 28.141012 Si / 1000 Ang^3
#
#
#
# Elastic Constant Matrix: (Units=GPa)
#
#
# Indices 1 2 3 4 5 6 
#
# 1 402.8042 21.9961 50.7210 0.0000 0.0000 0.0000
# 2 21.9961 50.7740 3.1587 0.0000 0.0000 0.0000
# 3 50.7210 3.1587 34.9634 0.0000 0.0000 0.0000
# 4 0.0000 0.0000 0.0000 6.2219 0.0000 0.0000
# 5 0.0000 0.0000 0.0000 0.0000 40.8351 0.0000
# 6 0.0000 0.0000 0.0000 0.0000 0.0000 25.6409
#
#
#
# Elastic Compliance Matrix: (Units=1/GPa)
#
#
# Indices 1 2 3 4 5 6 
#
# 1 0.003094 -0.001067 -0.004392 0.000000 0.000000 0.000000
# 2 -0.001067 0.020174 -0.000275 0.000000 0.000000 0.000000
# 3 -0.004392 -0.000275 0.034997 0.000000 0.000000 0.000000
# 4 0.000000 0.000000 0.000000 0.160721 0.000000 0.000000
# 5 0.000000 0.000000 0.000000 0.000000 0.024489 0.000000
# 6 0.000000 0.000000 0.000000 0.000000 0.000000 0.039000
#
#
# Mechanical properties :
#
#
# Convention : Reuss Voigt Hill
#
# Bulk Modulus (GPa) = 21.36813 71.14369 46.25591
# Shear Modulus (GPa) = 16.15286 42.05064 29.10175
#
# Velocity S-wave (km/s) = 2.39842 3.86979 3.21929
# Velocity P-wave (km/s) = 3.90892 6.73075 5.50376
#
# Compressibility (1/GPa) = 0.04679868
#
# Stress axis : x y z
#
# Youngs Moduli (GPa) = 323.21766 49.56753 28.57358
#
# Poissons Ratio (x) = 0.05289 0.12549
# Poissons Ratio (y) = 0.34491 0.00785
# Poissons Ratio (z) = 1.41953 0.01361
#
# Static dielectric constant tensor:
#      x y z
#    x 2.250500 0.000000 0.000000 
#    y 0.000000 2.243840 0.000000 
#    z 0.000000 0.000000 2.300880 
# 
# From -- ./inp_files/4777.got.cif
#   From: 2010.05.17/outbox.cif.g08.bks.cpg/sg59_3_cif.got.tgz:4777.got - 2010.06.03 14:40:33.
