data_PCOD9449156
_publ_section_title
;
Structure prediction by ZEFSAII (Michael W. Deem and Ramdas Pophale) SiO2 
 PCOD9449156
Probable space group: P M M N
;
_chemical_formula_sum "Si O2"
_cell_formula_units_Z 56
_cell_length_a 22.435780
_cell_length_b 13.804685
_cell_length_c 9.781899
_cell_angle_alpha 90.000000
_cell_angle_beta 90.000000
_cell_angle_gamma 90.000000
_cell_volume 3029.638760
_symmetry_space_group_name_H-M "P M M N"
_symmetry_group_IT_number 59
_space_group.IT_coordinate_system_code '2'
_symmetry_cell_setting 'orthorhombic'
loop_
_space_group_symop_operation_xyz
x,y,z
1/2-x,1/2-y,z
1/2+x,-y,-z
-x,1/2+y,-z
-x,-y,-z
1/2+x,1/2+y,-z
1/2-x,y,z
x,1/2-y,z
loop_
_atom_site_type_symbol
_atom_site_label
_atom_site_fract_x
_atom_site_fract_y
_atom_site_fract_z
Si Si1 0.687298 0.495032 0.098748
Si Si2 0.631152 0.634528 0.300633
Si Si3 0.680758 0.359952 0.702940
Si Si4 0.535947 0.865623 0.076658
Si Si5 0.821362 0.565292 0.581842
Si Si6 0.902794 0.136453 0.968805
Si Si7 0.354518 0.362828 0.120361
O O1 0.750000 0.442064 0.107408
O O2 0.679305 0.569501 0.221992
O O3 0.632692 0.422152 0.083257
O O4 0.685454 0.563646 0.965751
O O5 0.639977 0.750000 0.283029
O O6 0.570629 0.607703 0.216848
O O7 0.639828 0.606600 0.457551
O O8 0.750000 0.366567 0.749854
O O9 0.672228 0.250000 0.649036
O O10 0.671959 0.448991 0.599600
O O11 0.636222 0.372569 0.830371
O O12 0.528740 0.750000 0.087747
O O13 0.469345 0.903049 0.054900
O O14 0.580459 0.880711 0.948349
O O15 0.750000 0.586213 0.566265
O O16 0.845268 0.612450 0.722098
O O17 0.905353 0.250000 0.003292
O O18 0.340191 0.250000 0.095657
#
# Coordination Sequence:
#
# PCOD9449156 Si02
#       7
#     8   8   8   8   8   8   8
#     4  11  21  34  54  83 112 141 183 227 276 334
#     4  10  22  38  55  79 115 153 184 221 273 332
#     4   9  18  34  56  82 111 141 180 233 282 324
#     4   8  18  37  58  79 109 147 185 225 276 333
#     4  11  21  35  55  84 113 144 187 226 273 333
#     4  10  19  35  61  84 108 143 185 233 282 328
#     4  10  20  33  52  80 111 142 182 230 270 318
#
# _framework density 18.484052999999999
#
# number of rings (size 3 to 8) (size 9 to 14) (size 15 to 20)
#    0.000    2.143    1.429    3.000    0.000    6.571 
#    0.000    1.429    0.000    1.714    0.000    1.000 
#    0.000    0.000    0.000    0.000    0.000    0.000 
#
# Total GULP energy -312086.474200 kJ/mol
# GULP energy per Si atom -5572.972754 kJ/mol
# Density = 1.844198 g / cm^3
# Si number density = 18.484053 Si / 1000 Ang^3
#
#
#
# Elastic Constant Matrix: (Units=GPa)
#
#
# Indices 1 2 3 4 5 6 
#
# 1 104.0828 21.8824 14.6878 0.0000 0.0000 0.0000
# 2 21.8824 77.8782 7.1738 0.0000 0.0000 0.0000
# 3 14.6878 7.1738 85.3994 0.0000 0.0000 0.0000
# 4 0.0000 0.0000 0.0000 26.6548 0.0000 0.0000
# 5 0.0000 0.0000 0.0000 0.0000 24.4702 0.0000
# 6 0.0000 0.0000 0.0000 0.0000 0.0000 27.0059
#
#
#
# Elastic Compliance Matrix: (Units=1/GPa)
#
#
# Indices 1 2 3 4 5 6 
#
# 1 0.010412 -0.002782 -0.001557 0.000000 0.000000 0.000000
# 2 -0.002782 0.013684 -0.000671 0.000000 0.000000 0.000000
# 3 -0.001557 -0.000671 0.012034 0.000000 0.000000 0.000000
# 4 0.000000 0.000000 0.000000 0.037517 0.000000 0.000000
# 5 0.000000 0.000000 0.000000 0.000000 0.040866 0.000000
# 6 0.000000 0.000000 0.000000 0.000000 0.000000 0.037029
#
#
# Mechanical properties :
#
#
# Convention : Reuss Voigt Hill
#
# Bulk Modulus (GPa) = 38.29996 39.42759 38.86377
# Shear Modulus (GPa) = 29.36583 30.53396 29.94989
#
# Velocity S-wave (km/s) = 3.99019 4.06878 4.02967
# Velocity P-wave (km/s) = 6.48030 6.59167 6.53623
#
# Compressibility (1/GPa) = 0.02610969
#
# Stress axis : x y z
#
# Youngs Moduli (GPa) = 96.03920 73.07727 83.09892
#
# Poissons Ratio (x) = 0.20332 0.12939
# Poissons Ratio (y) = 0.26721 0.05576
# Poissons Ratio (z) = 0.14954 0.04903
#
# Static dielectric constant tensor:
#      x y z
#    x 1.672600 0.000000 0.000000 
#    y 0.000000 1.681080 0.000000 
#    z 0.000000 0.000000 1.635450 
# 
# From -- ./inp_files/11440.got.cif
#   From: 2010.05.17/outbox.cif.g08.bks.cpg/sg59_6_cif.got.tgz:11440.got - 2010.06.03 14:40:33.
