data_PCOD9449526
_publ_section_title
;
Structure prediction by ZEFSAII (Michael W. Deem and Ramdas Pophale) SiO2 
 PCOD9449526
Probable space group: P M M N
;
_chemical_formula_sum "Si O2"
_cell_formula_units_Z 56
_cell_length_a 7.592017
_cell_length_b 20.807749
_cell_length_c 15.315680
_cell_angle_alpha 90.000000
_cell_angle_beta 90.000000
_cell_angle_gamma 90.000000
_cell_volume 2419.460611
_symmetry_space_group_name_H-M "P M M N"
_symmetry_group_IT_number 59
_space_group.IT_coordinate_system_code '2'
_symmetry_cell_setting 'orthorhombic'
loop_
_space_group_symop_operation_xyz
x,y,z
1/2-x,1/2-y,z
1/2+x,-y,-z
-x,1/2+y,-z
-x,-y,-z
1/2+x,1/2+y,-z
1/2-x,y,z
x,1/2-y,z
loop_
_atom_site_type_symbol
_atom_site_label
_atom_site_fract_x
_atom_site_fract_y
_atom_site_fract_z
Si Si1 0.044636 0.319316 0.200104
Si Si2 0.040168 0.546253 0.580245
Si Si3 0.460931 0.177225 0.699729
Si Si4 0.539884 0.321808 0.496342
Si Si5 0.455196 0.457451 0.230855
Si Si6 0.456893 0.581633 0.145289
Si Si7 0.963769 0.179289 0.996737
O O1 0.250000 0.317764 0.226440
O O2 0.966292 0.250000 0.226385
O O3 0.963472 0.386258 0.231222
O O4 0.033311 0.323371 0.094990
O O5 0.250000 0.549192 0.590494
O O6 0.970908 0.618042 0.558863
O O7 0.000000 0.500000 0.500000
O O8 0.963566 0.519270 0.669787
O O9 0.250000 0.176151 0.705456
O O10 0.522976 0.250000 0.719845
O O11 0.509578 0.164382 0.599046
O O12 0.530281 0.126285 0.768999
O O13 0.750000 0.319632 0.482906
O O14 0.469122 0.250000 0.477432
O O15 0.250000 0.449684 0.206075
O O16 0.533625 0.511836 0.168243
O O17 0.250000 0.572292 0.126957
O O18 0.530499 0.622412 0.064737
O O19 0.750000 0.176417 0.001042
O O20 0.010201 0.250000 0.960161
#
# Coordination Sequence:
#
# PCOD9449526 Si02
#       7
#     8   8   8   8   8   8   8
#     4   9  19  37  58  79 107 142 177 217 269 321
#     4  11  23  38  57  80 107 140 177 219 267 318
#     4  10  20  32  49  77 109 138 172 216 263 311
#     4   9  19  36  55  74  99 134 175 217 263 315
#     4  10  22  38  55  78 107 140 178 219 264 315
#     4  10  20  34  52  75 106 143 180 215 256 311
#     4   9  18  33  54  79 105 136 175 216 258 308
#
# _framework density 23.145655999999999
#
# number of rings (size 3 to 8) (size 9 to 14) (size 15 to 20)
#    0.000    2.286    0.000    2.143    0.000    8.857 
#    0.000    1.429    0.000    0.000    0.000    0.000 
#    0.000    0.000    0.000    0.000    0.000    0.000 
#
# Total GULP energy -312838.359461 kJ/mol
# GULP energy per Si atom -5586.399276 kJ/mol
# Density = 2.309298 g / cm^3
# Si number density = 23.145656 Si / 1000 Ang^3
#
#
#
# Elastic Constant Matrix: (Units=GPa)
#
#
# Indices 1 2 3 4 5 6 
#
# 1 60.7205 6.7079 -12.3058 0.0000 0.0000 0.0000
# 2 6.7079 108.0986 16.4022 0.0000 0.0000 0.0000
# 3 -12.3058 16.4022 31.7751 0.0000 0.0000 0.0000
# 4 0.0000 0.0000 0.0000 24.5021 0.0000 0.0000
# 5 0.0000 0.0000 0.0000 0.0000 17.2397 0.0000
# 6 0.0000 0.0000 0.0000 0.0000 0.0000 1.6930
#
#
#
# Elastic Compliance Matrix: (Units=1/GPa)
#
#
# Indices 1 2 3 4 5 6 
#
# 1 0.018436 -0.002417 0.008387 0.000000 0.000000 0.000000
# 2 -0.002417 0.010354 -0.006280 0.000000 0.000000 0.000000
# 3 0.008387 -0.006280 0.037961 0.000000 0.000000 0.000000
# 4 0.000000 0.000000 0.000000 0.040813 0.000000 0.000000
# 5 0.000000 0.000000 0.000000 0.000000 0.058006 0.000000
# 6 0.000000 0.000000 0.000000 0.000000 0.000000 0.590655
#
#
# Mechanical properties :
#
#
# Convention : Reuss Voigt Hill
#
# Bulk Modulus (GPa) = 15.12154 24.68920 19.90537
# Shear Modulus (GPa) = 6.41941 21.33962 13.87952
#
# Velocity S-wave (km/s) = 1.66718 3.03969 2.45145
# Velocity P-wave (km/s) = 3.20209 4.79684 4.07818
#
# Compressibility (1/GPa) = 0.06613084
#
# Stress axis : x y z
#
# Youngs Moduli (GPa) = 54.24282 96.58355 26.34260
#
# Poissons Ratio (x) = 0.23340 -0.22094
# Poissons Ratio (y) = 0.13108 0.16544
# Poissons Ratio (z) = -0.45494 0.60659
#
# Static dielectric constant tensor:
#      x y z
#    x 1.849210 0.000000 0.000000 
#    y 0.000000 1.928520 0.000000 
#    z 0.000000 0.000000 1.822740 
# 
# From -- ./inp_files/21078.got.cif
#   From: 2010.05.17/outbox.cif.g08.bks.cpg/sg59_11_cif.got.tgz:21078.got - 2010.06.03 14:40:33.
