data_PCOD9449655
_publ_section_title
;
Structure prediction by ZEFSAII (Michael W. Deem and Ramdas Pophale) SiO2 
 PCOD9449655
Probable space group: P M M N
;
_chemical_formula_sum "Si O2"
_cell_formula_units_Z 56
_cell_length_a 8.789408
_cell_length_b 14.736663
_cell_length_c 24.469849
_cell_angle_alpha 90.000000
_cell_angle_beta 90.000000
_cell_angle_gamma 90.000000
_cell_volume 3169.494965
_symmetry_space_group_name_H-M "P M M N"
_symmetry_group_IT_number 59
_space_group.IT_coordinate_system_code '2'
_symmetry_cell_setting 'orthorhombic'
loop_
_space_group_symop_operation_xyz
x,y,z
1/2-x,1/2-y,z
1/2+x,-y,-z
-x,1/2+y,-z
-x,-y,-z
1/2+x,1/2+y,-z
1/2-x,y,z
x,1/2-y,z
loop_
_atom_site_type_symbol
_atom_site_label
_atom_site_fract_x
_atom_site_fract_y
_atom_site_fract_z
Si Si1 0.433734 0.499390 0.646614
Si Si2 0.068062 0.004924 0.232940
Si Si3 0.567053 0.854842 0.442828
Si Si4 0.432332 0.004866 0.939720
Si Si5 0.567032 0.354751 0.442071
Si Si6 0.933592 0.354996 0.148994
Si Si7 0.933655 0.355196 0.855524
O O1 0.250000 0.499350 0.652130
O O2 0.505694 0.499511 0.706035
O O3 0.479095 0.413900 0.609134
O O4 0.478693 0.585762 0.609747
O O5 0.250000 0.010671 0.233402
O O6 0.001697 0.091452 0.200580
O O7 0.024647 0.915559 0.197517
O O8 0.750000 0.859423 0.446688
O O9 0.521336 0.750000 0.436153
O O10 0.499882 0.887833 0.500368
O O11 0.250000 0.009012 0.942128
O O12 0.495053 0.091648 0.906691
O O13 0.475304 0.915849 0.903845
O O14 0.500000 0.000000 0.000000
O O15 0.750000 0.358955 0.445930
O O16 0.520835 0.250000 0.435281
O O17 0.750000 0.356446 0.153270
O O18 0.982024 0.250000 0.145452
O O19 0.750000 0.357636 0.860524
O O20 0.980384 0.250000 0.851819
#
# Coordination Sequence:
#
# PCOD9449655 Si02
#       7
#     8   8   8   8   8   8   8
#     4  10  20  33  49  70  98 131 164 200 248 306
#     4  10  21  35  52  77 104 130 169 219 261 300
#     4   9  18  32  49  70  96 125 159 202 251 300
#     4  10  20  34  54  83 114 141 174 214 254 301
#     4   9  18  32  49  69  93 123 160 200 244 299
#     4   9  19  37  58  76 100 139 178 209 250 304
#     4   9  19  37  57  75 102 141 178 215 262 308
#
# _framework density 17.668431000000002
#
# number of rings (size 3 to 8) (size 9 to 14) (size 15 to 20)
#    0.000    2.571    0.000    1.286    0.000    4.571 
#    0.000    2.857    0.000    0.000    0.000    0.000 
#    0.000    0.000    0.000    0.000    0.000    0.000 
#
# Total GULP energy -312387.819477 kJ/mol
# GULP energy per Si atom -5578.353919 kJ/mol
# Density = 1.762822 g / cm^3
# Si number density = 17.668431 Si / 1000 Ang^3
#
#
#
# Elastic Constant Matrix: (Units=GPa)
#
#
# Indices 1 2 3 4 5 6 
#
# 1 15.0602 36.0291 41.3697 0.0000 0.0000 0.0000
# 2 36.0291 158.8916 96.7163 0.0000 0.0000 0.0000
# 3 41.3697 96.7163 193.6354 0.0000 0.0000 0.0000
# 4 0.0000 0.0000 0.0000 18.0977 0.0000 0.0000
# 5 0.0000 0.0000 0.0000 0.0000 32.5939 0.0000
# 6 0.0000 0.0000 0.0000 0.0000 0.0000 -86.9880
#
#
#
# Elastic Compliance Matrix: (Units=1/GPa)
#
#
# Indices 1 2 3 4 5 6 
#
# 1 0.244706 -0.034002 -0.035297 0.000000 0.000000 0.000000
# 2 -0.034002 0.013768 0.000388 0.000000 0.000000 0.000000
# 3 -0.035297 0.000388 0.012512 0.000000 0.000000 0.000000
# 4 0.000000 0.000000 0.000000 0.055256 0.000000 0.000000
# 5 0.000000 0.000000 0.000000 0.000000 0.030681 0.000000
# 6 0.000000 0.000000 0.000000 0.000000 0.000000 -0.011496
#
#
# Mechanical properties :
#
#
# Convention : Reuss Voigt Hill
#
# Bulk Modulus (GPa) = 7.50968 79.53526 43.52247
# Shear Modulus (GPa) = 9.47623 5.63888 7.55755
#
# Velocity S-wave (km/s) = 2.31841 1.78841 2.07044
# Velocity P-wave (km/s) = 3.38027 7.02693 5.51380
#
# Compressibility (1/GPa) = 0.13316142
#
# Stress axis : x y z
#
# Youngs Moduli (GPa) = 4.08654 72.63432 79.92479
#
# Poissons Ratio (x) = 2.46974 2.82113
# Poissons Ratio (y) = 0.13895 -0.03101
# Poissons Ratio (z) = 0.14424 -0.02818
#
# Static dielectric constant tensor:
#      x y z
#    x 1.594220 0.000000 0.000000 
#    y 0.000000 1.613690 0.000000 
#    z 0.000000 0.000000 1.564850 
# 
# From -- ./inp_files/29088.got.cif
#   From: 2010.05.17/outbox.cif.g08.bks.cpg/sg59_15_cif.got.tgz:29088.got - 2010.06.03 14:40:33.
