data_PCOD9449108
_publ_section_title
;
Structure prediction by ZEFSAII (Michael W. Deem and Ramdas Pophale) SiO2 
 PCOD9449108
Probable space group: P M M N
;
_chemical_formula_sum "Si O2"
_cell_formula_units_Z 64
_cell_length_a 18.068654
_cell_length_b 8.450562
_cell_length_c 22.077479
_cell_angle_alpha 90.000000
_cell_angle_beta 90.000000
_cell_angle_gamma 90.000000
_cell_volume 3371.016470
_symmetry_space_group_name_H-M "P M M N"
_symmetry_group_IT_number 59
_space_group.IT_coordinate_system_code '2'
_symmetry_cell_setting 'orthorhombic'
loop_
_space_group_symop_operation_xyz
x,y,z
1/2-x,1/2-y,z
1/2+x,-y,-z
-x,1/2+y,-z
-x,-y,-z
1/2+x,1/2+y,-z
1/2-x,y,z
x,1/2-y,z
loop_
_atom_site_type_symbol
_atom_site_label
_atom_site_fract_x
_atom_site_fract_y
_atom_site_fract_z
Si Si1 0.560638 0.437786 0.104471
Si Si2 0.167823 0.939503 0.373384
Si Si3 0.666223 0.562912 0.003560
Si Si4 0.450106 0.942046 0.688757
Si Si5 0.895553 0.064688 0.882844
Si Si6 0.165738 0.556795 0.783887
Si Si7 0.105454 0.439565 0.249775
Si Si8 0.520781 0.939079 0.565856
O O1 0.546346 0.250000 0.110506
O O2 0.482267 0.524416 0.107356
O O3 0.614606 0.488463 0.159311
O O4 0.605301 0.473209 0.043310
O O5 0.250000 0.984017 0.394157
O O6 0.161634 0.750000 0.373221
O O7 0.155134 0.001373 0.305212
O O8 0.102764 0.009347 0.414279
O O9 0.750000 0.512317 0.019257
O O10 0.659611 0.750000 0.015234
O O11 0.650139 0.528919 0.933397
O O12 0.447934 0.750000 0.686891
O O13 0.376381 0.995482 0.722877
O O14 0.521359 0.982746 0.730100
O O15 0.467344 0.997381 0.620664
O O16 0.882845 0.250000 0.891214
O O17 0.876333 0.013862 0.814661
O O18 0.250000 0.500918 0.788800
O O19 0.167503 0.750000 0.783805
O O20 0.109156 0.250000 0.245506
O O21 0.517340 0.750000 0.565652
O O22 0.500000 0.000000 0.500000
#
# Coordination Sequence:
#
# PCOD9449108 Si02
#       8
#     8   8   8   8   8   8   8   8
#     4  11  21  37  60  84 112 145 187 234 285 347
#     4  10  21  37  58  87 121 154 194 244 294 346
#     4  11  25  43  59  78 109 147 187 236 293 349
#     4   8  15  30  51  78 110 143 182 226 273 331
#     4  12  24  38  59  85 112 147 192 239 288 343
#     4   9  16  28  52  84 112 139 176 226 281 336
#     4  10  19  35  58  83 113 149 187 231 287 345
#     4  10  20  35  58  84 116 159 202 243 288 340
#
# _framework density 18.98537
#
# number of rings (size 3 to 8) (size 9 to 14) (size 15 to 20)
#    0.000    1.875    1.250    4.500    0.000    3.000 
#    0.000    0.625    0.000    2.250    0.000    0.000 
#    0.000    0.000    0.000    0.000    0.000    0.000 
#
# Total GULP energy -357469.426943 kJ/mol
# GULP energy per Si atom -5585.459796 kJ/mol
# Density = 1.894216 g / cm^3
# Si number density = 18.985370 Si / 1000 Ang^3
#
#
#
# Elastic Constant Matrix: (Units=GPa)
#
#
# Indices 1 2 3 4 5 6 
#
# 1 48.5277 1.7065 10.7678 0.0000 0.0000 0.0000
# 2 1.7065 25.7634 -3.5016 0.0000 0.0000 0.0000
# 3 10.7678 -3.5016 93.4620 0.0000 0.0000 0.0000
# 4 0.0000 0.0000 0.0000 28.1217 0.0000 0.0000
# 5 0.0000 0.0000 0.0000 0.0000 14.6575 0.0000
# 6 0.0000 0.0000 0.0000 0.0000 0.0000 16.7161
#
#
#
# Elastic Compliance Matrix: (Units=1/GPa)
#
#
# Indices 1 2 3 4 5 6 
#
# 1 0.021225 -0.001747 -0.002511 0.000000 0.000000 0.000000
# 2 -0.001747 0.039157 0.001668 0.000000 0.000000 0.000000
# 3 -0.002511 0.001668 0.011051 0.000000 0.000000 0.000000
# 4 0.000000 0.000000 0.000000 0.035560 0.000000 0.000000
# 5 0.000000 0.000000 0.000000 0.000000 0.068225 0.000000
# 6 0.000000 0.000000 0.000000 0.000000 0.000000 0.059823
#
#
# Mechanical properties :
#
#
# Convention : Reuss Voigt Hill
#
# Bulk Modulus (GPa) = 15.09331 20.63318 17.86325
# Shear Modulus (GPa) = 19.06178 22.48441 20.77309
#
# Velocity S-wave (km/s) = 3.17207 3.44510 3.31140
# Velocity P-wave (km/s) = 4.62421 5.16880 4.90407
#
# Compressibility (1/GPa) = 0.06625451
#
# Stress axis : x y z
#
# Youngs Moduli (GPa) = 47.11345 25.53808 90.48694
#
# Poissons Ratio (x) = 0.04462 0.22720
# Poissons Ratio (y) = 0.08232 -0.15096
# Poissons Ratio (z) = 0.11829 -0.04261
#
# Static dielectric constant tensor:
#      x y z
#    x 1.655760 0.000000 0.000000 
#    y 0.000000 1.644770 0.000000 
#    z 0.000000 0.000000 1.664240 
# 
# From -- ./inp_files/30752.got.cif
#   From: 2010.05.17/outbox.cif.g08.bks.cpg/sg59_16_cif.got.tgz:30752.got - 2010.06.03 14:40:33.
