data_PCOD9449470
_publ_section_title
;
Structure prediction by ZEFSAII (Michael W. Deem and Ramdas Pophale) SiO2 
 PCOD9449470
Probable space group: P M M N
;
_chemical_formula_sum "Si O2"
_cell_formula_units_Z 64
_cell_length_a 23.205926
_cell_length_b 9.246785
_cell_length_c 16.493454
_cell_angle_alpha 90.000000
_cell_angle_beta 90.000000
_cell_angle_gamma 90.000000
_cell_volume 3539.168797
_symmetry_space_group_name_H-M "P M M N"
_symmetry_group_IT_number 59
_space_group.IT_coordinate_system_code '2'
_symmetry_cell_setting 'orthorhombic'
loop_
_space_group_symop_operation_xyz
x,y,z
1/2-x,1/2-y,z
1/2+x,-y,-z
-x,1/2+y,-z
-x,-y,-z
1/2+x,1/2+y,-z
1/2-x,y,z
x,1/2-y,z
loop_
_atom_site_type_symbol
_atom_site_label
_atom_site_fract_x
_atom_site_fract_y
_atom_site_fract_z
Si Si1 0.035558 0.580922 0.614529
Si Si2 0.184675 0.078764 0.849289
Si Si3 0.628587 0.921129 0.839642
Si Si4 0.318955 0.588278 0.011462
Si Si5 0.001092 0.422295 0.087557
Si Si6 0.682704 0.925834 0.667320
Si Si7 0.090145 0.420413 0.465950
Si Si8 0.569732 0.578427 0.224314
O O1 0.047989 0.750000 0.627170
O O2 0.076780 0.513914 0.545433
O O3 0.043525 0.492116 0.696230
O O4 0.969179 0.569447 0.585485
O O5 0.250000 0.035136 0.829147
O O6 0.184657 0.250000 0.867168
O O7 0.138518 0.054387 0.779269
O O8 0.165247 0.997602 0.930510
O O9 0.641189 0.750000 0.845362
O O10 0.561933 0.940024 0.864660
O O11 0.649364 0.968705 0.750208
O O12 0.662730 0.005941 0.908322
O O13 0.250000 0.596255 0.010716
O O14 0.343356 0.750000 0.010097
O O15 0.991146 0.250000 0.078322
O O16 0.955785 0.499847 0.145830
O O17 0.000000 0.500000 0.000000
O O18 0.750000 0.972756 0.666467
O O19 0.683117 0.750000 0.666743
O O20 0.643895 0.968473 0.589760
O O21 0.097717 0.250000 0.486972
O O22 0.558542 0.750000 0.220792
#
# Coordination Sequence:
#
# PCOD9449470 Si02
#       8
#     8   8   8   8   8   8   8   8
#     4  10  20  35  57  82 108 139 172 212 262 314
#     4   9  19  36  55  73  96 130 172 215 257 305
#     4  10  20  34  52  74 103 142 185 222 260 316
#     4  10  20  32  48  73 103 135 174 220 266 308
#     4  11  23  37  53  77 111 148 185 229 277 323
#     4   9  17  31  54  81 106 136 176 221 267 316
#     4   9  18  35  57  81 107 134 171 215 258 312
#     4  11  22  36  56  81 106 135 174 218 265 317
#
# _framework density 18.083342999999999
#
# number of rings (size 3 to 8) (size 9 to 14) (size 15 to 20)
#    0.000    2.125    0.000    3.375    0.000    8.750 
#    0.000    1.250    0.000    4.875    0.000    0.000 
#    0.000    0.000    0.000    0.000    0.000    0.000 
#
# Total GULP energy -357031.084584 kJ/mol
# GULP energy per Si atom -5578.610697 kJ/mol
# Density = 1.804218 g / cm^3
# Si number density = 18.083343 Si / 1000 Ang^3
#
#
#
# Elastic Constant Matrix: (Units=GPa)
#
#
# Indices 1 2 3 4 5 6 
#
# 1 73.0945 44.2854 48.6857 0.0000 0.0000 0.0000
# 2 44.2854 60.2451 39.5673 0.0000 0.0000 0.0000
# 3 48.6857 39.5673 73.2796 0.0000 0.0000 0.0000
# 4 0.0000 0.0000 0.0000 25.6720 0.0000 0.0000
# 5 0.0000 0.0000 0.0000 0.0000 27.1869 0.0000
# 6 0.0000 0.0000 0.0000 0.0000 0.0000 21.9204
#
#
#
# Elastic Compliance Matrix: (Units=1/GPa)
#
#
# Indices 1 2 3 4 5 6 
#
# 1 0.030847 -0.014279 -0.012785 0.000000 0.000000 0.000000
# 2 -0.014279 0.032329 -0.007969 0.000000 0.000000 0.000000
# 3 -0.012785 -0.007969 0.026443 0.000000 0.000000 0.000000
# 4 0.000000 0.000000 0.000000 0.038953 0.000000 0.000000
# 5 0.000000 0.000000 0.000000 0.000000 0.036782 0.000000
# 6 0.000000 0.000000 0.000000 0.000000 0.000000 0.045620
#
#
# Mechanical properties :
#
#
# Convention : Reuss Voigt Hill
#
# Bulk Modulus (GPa) = 51.14048 52.41065 51.77557
# Shear Modulus (GPa) = 17.38775 19.89458 18.64117
#
# Velocity S-wave (km/s) = 3.10423 3.32047 3.21416
# Velocity P-wave (km/s) = 6.41795 6.61411 6.51677
#
# Compressibility (1/GPa) = 0.01955398
#
# Stress axis : x y z
#
# Youngs Moduli (GPa) = 32.41770 30.93175 37.81675
#
# Poissons Ratio (x) = 0.44167 0.48347
# Poissons Ratio (y) = 0.46289 0.30138
# Poissons Ratio (z) = 0.41445 0.24651
#
# Static dielectric constant tensor:
#      x y z
#    x 1.679510 0.000000 0.000000 
#    y 0.000000 1.608870 0.000000 
#    z 0.000000 0.000000 1.589140 
# 
# From -- ./inp_files/21604.got.cif
#   From: 2010.05.17/outbox.cif.g08.bks.cpg/sg59_11_cif.got.tgz:21604.got - 2010.06.03 14:40:33.
