data_PCOD9449609
_publ_section_title
;
Structure prediction by ZEFSAII (Michael W. Deem and Ramdas Pophale) SiO2 
 PCOD9449609
Probable space group: P M M N
;
_chemical_formula_sum "Si O2"
_cell_formula_units_Z 64
_cell_length_a 14.721736
_cell_length_b 9.386503
_cell_length_c 21.931680
_cell_angle_alpha 90.000000
_cell_angle_beta 90.000000
_cell_angle_gamma 90.000000
_cell_volume 3030.642779
_symmetry_space_group_name_H-M "P M M N"
_symmetry_group_IT_number 59
_space_group.IT_coordinate_system_code '2'
_symmetry_cell_setting 'orthorhombic'
loop_
_space_group_symop_operation_xyz
x,y,z
1/2-x,1/2-y,z
1/2+x,-y,-z
-x,1/2+y,-z
-x,-y,-z
1/2+x,1/2+y,-z
1/2-x,y,z
x,1/2-y,z
loop_
_atom_site_type_symbol
_atom_site_label
_atom_site_fract_x
_atom_site_fract_y
_atom_site_fract_z
Si Si1 0.142163 0.410869 0.111088
Si Si2 0.357877 0.408600 0.879009
Si Si3 0.108179 0.086734 0.246542
Si Si4 0.361552 0.912074 0.994833
Si Si5 0.406681 0.579036 0.628618
Si Si6 0.100078 0.579526 0.364482
Si Si7 0.389820 0.589677 0.759883
Si Si8 0.596407 0.080061 0.503392
O O1 0.250000 0.398001 0.101483
O O2 0.102831 0.250000 0.110237
O O3 0.130682 0.470489 0.179300
O O4 0.108433 0.506440 0.055774
O O5 0.250000 0.396356 0.889227
O O6 0.397712 0.250000 0.879778
O O7 0.368924 0.482869 0.813879
O O8 0.391951 0.505722 0.934221
O O9 0.141539 0.250000 0.250390
O O10 0.998797 0.091905 0.247565
O O11 0.139513 0.996589 0.304686
O O12 0.250000 0.909528 0.994756
O O13 0.392936 0.750000 0.994369
O O14 0.430306 0.750000 0.630306
O O15 0.497073 0.481827 0.630480
O O16 0.355492 0.552092 0.692075
O O17 0.360076 0.553399 0.563057
O O18 0.101267 0.750000 0.356323
O O19 0.140817 0.543483 0.431433
O O20 0.359846 0.750000 0.776086
O O21 0.580392 0.250000 0.506688
O O22 0.500000 0.000000 0.500000
#
# Coordination Sequence:
#
# PCOD9449609 Si02
#       8
#     8   8   8   8   8   8   8   8
#     4   9  17  31  51  71  90 115 148 183 217 256
#     4  10  20  33  49  68  89 114 145 181 219 260
#     4   9  18  31  45  64  93 124 149 177 218 264
#     4   9  17  30  49  71  92 113 141 180 221 259
#     4   8  14  25  39  56  83 116 145 178 221 263
#     4   9  15  22  36  59  85 114 148 183 217 256
#     4   9  17  29  45  65  90 119 148 180 219 262
#     4   8  13  21  34  54  80 110 144 180 217 256
#
# _framework density 21.117633000000001
#
# number of rings (size 3 to 8) (size 9 to 14) (size 15 to 20)
#    0.000    3.125    0.000    1.875    0.000    5.250 
#    0.000    0.625    0.000    0.000    0.000    0.875 
#    0.000    5.000    0.000    0.000    0.000    0.000 
#
# Total GULP energy -356589.066771 kJ/mol
# GULP energy per Si atom -5571.704168 kJ/mol
# Density = 2.106957 g / cm^3
# Si number density = 21.117633 Si / 1000 Ang^3
#
#
#
# Elastic Constant Matrix: (Units=GPa)
#
#
# Indices 1 2 3 4 5 6 
#
# 1 51.0204 5.9267 -0.0842 0.0000 0.0000 0.0000
# 2 5.9267 98.8158 109.4722 0.0000 0.0000 0.0000
# 3 -0.0842 109.4722 250.0438 0.0000 0.0000 0.0000
# 4 0.0000 0.0000 0.0000 35.2132 0.0000 0.0000
# 5 0.0000 0.0000 0.0000 0.0000 19.8799 0.0000
# 6 0.0000 0.0000 0.0000 0.0000 0.0000 -5.8735
#
#
#
# Elastic Compliance Matrix: (Units=1/GPa)
#
#
# Indices 1 2 3 4 5 6 
#
# 1 0.019872 -0.002329 0.001026 0.000000 0.000000 0.000000
# 2 -0.002329 0.019924 -0.008724 0.000000 0.000000 0.000000
# 3 0.001026 -0.008724 0.007819 0.000000 0.000000 0.000000
# 4 0.000000 0.000000 0.000000 0.028398 0.000000 0.000000
# 5 0.000000 0.000000 0.000000 0.000000 0.050302 0.000000
# 6 0.000000 0.000000 0.000000 0.000000 0.000000 -0.170256
#
#
# Mechanical properties :
#
#
# Convention : Reuss Voigt Hill
#
# Bulk Modulus (GPa) = 36.28097 70.05660 53.16879
# Shear Modulus (GPa) = -340.13309 28.81495 -155.65907
#
# Velocity S-wave (km/s) = -12.70494 3.69792 -8.59479
# Velocity P-wave (km/s) = 14.07136 7.17490 8.55932
#
# Compressibility (1/GPa) = 0.02756266
#
# Stress axis : x y z
#
# Youngs Moduli (GPa) = 50.32150 50.19048 127.89318
#
# Poissons Ratio (x) = 0.11689 -0.13125
# Poissons Ratio (y) = 0.11719 1.11571
# Poissons Ratio (z) = -0.05164 0.43785
#
# Static dielectric constant tensor:
#      x y z
#    x 1.825120 0.000000 0.000000 
#    y 0.000000 1.730310 0.000000 
#    z 0.000000 0.000000 1.813400 
# 
# From -- ./inp_files/28444.got.cif
#   From: 2010.05.17/outbox.cif.g08.bks.cpg/sg59_15_cif.got.tgz:28444.got - 2010.06.03 14:40:33.
