data_PCOD9449055
_publ_section_title
;
Structure prediction by ZEFSAII (Michael W. Deem and Ramdas Pophale) SiO2 
 PCOD9449055
Probable space group: P M M N
;
_chemical_formula_sum "Si O2"
_cell_formula_units_Z 64
_cell_length_a 8.034050
_cell_length_b 19.733715
_cell_length_c 20.170494
_cell_angle_alpha 90.000000
_cell_angle_beta 90.000000
_cell_angle_gamma 90.000000
_cell_volume 3197.863461
_symmetry_space_group_name_H-M "P M M N"
_symmetry_group_IT_number 59
_space_group.IT_coordinate_system_code '2'
_symmetry_cell_setting 'orthorhombic'
loop_
_space_group_symop_operation_xyz
x,y,z
1/2-x,1/2-y,z
1/2+x,-y,-z
-x,1/2+y,-z
-x,-y,-z
1/2+x,1/2+y,-z
1/2-x,y,z
x,1/2-y,z
loop_
_atom_site_type_symbol
_atom_site_label
_atom_site_fract_x
_atom_site_fract_y
_atom_site_fract_z
Si Si1 0.553646 0.824018 0.262826
Si Si2 0.448662 0.604948 0.782873
Si Si3 0.051323 0.674084 0.412330
Si Si4 0.450256 0.069713 0.966005
Si Si5 0.551059 0.074926 0.475769
Si Si6 0.052855 0.328130 0.355316
Si Si7 0.951823 0.827562 0.922018
Si Si8 0.045527 0.453283 0.815677
O O1 0.750000 0.821892 0.247067
O O2 0.482126 0.750000 0.244092
O O3 0.532030 0.831543 0.341204
O O4 0.485294 0.890748 0.228440
O O5 0.250000 0.603226 0.775597
O O6 0.515686 0.645412 0.719216
O O7 0.491276 0.640204 0.852704
O O8 0.509510 0.526908 0.789630
O O9 0.250000 0.664077 0.402966
O O10 0.027036 0.750000 0.437873
O O11 0.984668 0.622770 0.465831
O O12 0.250000 0.075304 0.963331
O O13 0.508608 0.063719 0.890455
O O14 0.510778 0.129437 0.014340
O O15 0.500000 0.000000 0.000000
O O16 0.750000 0.075701 0.476234
O O17 0.503828 0.113172 0.407156
O O18 0.500000 0.000000 0.500000
O O19 0.250000 0.323522 0.362977
O O20 0.985822 0.250000 0.365153
O O21 0.750000 0.828957 0.922092
O O22 0.006691 0.750000 0.926212
O O23 0.250000 0.455307 0.814976
#
# Coordination Sequence:
#
# PCOD9449055 Si02
#       8
#     8   8   8   8   8   8   8   8
#     4   9  18  33  55  82 111 145 186 231 278 331
#     4  11  22  37  59  86 117 156 197 242 295 356
#     4   9  19  37  59  82 111 147 185 225 273 332
#     4  10  19  35  56  78 109 147 187 232 282 339
#     4  11  24  41  62  90 122 157 197 243 293 351
#     4  11  25  44  64  88 121 158 200 251 302 357
#     4  10  21  36  56  84 115 149 192 242 294 349
#     4   9  19  34  54  82 114 146 187 237 287 342
#
# _framework density 20.013362000000001
#
# number of rings (size 3 to 8) (size 9 to 14) (size 15 to 20)
#    0.000    2.000    1.250    1.875    1.750    4.750 
#    0.000    5.000    0.000    0.000    0.000    1.750 
#    0.000    0.000    0.000    0.000    0.000    0.000 
#
# Total GULP energy -356949.712200 kJ/mol
# GULP energy per Si atom -5577.339253 kJ/mol
# Density = 1.996781 g / cm^3
# Si number density = 20.013362 Si / 1000 Ang^3
#
#
#
# Elastic Constant Matrix: (Units=GPa)
#
#
# Indices 1 2 3 4 5 6 
#
# 1 23.2601 16.2415 3.7714 0.0000 0.0000 0.0000
# 2 16.2415 163.7988 78.8434 0.0000 0.0000 0.0000
# 3 3.7714 78.8434 82.4090 0.0000 0.0000 0.0000
# 4 0.0000 0.0000 0.0000 41.4163 0.0000 0.0000
# 5 0.0000 0.0000 0.0000 0.0000 28.5296 0.0000
# 6 0.0000 0.0000 0.0000 0.0000 0.0000 20.3775
#
#
#
# Elastic Compliance Matrix: (Units=1/GPa)
#
#
# Indices 1 2 3 4 5 6 
#
# 1 0.046989 -0.006718 0.004277 0.000000 0.000000 0.000000
# 2 -0.006718 0.012277 -0.011438 0.000000 0.000000 0.000000
# 3 0.004277 -0.011438 0.022882 0.000000 0.000000 0.000000
# 4 0.000000 0.000000 0.000000 0.024145 0.000000 0.000000
# 5 0.000000 0.000000 0.000000 0.000000 0.035051 0.000000
# 6 0.000000 0.000000 0.000000 0.000000 0.000000 0.049074
#
#
# Mechanical properties :
#
#
# Convention : Reuss Voigt Hill
#
# Bulk Modulus (GPa) = 18.38581 51.90894 35.14738
# Shear Modulus (GPa) = 21.15889 29.43879 25.29884
#
# Velocity S-wave (km/s) = 3.25505 3.83947 3.55927
# Velocity P-wave (km/s) = 4.83051 6.75639 5.87293
#
# Compressibility (1/GPa) = 0.05438976
#
# Stress axis : x y z
#
# Youngs Moduli (GPa) = 21.28142 81.45391 43.70201
#
# Poissons Ratio (x) = 0.54719 -0.18690
# Poissons Ratio (y) = 0.14296 0.49987
# Poissons Ratio (z) = -0.09101 0.93169
#
# Static dielectric constant tensor:
#      x y z
#    x 1.724920 0.000000 0.000000 
#    y 0.000000 1.676960 0.000000 
#    z 0.000000 0.000000 1.733280 
# 
# From -- ./inp_files/29357.got.cif
#   From: 2010.05.17/outbox.cif.g08.bks.cpg/sg59_15_cif.got.tgz:29357.got - 2010.06.03 14:40:33.
