data_PCOD9449828
_publ_section_title
;
Structure prediction by ZEFSAII (Michael W. Deem and Ramdas Pophale) SiO2 
 PCOD9449828
Probable space group: P M M N
;
_chemical_formula_sum "Si O2"
_cell_formula_units_Z 48
_cell_length_a 9.610977
_cell_length_b 14.672030
_cell_length_c 15.834858
_cell_angle_alpha 90.000000
_cell_angle_beta 90.000000
_cell_angle_gamma 90.000000
_cell_volume 2232.913593
_symmetry_space_group_name_H-M "P M M N"
_symmetry_group_IT_number 59
_space_group.IT_coordinate_system_code '2'
_symmetry_cell_setting 'orthorhombic'
loop_
_space_group_symop_operation_xyz
x,y,z
1/2-x,1/2-y,z
1/2+x,-y,-z
-x,1/2+y,-z
-x,-y,-z
1/2+x,1/2+y,-z
1/2-x,y,z
x,1/2-y,z
loop_
_atom_site_type_symbol
_atom_site_label
_atom_site_fract_x
_atom_site_fract_y
_atom_site_fract_z
Si Si1 0.591365 0.138193 0.369146
Si Si2 0.910002 0.861890 0.281712
Si Si3 0.916560 0.908281 0.981776
Si Si4 0.593117 0.860098 0.787449
Si Si5 0.589904 0.861300 0.472288
Si Si6 0.904799 0.146061 0.868060
O O1 0.750000 0.107424 0.370164
O O2 0.591392 0.250000 0.369615
O O3 0.513395 0.108667 0.284007
O O4 0.509892 0.107978 0.452825
O O5 0.750000 0.888953 0.265297
O O6 0.909824 0.750000 0.280048
O O7 0.949379 0.888887 0.377057
O O8 0.012647 0.898417 0.209619
O O9 0.750000 0.910324 0.995832
O O10 0.940622 0.882907 0.884356
O O11 0.994905 0.848557 0.051305
O O12 0.000000 0.000000 0.000000
O O13 0.750000 0.892968 0.769321
O O14 0.595798 0.750000 0.782616
O O15 0.750000 0.888150 0.487835
O O16 0.587757 0.750000 0.473088
O O17 0.750000 0.106382 0.885172
O O18 0.883962 0.250000 0.841618
#
# Coordination Sequence:
#
# PCOD9449828 Si02
#       6
#     8   8   8   8   8   8
#     4   9  16  24  38  64  96 127 158 196 241 284
#     4   8  14  25  42  65  94 129 166 201 239 284
#     4  11  23  38  55  74  98 129 166 208 254 303
#     4   9  18  33  52  72  95 127 165 201 240 290
#     4   8  13  22  37  59  91 129 163 195 234 282
#     4  10  20  33  51  76 104 133 166 206 250 295
#
# _framework density 21.496578
#
# number of rings (size 3 to 8) (size 9 to 14) (size 15 to 20)
#    0.000    2.833    0.000    3.000    0.000    5.667 
#    0.000    5.000    0.000    0.000    0.000    1.167 
#    0.000    0.000    0.000    0.000    0.000    0.000 
#
# Total GULP energy -267831.995703 kJ/mol
# GULP energy per Si atom -5579.833244 kJ/mol
# Density = 2.144765 g / cm^3
# Si number density = 21.496578 Si / 1000 Ang^3
#
#
#
# Elastic Constant Matrix: (Units=GPa)
#
#
# Indices 1 2 3 4 5 6 
#
# 1 184.0887 11.3061 154.8026 0.0000 0.0000 0.0000
# 2 11.3061 33.1367 6.2824 0.0000 0.0000 0.0000
# 3 154.8026 6.2824 198.6968 0.0000 0.0000 0.0000
# 4 0.0000 0.0000 0.0000 4.4089 0.0000 0.0000
# 5 0.0000 0.0000 0.0000 0.0000 25.4530 0.0000
# 6 0.0000 0.0000 0.0000 0.0000 0.0000 8.1083
#
#
#
# Elastic Compliance Matrix: (Units=1/GPa)
#
#
# Indices 1 2 3 4 5 6 
#
# 1 0.016068 -0.003128 -0.012420 0.000000 0.000000 0.000000
# 2 -0.003128 0.030969 0.001458 0.000000 0.000000 0.000000
# 3 -0.012420 0.001458 0.014663 0.000000 0.000000 0.000000
# 4 0.000000 0.000000 0.000000 0.226813 0.000000 0.000000
# 5 0.000000 0.000000 0.000000 0.000000 0.039288 0.000000
# 6 0.000000 0.000000 0.000000 0.000000 0.000000 0.123330
#
#
# Mechanical properties :
#
#
# Convention : Reuss Voigt Hill
#
# Bulk Modulus (GPa) = 29.83274 84.52270 57.17772
# Shear Modulus (GPa) = 10.19402 23.82944 17.01173
#
# Velocity S-wave (km/s) = 2.18001 3.33306 2.81618
# Velocity P-wave (km/s) = 4.49940 7.36321 6.10170
#
# Compressibility (1/GPa) = 0.03352022
#
# Stress axis : x y z
#
# Youngs Moduli (GPa) = 62.23551 32.29049 68.20059
#
# Poissons Ratio (x) = 0.10100 0.84702
# Poissons Ratio (y) = 0.19465 -0.09941
# Poissons Ratio (z) = 0.77294 -0.04707
#
# Static dielectric constant tensor:
#      x y z
#    x 1.779040 0.000000 0.000000 
#    y 0.000000 2.048130 0.000000 
#    z 0.000000 0.000000 1.801450 
# 
# From -- ./inp_files/20389.got.cif
#   From: 2010.05.17/outbox.cif.g08.bks.cpg/sg59_11_cif.got.tgz:20389.got - 2010.06.03 14:40:33.
