data_PCOD9449459
_publ_section_title
;
Structure prediction by ZEFSAII (Michael W. Deem and Ramdas Pophale) SiO2 
 PCOD9449459
Probable space group: P M M N
;
_chemical_formula_sum "Si O2"
_cell_formula_units_Z 48
_cell_length_a 9.255096
_cell_length_b 19.915567
_cell_length_c 14.552588
_cell_angle_alpha 90.000000
_cell_angle_beta 90.000000
_cell_angle_gamma 90.000000
_cell_volume 2682.340071
_symmetry_space_group_name_H-M "P M M N"
_symmetry_group_IT_number 59
_space_group.IT_coordinate_system_code '2'
_symmetry_cell_setting 'orthorhombic'
loop_
_space_group_symop_operation_xyz
x,y,z
1/2-x,1/2-y,z
1/2+x,-y,-z
-x,1/2+y,-z
-x,-y,-z
1/2+x,1/2+y,-z
1/2-x,y,z
x,1/2-y,z
loop_
_atom_site_type_symbol
_atom_site_label
_atom_site_fract_x
_atom_site_fract_y
_atom_site_fract_z
Si Si1 0.086035 0.623767 0.357616
Si Si2 0.590528 0.829119 0.194062
Si Si3 0.919840 0.169412 0.984010
Si Si4 0.421447 0.935414 0.543903
Si Si5 0.916147 0.970223 0.715920
Si Si6 0.076232 0.050087 0.072193
O O1 0.250000 0.648806 0.342807
O O2 0.055783 0.621433 0.466428
O O3 0.081281 0.547086 0.319787
O O4 0.970837 0.660725 0.295342
O O5 0.750000 0.860063 0.182122
O O6 0.603556 0.750000 0.178599
O O7 0.476068 0.851711 0.117489
O O8 0.750000 0.154461 0.992905
O O9 0.938297 0.250000 0.995788
O O10 0.015166 0.124408 0.051614
O O11 0.250000 0.947539 0.548426
O O12 0.486489 0.928001 0.645182
O O13 0.500000 0.000000 0.500000
O O14 0.750000 0.947109 0.709328
O O15 0.959641 0.968120 0.822281
O O16 0.250000 0.047169 0.061200
O O17 0.000000 0.000000 0.000000
#
# Coordination Sequence:
#
# PCOD9449459 Si02
#       6
#     8   8   8   8   8   8
#     4   9  17  30  48  71  99 128 159 196 242 297
#     4  10  20  32  48  72  98 126 164 206 248 298
#     4  10  21  37  55  74 101 139 178 215 258 309
#     4   9  17  29  47  70  95 125 159 194 236 291
#     4   9  19  33  48  71 101 129 160 200 246 295
#     4  11  22  35  54  80 109 138 171 216 264 308
#
# _framework density 17.894822999999999
#
# number of rings (size 3 to 8) (size 9 to 14) (size 15 to 20)
#    0.000    2.333    0.000    4.000    0.000    8.000 
#    0.000    0.000    0.000    1.000    0.000    0.000 
#    0.000    0.000    0.000    0.000    0.000    0.000 
#
# Total GULP energy -267476.747017 kJ/mol
# GULP energy per Si atom -5572.432230 kJ/mol
# Density = 1.785409 g / cm^3
# Si number density = 17.894823 Si / 1000 Ang^3
#
#
#
# Elastic Constant Matrix: (Units=GPa)
#
#
# Indices 1 2 3 4 5 6 
#
# 1 75.9729 19.4484 58.3739 0.0000 0.0000 0.0000
# 2 19.4484 20.9960 17.9965 0.0000 0.0000 0.0000
# 3 58.3739 17.9965 137.3193 0.0000 0.0000 0.0000
# 4 0.0000 0.0000 0.0000 22.6086 0.0000 0.0000
# 5 0.0000 0.0000 0.0000 0.0000 33.5846 0.0000
# 6 0.0000 0.0000 0.0000 0.0000 0.0000 23.7414
#
#
#
# Elastic Compliance Matrix: (Units=1/GPa)
#
#
# Indices 1 2 3 4 5 6 
#
# 1 0.022889 -0.014489 -0.007831 0.000000 0.000000 0.000000
# 2 -0.014489 0.062828 -0.002075 0.000000 0.000000 0.000000
# 3 -0.007831 -0.002075 0.010883 0.000000 0.000000 0.000000
# 4 0.000000 0.000000 0.000000 0.044231 0.000000 0.000000
# 5 0.000000 0.000000 0.000000 0.000000 0.029776 0.000000
# 6 0.000000 0.000000 0.000000 0.000000 0.000000 0.042120
#
#
# Mechanical properties :
#
#
# Convention : Reuss Voigt Hill
#
# Bulk Modulus (GPa) = 20.91628 47.32508 34.12068
# Shear Modulus (GPa) = 18.02109 25.21822 21.61966
#
# Velocity S-wave (km/s) = 3.17686 3.75807 3.47962
# Velocity P-wave (km/s) = 5.01701 6.73308 5.93737
#
# Compressibility (1/GPa) = 0.04780964
#
# Stress axis : x y z
#
# Youngs Moduli (GPa) = 43.68969 15.91657 91.88565
#
# Poissons Ratio (x) = 0.23062 0.71955
# Poissons Ratio (y) = 0.63304 0.19062
# Poissons Ratio (z) = 0.34213 0.03302
#
# Static dielectric constant tensor:
#      x y z
#    x 1.618170 0.000000 0.000000 
#    y 0.000000 1.632520 0.000000 
#    z 0.000000 0.000000 1.640140 
# 
# From -- ./inp_files/20737.got.cif
#   From: 2010.05.17/outbox.cif.g08.bks.cpg/sg59_11_cif.got.tgz:20737.got - 2010.06.03 14:40:33.
