data_PCOD9449953
_publ_section_title
;
Structure prediction by ZEFSAII (Michael W. Deem and Ramdas Pophale) SiO2 
 PCOD9449953
Probable space group: P M M N
;
_chemical_formula_sum "Si O2"
_cell_formula_units_Z 48
_cell_length_a 9.581759
_cell_length_b 8.643178
_cell_length_c 31.679282
_cell_angle_alpha 90.000000
_cell_angle_beta 90.000000
_cell_angle_gamma 90.000000
_cell_volume 2623.578301
_symmetry_space_group_name_H-M "P M M N"
_symmetry_group_IT_number 59
_space_group.IT_coordinate_system_code '2'
_symmetry_cell_setting 'orthorhombic'
loop_
_space_group_symop_operation_xyz
x,y,z
1/2-x,1/2-y,z
1/2+x,-y,-z
-x,1/2+y,-z
-x,-y,-z
1/2+x,1/2+y,-z
1/2-x,y,z
x,1/2-y,z
loop_
_atom_site_type_symbol
_atom_site_label
_atom_site_fract_x
_atom_site_fract_y
_atom_site_fract_z
Si Si1 0.411580 0.938499 0.367250
Si Si2 0.912362 0.436122 0.538605
Si Si3 0.412057 0.564388 0.960773
Si Si4 0.912375 0.435376 0.883537
Si Si5 0.587942 0.564918 0.790971
Si Si6 0.911681 0.937364 0.286586
O O1 0.250000 0.985254 0.360839
O O2 0.412612 0.750000 0.367278
O O3 0.457430 0.987550 0.414284
O O4 0.508725 0.989996 0.329003
O O5 0.750000 0.479824 0.534036
O O6 0.920107 0.250000 0.537914
O O7 0.000000 0.500000 0.500000
O O8 0.250000 0.514396 0.962855
O O9 0.414891 0.750000 0.962152
O O10 0.486151 0.506942 0.918195
O O11 0.500000 0.500000 0.000000
O O12 0.750000 0.479310 0.892124
O O13 0.921102 0.250000 0.885095
O O14 0.946838 0.493625 0.836563
O O15 0.750000 0.523973 0.781779
O O16 0.577635 0.750000 0.793454
O O17 0.490434 0.501491 0.754205
O O18 0.750000 0.983549 0.287166
O O19 0.917653 0.750000 0.285417
#
# Coordination Sequence:
#
# PCOD9449953 Si02
#       6
#     8   8   8   8   8   8
#     4   8  15  30  51  72  97 132 173 215 257 305
#     4   9  18  32  50  74 102 132 169 212 258 310
#     4  11  24  40  59  85 116 150 187 226 270 319
#     4  10  21  38  61  87 112 141 181 226 270 317
#     4  10  21  37  57  80 107 142 180 216 260 315
#     4  10  20  33  52  79 106 133 170 216 264 313
#
# _framework density 18.295624
#
# number of rings (size 3 to 8) (size 9 to 14) (size 15 to 20)
#    0.000    2.333    0.000    3.500    0.000    8.000 
#    0.000    2.500    0.000    1.000    0.000    0.000 
#    0.000    0.000    0.000    0.000    0.000    0.000 
#
# Total GULP energy -267947.003333 kJ/mol
# GULP energy per Si atom -5582.229236 kJ/mol
# Density = 1.825398 g / cm^3
# Si number density = 18.295624 Si / 1000 Ang^3
#
#
#
# Elastic Constant Matrix: (Units=GPa)
#
#
# Indices 1 2 3 4 5 6 
#
# 1 139.7523 41.0674 135.6040 0.0000 0.0000 0.0000
# 2 41.0674 24.4531 40.9068 0.0000 0.0000 0.0000
# 3 135.6040 40.9068 193.5649 0.0000 0.0000 0.0000
# 4 0.0000 0.0000 0.0000 31.9869 0.0000 0.0000
# 5 0.0000 0.0000 0.0000 0.0000 39.5610 0.0000
# 6 0.0000 0.0000 0.0000 0.0000 0.0000 26.1611
#
#
#
# Elastic Compliance Matrix: (Units=1/GPa)
#
#
# Indices 1 2 3 4 5 6 
#
# 1 0.028562 -0.022422 -0.015271 0.000000 0.000000 0.000000
# 2 -0.022422 0.080860 -0.001381 0.000000 0.000000 0.000000
# 3 -0.015271 -0.001381 0.016156 0.000000 0.000000 0.000000
# 4 0.000000 0.000000 0.000000 0.031263 0.000000 0.000000
# 5 0.000000 0.000000 0.000000 0.000000 0.025277 0.000000
# 6 0.000000 0.000000 0.000000 0.000000 0.000000 0.038225
#
#
# Mechanical properties :
#
#
# Convention : Reuss Voigt Hill
#
# Bulk Modulus (GPa) = 21.08292 88.10296 54.59294
# Shear Modulus (GPa) = 15.90832 28.88795 22.39813
#
# Velocity S-wave (km/s) = 2.95195 3.97792 3.50270
# Velocity P-wave (km/s) = 4.81323 8.32816 6.80167
#
# Compressibility (1/GPa) = 0.04743177
#
# Stress axis : x y z
#
# Youngs Moduli (GPa) = 35.01153 12.36700 61.89553
#
# Poissons Ratio (x) = 0.27729 0.94520
# Poissons Ratio (y) = 0.78502 0.08546
# Poissons Ratio (z) = 0.53466 0.01708
#
# Static dielectric constant tensor:
#      x y z
#    x 1.614110 0.000000 0.000000 
#    y 0.000000 1.625110 0.000000 
#    z 0.000000 0.000000 1.606290 
# 
# From -- ./inp_files/32838.got.cif
#   From: 2010.05.17/outbox.cif.g08.bks.cpg/sg59_17_cif.got.tgz:32838.got - 2010.06.03 14:40:33.
