data_PCOD9449937
_publ_section_title
;
Structure prediction by ZEFSAII (Michael W. Deem and Ramdas Pophale) SiO2 
 PCOD9449937
Probable space group: P M M N
;
_chemical_formula_sum "Si O2"
_cell_formula_units_Z 64
_cell_length_a 15.673179
_cell_length_b 9.606487
_cell_length_c 20.948346
_cell_angle_alpha 90.000000
_cell_angle_beta 90.000000
_cell_angle_gamma 90.000000
_cell_volume 3154.070754
_symmetry_space_group_name_H-M "P M M N"
_symmetry_group_IT_number 59
_space_group.IT_coordinate_system_code '2'
_symmetry_cell_setting 'orthorhombic'
loop_
_space_group_symop_operation_xyz
x,y,z
1/2-x,1/2-y,z
1/2+x,-y,-z
-x,1/2+y,-z
-x,-y,-z
1/2+x,1/2+y,-z
1/2-x,y,z
x,1/2-y,z
loop_
_atom_site_type_symbol
_atom_site_label
_atom_site_fract_x
_atom_site_fract_y
_atom_site_fract_z
Si Si1 0.352930 0.592035 0.624927
Si Si2 0.854166 0.909968 0.493407
Si Si3 0.094605 0.592296 0.243286
Si Si4 0.889851 0.907706 0.251244
Si Si5 0.150699 0.909540 0.011736
Si Si6 0.647091 0.908800 0.637934
Si Si7 0.413848 0.408505 0.124845
Si Si8 0.381312 0.908053 0.865627
O O1 0.250000 0.598527 0.620861
O O2 0.385444 0.750000 0.630711
O O3 0.384281 0.515372 0.560846
O O4 0.374001 0.499549 0.686256
O O5 0.750000 0.912413 0.492900
O O6 0.878999 0.750000 0.479391
O O7 0.880878 0.944477 0.565761
O O8 0.128061 0.750000 0.240316
O O9 0.117776 0.515046 0.308549
O O10 0.123136 0.499893 0.182932
O O11 0.991862 0.599796 0.241488
O O12 0.857760 0.750000 0.258520
O O13 0.853647 0.986791 0.189387
O O14 0.250000 0.909361 0.029782
O O15 0.117786 0.750000 0.017824
O O16 0.144457 0.947968 0.937261
O O17 0.103511 0.014174 0.058485
O O18 0.750000 0.907882 0.637628
O O19 0.618847 0.750000 0.652300
O O20 0.381552 0.250000 0.125049
O O21 0.515757 0.403433 0.134466
O O22 0.351042 0.750000 0.853231
#
# Coordination Sequence:
#
# PCOD9449937 Si02
#       8
#     8   8   8   8   8   8   8   8
#     4  10  20  33  52  78 105 135 173 215 258 307
#     4   8  15  30  51  74 102 135 170 210 257 308
#     4  10  21  36  54  77 105 137 174 215 258 306
#     4  10  21  36  54  77 105 137 174 215 258 306
#     4  10  21  36  54  78 108 136 163 205 258 305
#     4   9  18  33  54  79 105 135 172 214 261 311
#     4  10  20  35  56  77 100 135 175 212 250 300
#     4   9  19  36  56  77 102 135 173 210 253 305
#
# _framework density 20.291236999999999
#
# number of rings (size 3 to 8) (size 9 to 14) (size 15 to 20)
#    0.000    2.500    0.000    2.625    0.000    5.250 
#    0.000    3.125    0.000    0.000    0.000    0.000 
#    0.000    0.000    0.000    0.000    0.000    0.000 
#
# Total GULP energy -357336.435433 kJ/mol
# GULP energy per Si atom -5583.381804 kJ/mol
# Density = 2.024505 g / cm^3
# Si number density = 20.291237 Si / 1000 Ang^3
#
#
#
# Elastic Constant Matrix: (Units=GPa)
#
#
# Indices 1 2 3 4 5 6 
#
# 1 18.1810 17.7487 9.4363 0.0000 0.0000 0.0000
# 2 17.7487 183.4449 129.6297 0.0000 0.0000 0.0000
# 3 9.4363 129.6297 150.7559 0.0000 0.0000 0.0000
# 4 0.0000 0.0000 0.0000 42.1957 0.0000 0.0000
# 5 0.0000 0.0000 0.0000 0.0000 27.5619 0.0000
# 6 0.0000 0.0000 0.0000 0.0000 0.0000 12.4598
#
#
#
# Elastic Compliance Matrix: (Units=1/GPa)
#
#
# Indices 1 2 3 4 5 6 
#
# 1 0.061347 -0.008211 0.003221 0.000000 0.000000 0.000000
# 2 -0.008211 0.014992 -0.012377 0.000000 0.000000 0.000000
# 3 0.003221 -0.012377 0.017074 0.000000 0.000000 0.000000
# 4 0.000000 0.000000 0.000000 0.023699 0.000000 0.000000
# 5 0.000000 0.000000 0.000000 0.000000 0.036282 0.000000
# 6 0.000000 0.000000 0.000000 0.000000 0.000000 0.080258
#
#
# Mechanical properties :
#
#
# Convention : Reuss Voigt Hill
#
# Bulk Modulus (GPa) = 17.04227 74.00126 45.52176
# Shear Modulus (GPa) = 17.36437 29.48128 23.42283
#
# Velocity S-wave (km/s) = 2.92851 3.81584 3.40123
# Velocity P-wave (km/s) = 4.45555 7.48083 6.15690
#
# Compressibility (1/GPa) = 0.05867763
#
# Stress axis : x y z
#
# Youngs Moduli (GPa) = 16.30077 66.70367 58.56836
#
# Poissons Ratio (x) = 0.54773 -0.18863
# Poissons Ratio (y) = 0.13385 0.72489
# Poissons Ratio (z) = -0.05250 0.82558
#
# Static dielectric constant tensor:
#      x y z
#    x 1.751010 0.000000 0.000000 
#    y 0.000000 1.713610 0.000000 
#    z 0.000000 0.000000 1.686000 
# 
# From -- ./inp_files/28257.got.cif
#   From: 2010.05.17/outbox.cif.g08.bks.cpg/sg59_15_cif.got.tgz:28257.got - 2010.06.03 14:40:33.
