data_PCOD9449489
_publ_section_title
;
Structure prediction by ZEFSAII (Michael W. Deem and Ramdas Pophale) SiO2 
 PCOD9449489
Probable space group: P M M N
;
_chemical_formula_sum "Si O2"
_cell_formula_units_Z 48
_cell_length_a 18.759492
_cell_length_b 7.410952
_cell_length_c 15.365536
_cell_angle_alpha 90.000000
_cell_angle_beta 90.000000
_cell_angle_gamma 90.000000
_cell_volume 2136.204318
_symmetry_space_group_name_H-M "P M M N"
_symmetry_group_IT_number 59
_space_group.IT_coordinate_system_code '2'
_symmetry_cell_setting 'orthorhombic'
loop_
_space_group_symop_operation_xyz
x,y,z
1/2-x,1/2-y,z
1/2+x,-y,-z
-x,1/2+y,-z
-x,-y,-z
1/2+x,1/2+y,-z
1/2-x,y,z
x,1/2-y,z
loop_
_atom_site_type_symbol
_atom_site_label
_atom_site_fract_x
_atom_site_fract_y
_atom_site_fract_z
Si Si1 0.670257 0.031384 0.742000
Si Si2 0.913434 0.467138 0.189598
Si Si3 0.559237 0.956534 0.890537
Si Si4 0.591366 0.031261 0.572285
Si Si5 0.171368 0.464761 0.974113
Si Si6 0.927922 0.459974 0.382581
O O1 0.750000 0.973471 0.764679
O O2 0.667511 0.250000 0.746872
O O3 0.648964 0.978788 0.644022
O O4 0.611805 0.958610 0.808050
O O5 0.921731 0.250000 0.196268
O O6 0.847978 0.506479 0.126405
O O7 0.908433 0.536881 0.288299
O O8 0.984760 0.537994 0.141251
O O9 0.543365 0.750000 0.916349
O O10 0.606486 0.039880 0.967738
O O11 0.589206 0.250000 0.569381
O O12 0.601888 0.964431 0.473651
O O13 0.513549 0.971553 0.605842
O O14 0.250000 0.536391 0.995791
O O15 0.173225 0.250000 0.990771
O O16 0.906851 0.250000 0.380912
#
# Coordination Sequence:
#
# PCOD9449489 Si02
#       6
#     8   8   8   8   8   8
#     4  10  20  32  48  75 109 141 175 214 259 312
#     4  10  20  34  55  82 106 132 173 221 261 306
#     4  10  20  36  56  78 104 135 173 217 264 315
#     4   9  17  30  49  73 103 137 169 206 254 304
#     4  10  22  38  54  74 103 140 177 213 261 317
#     4   9  17  31  51  76 103 130 169 214 254 300
#
# _framework density 22.469759
#
# number of rings (size 3 to 8) (size 9 to 14) (size 15 to 20)
#    0.000    2.333    1.667    1.000    0.000    3.333 
#    0.000    0.833    0.000    3.000    0.000    0.000 
#    0.000    0.000    0.000    0.000    0.000    0.000 
#
# Total GULP energy -268041.881421 kJ/mol
# GULP energy per Si atom -5584.205863 kJ/mol
# Density = 2.241862 g / cm^3
# Si number density = 22.469759 Si / 1000 Ang^3
#
#
#
# Elastic Constant Matrix: (Units=GPa)
#
#
# Indices 1 2 3 4 5 6 
#
# 1 43.4224 -5.3166 14.1076 0.0000 0.0000 0.0000
# 2 -5.3166 76.6604 1.4660 0.0000 0.0000 0.0000
# 3 14.1076 1.4660 132.0573 0.0000 0.0000 0.0000
# 4 0.0000 0.0000 0.0000 7.8757 0.0000 0.0000
# 5 0.0000 0.0000 0.0000 0.0000 -6.6592 0.0000
# 6 0.0000 0.0000 0.0000 0.0000 0.0000 -1.3542
#
#
#
# Elastic Compliance Matrix: (Units=1/GPa)
#
#
# Indices 1 2 3 4 5 6 
#
# 1 0.024082 0.001720 -0.002592 0.000000 0.000000 0.000000
# 2 0.001720 0.013170 -0.000330 0.000000 0.000000 0.000000
# 3 -0.002592 -0.000330 0.007853 0.000000 0.000000 0.000000
# 4 0.000000 0.000000 0.000000 0.126973 0.000000 0.000000
# 5 0.000000 0.000000 0.000000 0.000000 -0.150168 0.000000
# 6 0.000000 0.000000 0.000000 0.000000 0.000000 -0.738459
#
#
# Mechanical properties :
#
#
# Convention : Reuss Voigt Hill
#
# Bulk Modulus (GPa) = 23.41846 30.29491 26.85669
# Shear Modulus (GPa) = -7.14376 16.09800 4.47712
#
# Velocity S-wave (km/s) = -1.78499 2.67952 1.41309
# Velocity P-wave (km/s) = 2.48930 4.80468 3.82632
#
# Compressibility (1/GPa) = 0.04270135
#
# Stress axis : x y z
#
# Youngs Moduli (GPa) = 41.52447 75.92942 127.33968
#
# Poissons Ratio (x) = -0.13058 0.33004
# Poissons Ratio (y) = -0.07141 0.04201
# Poissons Ratio (z) = 0.10762 0.02505
#
# Static dielectric constant tensor:
#      x y z
#    x 1.777040 0.000000 0.000000 
#    y 0.000000 1.869820 0.000000 
#    z 0.000000 0.000000 1.856750 
# 
# From -- ./inp_files/20377.got.cif
#   From: 2010.05.17/outbox.cif.g08.bks.cpg/sg59_11_cif.got.tgz:20377.got - 2010.06.03 14:40:33.
