data_PCOD9449628
_publ_section_title
;
Structure prediction by ZEFSAII (Michael W. Deem and Ramdas Pophale) SiO2 
 PCOD9449628
Probable space group: P M M N
;
_chemical_formula_sum "Si O2"
_cell_formula_units_Z 64
_cell_length_a 7.618835
_cell_length_b 17.911898
_cell_length_c 23.938444
_cell_angle_alpha 90.000000
_cell_angle_beta 90.000000
_cell_angle_gamma 90.000000
_cell_volume 3266.826678
_symmetry_space_group_name_H-M "P M M N"
_symmetry_group_IT_number 59
_space_group.IT_coordinate_system_code '2'
_symmetry_cell_setting 'orthorhombic'
loop_
_space_group_symop_operation_xyz
x,y,z
1/2-x,1/2-y,z
1/2+x,-y,-z
-x,1/2+y,-z
-x,-y,-z
1/2+x,1/2+y,-z
1/2-x,y,z
x,1/2-y,z
loop_
_atom_site_type_symbol
_atom_site_label
_atom_site_fract_x
_atom_site_fract_y
_atom_site_fract_z
Si Si1 0.958138 0.946182 0.366295
Si Si2 0.045040 0.022413 0.255811
Si Si3 0.954719 0.470352 0.861643
Si Si4 0.958376 0.430019 0.040082
Si Si5 0.965081 0.165281 0.939837
Si Si6 0.962661 0.666586 0.677869
Si Si7 0.957400 0.086355 0.434384
Si Si8 0.461401 0.834035 0.456344
O O1 0.750000 0.956841 0.361047
O O2 0.993895 0.869012 0.396751
O O3 0.031241 0.010213 0.408178
O O4 0.033712 0.962119 0.305442
O O5 0.250000 0.037910 0.244352
O O6 0.972131 0.099544 0.282165
O O7 0.966775 0.990963 0.198444
O O8 0.750000 0.452056 0.853050
O O9 0.026463 0.398680 0.896111
O O10 0.965234 0.543571 0.901099
O O11 0.750000 0.423543 0.047574
O O12 0.019273 0.360305 0.002513
O O13 0.000000 0.500000 0.000000
O O14 0.750000 0.163172 0.939711
O O15 0.018747 0.250000 0.927165
O O16 0.750000 0.664726 0.678534
O O17 0.019603 0.750000 0.693392
O O18 0.018563 0.646886 0.614720
O O19 0.750000 0.074289 0.442626
O O20 0.031015 0.114804 0.492963
O O21 0.250000 0.832309 0.461074
O O22 0.526494 0.750000 0.462576
#
# Coordination Sequence:
#
# PCOD9449628 Si02
#       8
#     8   8   8   8   8   8   8   8
#     4  10  20  33  50  71  94 122 157 197 241 286
#     4   9  18  33  50  67  92 126 163 197 230 278
#     4   9  17  30  49  70  92 124 163 197 230 272
#     4   9  16  27  46  69  93 120 148 183 228 276
#     4   8  14  26  45  69  94 119 151 191 230 267
#     4   9  17  29  46  68  93 122 155 193 239 288
#     4   9  18  32  50  71  93 119 152 192 241 295
#     4  10  20  33  49  69  94 124 156 192 239 293
#
# _framework density 19.590878
#
# number of rings (size 3 to 8) (size 9 to 14) (size 15 to 20)
#    0.000    2.875    0.000    2.250    0.000    2.500 
#    0.000    1.250    0.000   12.375    0.000    0.000 
#    0.000    0.000    0.000    0.000    0.000    0.000 
#
# Total GULP energy -356616.775650 kJ/mol
# GULP energy per Si atom -5572.137120 kJ/mol
# Density = 1.954629 g / cm^3
# Si number density = 19.590878 Si / 1000 Ang^3
#
#
#
# Elastic Constant Matrix: (Units=GPa)
#
#
# Indices 1 2 3 4 5 6 
#
# 1 33.6642 -6.4832 -11.1583 0.0000 0.0000 0.0000
# 2 -6.4832 52.7836 48.0205 0.0000 0.0000 0.0000
# 3 -11.1583 48.0205 134.5166 0.0000 0.0000 0.0000
# 4 0.0000 0.0000 0.0000 16.0492 0.0000 0.0000
# 5 0.0000 0.0000 0.0000 0.0000 12.0913 0.0000
# 6 0.0000 0.0000 0.0000 0.0000 0.0000 11.6156
#
#
#
# Elastic Compliance Matrix: (Units=1/GPa)
#
#
# Indices 1 2 3 4 5 6 
#
# 1 0.030709 0.002154 0.001778 0.000000 0.000000 0.000000
# 2 0.002154 0.028209 -0.009891 0.000000 0.000000 0.000000
# 3 0.001778 -0.009891 0.011113 0.000000 0.000000 0.000000
# 4 0.000000 0.000000 0.000000 0.062308 0.000000 0.000000
# 5 0.000000 0.000000 0.000000 0.000000 0.082704 0.000000
# 6 0.000000 0.000000 0.000000 0.000000 0.000000 0.086091
#
#
# Mechanical properties :
#
#
# Convention : Reuss Voigt Hill
#
# Bulk Modulus (GPa) = 17.20792 31.30249 24.25520
# Shear Modulus (GPa) = 15.04105 20.65691 17.84898
#
# Velocity S-wave (km/s) = 2.77385 3.25070 3.02170
# Velocity P-wave (km/s) = 4.36597 5.48654 4.95802
#
# Compressibility (1/GPa) = 0.05811279
#
# Stress axis : x y z
#
# Youngs Moduli (GPa) = 32.56324 35.45001 89.98747
#
# Poissons Ratio (x) = -0.07636 -0.16004
# Poissons Ratio (y) = -0.07014 0.89011
# Poissons Ratio (z) = -0.05791 0.35065
#
# Static dielectric constant tensor:
#      x y z
#    x 1.716080 0.000000 0.000000 
#    y 0.000000 1.707270 0.000000 
#    z 0.000000 0.000000 1.692180 
# 
# From -- ./inp_files/31714.got.cif
#   From: 2010.05.17/outbox.cif.g08.bks.cpg/sg59_16_cif.got.tgz:31714.got - 2010.06.03 14:40:33.
