data_PCOD9449955
_publ_section_title
;
Structure prediction by ZEFSAII (Michael W. Deem and Ramdas Pophale) SiO2 
 PCOD9449955
Probable space group: P M M N
;
_chemical_formula_sum "Si O2"
_cell_formula_units_Z 40
_cell_length_a 20.450100
_cell_length_b 9.208793
_cell_length_c 11.793917
_cell_angle_alpha 90.000000
_cell_angle_beta 90.000000
_cell_angle_gamma 90.000000
_cell_volume 2221.039150
_symmetry_space_group_name_H-M "P M M N"
_symmetry_group_IT_number 59
_space_group.IT_coordinate_system_code '2'
_symmetry_cell_setting 'orthorhombic'
loop_
_space_group_symop_operation_xyz
x,y,z
1/2-x,1/2-y,z
1/2+x,-y,-z
-x,1/2+y,-z
-x,-y,-z
1/2+x,1/2+y,-z
1/2-x,y,z
x,1/2-y,z
loop_
_atom_site_type_symbol
_atom_site_label
_atom_site_fract_x
_atom_site_fract_y
_atom_site_fract_z
Si Si1 0.453958 0.423562 0.093061
Si Si2 0.674228 0.577934 0.043617
Si Si3 0.400949 0.082477 0.535369
Si Si4 0.539393 0.418274 0.668013
Si Si5 0.171643 0.585888 0.726989
O O1 0.465709 0.250000 0.095165
O O2 0.465310 0.494812 0.215094
O O3 0.500000 0.500000 0.000000
O O4 0.378707 0.448015 0.053986
O O5 0.750000 0.540226 0.016238
O O6 0.672757 0.750000 0.069920
O O7 0.652520 0.491758 0.155817
O O8 0.383954 0.250000 0.514150
O O9 0.469618 0.079457 0.603946
O O10 0.411271 0.996231 0.418811
O O11 0.351076 0.004301 0.619048
O O12 0.556733 0.250000 0.688168
O O13 0.250000 0.591419 0.728258
O O14 0.145343 0.750000 0.722128
#
# Coordination Sequence:
#
# PCOD9449955 Si02
#       5
#     8   8   8   8   8
#     4  11  22  35  54  80 108 139 177 220 265 315
#     4   9  19  36  55  75 103 140 179 216 256 307
#     4  10  20  35  55  77 102 135 173 212 258 311
#     4  10  21  36  54  77 105 136 171 214 263 313
#     4  10  20  33  52  79 107 135 170 213 260 307
#
# _framework density 18.009585999999999
#
# number of rings (size 3 to 8) (size 9 to 14) (size 15 to 20)
#    0.000    2.000    0.000    3.600    0.000   10.000 
#    0.000    1.000    0.000    3.600    0.000    0.000 
#    0.000    0.000    0.000    0.000    0.000    0.000 
#
# Total GULP energy -223306.017812 kJ/mol
# GULP energy per Si atom -5582.650445 kJ/mol
# Density = 1.796860 g / cm^3
# Si number density = 18.009586 Si / 1000 Ang^3
#
#
#
# Elastic Constant Matrix: (Units=GPa)
#
#
# Indices 1 2 3 4 5 6 
#
# 1 28.7957 29.9716 17.3569 0.0000 0.0000 0.0000
# 2 29.9716 119.8416 65.7832 0.0000 0.0000 0.0000
# 3 17.3569 65.7832 114.0787 0.0000 0.0000 0.0000
# 4 0.0000 0.0000 0.0000 34.5490 0.0000 0.0000
# 5 0.0000 0.0000 0.0000 0.0000 27.2189 0.0000
# 6 0.0000 0.0000 0.0000 0.0000 0.0000 25.0427
#
#
#
# Elastic Compliance Matrix: (Units=1/GPa)
#
#
# Indices 1 2 3 4 5 6 
#
# 1 0.046971 -0.011448 -0.000545 0.000000 0.000000 0.000000
# 2 -0.011448 0.014999 -0.006907 0.000000 0.000000 0.000000
# 3 -0.000545 -0.006907 0.012832 0.000000 0.000000 0.000000
# 4 0.000000 0.000000 0.000000 0.028944 0.000000 0.000000
# 5 0.000000 0.000000 0.000000 0.000000 0.036739 0.000000
# 6 0.000000 0.000000 0.000000 0.000000 0.000000 0.039932
#
#
# Mechanical properties :
#
#
# Convention : Reuss Voigt Hill
#
# Bulk Modulus (GPa) = 27.02606 54.32658 40.67632
# Shear Modulus (GPa) = 21.68705 27.33574 24.51139
#
# Velocity S-wave (km/s) = 3.47392 3.90018 3.69320
# Velocity P-wave (km/s) = 5.57941 7.10723 6.38915
#
# Compressibility (1/GPa) = 0.03700133
#
# Stress axis : x y z
#
# Youngs Moduli (GPa) = 21.28956 66.67132 77.93067
#
# Poissons Ratio (x) = 0.76325 0.04249
# Poissons Ratio (y) = 0.24372 0.53829
# Poissons Ratio (z) = 0.01161 0.46052
#
# Static dielectric constant tensor:
#      x y z
#    x 1.632560 0.000000 0.000000 
#    y 0.000000 1.615720 0.000000 
#    z 0.000000 0.000000 1.578580 
# 
# From -- ./inp_files/5668.got.cif
#   From: 2010.05.17/outbox.cif.g08.bks.cpg/sg59_3_cif.got.tgz:5668.got - 2010.06.03 14:40:33.
