data_PCOD9449933
_publ_section_title
;
Structure prediction by ZEFSAII (Michael W. Deem and Ramdas Pophale) SiO2 
 PCOD9449933
Probable space group: P M M N
;
_chemical_formula_sum "Si O2"
_cell_formula_units_Z 56
_cell_length_a 18.353678
_cell_length_b 9.324173
_cell_length_c 19.372059
_cell_angle_alpha 90.000000
_cell_angle_beta 90.000000
_cell_angle_gamma 90.000000
_cell_volume 3315.196032
_symmetry_space_group_name_H-M "P M M N"
_symmetry_group_IT_number 59
_space_group.IT_coordinate_system_code '2'
_symmetry_cell_setting 'orthorhombic'
loop_
_space_group_symop_operation_xyz
x,y,z
1/2-x,1/2-y,z
1/2+x,-y,-z
-x,1/2+y,-z
-x,-y,-z
1/2+x,1/2+y,-z
1/2-x,y,z
x,1/2-y,z
loop_
_atom_site_type_symbol
_atom_site_label
_atom_site_fract_x
_atom_site_fract_y
_atom_site_fract_z
Si Si1 0.410760 0.420261 0.065857
Si Si2 0.544266 0.419397 0.711523
Si Si3 0.166353 0.579599 0.632952
Si Si4 0.031646 0.420011 0.566224
Si Si5 0.415412 0.919757 0.928319
Si Si6 0.592352 0.420727 0.223592
Si Si7 0.335816 0.421365 0.208971
O O1 0.401383 0.250000 0.057671
O O2 0.497198 0.446982 0.076795
O O3 0.367025 0.465288 0.133894
O O4 0.387998 0.497614 0.995414
O O5 0.546713 0.250000 0.725393
O O6 0.522031 0.440327 0.631786
O O7 0.479824 0.493138 0.755520
O O8 0.618555 0.494977 0.733697
O O9 0.250000 0.543728 0.617999
O O10 0.155355 0.750000 0.620108
O O11 0.108291 0.489111 0.589674
O O12 0.148898 0.556151 0.714263
O O13 0.039208 0.250000 0.554091
O O14 0.000000 0.500000 0.500000
O O15 0.405271 0.750000 0.938686
O O16 0.383305 0.960370 0.853625
O O17 0.574872 0.250000 0.221781
O O18 0.250000 0.447743 0.213026
O O19 0.348535 0.250000 0.215839
#
# Coordination Sequence:
#
# PCOD9449933 Si02
#       7
#     8   8   8   8   8   8   8
#     4   9  17  29  44  66  95 127 168 215 259 303
#     4  10  20  33  52  78 104 127 164 212 256 299
#     4   9  18  33  55  82 110 141 173 210 259 310
#     4  10  21  37  58  84 110 140 173 210 253 302
#     4   9  16  27  45  69  95 127 167 213 258 300
#     4   9  16  30  51  73 101 135 173 211 251 305
#     4  10  20  35  53  71  97 136 177 215 261 315
#
# _framework density 16.891912000000001
#
# number of rings (size 3 to 8) (size 9 to 14) (size 15 to 20)
#    0.000    2.571    1.429    0.857    0.000    3.429 
#    0.000    1.429    0.000    1.714    0.000    0.000 
#    0.000    0.000    0.000    0.000    0.000    0.000 
#
# Total GULP energy -312223.263037 kJ/mol
# GULP energy per Si atom -5575.415411 kJ/mol
# Density = 1.685347 g / cm^3
# Si number density = 16.891912 Si / 1000 Ang^3
#
#
#
# Elastic Constant Matrix: (Units=GPa)
#
#
# Indices 1 2 3 4 5 6 
#
# 1 91.9068 58.3948 57.8563 0.0000 0.0000 0.0000
# 2 58.3948 61.7878 69.2148 0.0000 0.0000 0.0000
# 3 57.8563 69.2148 119.9511 0.0000 0.0000 0.0000
# 4 0.0000 0.0000 0.0000 31.4567 0.0000 0.0000
# 5 0.0000 0.0000 0.0000 0.0000 18.1102 0.0000
# 6 0.0000 0.0000 0.0000 0.0000 0.0000 18.8211
#
#
#
# Elastic Compliance Matrix: (Units=1/GPa)
#
#
# Indices 1 2 3 4 5 6 
#
# 1 0.028271 -0.032361 0.005037 0.000000 0.000000 0.000000
# 2 -0.032361 0.082811 -0.032175 0.000000 0.000000 0.000000
# 3 0.005037 -0.032175 0.024473 0.000000 0.000000 0.000000
# 4 0.000000 0.000000 0.000000 0.031790 0.000000 0.000000
# 5 0.000000 0.000000 0.000000 0.000000 0.055218 0.000000
# 6 0.000000 0.000000 0.000000 0.000000 0.000000 0.053132
#
#
# Mechanical properties :
#
#
# Convention : Reuss Voigt Hill
#
# Bulk Modulus (GPa) = 60.39825 71.61974 66.00900
# Shear Modulus (GPa) = 12.49337 19.55626 16.02482
#
# Velocity S-wave (km/s) = 2.72252 3.40623 3.08339
# Velocity P-wave (km/s) = 6.76137 7.61320 7.19989
#
# Compressibility (1/GPa) = 0.01655677
#
# Stress axis : x y z
#
# Youngs Moduli (GPa) = 35.37211 12.07563 40.86108
#
# Poissons Ratio (x) = 0.39078 -0.20583
# Poissons Ratio (y) = 1.14468 1.31472
# Poissons Ratio (z) = -0.17818 0.38854
#
# Static dielectric constant tensor:
#      x y z
#    x 1.553220 0.000000 0.000000 
#    y 0.000000 1.561490 0.000000 
#    z 0.000000 0.000000 1.573320 
# 
# From -- ./inp_files/30563.got.cif
#   From: 2010.05.17/outbox.cif.g08.bks.cpg/sg59_16_cif.got.tgz:30563.got - 2010.06.03 14:40:33.
