data_PCOD9449420
_publ_section_title
;
Structure prediction by ZEFSAII (Michael W. Deem and Ramdas Pophale) SiO2 
 PCOD9449420
Probable space group: P M M N
;
_chemical_formula_sum "Si O2"
_cell_formula_units_Z 64
_cell_length_a 21.776060
_cell_length_b 7.666887
_cell_length_c 15.222445
_cell_angle_alpha 90.000000
_cell_angle_beta 90.000000
_cell_angle_gamma 90.000000
_cell_volume 2541.457084
_symmetry_space_group_name_H-M "P M M N"
_symmetry_group_IT_number 59
_space_group.IT_coordinate_system_code '2'
_symmetry_cell_setting 'orthorhombic'
loop_
_space_group_symop_operation_xyz
x,y,z
1/2-x,1/2-y,z
1/2+x,-y,-z
-x,1/2+y,-z
-x,-y,-z
1/2+x,1/2+y,-z
1/2-x,y,z
x,1/2-y,z
loop_
_atom_site_type_symbol
_atom_site_label
_atom_site_fract_x
_atom_site_fract_y
_atom_site_fract_z
Si Si1 0.451748 0.534357 0.214607
Si Si2 0.488553 0.943678 0.399140
Si Si3 0.178616 0.557749 0.743418
Si Si4 0.817860 0.955368 0.598827
Si Si5 0.680194 0.553223 0.068343
Si Si6 0.883852 0.042545 0.423745
Si Si7 0.818242 0.450383 0.799463
Si Si8 0.450470 0.459606 0.926496
O O1 0.451073 0.750000 0.216056
O O2 0.456001 0.468893 0.316155
O O3 0.385536 0.476210 0.175366
O O4 0.512974 0.481627 0.161752
O O5 0.463477 0.750000 0.403509
O O6 0.500000 0.000000 0.500000
O O7 0.560112 0.949028 0.375187
O O8 0.250000 0.580622 0.752751
O O9 0.148660 0.750000 0.754653
O O10 0.164647 0.441049 0.826923
O O11 0.169359 0.498770 0.644171
O O12 0.750000 0.001718 0.562362
O O13 0.819093 0.750000 0.617548
O O14 0.867530 0.990841 0.523149
O O15 0.822277 0.048129 0.692593
O O16 0.750000 0.479130 0.055452
O O17 0.683396 0.750000 0.033146
O O18 0.615796 0.466207 0.041395
O O19 0.894322 0.250000 0.424073
O O20 0.750000 0.527015 0.821289
O O21 0.816598 0.250000 0.829834
O O22 0.442985 0.250000 0.919728
O O23 0.500000 0.500000 0.000000
#
# Coordination Sequence:
#
# PCOD9449420 Si02
#       8
#     8   8   8   8   8   8   8   8
#     4   9  19  36  57  80 110 147 183 225 282 342
#     4  11  22  36  54  77 107 144 186 232 283 340
#     4   9  18  31  48  73 104 137 177 227 279 331
#     4  10  20  32  47  70 101 139 186 238 286 333
#     4   9  18  34  57  82 109 145 186 228 280 342
#     4  11  21  32  46  67 100 141 184 230 280 334
#     4   9  17  32  55  78 100 133 178 225 277 341
#     4  10  21  39  61  86 117 151 190 236 284 340
#
# _framework density 25.182404999999999
#
# number of rings (size 3 to 8) (size 9 to 14) (size 15 to 20)
#    0.000    2.250    0.000    3.000    0.000    4.750 
#    0.000    4.375    0.000    0.750    0.000    0.000 
#    0.000    0.000    0.000    0.000    0.000    0.000 
#
# Total GULP energy -356360.823405 kJ/mol
# GULP energy per Si atom -5568.137866 kJ/mol
# Density = 2.512509 g / cm^3
# Si number density = 25.182405 Si / 1000 Ang^3
#
#
#
# Elastic Constant Matrix: (Units=GPa)
#
#
# Indices 1 2 3 4 5 6 
#
# 1 184.9175 5.9735 18.0204 0.0000 0.0000 0.0000
# 2 5.9735 52.2103 -1.5012 0.0000 0.0000 0.0000
# 3 18.0204 -1.5012 83.5111 0.0000 0.0000 0.0000
# 4 0.0000 0.0000 0.0000 3.1542 0.0000 0.0000
# 5 0.0000 0.0000 0.0000 0.0000 33.3344 0.0000
# 6 0.0000 0.0000 0.0000 0.0000 0.0000 11.9278
#
#
#
# Elastic Compliance Matrix: (Units=1/GPa)
#
#
# Indices 1 2 3 4 5 6 
#
# 1 0.005547 -0.000669 -0.001209 0.000000 0.000000 0.000000
# 2 -0.000669 0.019244 0.000490 0.000000 0.000000 0.000000
# 3 -0.001209 0.000490 0.012244 0.000000 0.000000 0.000000
# 4 0.000000 0.000000 0.000000 0.317037 0.000000 0.000000
# 5 0.000000 0.000000 0.000000 0.000000 0.029999 0.000000
# 6 0.000000 0.000000 0.000000 0.000000 0.000000 0.083838
#
#
# Mechanical properties :
#
#
# Convention : Reuss Voigt Hill
#
# Bulk Modulus (GPa) = 29.18921 40.62491 34.90706
# Shear Modulus (GPa) = 10.37119 29.55970 19.96545
#
# Velocity S-wave (km/s) = 2.03159 3.42983 2.81878
# Velocity P-wave (km/s) = 4.13756 5.64378 4.94832
#
# Compressibility (1/GPa) = 0.03425923
#
# Stress axis : x y z
#
# Youngs Moduli (GPa) = 180.26901 51.96422 81.67157
#
# Poissons Ratio (x) = 0.03479 0.09874
# Poissons Ratio (y) = 0.12068 -0.04005
# Poissons Ratio (z) = 0.21795 -0.02548
#
# Static dielectric constant tensor:
#      x y z
#    x 2.350040 0.000000 0.000000 
#    y 0.000000 2.146770 0.000000 
#    z 0.000000 0.000000 2.045450 
# 
# From -- ./inp_files/24732.got.cif
#   From: 2010.05.17/outbox.cif.g08.bks.cpg/sg59_13_cif.got.tgz:24732.got - 2010.06.03 14:40:33.
