data_PCOD9449410
_publ_section_title
;
Structure prediction by ZEFSAII (Michael W. Deem and Ramdas Pophale) SiO2 
 PCOD9449410
Probable space group: P M M N
;
_chemical_formula_sum "Si O2"
_cell_formula_units_Z 56
_cell_length_a 14.391222
_cell_length_b 13.676363
_cell_length_c 15.708193
_cell_angle_alpha 90.000000
_cell_angle_beta 90.000000
_cell_angle_gamma 90.000000
_cell_volume 3091.679887
_symmetry_space_group_name_H-M "P M M N"
_symmetry_group_IT_number 59
_space_group.IT_coordinate_system_code '2'
_symmetry_cell_setting 'orthorhombic'
loop_
_space_group_symop_operation_xyz
x,y,z
1/2-x,1/2-y,z
1/2+x,-y,-z
-x,1/2+y,-z
-x,-y,-z
1/2+x,1/2+y,-z
1/2-x,y,z
x,1/2-y,z
loop_
_atom_site_type_symbol
_atom_site_label
_atom_site_fract_x
_atom_site_fract_y
_atom_site_fract_z
Si Si1 0.639651 0.360280 0.597169
Si Si2 0.979298 0.137449 0.280798
Si Si3 0.457598 0.560502 0.240012
Si Si4 0.362031 0.865866 0.073172
Si Si5 0.639611 0.042579 0.427531
Si Si6 0.145994 0.632800 0.885685
Si Si7 0.357932 0.365250 0.690748
O O1 0.750000 0.371076 0.610282
O O2 0.622308 0.250000 0.565601
O O3 0.590353 0.375557 0.686672
O O4 0.609678 0.435555 0.523750
O O5 0.009866 0.250000 0.283865
O O6 0.916169 0.110882 0.362058
O O7 0.918119 0.120988 0.195598
O O8 0.053769 0.051306 0.271230
O O9 0.412835 0.579053 0.149081
O O10 0.565857 0.593112 0.243822
O O11 0.250000 0.875330 0.079803
O O12 0.383649 0.750000 0.081555
O O13 0.388152 0.902039 0.978152
O O14 0.750000 0.065411 0.422191
O O15 0.627621 0.932144 0.393273
O O16 0.250000 0.594364 0.869256
O O17 0.153993 0.750000 0.896846
O O18 0.250000 0.379119 0.716988
O O19 0.372484 0.250000 0.676401
#
# Coordination Sequence:
#
# PCOD9449410 Si02
#       7
#     8   8   8   8   8   8   8
#     4  10  20  34  53  77 101 123 156 206 255 295
#     4  10  20  32  47  69  98 131 166 204 245 289
#     4  11  21  32  50  72  99 133 167 200 242 291
#     4   9  17  31  53  79 101 122 155 201 251 298
#     4   9  18  32  51  74  97 126 164 204 250 297
#     4   8  15  29  50  75 100 124 155 201 252 294
#     4   9  18  32  48  69 100 135 168 200 236 286
#
# _framework density 18.113130000000002
#
# number of rings (size 3 to 8) (size 9 to 14) (size 15 to 20)
#    0.000    2.571    0.000    3.429    0.000    6.000 
#    0.000    2.143    0.000    2.571    0.000    0.000 
#    0.000    5.714    0.000    0.000    0.000    0.714 
#
# Total GULP energy -312076.791886 kJ/mol
# GULP energy per Si atom -5572.799855 kJ/mol
# Density = 1.807190 g / cm^3
# Si number density = 18.113130 Si / 1000 Ang^3
#
#
#
# Elastic Constant Matrix: (Units=GPa)
#
#
# Indices 1 2 3 4 5 6 
#
# 1 21.3895 10.9871 10.1344 0.0000 0.0000 0.0000
# 2 10.9871 80.5542 -2.6696 0.0000 0.0000 0.0000
# 3 10.1344 -2.6696 71.7064 0.0000 0.0000 0.0000
# 4 0.0000 0.0000 0.0000 23.4472 0.0000 0.0000
# 5 0.0000 0.0000 0.0000 0.0000 10.6894 0.0000
# 6 0.0000 0.0000 0.0000 0.0000 0.0000 18.5356
#
#
#
# Elastic Compliance Matrix: (Units=1/GPa)
#
#
# Indices 1 2 3 4 5 6 
#
# 1 0.054490 -0.007697 -0.007988 0.000000 0.000000 0.000000
# 2 -0.007697 0.013517 0.001591 0.000000 0.000000 0.000000
# 3 -0.007988 0.001591 0.015134 0.000000 0.000000 0.000000
# 4 0.000000 0.000000 0.000000 0.042649 0.000000 0.000000
# 5 0.000000 0.000000 0.000000 0.000000 0.093550 0.000000
# 6 0.000000 0.000000 0.000000 0.000000 0.000000 0.053950
#
#
# Mechanical properties :
#
#
# Convention : Reuss Voigt Hill
#
# Bulk Modulus (GPa) = 18.19722 23.39488 20.79605
# Shear Modulus (GPa) = 15.63501 20.88099 18.25800
#
# Velocity S-wave (km/s) = 2.94119 3.39899 3.17834
# Velocity P-wave (km/s) = 4.64784 5.32430 4.99753
#
# Compressibility (1/GPa) = 0.05495344
#
# Stress axis : x y z
#
# Youngs Moduli (GPa) = 18.35198 73.98348 66.07682
#
# Poissons Ratio (x) = 0.56944 0.52780
# Poissons Ratio (y) = 0.14125 -0.10513
# Poissons Ratio (z) = 0.14659 -0.11771
#
# Static dielectric constant tensor:
#      x y z
#    x 1.656610 0.000000 0.000000 
#    y 0.000000 1.635970 0.000000 
#    z 0.000000 0.000000 1.617030 
# 
# From -- ./inp_files/23349.got.cif
#   From: 2010.05.17/outbox.cif.g08.bks.cpg/sg59_12_cif.got.tgz:23349.got - 2010.06.03 14:40:33.
