data_PCOD9449580
_publ_section_title
;
Structure prediction by ZEFSAII (Michael W. Deem and Ramdas Pophale) SiO2 
 PCOD9449580
Probable space group: P M M N
;
_chemical_formula_sum "Si O2"
_cell_formula_units_Z 64
_cell_length_a 8.673566
_cell_length_b 20.103334
_cell_length_c 20.832190
_cell_angle_alpha 90.000000
_cell_angle_beta 90.000000
_cell_angle_gamma 90.000000
_cell_volume 3632.458854
_symmetry_space_group_name_H-M "P M M N"
_symmetry_group_IT_number 59
_space_group.IT_coordinate_system_code '2'
_symmetry_cell_setting 'orthorhombic'
loop_
_space_group_symop_operation_xyz
x,y,z
1/2-x,1/2-y,z
1/2+x,-y,-z
-x,1/2+y,-z
-x,-y,-z
1/2+x,1/2+y,-z
1/2-x,y,z
x,1/2-y,z
loop_
_atom_site_type_symbol
_atom_site_label
_atom_site_fract_x
_atom_site_fract_y
_atom_site_fract_z
Si Si1 0.565847 0.172634 0.612216
Si Si2 0.436169 0.826962 0.660230
Si Si3 0.061853 0.936242 0.761909
Si Si4 0.573145 0.830661 0.524164
Si Si5 0.935685 0.092014 0.957735
Si Si6 0.563827 0.325135 0.839445
Si Si7 0.934550 0.584638 0.273180
Si Si8 0.563790 0.452419 0.092999
O O1 0.750000 0.172256 0.616310
O O2 0.514599 0.250000 0.622349
O O3 0.514035 0.150938 0.541055
O O4 0.498271 0.123978 0.665595
O O5 0.250000 0.827413 0.658540
O O6 0.484988 0.750000 0.669929
O O7 0.488889 0.875752 0.716810
O O8 0.496105 0.851195 0.591007
O O9 0.250000 0.935171 0.762459
O O10 0.010312 0.932115 0.836106
O O11 0.014968 0.007821 0.733241
O O12 0.750000 0.852727 0.521173
O O13 0.570768 0.750000 0.525287
O O14 0.750000 0.085987 0.956721
O O15 0.977150 0.152929 0.911733
O O16 0.983399 0.093236 0.032350
O O17 0.004534 0.025672 0.925575
O O18 0.750000 0.328141 0.833261
O O19 0.514689 0.250000 0.825456
O O20 0.491319 0.376149 0.789570
O O21 0.750000 0.585509 0.275229
O O22 0.750000 0.454324 0.094778
#
# Coordination Sequence:
#
# PCOD9449580 Si02
#       8
#     8   8   8   8   8   8   8   8
#     4  10  20  34  52  74 101 133 168 207 248 291
#     4   9  17  32  54  76  98 127 162 200 249 306
#     4   9  18  32  50  74 102 130 162 206 252 295
#     4   9  17  31  52  77 102 128 163 205 246 293
#     4   9  17  29  48  71  93 124 167 207 245 292
#     4  10  20  33  47  68 102 137 169 209 254 299
#     4  11  21  33  49  71 100 134 171 209 248 294
#     4   9  16  30  50  70  95 126 161 204 249 291
#
# _framework density 17.618919999999999
#
# number of rings (size 3 to 8) (size 9 to 14) (size 15 to 20)
#    0.000    2.500    1.250    1.500    0.000    4.000 
#    0.000    3.125    0.000    3.750    0.000    0.000 
#    0.000    3.000    0.000    0.000    0.000    0.000 
#
# Total GULP energy -356736.296636 kJ/mol
# GULP energy per Si atom -5574.004635 kJ/mol
# Density = 1.757882 g / cm^3
# Si number density = 17.618920 Si / 1000 Ang^3
#
#
#
# Elastic Constant Matrix: (Units=GPa)
#
#
# Indices 1 2 3 4 5 6 
#
# 1 17.9227 20.6764 26.5487 0.0000 0.0000 0.0000
# 2 20.6764 84.8329 70.1868 0.0000 0.0000 0.0000
# 3 26.5487 70.1868 167.3066 0.0000 0.0000 0.0000
# 4 0.0000 0.0000 0.0000 30.0728 0.0000 0.0000
# 5 0.0000 0.0000 0.0000 0.0000 21.5824 0.0000
# 6 0.0000 0.0000 0.0000 0.0000 0.0000 12.5614
#
#
#
# Elastic Compliance Matrix: (Units=1/GPa)
#
#
# Indices 1 2 3 4 5 6 
#
# 1 0.082870 -0.014272 -0.007163 0.000000 0.000000 0.000000
# 2 -0.014272 0.020512 -0.006340 0.000000 0.000000 0.000000
# 3 -0.007163 -0.006340 0.009774 0.000000 0.000000 0.000000
# 4 0.000000 0.000000 0.000000 0.033253 0.000000 0.000000
# 5 0.000000 0.000000 0.000000 0.000000 0.046334 0.000000
# 6 0.000000 0.000000 0.000000 0.000000 0.000000 0.079609
#
#
# Mechanical properties :
#
#
# Convention : Reuss Voigt Hill
#
# Bulk Modulus (GPa) = 17.35941 56.09846 36.72894
# Shear Modulus (GPa) = 14.40493 23.02000 18.71246
#
# Velocity S-wave (km/s) = 2.86244 3.61854 3.26247
# Velocity P-wave (km/s) = 4.56058 7.02620 5.92311
#
# Compressibility (1/GPa) = 0.05760564
#
# Stress axis : x y z
#
# Youngs Moduli (GPa) = 12.06708 48.75179 102.31722
#
# Poissons Ratio (x) = 0.69577 0.73289
# Poissons Ratio (y) = 0.17222 0.64873
# Poissons Ratio (z) = 0.08644 0.30910
#
# Static dielectric constant tensor:
#      x y z
#    x 1.602090 0.000000 0.000000 
#    y 0.000000 1.584960 0.000000 
#    z 0.000000 0.000000 1.610500 
# 
# From -- ./inp_files/29710.got.cif
#   From: 2010.05.17/outbox.cif.g08.bks.cpg/sg59_15_cif.got.tgz:29710.got - 2010.06.03 14:40:33.
