data_PCOD9449447
_publ_section_title
;
Structure prediction by ZEFSAII (Michael W. Deem and Ramdas Pophale) SiO2 
 PCOD9449447
Probable space group: P M M N
;
_chemical_formula_sum "Si O2"
_cell_formula_units_Z 48
_cell_length_a 14.998720
_cell_length_b 7.491787
_cell_length_c 18.192571
_cell_angle_alpha 90.000000
_cell_angle_beta 90.000000
_cell_angle_gamma 90.000000
_cell_volume 2044.248546
_symmetry_space_group_name_H-M "P M M N"
_symmetry_group_IT_number 59
_space_group.IT_coordinate_system_code '2'
_symmetry_cell_setting 'orthorhombic'
loop_
_space_group_symop_operation_xyz
x,y,z
1/2-x,1/2-y,z
1/2+x,-y,-z
-x,1/2+y,-z
-x,-y,-z
1/2+x,1/2+y,-z
1/2-x,y,z
x,1/2-y,z
loop_
_atom_site_type_symbol
_atom_site_label
_atom_site_fract_x
_atom_site_fract_y
_atom_site_fract_z
Si Si1 0.147605 0.534701 0.035289
Si Si2 0.534655 0.035027 0.826604
Si Si3 0.154301 0.955283 0.641680
Si Si4 0.896148 0.538630 0.516528
Si Si5 0.955004 0.962403 0.666827
Si Si6 0.651575 0.542516 0.133073
O O1 0.250000 0.488753 0.052124
O O2 0.141107 0.750000 0.030914
O O3 0.085251 0.470128 0.100929
O O4 0.128603 0.464387 0.953819
O O5 0.531001 0.250000 0.832630
O O6 0.433412 0.963286 0.826364
O O7 0.578617 0.992491 0.748844
O O8 0.250000 0.034712 0.666344
O O9 0.153797 0.750000 0.666914
O O10 0.057283 0.036364 0.661863
O O11 0.153522 0.956045 0.552597
O O12 0.877072 0.750000 0.513543
O O13 0.000000 0.500000 0.500000
O O14 0.891117 0.473309 0.600829
O O15 0.963429 0.750000 0.653906
O O16 0.750000 0.462167 0.142834
O O17 0.657538 0.750000 0.154210
#
# Coordination Sequence:
#
# PCOD9449447 Si02
#       6
#     8   8   8   8   8   8
#     4   9  18  33  51  70  92 121 162 207 244 283
#     4  10  20  32  48  71  99 130 161 197 242 290
#     4   9  18  33  52  74  99 126 159 201 246 292
#     4   9  17  31  50  70  93 123 160 199 237 281
#     4   9  19  33  48  69  98 129 159 194 237 287
#     4   9  18  32  49  71  98 125 156 197 243 290
#
# _framework density 23.480511
#
# number of rings (size 3 to 8) (size 9 to 14) (size 15 to 20)
#    0.000    2.833    0.000    2.000    0.000    5.667 
#    0.000    0.833    0.000    3.000    0.000    0.000 
#    0.000    0.000    0.000    0.000    0.000    0.000 
#
# Total GULP energy -267756.128817 kJ/mol
# GULP energy per Si atom -5578.252684 kJ/mol
# Density = 2.342707 g / cm^3
# Si number density = 23.480511 Si / 1000 Ang^3
#
#
#
# Elastic Constant Matrix: (Units=GPa)
#
#
# Indices 1 2 3 4 5 6 
#
# 1 28.2425 1.0570 17.5312 0.0000 0.0000 0.0000
# 2 1.0570 71.6881 -7.9835 0.0000 0.0000 0.0000
# 3 17.5312 -7.9835 95.9402 0.0000 0.0000 0.0000
# 4 0.0000 0.0000 0.0000 8.7064 0.0000 0.0000
# 5 0.0000 0.0000 0.0000 0.0000 5.5803 0.0000
# 6 0.0000 0.0000 0.0000 0.0000 0.0000 0.2307
#
#
#
# Elastic Compliance Matrix: (Units=1/GPa)
#
#
# Indices 1 2 3 4 5 6 
#
# 1 0.040080 -0.001420 -0.007442 0.000000 0.000000 0.000000
# 2 -0.001420 0.014130 0.001435 0.000000 0.000000 0.000000
# 3 -0.007442 0.001435 0.011902 0.000000 0.000000 0.000000
# 4 0.000000 0.000000 0.000000 0.114858 0.000000 0.000000
# 5 0.000000 0.000000 0.000000 0.000000 0.179201 0.000000
# 6 0.000000 0.000000 0.000000 0.000000 0.000000 4.334254
#
#
# Mechanical properties :
#
#
# Convention : Reuss Voigt Hill
#
# Bulk Modulus (GPa) = 19.50847 24.12002 21.81424
# Shear Modulus (GPa) = 1.05790 15.25456 8.15623
#
# Velocity S-wave (km/s) = 0.67195 2.55163 1.86579
# Velocity P-wave (km/s) = 2.98805 4.35611 3.73525
#
# Compressibility (1/GPa) = 0.05125980
#
# Stress axis : x y z
#
# Youngs Moduli (GPa) = 24.94990 70.77100 84.01613
#
# Poissons Ratio (x) = 0.10048 0.62525
# Poissons Ratio (y) = 0.03542 -0.12058
# Poissons Ratio (z) = 0.18568 -0.10157
#
# Static dielectric constant tensor:
#      x y z
#    x 1.909940 0.000000 0.000000 
#    y 0.000000 1.889520 0.000000 
#    z 0.000000 0.000000 1.907330 
# 
# From -- ./inp_files/23628.got.cif
#   From: 2010.05.17/outbox.cif.g08.bks.cpg/sg59_12_cif.got.tgz:23628.got - 2010.06.03 14:40:33.
