data_PCOD9449481
_publ_section_title
;
Structure prediction by ZEFSAII (Michael W. Deem and Ramdas Pophale) SiO2 
 PCOD9449481
Probable space group: P M M N
;
_chemical_formula_sum "Si O2"
_cell_formula_units_Z 56
_cell_length_a 7.952946
_cell_length_b 22.516625
_cell_length_c 14.455237
_cell_angle_alpha 90.000000
_cell_angle_beta 90.000000
_cell_angle_gamma 90.000000
_cell_volume 2588.549922
_symmetry_space_group_name_H-M "P M M N"
_symmetry_group_IT_number 59
_space_group.IT_coordinate_system_code '2'
_symmetry_cell_setting 'orthorhombic'
loop_
_space_group_symop_operation_xyz
x,y,z
1/2-x,1/2-y,z
1/2+x,-y,-z
-x,1/2+y,-z
-x,-y,-z
1/2+x,1/2+y,-z
1/2-x,y,z
x,1/2-y,z
loop_
_atom_site_type_symbol
_atom_site_label
_atom_site_fract_x
_atom_site_fract_y
_atom_site_fract_z
Si Si1 0.544245 0.320190 0.084453
Si Si2 0.952818 0.434923 0.960829
Si Si3 0.561035 0.380601 0.274046
Si Si4 0.062094 0.320085 0.439917
Si Si5 0.048735 0.816470 0.365645
Si Si6 0.556943 0.013209 0.395307
Si Si7 0.952302 0.420651 0.752461
O O1 0.750000 0.317954 0.083212
O O2 0.491279 0.250000 0.071525
O O3 0.489073 0.347103 0.184546
O O4 0.492802 0.373804 0.013625
O O5 0.750000 0.432145 0.961062
O O6 0.012099 0.434847 0.854673
O O7 0.000000 0.500000 0.000000
O O8 0.750000 0.399372 0.245345
O O9 0.563245 0.334892 0.358447
O O10 0.476406 0.435944 0.328355
O O11 0.250000 0.337638 0.412204
O O12 0.058522 0.250000 0.453000
O O13 0.019731 0.345900 0.540317
O O14 0.250000 0.814530 0.378077
O O15 0.983349 0.750000 0.356509
O O16 0.014273 0.852878 0.274021
O O17 0.750000 0.031658 0.406040
O O18 0.500000 0.000000 0.500000
O O19 0.536788 0.956917 0.329691
O O20 0.750000 0.430718 0.747498
#
# Coordination Sequence:
#
# PCOD9449481 Si02
#       7
#     8   8   8   8   8   8   8
#     4   9  18  34  58  86 112 142 188 244 296 347
#     4  10  21  38  60  85 113 146 186 233 286 345
#     4  10  20  34  53  76 104 142 186 229 276 331
#     4  10  20  32  48  74 106 138 173 214 262 317
#     4   9  18  33  52  74 102 136 173 213 259 315
#     4  11  23  37  55  81 114 150 189 232 278 333
#     4  10  21  36  55  80 108 139 177 220 269 325
#
# _framework density 21.633734
#
# number of rings (size 3 to 8) (size 9 to 14) (size 15 to 20)
#    0.000    2.143    0.000    3.000    0.000    8.857 
#    0.000    3.571    0.000    1.286    0.000    2.000 
#    0.000    0.000    0.000    0.000    0.000    0.000 
#
# Total GULP energy -311839.244223 kJ/mol
# GULP energy per Si atom -5568.557933 kJ/mol
# Density = 2.158449 g / cm^3
# Si number density = 21.633734 Si / 1000 Ang^3
#
#
#
# Elastic Constant Matrix: (Units=GPa)
#
#
# Indices 1 2 3 4 5 6 
#
# 1 15.3608 10.2172 8.4400 0.0000 0.0000 0.0000
# 2 10.2172 125.9724 68.2066 0.0000 0.0000 0.0000
# 3 8.4400 68.2066 159.7469 0.0000 0.0000 0.0000
# 4 0.0000 0.0000 0.0000 36.0432 0.0000 0.0000
# 5 0.0000 0.0000 0.0000 0.0000 12.9585 0.0000
# 6 0.0000 0.0000 0.0000 0.0000 0.0000 18.7997
#
#
#
# Elastic Compliance Matrix: (Units=1/GPa)
#
#
# Indices 1 2 3 4 5 6 
#
# 1 0.069141 -0.004721 -0.001637 0.000000 0.000000 0.000000
# 2 -0.004721 0.010648 -0.004297 0.000000 0.000000 0.000000
# 3 -0.001637 -0.004297 0.008181 0.000000 0.000000 0.000000
# 4 0.000000 0.000000 0.000000 0.027744 0.000000 0.000000
# 5 0.000000 0.000000 0.000000 0.000000 0.077170 0.000000
# 6 0.000000 0.000000 0.000000 0.000000 0.000000 0.053192
#
#
# Mechanical properties :
#
#
# Convention : Reuss Voigt Hill
#
# Bulk Modulus (GPa) = 15.00172 52.75641 33.87907
# Shear Modulus (GPa) = 17.26483 27.84135 22.55309
#
# Velocity S-wave (km/s) = 2.82805 3.59129 3.23227
# Velocity P-wave (km/s) = 4.19681 6.45256 5.44283
#
# Compressibility (1/GPa) = 0.06665901
#
# Stress axis : x y z
#
# Youngs Moduli (GPa) = 14.46323 93.91783 122.23510
#
# Poissons Ratio (x) = 0.44342 0.20011
# Poissons Ratio (y) = 0.06829 0.52521
# Poissons Ratio (z) = 0.02368 0.40354
#
# Static dielectric constant tensor:
#      x y z
#    x 1.930320 0.000000 0.000000 
#    y 0.000000 1.980280 0.000000 
#    z 0.000000 0.000000 1.775080 
# 
# From -- ./inp_files/21033.got.cif
#   From: 2010.05.17/outbox.cif.g08.bks.cpg/sg59_11_cif.got.tgz:21033.got - 2010.06.03 14:40:33.
