data_PCOD9449236
_publ_section_title
;
Structure prediction by ZEFSAII (Michael W. Deem and Ramdas Pophale) SiO2 
 PCOD9449236
Probable space group: P M M N
;
_chemical_formula_sum "Si O2"
_cell_formula_units_Z 48
_cell_length_a 28.605582
_cell_length_b 8.481722
_cell_length_c 10.190368
_cell_angle_alpha 90.000000
_cell_angle_beta 90.000000
_cell_angle_gamma 90.000000
_cell_volume 2472.433900
_symmetry_space_group_name_H-M "P M M N"
_symmetry_group_IT_number 59
_space_group.IT_coordinate_system_code '2'
_symmetry_cell_setting 'orthorhombic'
loop_
_space_group_symop_operation_xyz
x,y,z
1/2-x,1/2-y,z
1/2+x,-y,-z
-x,1/2+y,-z
-x,-y,-z
1/2+x,1/2+y,-z
1/2-x,y,z
x,1/2-y,z
loop_
_atom_site_type_symbol
_atom_site_label
_atom_site_fract_x
_atom_site_fract_y
_atom_site_fract_z
Si Si1 0.304129 0.559472 0.763167
Si Si2 0.638847 0.567710 0.991072
Si Si3 0.540745 0.441388 0.596020
Si Si4 0.805371 0.066596 0.758664
Si Si5 0.357923 0.940197 0.506252
Si Si6 0.539530 0.438167 0.901492
O O1 0.250000 0.504549 0.761977
O O2 0.302481 0.750000 0.756598
O O3 0.331580 0.511032 0.893150
O O4 0.334455 0.500183 0.639478
O O5 0.631256 0.750000 0.021822
O O6 0.669317 0.544691 0.860718
O O7 0.589333 0.488199 0.960586
O O8 0.500000 0.500000 0.500000
O O9 0.540666 0.250000 0.596907
O O10 0.590657 0.495988 0.536595
O O11 0.535525 0.493419 0.748758
O O12 0.750000 0.055506 0.768873
O O13 0.818972 0.250000 0.786984
O O14 0.822842 0.030139 0.613290
O O15 0.361845 0.750000 0.519705
O O16 0.536827 0.250000 0.897838
O O17 0.500000 0.500000 0.000000
#
# Coordination Sequence:
#
# PCOD9449236 Si02
#       6
#     8   8   8   8   8   8
#     4  10  21  38  62  91 122 161 208 254 304 362
#     4  12  25  40  59  87 125 165 204 249 299 359
#     4  10  22  40  63  91 124 156 196 247 304 364
#     4  10  19  36  64  91 117 154 201 253 306 361
#     4   9  18  37  62  90 119 153 198 253 306 360
#     4  11  24  44  67  93 123 158 202 251 305 364
#
# _framework density 19.414068
#
# number of rings (size 3 to 8) (size 9 to 14) (size 15 to 20)
#    0.000    1.667    1.667    3.000    2.333    6.000 
#    0.000    0.833    0.000    2.000    0.000    0.000 
#    0.000    0.000    0.000    0.000    0.000    0.000 
#
# Total GULP energy -268070.501233 kJ/mol
# GULP energy per Si atom -5584.802109 kJ/mol
# Density = 1.936988 g / cm^3
# Si number density = 19.414068 Si / 1000 Ang^3
#
#
#
# Elastic Constant Matrix: (Units=GPa)
#
#
# Indices 1 2 3 4 5 6 
#
# 1 125.1648 23.4047 52.3851 0.0000 0.0000 0.0000
# 2 23.4047 23.5446 14.1003 0.0000 0.0000 0.0000
# 3 52.3851 14.1003 92.6863 0.0000 0.0000 0.0000
# 4 0.0000 0.0000 0.0000 9.5665 0.0000 0.0000
# 5 0.0000 0.0000 0.0000 0.0000 40.1725 0.0000
# 6 0.0000 0.0000 0.0000 0.0000 0.0000 20.3325
#
#
#
# Elastic Compliance Matrix: (Units=1/GPa)
#
#
# Indices 1 2 3 4 5 6 
#
# 1 0.011845 -0.008544 -0.005395 0.000000 0.000000 0.000000
# 2 -0.008544 0.052892 -0.003218 0.000000 0.000000 0.000000
# 3 -0.005395 -0.003218 0.014328 0.000000 0.000000 0.000000
# 4 0.000000 0.000000 0.000000 0.104532 0.000000 0.000000
# 5 0.000000 0.000000 0.000000 0.000000 0.024893 0.000000
# 6 0.000000 0.000000 0.000000 0.000000 0.000000 0.049182
#
#
# Mechanical properties :
#
#
# Convention : Reuss Voigt Hill
#
# Bulk Modulus (GPa) = 22.34509 46.79732 34.57121
# Shear Modulus (GPa) = 16.29184 24.11466 20.20325
#
# Velocity S-wave (km/s) = 2.90000 3.52820 3.22941
# Velocity P-wave (km/s) = 4.76949 6.38395 5.63484
#
# Compressibility (1/GPa) = 0.04475256
#
# Stress axis : x y z
#
# Youngs Moduli (GPa) = 84.42384 18.90629 69.79482
#
# Poissons Ratio (x) = 0.16153 0.37654
# Poissons Ratio (y) = 0.72130 0.22458
# Poissons Ratio (z) = 0.45546 0.06083
#
# Static dielectric constant tensor:
#      x y z
#    x 1.658680 0.000000 0.000000 
#    y 0.000000 1.666770 0.000000 
#    z 0.000000 0.000000 1.670540 
# 
# From -- ./inp_files/12952.got.cif
#   From: 2010.05.17/outbox.cif.g08.bks.cpg/sg59_7_cif.got.tgz:12952.got - 2010.06.03 14:40:33.
