data_PCOD9449213
_publ_section_title
;
Structure prediction by ZEFSAII (Michael W. Deem and Ramdas Pophale) SiO2 
 PCOD9449213
Probable space group: P M M N
;
_chemical_formula_sum "Si O2"
_cell_formula_units_Z 64
_cell_length_a 8.588003
_cell_length_b 19.303465
_cell_length_c 20.457572
_cell_angle_alpha 90.000000
_cell_angle_beta 90.000000
_cell_angle_gamma 90.000000
_cell_volume 3391.419776
_symmetry_space_group_name_H-M "P M M N"
_symmetry_group_IT_number 59
_space_group.IT_coordinate_system_code '2'
_symmetry_cell_setting 'orthorhombic'
loop_
_space_group_symop_operation_xyz
x,y,z
1/2-x,1/2-y,z
1/2+x,-y,-z
-x,1/2+y,-z
-x,-y,-z
1/2+x,1/2+y,-z
1/2-x,y,z
x,1/2-y,z
loop_
_atom_site_type_symbol
_atom_site_label
_atom_site_fract_x
_atom_site_fract_y
_atom_site_fract_z
Si Si1 0.437026 0.831065 0.228251
Si Si2 0.938179 0.829456 0.969283
Si Si3 0.063594 0.577022 0.487181
Si Si4 0.065615 0.080558 0.653751
Si Si5 0.938341 0.169820 0.389452
Si Si6 0.439669 0.438248 0.137032
Si Si7 0.562010 0.089901 0.905111
Si Si8 0.563045 0.562398 0.711863
O O1 0.250000 0.838842 0.235906
O O2 0.472987 0.750000 0.222796
O O3 0.517591 0.865862 0.290127
O O4 0.481026 0.870675 0.161816
O O5 0.750000 0.828289 0.968830
O O6 0.993555 0.750000 0.970004
O O7 0.990285 0.872709 0.905711
O O8 0.992315 0.870951 0.033077
O O9 0.250000 0.574246 0.487460
O O10 0.013172 0.628311 0.545247
O O11 0.000000 0.500000 0.500000
O O12 0.006161 0.599937 0.416076
O O13 0.250000 0.076186 0.647390
O O14 0.001744 0.005681 0.676034
O O15 0.750000 0.167078 0.386143
O O16 0.985580 0.250000 0.391571
O O17 0.006569 0.129159 0.327695
O O18 0.250000 0.438672 0.137816
O O19 0.488324 0.510052 0.102670
O O20 0.489584 0.436936 0.212521
O O21 0.750000 0.091404 0.910327
O O22 0.750000 0.558809 0.710966
#
# Coordination Sequence:
#
# PCOD9449213 Si02
#       8
#     8   8   8   8   8   8   8   8
#     4  10  21  38  60  85 115 153 195 241 296 353
#     4  10  21  36  54  81 118 154 188 235 296 354
#     4  11  22  38  63  90 119 159 201 244 293 348
#     4  12  24  38  59  88 122 157 194 243 299 356
#     4  10  23  42  62  89 125 159 195 244 303 359
#     4   9  19  36  59  84 112 149 196 245 291 347
#     4  10  19  36  60  84 111 149 196 242 290 350
#     4  11  21  38  64  89 116 154 204 252 295 352
#
# _framework density 18.871153
#
# number of rings (size 3 to 8) (size 9 to 14) (size 15 to 20)
#    0.000    1.625    2.500    2.625    0.000    3.250 
#    0.000    3.750    0.000    0.000    0.000    0.000 
#    0.000    0.000    0.000    0.000    0.000    0.000 
#
# Total GULP energy -357641.876088 kJ/mol
# GULP energy per Si atom -5588.154314 kJ/mol
# Density = 1.882820 g / cm^3
# Si number density = 18.871153 Si / 1000 Ang^3
#
#
#
# Elastic Constant Matrix: (Units=GPa)
#
#
# Indices 1 2 3 4 5 6 
#
# 1 24.4019 29.5608 22.3434 0.0000 0.0000 0.0000
# 2 29.5608 147.6472 69.6275 0.0000 0.0000 0.0000
# 3 22.3434 69.6275 110.6397 0.0000 0.0000 0.0000
# 4 0.0000 0.0000 0.0000 33.3016 0.0000 0.0000
# 5 0.0000 0.0000 0.0000 0.0000 19.1514 0.0000
# 6 0.0000 0.0000 0.0000 0.0000 0.0000 26.3795
#
#
#
# Elastic Compliance Matrix: (Units=1/GPa)
#
#
# Indices 1 2 3 4 5 6 
#
# 1 0.056896 -0.008493 -0.006145 0.000000 0.000000 0.000000
# 2 -0.008493 0.010899 -0.005144 0.000000 0.000000 0.000000
# 3 -0.006145 -0.005144 0.013516 0.000000 0.000000 0.000000
# 4 0.000000 0.000000 0.000000 0.030029 0.000000 0.000000
# 5 0.000000 0.000000 0.000000 0.000000 0.052216 0.000000
# 6 0.000000 0.000000 0.000000 0.000000 0.000000 0.037908
#
#
# Mechanical properties :
#
#
# Convention : Reuss Voigt Hill
#
# Bulk Modulus (GPa) = 23.95367 58.41691 41.18529
# Shear Modulus (GPa) = 19.61213 26.51029 23.06121
#
# Velocity S-wave (km/s) = 3.22726 3.75214 3.49955
# Velocity P-wave (km/s) = 5.15827 7.05650 6.18070
#
# Compressibility (1/GPa) = 0.04174726
#
# Stress axis : x y z
#
# Youngs Moduli (GPa) = 17.57587 91.75076 73.98442
#
# Poissons Ratio (x) = 0.77928 0.45463
# Poissons Ratio (y) = 0.14928 0.38056
# Poissons Ratio (z) = 0.10800 0.47194
#
# Static dielectric constant tensor:
#      x y z
#    x 1.646820 0.000000 0.000000 
#    y 0.000000 1.636660 0.000000 
#    z 0.000000 0.000000 1.633960 
# 
# From -- ./inp_files/29470.got.cif
#   From: 2010.05.17/outbox.cif.g08.bks.cpg/sg59_15_cif.got.tgz:29470.got - 2010.06.03 14:40:33.
