data_PCOD9449891
_publ_section_title
;
Structure prediction by ZEFSAII (Michael W. Deem and Ramdas Pophale) SiO2 
 PCOD9449891
Probable space group: P M M N
;
_chemical_formula_sum "Si O2"
_cell_formula_units_Z 56
_cell_length_a 19.767920
_cell_length_b 8.518883
_cell_length_c 18.323934
_cell_angle_alpha 90.000000
_cell_angle_beta 90.000000
_cell_angle_gamma 90.000000
_cell_volume 3085.761437
_symmetry_space_group_name_H-M "P M M N"
_symmetry_group_IT_number 59
_space_group.IT_coordinate_system_code '2'
_symmetry_cell_setting 'orthorhombic'
loop_
_space_group_symop_operation_xyz
x,y,z
1/2-x,1/2-y,z
1/2+x,-y,-z
-x,1/2+y,-z
-x,-y,-z
1/2+x,1/2+y,-z
1/2-x,y,z
x,1/2-y,z
loop_
_atom_site_type_symbol
_atom_site_label
_atom_site_fract_x
_atom_site_fract_y
_atom_site_fract_z
Si Si1 0.571965 0.940125 0.293630
Si Si2 0.829071 0.437617 0.580035
Si Si3 0.172268 0.060267 0.999793
Si Si4 0.828242 0.939664 0.421987
Si Si5 0.927616 0.559087 0.127682
Si Si6 0.582741 0.437896 0.869518
Si Si7 0.578067 0.563840 0.708638
O O1 0.568506 0.750000 0.294564
O O2 0.625234 0.990524 0.354701
O O3 0.590133 0.987306 0.210645
O O4 0.497574 0.005426 0.309080
O O5 0.750000 0.482462 0.587367
O O6 0.834111 0.250000 0.584010
O O7 0.851510 0.494069 0.499850
O O8 0.872327 0.512021 0.644407
O O9 0.250000 0.005884 0.995557
O O10 0.173131 0.250000 0.997428
O O11 0.135462 0.008378 0.073710
O O12 0.125731 0.003908 0.932360
O O13 0.750000 0.987232 0.411035
O O14 0.830143 0.750000 0.425493
O O15 0.927568 0.750000 0.125845
O O16 0.005300 0.509418 0.113078
O O17 0.584378 0.250000 0.874162
O O18 0.597058 0.488133 0.786500
O O19 0.578449 0.750000 0.716558
#
# Coordination Sequence:
#
# PCOD9449891 Si02
#       7
#     8   8   8   8   8   8   8
#     4   9  18  34  55  80 110 141 176 217 260 308
#     4  10  21  37  56  77 104 139 176 215 263 317
#     4  10  20  33  51  78 109 137 170 213 257 303
#     4   9  18  33  54  80 109 142 179 217 258 306
#     4   8  16  32  53  76 102 136 174 210 252 301
#     4  10  20  36  56  75 101 137 175 214 258 311
#     4  11  22  36  56  80 105 134 173 220 266 313
#
# _framework density 18.147870999999999
#
# number of rings (size 3 to 8) (size 9 to 14) (size 15 to 20)
#    0.000    2.429    0.000    3.429    0.000    3.429 
#    0.000    5.714    0.000    0.000    0.000    2.000 
#    0.000    0.000    0.000    0.000    0.000    0.000 
#
# Total GULP energy -312507.857212 kJ/mol
# GULP energy per Si atom -5580.497450 kJ/mol
# Density = 1.810657 g / cm^3
# Si number density = 18.147871 Si / 1000 Ang^3
#
#
#
# Elastic Constant Matrix: (Units=GPa)
#
#
# Indices 1 2 3 4 5 6 
#
# 1 97.5757 19.4767 87.8876 0.0000 0.0000 0.0000
# 2 19.4767 17.2264 14.3616 0.0000 0.0000 0.0000
# 3 87.8876 14.3616 113.7246 0.0000 0.0000 0.0000
# 4 0.0000 0.0000 0.0000 24.3166 0.0000 0.0000
# 5 0.0000 0.0000 0.0000 0.0000 163.3251 0.0000
# 6 0.0000 0.0000 0.0000 0.0000 0.0000 17.0357
#
#
#
# Elastic Compliance Matrix: (Units=1/GPa)
#
#
# Indices 1 2 3 4 5 6 
#
# 1 0.039839 -0.021655 -0.028053 0.000000 0.000000 0.000000
# 2 -0.021655 0.076652 0.007055 0.000000 0.000000 0.000000
# 3 -0.028053 0.007055 0.029582 0.000000 0.000000 0.000000
# 4 0.000000 0.000000 0.000000 0.041124 0.000000 0.000000
# 5 0.000000 0.000000 0.000000 0.000000 0.006123 0.000000
# 6 0.000000 0.000000 0.000000 0.000000 0.000000 0.058700
#
#
# Mechanical properties :
#
#
# Convention : Reuss Voigt Hill
#
# Bulk Modulus (GPa) = 16.45625 52.44207 34.44916
# Shear Modulus (GPa) = 13.98282 48.05553 31.01918
#
# Velocity S-wave (km/s) = 2.77879 5.15145 4.13879
# Velocity P-wave (km/s) = 4.40262 8.02142 6.47017
#
# Compressibility (1/GPa) = 0.06076717
#
# Stress axis : x y z
#
# Youngs Moduli (GPa) = 25.10120 13.04593 33.80442
#
# Poissons Ratio (x) = 0.28251 0.94832
# Poissons Ratio (y) = 0.54357 -0.23850
# Poissons Ratio (z) = 0.70417 -0.09204
#
# Static dielectric constant tensor:
#      x y z
#    x 1.609040 0.000000 0.000000 
#    y 0.000000 1.620210 0.000000 
#    z 0.000000 0.000000 1.603490 
# 
# From -- ./inp_files/24251.got.cif
#   From: 2010.05.17/outbox.cif.g08.bks.cpg/sg59_13_cif.got.tgz:24251.got - 2010.06.03 14:40:33.
