data_PCOD9449064
_publ_section_title
;
Structure prediction by ZEFSAII (Michael W. Deem and Ramdas Pophale) SiO2 
 PCOD9449064
Probable space group: P M M N
;
_chemical_formula_sum "Si O2"
_cell_formula_units_Z 64
_cell_length_a 21.714331
_cell_length_b 7.856785
_cell_length_c 18.189548
_cell_angle_alpha 90.000000
_cell_angle_beta 90.000000
_cell_angle_gamma 90.000000
_cell_volume 3103.224746
_symmetry_space_group_name_H-M "P M M N"
_symmetry_group_IT_number 59
_space_group.IT_coordinate_system_code '2'
_symmetry_cell_setting 'orthorhombic'
loop_
_space_group_symop_operation_xyz
x,y,z
1/2-x,1/2-y,z
1/2+x,-y,-z
-x,1/2+y,-z
-x,-y,-z
1/2+x,1/2+y,-z
1/2-x,y,z
x,1/2-y,z
loop_
_atom_site_type_symbol
_atom_site_label
_atom_site_fract_x
_atom_site_fract_y
_atom_site_fract_z
Si Si1 0.531623 0.439413 0.073795
Si Si2 0.678790 0.546018 0.429875
Si Si3 0.390038 0.040992 0.719535
Si Si4 0.582778 0.043945 0.847122
Si Si5 0.346703 0.061998 0.874942
Si Si6 0.315089 0.547685 0.036721
Si Si7 0.033824 0.543757 0.302833
Si Si8 0.434197 0.546608 0.463884
O O1 0.557949 0.250000 0.064492
O O2 0.478845 0.446158 0.132678
O O3 0.632086 0.514126 0.908011
O O4 0.500000 0.500000 0.000000
O O5 0.750000 0.483744 0.440743
O O6 0.682981 0.750000 0.424701
O O7 0.647984 0.487728 0.352665
O O8 0.626827 0.510153 0.491922
O O9 0.390227 0.250000 0.723598
O O10 0.354557 0.981356 0.793974
O O11 0.462409 0.988013 0.713113
O O12 0.574875 0.250000 0.856369
O O13 0.417319 0.068093 0.900510
O O14 0.584673 0.010343 0.760397
O O15 0.320161 0.250000 0.866594
O O16 0.319585 0.980740 0.948981
O O17 0.250000 0.473868 0.060936
O O18 0.314722 0.750000 0.047227
O O19 0.028529 0.750000 0.306795
O O20 0.058879 0.480232 0.380651
O O21 0.500000 0.500000 0.500000
O O22 0.430824 0.750000 0.461762
#
# Coordination Sequence:
#
# PCOD9449064 Si02
#       8
#     8   8   8   8   8   8   8   8
#     4  12  22  32  50  79 111 141 176 223 278 330
#     4  10  21  39  61  84 117 160 200 238 289 352
#     4   9  17  32  55  84 115 147 187 230 282 346
#     4  10  19  35  57  78 105 143 185 232 282 333
#     4  11  21  34  56  83 110 142 184 233 278 331
#     4  10  22  38  54  74 105 146 190 234 281 336
#     4   9  17  32  56  86 115 143 181 235 289 340
#     4  11  21  36  61  90 121 154 194 243 293 352
#
# _framework density 20.623708000000001
#
# number of rings (size 3 to 8) (size 9 to 14) (size 15 to 20)
#    0.000    1.750    3.750    1.875    0.000    1.000 
#    0.000    5.625    0.000    2.250    0.000    0.000 
#    0.000    0.000    0.000    0.000    0.000    0.000 
#
# Total GULP energy -356360.669590 kJ/mol
# GULP energy per Si atom -5568.135462 kJ/mol
# Density = 2.057677 g / cm^3
# Si number density = 20.623708 Si / 1000 Ang^3
#
#
#
# Elastic Constant Matrix: (Units=GPa)
#
#
# Indices 1 2 3 4 5 6 
#
# 1 144.4714 9.6274 63.3082 0.0000 0.0000 0.0000
# 2 9.6274 38.6708 5.7434 0.0000 0.0000 0.0000
# 3 63.3082 5.7434 157.3643 0.0000 0.0000 0.0000
# 4 0.0000 0.0000 0.0000 20.5198 0.0000 0.0000
# 5 0.0000 0.0000 0.0000 0.0000 0.2024 0.0000
# 6 0.0000 0.0000 0.0000 0.0000 0.0000 24.3322
#
#
#
# Elastic Compliance Matrix: (Units=1/GPa)
#
#
# Indices 1 2 3 4 5 6 
#
# 1 0.008503 -0.001618 -0.003362 0.000000 0.000000 0.000000
# 2 -0.001618 0.026308 -0.000309 0.000000 0.000000 0.000000
# 3 -0.003362 -0.000309 0.007718 0.000000 0.000000 0.000000
# 4 0.000000 0.000000 0.000000 0.048733 0.000000 0.000000
# 5 0.000000 0.000000 0.000000 0.000000 4.941507 0.000000
# 6 0.000000 0.000000 0.000000 0.000000 0.000000 0.041098
#
#
# Mechanical properties :
#
#
# Convention : Reuss Voigt Hill
#
# Bulk Modulus (GPa) = 31.29715 55.31829 43.30772
# Shear Modulus (GPa) = 0.98134 26.46603 13.72368
#
# Velocity S-wave (km/s) = 0.69055 3.58618 2.58240
# Velocity P-wave (km/s) = 3.98046 6.63540 5.47141
#
# Compressibility (1/GPa) = 0.03195179
#
# Stress axis : x y z
#
# Youngs Moduli (GPa) = 117.61032 38.01134 129.56113
#
# Poissons Ratio (x) = 0.06148 0.43553
# Poissons Ratio (y) = 0.19024 0.04009
# Poissons Ratio (z) = 0.39536 0.01176
#
# Static dielectric constant tensor:
#      x y z
#    x 1.793340 0.000000 0.000000 
#    y 0.000000 1.749570 0.000000 
#    z 0.000000 0.000000 1.799460 
# 
# From -- ./inp_files/30966.got.cif
#   From: 2010.05.17/outbox.cif.g08.bks.cpg/sg59_16_cif.got.tgz:30966.got - 2010.06.03 14:40:33.
