data_PCOD9449629
_publ_section_title
;
Structure prediction by ZEFSAII (Michael W. Deem and Ramdas Pophale) SiO2 
 PCOD9449629
Probable space group: P M M N
;
_chemical_formula_sum "Si O2"
_cell_formula_units_Z 48
_cell_length_a 18.664909
_cell_length_b 9.204667
_cell_length_c 16.865659
_cell_angle_alpha 90.000000
_cell_angle_beta 90.000000
_cell_angle_gamma 90.000000
_cell_volume 2897.592265
_symmetry_space_group_name_H-M "P M M N"
_symmetry_group_IT_number 59
_space_group.IT_coordinate_system_code '2'
_symmetry_cell_setting 'orthorhombic'
loop_
_space_group_symop_operation_xyz
x,y,z
1/2-x,1/2-y,z
1/2+x,-y,-z
-x,1/2+y,-z
-x,-y,-z
1/2+x,1/2+y,-z
1/2-x,y,z
x,1/2-y,z
loop_
_atom_site_type_symbol
_atom_site_label
_atom_site_fract_x
_atom_site_fract_y
_atom_site_fract_z
Si Si1 0.971806 0.414777 0.747143
Si Si2 0.470199 0.074657 0.578501
Si Si3 0.361344 0.415773 0.799902
Si Si4 0.830028 0.078134 0.358187
Si Si5 0.935587 0.916321 0.896853
Si Si6 0.103686 0.916849 0.950785
O O1 0.943571 0.250000 0.750760
O O2 0.931677 0.517971 0.808751
O O3 0.980518 0.460560 0.655663
O O4 0.053877 0.409581 0.778703
O O5 0.467412 0.250000 0.572603
O O6 0.500000 0.000000 0.500000
O O7 0.391637 0.010489 0.597070
O O8 0.335053 0.250000 0.796912
O O9 0.329883 0.516656 0.731342
O O10 0.355000 0.487416 0.885955
O O11 0.750000 0.058299 0.391492
O O12 0.846744 0.250000 0.357776
O O13 0.911590 0.750000 0.899572
O O14 0.019846 0.917328 0.922870
O O15 0.895804 0.012916 0.962377
O O16 0.127508 0.750000 0.950929
#
# Coordination Sequence:
#
# PCOD9449629 Si02
#       6
#     8   8   8   8   8   8
#     4   8  15  26  38  55  80 111 144 179 223 273
#     4  10  20  33  50  70  94 124 158 198 245 298
#     4   9  16  26  40  58  82 112 147 184 221 265
#     4  10  20  33  49  69  94 124 158 195 236 286
#     4   9  15  21  32  51  75 106 142 178 214 254
#     4   9  15  22  33  50  76 109 142 176 213 254
#
# _framework density 16.565477999999999
#
# number of rings (size 3 to 8) (size 9 to 14) (size 15 to 20)
#    0.000    2.833    0.000    3.500    0.000   10.000 
#    0.000    0.000    0.000    0.000    0.000    0.000 
#    0.000    1.333    0.000   11.667    0.000   14.667 
#
# Total GULP energy -267367.900406 kJ/mol
# GULP energy per Si atom -5570.164592 kJ/mol
# Density = 1.652777 g / cm^3
# Si number density = 16.565478 Si / 1000 Ang^3
#
#
#
# Elastic Constant Matrix: (Units=GPa)
#
#
# Indices 1 2 3 4 5 6 
#
# 1 27.3924 20.3123 26.6944 0.0000 0.0000 0.0000
# 2 20.3123 108.1715 73.0808 0.0000 0.0000 0.0000
# 3 26.6944 73.0808 142.1818 0.0000 0.0000 0.0000
# 4 0.0000 0.0000 0.0000 31.2571 0.0000 0.0000
# 5 0.0000 0.0000 0.0000 0.0000 4.1313 0.0000
# 6 0.0000 0.0000 0.0000 0.0000 0.0000 8.5386
#
#
#
# Elastic Compliance Matrix: (Units=1/GPa)
#
#
# Indices 1 2 3 4 5 6 
#
# 1 0.045945 -0.004289 -0.006421 0.000000 0.000000 0.000000
# 2 -0.004289 0.014563 -0.006680 0.000000 0.000000 0.000000
# 3 -0.006421 -0.006680 0.011672 0.000000 0.000000 0.000000
# 4 0.000000 0.000000 0.000000 0.031993 0.000000 0.000000
# 5 0.000000 0.000000 0.000000 0.000000 0.242056 0.000000
# 6 0.000000 0.000000 0.000000 0.000000 0.000000 0.117115
#
#
# Mechanical properties :
#
#
# Convention : Reuss Voigt Hill
#
# Bulk Modulus (GPa) = 26.73872 57.54676 42.14274
# Shear Modulus (GPa) = 9.79255 19.29594 14.54425
#
# Velocity S-wave (km/s) = 2.43398 3.41666 2.96630
# Velocity P-wave (km/s) = 4.90666 7.09783 6.10141
#
# Compressibility (1/GPa) = 0.03739894
#
# Stress axis : x y z
#
# Youngs Moduli (GPa) = 21.76524 68.66697 85.67213
#
# Poissons Ratio (x) = 0.29452 0.55014
# Poissons Ratio (y) = 0.09335 0.57230
# Poissons Ratio (z) = 0.13977 0.45870
#
# Static dielectric constant tensor:
#      x y z
#    x 1.563070 0.000000 0.000000 
#    y 0.000000 1.558670 0.000000 
#    z 0.000000 0.000000 1.554490 
# 
# From -- ./inp_files/20762.got.cif
#   From: 2010.05.17/outbox.cif.g08.bks.cpg/sg59_11_cif.got.tgz:20762.got - 2010.06.03 14:40:33.
