data_PCOD9449561
_publ_section_title
;
Structure prediction by ZEFSAII (Michael W. Deem and Ramdas Pophale) SiO2 
 PCOD9449561
Probable space group: P M M N
;
_chemical_formula_sum "Si O2"
_cell_formula_units_Z 42
_cell_length_a 23.962605
_cell_length_b 7.920700
_cell_length_c 12.349686
_cell_angle_alpha 90.000000
_cell_angle_beta 90.000000
_cell_angle_gamma 90.000000
_cell_volume 2343.977880
_symmetry_space_group_name_H-M "P M M N"
_symmetry_group_IT_number 59
_space_group.IT_coordinate_system_code '2'
_symmetry_cell_setting 'orthorhombic'
loop_
_space_group_symop_operation_xyz
x,y,z
1/2-x,1/2-y,z
1/2+x,-y,-z
-x,1/2+y,-z
-x,-y,-z
1/2+x,1/2+y,-z
1/2-x,y,z
x,1/2-y,z
loop_
_atom_site_type_symbol
_atom_site_label
_atom_site_fract_x
_atom_site_fract_y
_atom_site_fract_z
Si Si1 0.457644 0.055908 0.407150
Si Si2 0.085435 0.547969 0.987301
Si Si3 0.814484 0.549205 0.877902
Si Si4 0.750000 0.750000 0.595846
Si Si5 0.998375 0.050826 0.822928
Si Si6 0.663818 0.060345 0.639346
O O1 0.443158 0.250000 0.424020
O O2 0.500000 0.000000 0.500000
O O3 0.487433 0.035088 0.290921
O O4 0.399313 0.957215 0.402757
O O5 0.082769 0.750000 0.983827
O O6 0.146971 0.491418 0.020146
O O7 0.045752 0.487659 0.086557
O O8 0.058478 0.479365 0.877458
O O9 0.750000 0.501297 0.893283
O O10 0.815992 0.750000 0.856148
O O11 0.836975 0.458000 0.770529
O O12 0.798297 0.597324 0.601363
O O13 0.989528 0.250000 0.808325
O O14 0.684216 0.250000 0.613136
#
# Coordination Sequence:
#
# PCOD9449561 Si02
#       6
#     8   8   8   2   8   8
#     4  12  24  40  60  88 123 159 204 256 308 368
#     4  10  20  32  52  81 113 151 190 233 289 352
#     4  11  20  33  51  81 117 154 192 240 297 355
#     4  12  22  40  56  90 120 162 198 246 308 362
#     4  10  20  35  54  80 112 153 192 236 293 350
#     4  12  22  37  58  87 123 157 198 246 306 369
#
# _framework density 17.918258000000002
#
# number of rings (size 3 to 8) (size 9 to 14) (size 15 to 20)
#    0.000    0.952    4.762    3.714    0.000    2.667 
#    0.000    0.000    0.000    0.000    2.476    0.000 
#    0.000    0.000    0.000    0.000    0.000    0.000 
#
# Total GULP energy -234014.148013 kJ/mol
# GULP energy per Si atom -5571.765429 kJ/mol
# Density = 1.787748 g / cm^3
# Si number density = 17.918258 Si / 1000 Ang^3
#
#
#
# Elastic Constant Matrix: (Units=GPa)
#
#
# Indices 1 2 3 4 5 6 
#
# 1 125.2924 28.8764 39.4490 0.0000 0.0000 0.0000
# 2 28.8764 111.2156 15.8157 0.0000 0.0000 0.0000
# 3 39.4490 15.8157 55.4103 0.0000 0.0000 0.0000
# 4 0.0000 0.0000 0.0000 20.3545 0.0000 0.0000
# 5 0.0000 0.0000 0.0000 0.0000 104.9771 0.0000
# 6 0.0000 0.0000 0.0000 0.0000 0.0000 30.2659
#
#
#
# Elastic Compliance Matrix: (Units=1/GPa)
#
#
# Indices 1 2 3 4 5 6 
#
# 1 0.010605 -0.001751 -0.007050 0.000000 0.000000 0.000000
# 2 -0.001751 0.009661 -0.001511 0.000000 0.000000 0.000000
# 3 -0.007050 -0.001511 0.023498 0.000000 0.000000 0.000000
# 4 0.000000 0.000000 0.000000 0.049129 0.000000 0.000000
# 5 0.000000 0.000000 0.000000 0.000000 0.009526 0.000000
# 6 0.000000 0.000000 0.000000 0.000000 0.000000 0.033041
#
#
# Mechanical properties :
#
#
# Convention : Reuss Voigt Hill
#
# Bulk Modulus (GPa) = 43.21640 51.13340 47.17490
# Shear Modulus (GPa) = 30.52576 44.97132 37.74854
#
# Velocity S-wave (km/s) = 4.13196 5.01523 4.59487
# Velocity P-wave (km/s) = 6.85092 7.88262 7.38481
#
# Compressibility (1/GPa) = 0.02313937
#
# Stress axis : x y z
#
# Youngs Moduli (GPa) = 94.29848 103.50873 42.55721
#
# Poissons Ratio (x) = 0.18123 0.30003
# Poissons Ratio (y) = 0.16510 0.06431
# Poissons Ratio (z) = 0.66482 0.15641
#
# Static dielectric constant tensor:
#      x y z
#    x 1.658260 0.000000 0.000000 
#    y 0.000000 1.640180 0.000000 
#    z 0.000000 0.000000 1.588000 
# 
# From -- ./inp_files/14250.got.cif
#   From: 2010.05.17/outbox.cif.g08.bks.cpg/sg59_8_cif.got.tgz:14250.got - 2010.06.03 14:40:33.
