data_PCOD9449649
_publ_section_title
;
Structure prediction by ZEFSAII (Michael W. Deem and Ramdas Pophale) SiO2 
 PCOD9449649
Probable space group: P M M N
;
_chemical_formula_sum "Si O2"
_cell_formula_units_Z 56
_cell_length_a 14.814492
_cell_length_b 8.974347
_cell_length_c 21.297892
_cell_angle_alpha 90.000000
_cell_angle_beta 90.000000
_cell_angle_gamma 90.000000
_cell_volume 2831.563087
_symmetry_space_group_name_H-M "P M M N"
_symmetry_group_IT_number 59
_space_group.IT_coordinate_system_code '2'
_symmetry_cell_setting 'orthorhombic'
loop_
_space_group_symop_operation_xyz
x,y,z
1/2-x,1/2-y,z
1/2+x,-y,-z
-x,1/2+y,-z
-x,-y,-z
1/2+x,1/2+y,-z
1/2-x,y,z
x,1/2-y,z
loop_
_atom_site_type_symbol
_atom_site_label
_atom_site_fract_x
_atom_site_fract_y
_atom_site_fract_z
Si Si1 0.599196 0.920451 0.603907
Si Si2 0.646792 0.917886 0.471760
Si Si3 0.355270 0.429691 0.024471
Si Si4 0.040022 0.928635 0.907781
Si Si5 0.457305 0.429022 0.775065
Si Si6 0.895260 0.082040 0.346491
Si Si7 0.653940 0.071389 0.727184
O O1 0.633973 0.750000 0.600761
O O2 0.597595 0.982509 0.533125
O O3 0.498930 0.911991 0.630899
O O4 0.650378 0.016606 0.655357
O O5 0.750000 0.909449 0.493227
O O6 0.611821 0.750000 0.459660
O O7 0.647703 0.004857 0.406788
O O8 0.250000 0.472040 0.037517
O O9 0.356577 0.250000 0.016854
O O10 0.394664 0.506257 0.961701
O O11 0.434622 0.465888 0.075074
O O12 0.047423 0.750000 0.905983
O O13 0.065981 0.000438 0.841631
O O14 0.453339 0.250000 0.776838
O O15 0.396378 0.489717 0.717884
O O16 0.561398 0.477258 0.760276
O O17 0.862541 0.250000 0.336403
O O18 0.750000 0.019945 0.755196
O O19 0.652463 0.250000 0.728126
#
# Coordination Sequence:
#
# PCOD9449649 Si02
#       7
#     8   8   8   8   8   8   8
#     4   9  18  32  50  71  95 127 165 206 258 317
#     4  10  20  33  49  70  97 128 163 206 259 316
#     4   9  19  37  60  86 117 151 183 215 257 310
#     4  10  20  35  57  86 117 146 181 224 263 303
#     4  10  20  35  54  74 103 143 178 210 255 310
#     4  10  20  34  52  73  97 127 168 214 255 301
#     4   9  18  31  47  71 102 134 171 215 261 311
#
# _framework density 19.777062999999998
#
# number of rings (size 3 to 8) (size 9 to 14) (size 15 to 20)
#    0.000    2.429    0.000    2.143    0.000    4.286 
#    0.000    0.714    0.000    4.286    0.000    0.000 
#    0.000    0.000    0.000    0.000    0.000    0.000 
#
# Total GULP energy -312043.412762 kJ/mol
# GULP energy per Si atom -5572.203799 kJ/mol
# Density = 1.973205 g / cm^3
# Si number density = 19.777063 Si / 1000 Ang^3
#
#
#
# Elastic Constant Matrix: (Units=GPa)
#
#
# Indices 1 2 3 4 5 6 
#
# 1 37.1343 0.3942 -14.2252 0.0000 0.0000 0.0000
# 2 0.3942 33.0485 23.8060 0.0000 0.0000 0.0000
# 3 -14.2252 23.8060 105.2898 0.0000 0.0000 0.0000
# 4 0.0000 0.0000 0.0000 31.3935 0.0000 0.0000
# 5 0.0000 0.0000 0.0000 0.0000 11.3424 0.0000
# 6 0.0000 0.0000 0.0000 0.0000 0.0000 -21.1667
#
#
#
# Elastic Compliance Matrix: (Units=1/GPa)
#
#
# Indices 1 2 3 4 5 6 
#
# 1 0.028784 -0.003757 0.004738 0.000000 0.000000 0.000000
# 2 -0.003757 0.036636 -0.008791 0.000000 0.000000 0.000000
# 3 0.004738 -0.008791 0.012125 0.000000 0.000000 0.000000
# 4 0.000000 0.000000 0.000000 0.031854 0.000000 0.000000
# 5 0.000000 0.000000 0.000000 0.000000 0.088165 0.000000
# 6 0.000000 0.000000 0.000000 0.000000 0.000000 -0.047244
#
#
# Mechanical properties :
#
#
# Convention : Reuss Voigt Hill
#
# Bulk Modulus (GPa) = 16.14802 21.71365 18.93083
# Shear Modulus (GPa) = 26.79809 15.34701 21.07255
#
# Velocity S-wave (km/s) = 3.68504 2.78870 3.26775
# Velocity P-wave (km/s) = 5.12726 4.62301 4.88165
#
# Compressibility (1/GPa) = 0.06192711
#
# Stress axis : x y z
#
# Youngs Moduli (GPa) = 34.74120 27.29575 82.47171
#
# Poissons Ratio (x) = 0.10254 -0.39077
# Poissons Ratio (y) = 0.13051 0.72500
# Poissons Ratio (z) = -0.16461 0.23995
#
# Static dielectric constant tensor:
#      x y z
#    x 1.753550 0.000000 0.000000 
#    y 0.000000 1.689410 0.000000 
#    z 0.000000 0.000000 1.676660 
# 
# From -- ./inp_files/30583.got.cif
#   From: 2010.05.17/outbox.cif.g08.bks.cpg/sg59_16_cif.got.tgz:30583.got - 2010.06.03 14:40:33.
