data_PCOD9449985
_publ_section_title
;
Structure prediction by ZEFSAII (Michael W. Deem and Ramdas Pophale) SiO2 
 PCOD9449985
Probable space group: P M M N
;
_chemical_formula_sum "Si O2"
_cell_formula_units_Z 48
_cell_length_a 9.132808
_cell_length_b 20.759790
_cell_length_c 12.640345
_cell_angle_alpha 90.000000
_cell_angle_beta 90.000000
_cell_angle_gamma 90.000000
_cell_volume 2396.548437
_symmetry_space_group_name_H-M "P M M N"
_symmetry_group_IT_number 59
_space_group.IT_coordinate_system_code '2'
_symmetry_cell_setting 'orthorhombic'
loop_
_space_group_symop_operation_xyz
x,y,z
1/2-x,1/2-y,z
1/2+x,-y,-z
-x,1/2+y,-z
-x,-y,-z
1/2+x,1/2+y,-z
1/2-x,y,z
x,1/2-y,z
loop_
_atom_site_type_symbol
_atom_site_label
_atom_site_fract_x
_atom_site_fract_y
_atom_site_fract_z
Si Si1 0.913592 0.674049 0.124222
Si Si2 0.076501 0.001216 0.819842
Si Si3 0.075044 0.176008 0.450119
Si Si4 0.074474 0.468355 0.395602
Si Si5 0.920483 0.088265 0.998212
Si Si6 0.085641 0.672785 0.327806
O O1 0.750000 0.649343 0.105430
O O2 0.902731 0.750000 0.136673
O O3 0.022201 0.658569 0.028778
O O4 0.983154 0.648731 0.233567
O O5 0.250000 0.010712 0.802251
O O6 0.990607 0.000673 0.710047
O O7 0.055649 0.933378 0.882063
O O8 0.014339 0.047673 0.912358
O O9 0.250000 0.176828 0.469035
O O10 0.037411 0.250000 0.412815
O O11 0.044701 0.109313 0.387934
O O12 0.990310 0.164712 0.559873
O O13 0.250000 0.476839 0.402174
O O14 0.000000 0.500000 0.500000
O O15 0.750000 0.079315 0.974091
O O16 0.250000 0.645544 0.323403
O O17 0.098199 0.750000 0.313476
#
# Coordination Sequence:
#
# PCOD9449985 Si02
#       6
#     8   8   8   8   8   8
#     4  10  20  33  52  81 116 152 190 235 287 344
#     4  10  22  41  62  85 114 149 193 240 291 352
#     4   9  19  37  58  80 110 152 198 239 286 345
#     4  11  24  40  61  88 121 157 196 246 298 350
#     4  10  21  38  62  86 112 150 192 240 293 348
#     4   9  17  29  48  76 110 147 187 233 282 336
#
# _framework density 20.028804000000001
#
# number of rings (size 3 to 8) (size 9 to 14) (size 15 to 20)
#    0.000    2.167    0.000    2.500    2.333    6.333 
#    0.000    0.833    0.000    3.000    0.000    0.000 
#    0.000    0.000    0.000    0.000    0.000    0.000 
#
# Total GULP energy -267499.452249 kJ/mol
# GULP energy per Si atom -5572.905255 kJ/mol
# Density = 1.998322 g / cm^3
# Si number density = 20.028804 Si / 1000 Ang^3
#
#
#
# Elastic Constant Matrix: (Units=GPa)
#
#
# Indices 1 2 3 4 5 6 
#
# 1 72.4096 19.4447 45.1185 0.0000 0.0000 0.0000
# 2 19.4447 73.3197 23.8647 0.0000 0.0000 0.0000
# 3 45.1185 23.8647 91.0564 0.0000 0.0000 0.0000
# 4 0.0000 0.0000 0.0000 28.9284 0.0000 0.0000
# 5 0.0000 0.0000 0.0000 0.0000 23.3607 0.0000
# 6 0.0000 0.0000 0.0000 0.0000 0.0000 28.3412
#
#
#
# Elastic Compliance Matrix: (Units=1/GPa)
#
#
# Indices 1 2 3 4 5 6 
#
# 1 0.020330 -0.002310 -0.009468 0.000000 0.000000 0.000000
# 2 -0.002310 0.015173 -0.002832 0.000000 0.000000 0.000000
# 3 -0.009468 -0.002832 0.016416 0.000000 0.000000 0.000000
# 4 0.000000 0.000000 0.000000 0.034568 0.000000 0.000000
# 5 0.000000 0.000000 0.000000 0.000000 0.042807 0.000000
# 6 0.000000 0.000000 0.000000 0.000000 0.000000 0.035284
#
#
# Mechanical properties :
#
#
# Convention : Reuss Voigt Hill
#
# Bulk Modulus (GPa) = 44.05489 45.96018 45.00754
# Shear Modulus (GPa) = 24.83042 26.01660 25.42351
#
# Velocity S-wave (km/s) = 3.52481 3.60802 3.56666
# Velocity P-wave (km/s) = 6.21363 6.35247 6.28344
#
# Compressibility (1/GPa) = 0.02269895
#
# Stress axis : x y z
#
# Youngs Moduli (GPa) = 49.18766 65.90514 60.91612
#
# Poissons Ratio (x) = 0.15223 0.57677
# Poissons Ratio (y) = 0.11362 0.17253
# Poissons Ratio (z) = 0.46572 0.18666
#
# Static dielectric constant tensor:
#      x y z
#    x 1.699780 0.000000 0.000000 
#    y 0.000000 1.900420 0.000000 
#    z 0.000000 0.000000 1.669210 
# 
# From -- ./inp_files/14310.got.cif
#   From: 2010.05.17/outbox.cif.g08.bks.cpg/sg59_8_cif.got.tgz:14310.got - 2010.06.03 14:40:33.
