data_PCOD9449334
_publ_section_title
;
Structure prediction by ZEFSAII (Michael W. Deem and Ramdas Pophale) SiO2 
 PCOD9449334
Probable space group: P M M N
;
_chemical_formula_sum "Si O2"
_cell_formula_units_Z 64
_cell_length_a 7.575622
_cell_length_b 14.772167
_cell_length_c 25.670624
_cell_angle_alpha 90.000000
_cell_angle_beta 90.000000
_cell_angle_gamma 90.000000
_cell_volume 2872.757260
_symmetry_space_group_name_H-M "P M M N"
_symmetry_group_IT_number 59
_space_group.IT_coordinate_system_code '2'
_symmetry_cell_setting 'orthorhombic'
loop_
_space_group_symop_operation_xyz
x,y,z
1/2-x,1/2-y,z
1/2+x,-y,-z
-x,1/2+y,-z
-x,-y,-z
1/2+x,1/2+y,-z
1/2-x,y,z
x,1/2-y,z
loop_
_atom_site_type_symbol
_atom_site_label
_atom_site_fract_x
_atom_site_fract_y
_atom_site_fract_z
Si Si1 0.538800 0.348955 0.239580
Si Si2 0.037508 0.146517 0.534308
Si Si3 0.466482 0.855677 0.151107
Si Si4 0.538938 0.348855 0.115407
Si Si5 0.444453 0.526949 0.057814
Si Si6 0.465876 0.147109 0.416808
Si Si7 0.952428 0.447507 0.743062
Si Si8 0.459385 0.970977 0.365439
O O1 0.750000 0.353460 0.247843
O O2 0.476840 0.250000 0.259710
O O3 0.508680 0.348984 0.177258
O O4 0.457023 0.442981 0.257739
O O5 0.250000 0.145523 0.533482
O O6 0.979754 0.250000 0.542854
O O7 0.979613 0.120797 0.475834
O O8 0.979877 0.084771 0.581678
O O9 0.250000 0.862970 0.150349
O O10 0.511270 0.750000 0.153824
O O11 0.529470 0.908790 0.203116
O O12 0.534411 0.903136 0.098053
O O13 0.750000 0.358129 0.107320
O O14 0.484591 0.250000 0.095091
O O15 0.446739 0.432942 0.089205
O O16 0.250000 0.565146 0.050259
O O17 0.500000 0.500000 0.000000
O O18 0.250000 0.146962 0.416103
O O19 0.522038 0.250000 0.406421
O O20 0.530710 0.071404 0.377137
O O21 0.750000 0.415034 0.743691
O O22 0.033144 0.424140 0.686656
O O23 0.250000 0.980111 0.356435
#
# Coordination Sequence:
#
# PCOD9449334 Si02
#       8
#     8   8   8   8   8   8   8   8
#     4   9  18  33  54  78 105 139 174 211 261 317
#     4   9  18  33  52  71  97 138 182 220 263 319
#     4   9  19  37  57  75 102 143 183 215 256 313
#     4   9  18  34  56  80 107 139 172 210 263 321
#     4  11  22  36  57  83 110 141 179 225 272 319
#     4   8  15  30  50  72 102 140 177 214 263 323
#     4  10  20  34  53  80 108 138 179 223 264 312
#     4  10  20  31  50  80 108 134 171 223 275 314
#
# _framework density 22.27825
#
# number of rings (size 3 to 8) (size 9 to 14) (size 15 to 20)
#    0.000    2.625    1.250    2.250    0.000    2.750 
#    0.000    5.000    0.000    4.125    0.000    0.000 
#    0.000    0.000    0.000    0.000    0.000    0.000 
#
# Total GULP energy -356962.624326 kJ/mol
# GULP energy per Si atom -5577.541005 kJ/mol
# Density = 2.222754 g / cm^3
# Si number density = 22.278250 Si / 1000 Ang^3
#
#
#
# Elastic Constant Matrix: (Units=GPa)
#
#
# Indices 1 2 3 4 5 6 
#
# 1 42.9835 -2.7842 14.0283 0.0000 0.0000 0.0000
# 2 -2.7842 91.7879 61.7843 0.0000 0.0000 0.0000
# 3 14.0283 61.7843 146.6860 0.0000 0.0000 0.0000
# 4 0.0000 0.0000 0.0000 -1.4665 0.0000 0.0000
# 5 0.0000 0.0000 0.0000 0.0000 12.8019 0.0000
# 6 0.0000 0.0000 0.0000 0.0000 0.0000 -0.9364
#
#
#
# Elastic Compliance Matrix: (Units=1/GPa)
#
#
# Indices 1 2 3 4 5 6 
#
# 1 0.024696 0.003264 -0.003737 0.000000 0.000000 0.000000
# 2 0.003264 0.015637 -0.006899 0.000000 0.000000 0.000000
# 3 -0.003737 -0.006899 0.010080 0.000000 0.000000 0.000000
# 4 0.000000 0.000000 0.000000 -0.681905 0.000000 0.000000
# 5 0.000000 0.000000 0.000000 0.000000 0.078114 0.000000
# 6 0.000000 0.000000 0.000000 0.000000 0.000000 -1.067942
#
#
# Mechanical properties :
#
#
# Convention : Reuss Voigt Hill
#
# Bulk Modulus (GPa) = 28.03368 47.50159 37.76764
# Shear Modulus (GPa) = -3.13541 15.97507 6.41983
#
# Velocity S-wave (km/s) = -1.18762 2.68072 1.69939
# Velocity P-wave (km/s) = 3.27569 5.56327 4.56509
#
# Compressibility (1/GPa) = 0.03567137
#
# Stress axis : x y z
#
# Youngs Moduli (GPa) = 40.49287 63.94961 99.20277
#
# Poissons Ratio (x) = -0.20876 0.37069
# Poissons Ratio (y) = -0.13218 0.68436
# Poissons Ratio (z) = 0.15131 0.44117
#
# Static dielectric constant tensor:
#      x y z
#    x 1.835810 0.000000 0.000000 
#    y 0.000000 1.809280 0.000000 
#    z 0.000000 0.000000 1.852290 
# 
# From -- ./inp_files/31493.got.cif
#   From: 2010.05.17/outbox.cif.g08.bks.cpg/sg59_16_cif.got.tgz:31493.got - 2010.06.03 14:40:33.
