data_PCOD9449211
_publ_section_title
;
Structure prediction by ZEFSAII (Michael W. Deem and Ramdas Pophale) SiO2 
 PCOD9449211
Probable space group: P M M N
;
_chemical_formula_sum "Si O2"
_cell_formula_units_Z 48
_cell_length_a 7.721086
_cell_length_b 38.644972
_cell_length_c 7.728731
_cell_angle_alpha 90.000000
_cell_angle_beta 90.000000
_cell_angle_gamma 90.000000
_cell_volume 2306.107661
_symmetry_space_group_name_H-M "P M M N"
_symmetry_group_IT_number 59
_space_group.IT_coordinate_system_code '2'
_symmetry_cell_setting 'orthorhombic'
loop_
_space_group_symop_operation_xyz
x,y,z
1/2-x,1/2-y,z
1/2+x,-y,-z
-x,1/2+y,-z
-x,-y,-z
1/2+x,1/2+y,-z
1/2-x,y,z
x,1/2-y,z
loop_
_atom_site_type_symbol
_atom_site_label
_atom_site_fract_x
_atom_site_fract_y
_atom_site_fract_z
Si Si1 0.958485 0.039660 0.534865
Si Si2 0.952822 0.657176 0.239526
Si Si3 0.042436 0.211169 0.045639
Si Si4 0.037585 0.907152 0.759629
Si Si5 0.957001 0.331912 0.375325
Si Si6 0.548582 0.081294 0.855100
O O1 0.750000 0.166794 0.387958
O O2 0.018875 0.064581 0.380156
O O3 0.027424 0.054439 0.717169
O O4 0.000000 0.000000 0.500000
O O5 0.750000 0.651344 0.204645
O O6 0.973026 0.672308 0.431390
O O7 0.039843 0.619624 0.227134
O O8 0.023894 0.683358 0.094426
O O9 0.250000 0.212409 0.022747
O O10 0.974625 0.250000 0.020532
O O11 0.006217 0.197168 0.237332
O O12 0.250000 0.956830 0.460651
O O13 0.981911 0.868922 0.700713
O O14 0.974304 0.916073 0.952129
O O15 0.750000 0.406509 0.237041
O O16 0.750000 0.071877 0.877790
#
# Coordination Sequence:
#
# PCOD9449211 Si02
#       6
#     8   8   8   8   8   8
#     4  10  21  37  55  81 116 152 188 234 295 348
#     4  11  22  36  59  90 120 155 197 240 292 355
#     4  10  23  42  60  84 122 160 192 237 297 350
#     4   9  18  34  58  83 110 146 189 237 290 339
#     4  11  21  37  63  90 116 152 198 246 290 343
#     4  10  19  36  60  83 110 151 196 241 291 343
#
# _framework density 20.814295000000001
#
# number of rings (size 3 to 8) (size 9 to 14) (size 15 to 20)
#    0.000    1.833    3.333    1.000    0.000    3.000 
#    0.000    2.500    0.000    0.000    0.000    0.000 
#    0.000    0.000    0.000    0.000    0.000    0.000 
#
# Total GULP energy -268167.069887 kJ/mol
# GULP energy per Si atom -5586.813956 kJ/mol
# Density = 2.076692 g / cm^3
# Si number density = 20.814295 Si / 1000 Ang^3
#
#
#
# Elastic Constant Matrix: (Units=GPa)
#
#
# Indices 1 2 3 4 5 6 
#
# 1 33.4558 -7.6580 -8.4050 0.0000 0.0000 0.0000
# 2 -7.6580 70.3228 -4.2843 0.0000 0.0000 0.0000
# 3 -8.4050 -4.2843 95.4996 0.0000 0.0000 0.0000
# 4 0.0000 0.0000 0.0000 33.5669 0.0000 0.0000
# 5 0.0000 0.0000 0.0000 0.0000 15.3672 0.0000
# 6 0.0000 0.0000 0.0000 0.0000 0.0000 19.1367
#
#
#
# Elastic Compliance Matrix: (Units=1/GPa)
#
#
# Indices 1 2 3 4 5 6 
#
# 1 0.031451 0.003603 0.002930 0.000000 0.000000 0.000000
# 2 0.003603 0.014672 0.000975 0.000000 0.000000 0.000000
# 3 0.002930 0.000975 0.010773 0.000000 0.000000 0.000000
# 4 0.000000 0.000000 0.000000 0.029791 0.000000 0.000000
# 5 0.000000 0.000000 0.000000 0.000000 0.065074 0.000000
# 6 0.000000 0.000000 0.000000 0.000000 0.000000 0.052256
#
#
# Mechanical properties :
#
#
# Convention : Reuss Voigt Hill
#
# Bulk Modulus (GPa) = 13.90571 17.62039 15.76305
# Shear Modulus (GPa) = 23.47745 28.25586 25.86665
#
# Velocity S-wave (km/s) = 3.36214 3.68845 3.52907
# Velocity P-wave (km/s) = 4.66555 5.15980 4.91888
#
# Compressibility (1/GPa) = 0.07191289
#
# Stress axis : x y z
#
# Youngs Moduli (GPa) = 31.79544 68.15716 92.82597
#
# Poissons Ratio (x) = -0.24560 -0.27195
# Poissons Ratio (y) = -0.11457 -0.09054
# Poissons Ratio (z) = -0.09315 -0.06648
#
# Static dielectric constant tensor:
#      x y z
#    x 1.817490 0.000000 0.000000 
#    y 0.000000 1.710740 0.000000 
#    z 0.000000 0.000000 1.744510 
# 
# From -- ./inp_files/6302.got.cif
#   From: 2010.05.17/outbox.cif.g08.bks.cpg/sg59_4_cif.got.tgz:6302.got - 2010.06.03 14:40:33.
