data_PCOD9449473
_publ_section_title
;
Structure prediction by ZEFSAII (Michael W. Deem and Ramdas Pophale) SiO2 
 PCOD9449473
Probable space group: P M M N
;
_chemical_formula_sum "Si O2"
_cell_formula_units_Z 48
_cell_length_a 8.962126
_cell_length_b 18.527138
_cell_length_c 16.544272
_cell_angle_alpha 90.000000
_cell_angle_beta 90.000000
_cell_angle_gamma 90.000000
_cell_volume 2747.053031
_symmetry_space_group_name_H-M "P M M N"
_symmetry_group_IT_number 59
_space_group.IT_coordinate_system_code '2'
_symmetry_cell_setting 'orthorhombic'
loop_
_space_group_symop_operation_xyz
x,y,z
1/2-x,1/2-y,z
1/2+x,-y,-z
-x,1/2+y,-z
-x,-y,-z
1/2+x,1/2+y,-z
1/2-x,y,z
x,1/2-y,z
loop_
_atom_site_type_symbol
_atom_site_label
_atom_site_fract_x
_atom_site_fract_y
_atom_site_fract_z
Si Si1 0.570904 0.332972 0.341728
Si Si2 0.426727 0.664514 0.157435
Si Si3 0.928279 0.527855 0.582716
Si Si4 0.074559 0.164239 0.012626
Si Si5 0.925747 0.101357 0.169251
Si Si6 0.573487 0.545603 0.263552
O O1 0.750000 0.344102 0.350367
O O2 0.536253 0.250000 0.360778
O O3 0.486451 0.391839 0.395308
O O4 0.535802 0.350003 0.247653
O O5 0.250000 0.651855 0.162566
O O6 0.454752 0.750000 0.167512
O O7 0.511700 0.617906 0.223952
O O8 0.486044 0.644089 0.068416
O O9 0.750000 0.526592 0.578477
O O10 0.000000 0.500000 0.500000
O O11 0.986915 0.477893 0.656032
O O12 0.250000 0.152490 0.999218
O O13 0.050417 0.250000 0.026566
O O14 0.018331 0.122212 0.090984
O O15 0.750000 0.112020 0.152034
O O16 0.948318 0.019601 0.199382
O O17 0.750000 0.549760 0.280550
#
# Coordination Sequence:
#
# PCOD9449473 Si02
#       6
#     8   8   8   8   8   8
#     4   9  18  34  56  82 113 146 179 218 266 319
#     4  10  21  37  56  77 103 138 180 224 270 318
#     4  11  22  38  60  84 112 143 177 218 265 319
#     4  10  20  32  48  73 105 142 183 224 264 307
#     4   9  18  32  51  76 106 141 177 214 260 313
#     4  10  21  38  58  80 106 137 175 217 266 322
#
# _framework density 17.473269999999999
#
# number of rings (size 3 to 8) (size 9 to 14) (size 15 to 20)
#    0.000    2.167    0.000    4.500    0.000    7.000 
#    0.000    0.833    0.000    5.000    0.000    0.000 
#    0.000    0.000    0.000    0.000    0.000    0.000 
#
# Total GULP energy -268019.830410 kJ/mol
# GULP energy per Si atom -5583.746467 kJ/mol
# Density = 1.743350 g / cm^3
# Si number density = 17.473270 Si / 1000 Ang^3
#
#
#
# Elastic Constant Matrix: (Units=GPa)
#
#
# Indices 1 2 3 4 5 6 
#
# 1 99.8433 66.0963 67.3275 0.0000 0.0000 0.0000
# 2 66.0963 76.9735 65.6532 0.0000 0.0000 0.0000
# 3 67.3275 65.6532 99.6305 0.0000 0.0000 0.0000
# 4 0.0000 0.0000 0.0000 18.4640 0.0000 0.0000
# 5 0.0000 0.0000 0.0000 0.0000 32.8107 0.0000
# 6 0.0000 0.0000 0.0000 0.0000 0.0000 31.1922
#
#
#
# Elastic Compliance Matrix: (Units=1/GPa)
#
#
# Indices 1 2 3 4 5 6 
#
# 1 0.024790 -0.015980 -0.006222 0.000000 0.000000 0.000000
# 2 -0.015980 0.039965 -0.015537 0.000000 0.000000 0.000000
# 3 -0.006222 -0.015537 0.024480 0.000000 0.000000 0.000000
# 4 0.000000 0.000000 0.000000 0.054159 0.000000 0.000000
# 5 0.000000 0.000000 0.000000 0.000000 0.030478 0.000000
# 6 0.000000 0.000000 0.000000 0.000000 0.000000 0.032059
#
#
# Mechanical properties :
#
#
# Convention : Reuss Voigt Hill
#
# Bulk Modulus (GPa) = 72.68832 74.95570 73.82201
# Shear Modulus (GPa) = 17.48271 21.65142 19.56706
#
# Velocity S-wave (km/s) = 3.16656 3.52393 3.35001
# Velocity P-wave (km/s) = 7.42021 7.71673 7.56992
#
# Compressibility (1/GPa) = 0.01375737
#
# Stress axis : x y z
#
# Youngs Moduli (GPa) = 40.33829 25.02174 40.84906
#
# Poissons Ratio (x) = 0.39985 0.25418
# Poissons Ratio (y) = 0.64460 0.63467
# Poissons Ratio (z) = 0.25100 0.38876
#
# Static dielectric constant tensor:
#      x y z
#    x 1.593340 0.000000 0.000000 
#    y 0.000000 1.592640 0.000000 
#    z 0.000000 0.000000 1.560280 
# 
# From -- ./inp_files/20349.got.cif
#   From: 2010.05.17/outbox.cif.g08.bks.cpg/sg59_11_cif.got.tgz:20349.got - 2010.06.03 14:40:33.
