data_PCOD9449364
_publ_section_title
;
Structure prediction by ZEFSAII (Michael W. Deem and Ramdas Pophale) SiO2 
 PCOD9449364
Probable space group: P M M N
;
_chemical_formula_sum "Si O2"
_cell_formula_units_Z 64
_cell_length_a 9.035689
_cell_length_b 14.518138
_cell_length_c 26.307934
_cell_angle_alpha 90.000000
_cell_angle_beta 90.000000
_cell_angle_gamma 90.000000
_cell_volume 3451.111083
_symmetry_space_group_name_H-M "P M M N"
_symmetry_group_IT_number 59
_space_group.IT_coordinate_system_code '2'
_symmetry_cell_setting 'orthorhombic'
loop_
_space_group_symop_operation_xyz
x,y,z
1/2-x,1/2-y,z
1/2+x,-y,-z
-x,1/2+y,-z
-x,-y,-z
1/2+x,1/2+y,-z
1/2-x,y,z
x,1/2-y,z
loop_
_atom_site_type_symbol
_atom_site_label
_atom_site_fract_x
_atom_site_fract_y
_atom_site_fract_z
Si Si1 0.072324 0.446211 0.778163
Si Si2 0.083378 0.355612 0.980041
Si Si3 0.928494 0.855957 0.523478
Si Si4 0.072460 0.849258 0.811442
Si Si5 0.071914 0.858448 0.321110
Si Si6 0.581605 0.601013 0.912037
Si Si7 0.571859 0.454400 0.573024
Si Si8 0.416121 0.891159 0.122423
O O1 0.250000 0.443039 0.778239
O O2 0.025137 0.554246 0.785392
O O3 0.006723 0.403467 0.727177
O O4 0.010503 0.388220 0.826184
O O5 0.250000 0.391863 0.970166
O O6 0.093442 0.250000 0.996621
O O7 0.993948 0.354403 0.928021
O O8 0.019677 0.403061 0.030625
O O9 0.750000 0.855612 0.519424
O O10 0.974676 0.750000 0.534574
O O11 0.997273 0.892639 0.470769
O O12 0.967693 0.937879 0.563337
O O13 0.250000 0.851190 0.811355
O O14 0.024299 0.750000 0.788786
O O15 0.015966 0.850643 0.869538
O O16 0.250000 0.864887 0.314800
O O17 0.034909 0.750000 0.326058
O O18 0.031248 0.914040 0.372161
O O19 0.750000 0.638186 0.914748
O O20 0.593612 0.498467 0.891263
O O21 0.750000 0.446828 0.567760
O O22 0.250000 0.855537 0.129821
#
# Coordination Sequence:
#
# PCOD9449364 Si02
#       8
#     8   8   8   8   8   8   8   8
#     4  10  21  37  56  76  99 129 167 211 257 306
#     4  10  20  32  46  67  96 126 155 191 239 296
#     4   9  17  30  51  81 116 150 182 218 259 303
#     4   9  18  33  53  76 101 128 158 197 249 307
#     4  10  21  37  56  77 103 136 175 220 264 303
#     4   9  18  32  50  72  96 123 156 194 239 294
#     4   9  18  33  53  78 110 147 184 220 260 307
#     4  10  20  34  52  71  93 123 159 200 245 296
#
# _framework density 18.544753
#
# number of rings (size 3 to 8) (size 9 to 14) (size 15 to 20)
#    0.000    2.500    0.000    1.875    0.000    4.500 
#    0.000    0.625    0.000    0.750    0.000    0.000 
#    0.000    0.000    0.000    0.000    0.000    0.000 
#
# Total GULP energy -356490.582698 kJ/mol
# GULP energy per Si atom -5570.165355 kJ/mol
# Density = 1.850254 g / cm^3
# Si number density = 18.544753 Si / 1000 Ang^3
#
#
#
# Elastic Constant Matrix: (Units=GPa)
#
#
# Indices 1 2 3 4 5 6 
#
# 1 31.1446 31.3700 42.3632 0.0000 0.0000 0.0000
# 2 31.3700 127.3370 69.0814 0.0000 0.0000 0.0000
# 3 42.3632 69.0814 151.4112 0.0000 0.0000 0.0000
# 4 0.0000 0.0000 0.0000 20.1461 0.0000 0.0000
# 5 0.0000 0.0000 0.0000 0.0000 31.0082 0.0000
# 6 0.0000 0.0000 0.0000 0.0000 0.0000 32.3389
#
#
#
# Elastic Compliance Matrix: (Units=1/GPa)
#
#
# Indices 1 2 3 4 5 6 
#
# 1 0.056248 -0.007069 -0.012512 0.000000 0.000000 0.000000
# 2 -0.007069 0.011325 -0.003189 0.000000 0.000000 0.000000
# 3 -0.012512 -0.003189 0.011560 0.000000 0.000000 0.000000
# 4 0.000000 0.000000 0.000000 0.049637 0.000000 0.000000
# 5 0.000000 0.000000 0.000000 0.000000 0.032250 0.000000
# 6 0.000000 0.000000 0.000000 0.000000 0.000000 0.030922
#
#
# Mechanical properties :
#
#
# Convention : Reuss Voigt Hill
#
# Bulk Modulus (GPa) = 29.76879 66.16913 47.96896
# Shear Modulus (GPa) = 20.10615 27.83720 23.97167
#
# Velocity S-wave (km/s) = 3.29629 3.87858 3.59923
# Velocity P-wave (km/s) = 5.52943 7.47102 6.57232
#
# Compressibility (1/GPa) = 0.03359223
#
# Stress axis : x y z
#
# Youngs Moduli (GPa) = 17.77851 88.30223 86.50214
#
# Poissons Ratio (x) = 0.62419 1.08235
# Poissons Ratio (y) = 0.12567 0.27587
# Poissons Ratio (z) = 0.22245 0.28161
#
# Static dielectric constant tensor:
#      x y z
#    x 1.653530 0.000000 0.000000 
#    y 0.000000 1.699360 0.000000 
#    z 0.000000 0.000000 1.611840 
# 
# From -- ./inp_files/31625.got.cif
#   From: 2010.05.17/outbox.cif.g08.bks.cpg/sg59_16_cif.got.tgz:31625.got - 2010.06.03 14:40:33.
