data_PCOD9449739
_publ_section_title
;
Structure prediction by ZEFSAII (Michael W. Deem and Ramdas Pophale) SiO2 
 PCOD9449739
Probable space group: P M M N
;
_chemical_formula_sum "Si O2"
_cell_formula_units_Z 64
_cell_length_a 7.738956
_cell_length_b 23.506028
_cell_length_c 17.981051
_cell_angle_alpha 90.000000
_cell_angle_beta 90.000000
_cell_angle_gamma 90.000000
_cell_volume 3270.971043
_symmetry_space_group_name_H-M "P M M N"
_symmetry_group_IT_number 59
_space_group.IT_coordinate_system_code '2'
_symmetry_cell_setting 'orthorhombic'
loop_
_space_group_symop_operation_xyz
x,y,z
1/2-x,1/2-y,z
1/2+x,-y,-z
-x,1/2+y,-z
-x,-y,-z
1/2+x,1/2+y,-z
1/2-x,y,z
x,1/2-y,z
loop_
_atom_site_type_symbol
_atom_site_label
_atom_site_fract_x
_atom_site_fract_y
_atom_site_fract_z
Si Si1 0.048950 0.921495 0.661474
Si Si2 0.955865 0.567089 0.498661
Si Si3 0.040250 0.354155 0.093113
Si Si4 0.041488 0.313642 0.929983
Si Si5 0.045224 0.913721 0.182429
Si Si6 0.544964 0.312133 0.252437
Si Si7 0.957774 0.982848 0.915821
Si Si8 0.954158 0.949585 0.340252
O O1 0.250000 0.925767 0.683768
O O2 0.971835 0.868962 0.707950
O O3 0.037618 0.908074 0.573411
O O4 0.973305 0.985723 0.670844
O O5 0.750000 0.575810 0.505422
O O6 0.018404 0.581587 0.415228
O O7 0.000000 0.500000 0.500000
O O8 0.250000 0.353038 0.093307
O O9 0.980219 0.419435 0.100867
O O10 0.978873 0.319544 0.164176
O O11 0.982332 0.331609 0.012646
O O12 0.250000 0.313185 0.932528
O O13 0.980855 0.250000 0.912900
O O14 0.990793 0.359376 0.868401
O O15 0.250000 0.920257 0.187990
O O16 0.976817 0.913972 0.265857
O O17 0.973246 0.969133 0.139464
O O18 0.750000 0.311304 0.268686
O O19 0.474205 0.250000 0.274916
O O20 0.750000 0.981873 0.909608
O O21 0.000000 0.000000 0.000000
O O22 0.750000 0.957842 0.354001
#
# Coordination Sequence:
#
# PCOD9449739 Si02
#       8
#     8   8   8   8   8   8   8   8
#     4   9  18  33  52  76 106 140 174 209 255 307
#     4   9  17  30  51  79 107 134 165 201 246 302
#     4  10  20  35  54  75 100 133 174 216 256 305
#     4  10  21  37  55  71  93 133 177 213 254 303
#     4  11  22  33  50  78 105 131 167 212 260 303
#     4  10  21  35  51  74 105 141 179 218 259 304
#     4  10  20  33  50  74 102 130 164 208 257 307
#     4   9  18  32  51  76 105 135 166 205 258 315
#
# _framework density 19.566054000000001
#
# number of rings (size 3 to 8) (size 9 to 14) (size 15 to 20)
#    0.000    2.250    1.250    2.625    0.000    5.500 
#    0.000    0.000    0.000    0.750    0.000    3.500 
#    0.000    0.000    0.000    0.000    0.000    0.000 
#
# Total GULP energy -356977.543712 kJ/mol
# GULP energy per Si atom -5577.774121 kJ/mol
# Density = 1.952152 g / cm^3
# Si number density = 19.566054 Si / 1000 Ang^3
#
#
#
# Elastic Constant Matrix: (Units=GPa)
#
#
# Indices 1 2 3 4 5 6 
#
# 1 26.9129 -1.2268 -16.2176 0.0000 0.0000 0.0000
# 2 -1.2268 82.8931 26.5601 0.0000 0.0000 0.0000
# 3 -16.2176 26.5601 112.9792 0.0000 0.0000 0.0000
# 4 0.0000 0.0000 0.0000 12.5683 0.0000 0.0000
# 5 0.0000 0.0000 0.0000 0.0000 22.0215 0.0000
# 6 0.0000 0.0000 0.0000 0.0000 0.0000 11.2913
#
#
#
# Elastic Compliance Matrix: (Units=1/GPa)
#
#
# Indices 1 2 3 4 5 6 
#
# 1 0.040820 -0.001377 0.006183 0.000000 0.000000 0.000000
# 2 -0.001377 0.013093 -0.003276 0.000000 0.000000 0.000000
# 3 0.006183 -0.003276 0.010509 0.000000 0.000000 0.000000
# 4 0.000000 0.000000 0.000000 0.079565 0.000000 0.000000
# 5 0.000000 0.000000 0.000000 0.000000 0.045410 0.000000
# 6 0.000000 0.000000 0.000000 0.000000 0.000000 0.088564
#
#
# Mechanical properties :
#
#
# Convention : Reuss Voigt Hill
#
# Bulk Modulus (GPa) = 14.81857 26.77961 20.79909
# Shear Modulus (GPa) = 16.81270 23.42087 20.11678
#
# Velocity S-wave (km/s) = 2.93453 3.46354 3.20995
# Velocity P-wave (km/s) = 4.36715 5.45081 4.93879
#
# Compressibility (1/GPa) = 0.06748291
#
# Stress axis : x y z
#
# Youngs Moduli (GPa) = 24.49774 76.37720 95.15804
#
# Poissons Ratio (x) = 0.10518 -0.58839
# Poissons Ratio (y) = 0.03373 0.31171
# Poissons Ratio (z) = -0.15148 0.25019
#
# Static dielectric constant tensor:
#      x y z
#    x 1.729030 0.000000 0.000000 
#    y 0.000000 1.688770 0.000000 
#    z 0.000000 0.000000 1.711390 
# 
# From -- ./inp_files/26166.got.cif
#   From: 2010.05.17/outbox.cif.g08.bks.cpg/sg59_14_cif.got.tgz:26166.got - 2010.06.03 14:40:33.
