data_PCOD9449098
_publ_section_title
;
Structure prediction by ZEFSAII (Michael W. Deem and Ramdas Pophale) SiO2 
 PCOD9449098
Probable space group: P M M N
;
_chemical_formula_sum "Si O2"
_cell_formula_units_Z 56
_cell_length_a 14.192376
_cell_length_b 32.391274
_cell_length_c 7.095265
_cell_angle_alpha 90.000000
_cell_angle_beta 90.000000
_cell_angle_gamma 90.000000
_cell_volume 3261.758169
_symmetry_space_group_name_H-M "P M M N"
_symmetry_group_IT_number 59
_space_group.IT_coordinate_system_code '2'
_symmetry_cell_setting 'orthorhombic'
loop_
_space_group_symop_operation_xyz
x,y,z
1/2-x,1/2-y,z
1/2+x,-y,-z
-x,1/2+y,-z
-x,-y,-z
1/2+x,1/2+y,-z
1/2-x,y,z
x,1/2-y,z
loop_
_atom_site_type_symbol
_atom_site_label
_atom_site_fract_x
_atom_site_fract_y
_atom_site_fract_z
Si Si1 0.015295 0.060879 0.141518
Si Si2 0.501888 0.798248 0.584642
Si Si3 0.641800 0.571823 0.493032
Si Si4 0.361032 0.491227 0.848443
Si Si5 0.859663 0.661289 0.300748
Si Si6 0.638754 0.298526 0.749208
Si Si7 0.005472 0.846126 0.975577
O O1 0.067419 0.068444 0.339626
O O2 0.089224 0.036524 0.008818
O O3 0.922658 0.032701 0.163610
O O4 0.989925 0.104802 0.050822
O O5 0.501110 0.750000 0.632954
O O6 0.590731 0.809411 0.453374
O O7 0.412566 0.807297 0.449305
O O8 0.501232 0.825166 0.772095
O O9 0.750000 0.571491 0.565936
O O10 0.631395 0.534498 0.345613
O O11 0.629429 0.614684 0.380385
O O12 0.250000 0.497899 0.886954
O O13 0.750000 0.670182 0.278977
O O14 0.914771 0.664137 0.104284
O O15 0.750000 0.304374 0.736474
O O16 0.619882 0.250000 0.792663
O O17 0.592213 0.326982 0.907992
#
# Coordination Sequence:
#
# PCOD9449098 Si02
#       7
#     8   8   8   8   8   8   8
#     4  11  21  35  59  83 113 147 185 236 284 333
#     4  10  21  38  58  83 116 150 187 233 283 335
#     4  10  19  35  58  81 107 147 193 227 271 335
#     4  10  22  38  55  81 113 146 187 234 283 336
#     4  10  21  36  56  81 114 152 191 234 275 330
#     4   9  20  39  60  83 113 149 188 229 278 340
#     4  11  21  35  59  88 113 145 189 234 284 337
#
# _framework density 17.168655000000001
#
# number of rings (size 3 to 8) (size 9 to 14) (size 15 to 20)
#    0.000    1.857    2.857    1.286    0.000    3.143 
#    0.000    1.429    0.000    0.000    0.000    0.000 
#    0.000    0.000    0.000    0.000    0.000    0.000 
#
# Total GULP energy -312581.946404 kJ/mol
# GULP energy per Si atom -5581.820471 kJ/mol
# Density = 1.712958 g / cm^3
# Si number density = 17.168655 Si / 1000 Ang^3
#
#
#
# Elastic Constant Matrix: (Units=GPa)
#
#
# Indices 1 2 3 4 5 6 
#
# 1 134.9298 47.2402 56.5905 0.0000 0.0000 0.0000
# 2 47.2402 42.2260 27.2809 0.0000 0.0000 0.0000
# 3 56.5905 27.2809 80.2804 0.0000 0.0000 0.0000
# 4 0.0000 0.0000 0.0000 26.3411 0.0000 0.0000
# 5 0.0000 0.0000 0.0000 0.0000 15.4642 0.0000
# 6 0.0000 0.0000 0.0000 0.0000 0.0000 25.3177
#
#
#
# Elastic Compliance Matrix: (Units=1/GPa)
#
#
# Indices 1 2 3 4 5 6 
#
# 1 0.014039 -0.011932 -0.005841 0.000000 0.000000 0.000000
# 2 -0.011932 0.040485 -0.005347 0.000000 0.000000 0.000000
# 3 -0.005841 -0.005347 0.018391 0.000000 0.000000 0.000000
# 4 0.000000 0.000000 0.000000 0.037963 0.000000 0.000000
# 5 0.000000 0.000000 0.000000 0.000000 0.064665 0.000000
# 6 0.000000 0.000000 0.000000 0.000000 0.000000 0.039498
#
#
# Mechanical properties :
#
#
# Convention : Reuss Voigt Hill
#
# Bulk Modulus (GPa) = 37.48857 57.73996 47.61426
# Shear Modulus (GPa) = 18.50667 21.84623 20.17645
#
# Velocity S-wave (km/s) = 3.28675 3.57101 3.43182
# Velocity P-wave (km/s) = 6.02383 7.12087 6.59520
#
# Compressibility (1/GPa) = 0.02667480
#
# Stress axis : x y z
#
# Youngs Moduli (GPa) = 71.23242 24.70045 54.37469
#
# Poissons Ratio (x) = 0.29472 0.31762
# Poissons Ratio (y) = 0.84992 0.29074
# Poissons Ratio (z) = 0.41609 0.13207
#
# Static dielectric constant tensor:
#      x y z
#    x 1.560880 0.000000 0.000000 
#    y 0.000000 1.572090 0.000000 
#    z 0.000000 0.000000 1.556930 
# 
# From -- ./inp_files/2305.got.cif
#   From: 2010.05.17/outbox.cif.g08.bks.cpg/sg59_2_cif.got.tgz:2305.got - 2010.06.03 14:40:33.
