data_PCOD9449091
_publ_section_title
;
Structure prediction by ZEFSAII (Michael W. Deem and Ramdas Pophale) SiO2 
 PCOD9449091
Probable space group: P M M N
;
_chemical_formula_sum "Si O2"
_cell_formula_units_Z 56
_cell_length_a 8.513934
_cell_length_b 20.018068
_cell_length_c 18.021883
_cell_angle_alpha 90.000000
_cell_angle_beta 90.000000
_cell_angle_gamma 90.000000
_cell_volume 3071.514750
_symmetry_space_group_name_H-M "P M M N"
_symmetry_group_IT_number 59
_space_group.IT_coordinate_system_code '2'
_symmetry_cell_setting 'orthorhombic'
loop_
_space_group_symop_operation_xyz
x,y,z
1/2-x,1/2-y,z
1/2+x,-y,-z
-x,1/2+y,-z
-x,-y,-z
1/2+x,1/2+y,-z
1/2-x,y,z
x,1/2-y,z
loop_
_atom_site_type_symbol
_atom_site_label
_atom_site_fract_x
_atom_site_fract_y
_atom_site_fract_z
Si Si1 0.063867 0.427620 0.638337
Si Si2 0.433592 0.947540 0.199922
Si Si3 0.560432 0.924620 0.609720
Si Si4 0.935054 0.895564 0.772420
Si Si5 0.061761 0.672131 0.480381
Si Si6 0.938524 0.567472 0.038110
Si Si7 0.057786 0.174824 0.082439
O O1 0.250000 0.427064 0.628399
O O2 0.020424 0.424767 0.725396
O O3 0.999769 0.498762 0.606609
O O4 0.989903 0.365551 0.594576
O O5 0.250000 0.930748 0.206743
O O6 0.499920 0.923779 0.121528
O O7 0.446170 0.028222 0.199861
O O8 0.750000 0.928108 0.610524
O O9 0.501506 0.895399 0.688954
O O10 0.506043 0.875193 0.545313
O O11 0.750000 0.879025 0.765544
O O12 0.001456 0.849786 0.837324
O O13 0.250000 0.671614 0.485407
O O14 0.009579 0.750000 0.484363
O O15 0.750000 0.565139 0.039958
O O16 0.990948 0.626421 0.983491
O O17 0.000000 0.500000 0.000000
O O18 0.250000 0.171938 0.085026
O O19 0.010265 0.250000 0.068289
#
# Coordination Sequence:
#
# PCOD9449091 Si02
#       7
#     8   8   8   8   8   8   8
#     4  11  22  38  61  88 116 147 188 238 291 348
#     4  10  19  35  57  83 111 142 185 236 283 336
#     4  10  20  35  59  88 118 150 190 236 283 342
#     4   8  15  29  50  79 108 137 176 223 276 328
#     4  11  24  41  59  81 114 155 196 241 294 344
#     4  11  20  32  54  82 109 145 189 234 285 334
#     4   9  17  30  49  76 110 145 184 229 277 330
#
# _framework density 18.232047000000001
#
# number of rings (size 3 to 8) (size 9 to 14) (size 15 to 20)
#    0.000    2.000    1.429    4.286    0.000    1.714 
#    0.000    2.143    0.000    4.286    0.000    0.000 
#    0.000    0.000    0.000    0.000    0.000    0.000 
#
# Total GULP energy -312447.940047 kJ/mol
# GULP energy per Si atom -5579.427501 kJ/mol
# Density = 1.819055 g / cm^3
# Si number density = 18.232047 Si / 1000 Ang^3
#
#
#
# Elastic Constant Matrix: (Units=GPa)
#
#
# Indices 1 2 3 4 5 6 
#
# 1 52.4447 21.9781 13.1340 0.0000 0.0000 0.0000
# 2 21.9781 89.2333 54.1265 0.0000 0.0000 0.0000
# 3 13.1340 54.1265 97.3137 0.0000 0.0000 0.0000
# 4 0.0000 0.0000 0.0000 13.3398 0.0000 0.0000
# 5 0.0000 0.0000 0.0000 0.0000 28.0026 0.0000
# 6 0.0000 0.0000 0.0000 0.0000 0.0000 18.6545
#
#
#
# Elastic Compliance Matrix: (Units=1/GPa)
#
#
# Indices 1 2 3 4 5 6 
#
# 1 0.021263 -0.005276 0.000065 0.000000 0.000000 0.000000
# 2 -0.005276 0.018222 -0.009423 0.000000 0.000000 0.000000
# 3 0.000065 -0.009423 0.015508 0.000000 0.000000 0.000000
# 4 0.000000 0.000000 0.000000 0.074964 0.000000 0.000000
# 5 0.000000 0.000000 0.000000 0.000000 0.035711 0.000000
# 6 0.000000 0.000000 0.000000 0.000000 0.000000 0.053606
#
#
# Mechanical properties :
#
#
# Convention : Reuss Voigt Hill
#
# Bulk Modulus (GPa) = 38.87397 46.38545 42.62971
# Shear Modulus (GPa) = 19.44636 21.98291 20.71464
#
# Velocity S-wave (km/s) = 3.26943 3.47613 3.37436
# Velocity P-wave (km/s) = 5.96828 6.45044 6.21404
#
# Compressibility (1/GPa) = 0.02572416
#
# Stress axis : x y z
#
# Youngs Moduli (GPa) = 47.03093 54.87905 64.48127
#
# Poissons Ratio (x) = 0.28957 -0.00420
# Poissons Ratio (y) = 0.24816 0.60761
# Poissons Ratio (z) = -0.00306 0.51712
#
# Static dielectric constant tensor:
#      x y z
#    x 1.628430 0.000000 0.000000 
#    y 0.000000 1.603640 0.000000 
#    z 0.000000 0.000000 1.641520 
# 
# From -- ./inp_files/26102.got.cif
#   From: 2010.05.17/outbox.cif.g08.bks.cpg/sg59_14_cif.got.tgz:26102.got - 2010.06.03 14:40:33.
