data_PCOD9449451
_publ_section_title
;
Structure prediction by ZEFSAII (Michael W. Deem and Ramdas Pophale) SiO2 
 PCOD9449451
Probable space group: P M M N
;
_chemical_formula_sum "Si O2"
_cell_formula_units_Z 64
_cell_length_a 7.976232
_cell_length_b 23.889681
_cell_length_c 16.631379
_cell_angle_alpha 90.000000
_cell_angle_beta 90.000000
_cell_angle_gamma 90.000000
_cell_volume 3169.103249
_symmetry_space_group_name_H-M "P M M N"
_symmetry_group_IT_number 59
_space_group.IT_coordinate_system_code '2'
_symmetry_cell_setting 'orthorhombic'
loop_
_space_group_symop_operation_xyz
x,y,z
1/2-x,1/2-y,z
1/2+x,-y,-z
-x,1/2+y,-z
-x,-y,-z
1/2+x,1/2+y,-z
1/2-x,y,z
x,1/2-y,z
loop_
_atom_site_type_symbol
_atom_site_label
_atom_site_fract_x
_atom_site_fract_y
_atom_site_fract_z
Si Si1 0.947199 0.492066 0.592218
Si Si2 0.449957 0.411545 0.951060
Si Si3 0.047501 0.813039 0.634958
Si Si4 0.450549 0.814789 0.163057
Si Si5 0.058213 0.885741 0.313958
Si Si6 0.556133 0.683284 0.457713
Si Si7 0.452780 0.918792 0.719129
Si Si8 0.547150 0.030340 0.114401
O O1 0.750000 0.480953 0.588822
O O2 0.022442 0.441562 0.647191
O O3 0.000000 0.500000 0.500000
O O4 0.986175 0.547060 0.642494
O O5 0.250000 0.409111 0.943926
O O6 0.517824 0.353609 0.914940
O O7 0.511763 0.466693 0.901924
O O8 0.495009 0.428590 0.042101
O O9 0.250000 0.811449 0.632969
O O10 0.984335 0.750000 0.645340
O O11 0.994908 0.854989 0.704720
O O12 0.989675 0.834559 0.547792
O O13 0.250000 0.810486 0.174048
O O14 0.513487 0.750000 0.159979
O O15 0.518431 0.851951 0.238459
O O16 0.250000 0.899376 0.290165
O O17 0.055144 0.844078 0.389538
O O18 0.750000 0.669524 0.441309
O O19 0.535698 0.750000 0.455429
O O20 0.250000 0.920718 0.720456
O O21 0.514606 0.946627 0.800808
O O22 0.750000 0.028723 0.114888
#
# Coordination Sequence:
#
# PCOD9449451 Si02
#       8
#     8   8   8   8   8   8   8   8
#     4  11  23  36  52  77 110 146 183 227 277 327
#     4  10  20  35  57  83 110 140 174 216 267 322
#     4   9  18  33  52  72  96 129 168 209 252 300
#     4  10  21  37  57  80 108 144 184 227 276 331
#     4  10  21  36  53  74 102 140 184 224 265 318
#     4  10  20  32  48  72 100 132 172 216 259 302
#     4  10  20  35  55  78 104 135 174 218 263 312
#     4   9  19  36  58  83 110 140 175 218 267 320
#
# _framework density 20.194987000000001
#
# number of rings (size 3 to 8) (size 9 to 14) (size 15 to 20)
#    0.000    2.125    0.000    3.000    0.000    7.500 
#    0.000    0.625    0.000    2.250    0.000    0.000 
#    0.000    0.000    0.000    0.000    0.000    0.000 
#
# Total GULP energy -357046.847938 kJ/mol
# GULP energy per Si atom -5578.856999 kJ/mol
# Density = 2.014902 g / cm^3
# Si number density = 20.194987 Si / 1000 Ang^3
#
#
#
# Elastic Constant Matrix: (Units=GPa)
#
#
# Indices 1 2 3 4 5 6 
#
# 1 13.2420 7.7801 -5.0779 0.0000 0.0000 0.0000
# 2 7.7801 117.4404 63.4750 0.0000 0.0000 0.0000
# 3 -5.0779 63.4750 103.8455 0.0000 0.0000 0.0000
# 4 0.0000 0.0000 0.0000 31.0130 0.0000 0.0000
# 5 0.0000 0.0000 0.0000 0.0000 15.6301 0.0000
# 6 0.0000 0.0000 0.0000 0.0000 0.0000 16.8420
#
#
#
# Elastic Compliance Matrix: (Units=1/GPa)
#
#
# Indices 1 2 3 4 5 6 
#
# 1 0.087052 -0.012048 0.011621 0.000000 0.000000 0.000000
# 2 -0.012048 0.014383 -0.009381 0.000000 0.000000 0.000000
# 3 0.011621 -0.009381 0.015932 0.000000 0.000000 0.000000
# 4 0.000000 0.000000 0.000000 0.032245 0.000000 0.000000
# 5 0.000000 0.000000 0.000000 0.000000 0.063979 0.000000
# 6 0.000000 0.000000 0.000000 0.000000 0.000000 0.059376
#
#
# Mechanical properties :
#
#
# Convention : Reuss Voigt Hill
#
# Bulk Modulus (GPa) = 10.23001 40.76471 25.49736
# Shear Modulus (GPa) = 15.37676 23.92040 19.64858
#
# Velocity S-wave (km/s) = 2.76237 3.44535 3.12259
# Velocity P-wave (km/s) = 3.90523 6.00472 5.06495
#
# Compressibility (1/GPa) = 0.09775160
#
# Stress axis : x y z
#
# Youngs Moduli (GPa) = 11.48739 69.52492 62.76703
#
# Poissons Ratio (x) = 0.83763 -0.72941
# Poissons Ratio (y) = 0.13840 0.58881
# Poissons Ratio (z) = -0.13349 0.65220
#
# Static dielectric constant tensor:
#      x y z
#    x 1.753180 0.000000 0.000000 
#    y 0.000000 1.757050 0.000000 
#    z 0.000000 0.000000 1.697870 
# 
# From -- ./inp_files/21478.got.cif
#   From: 2010.05.17/outbox.cif.g08.bks.cpg/sg59_11_cif.got.tgz:21478.got - 2010.06.03 14:40:33.
