data_PCOD9449630
_publ_section_title
;
Structure prediction by ZEFSAII (Michael W. Deem and Ramdas Pophale) SiO2 
 PCOD9449630
Probable space group: P M M N
;
_chemical_formula_sum "Si O2"
_cell_formula_units_Z 56
_cell_length_a 7.426812
_cell_length_b 24.748440
_cell_length_c 13.719830
_cell_angle_alpha 90.000000
_cell_angle_beta 90.000000
_cell_angle_gamma 90.000000
_cell_volume 2521.732347
_symmetry_space_group_name_H-M "P M M N"
_symmetry_group_IT_number 59
_space_group.IT_coordinate_system_code '2'
_symmetry_cell_setting 'orthorhombic'
loop_
_space_group_symop_operation_xyz
x,y,z
1/2-x,1/2-y,z
1/2+x,-y,-z
-x,1/2+y,-z
-x,-y,-z
1/2+x,1/2+y,-z
1/2-x,y,z
x,1/2-y,z
loop_
_atom_site_type_symbol
_atom_site_label
_atom_site_fract_x
_atom_site_fract_y
_atom_site_fract_z
Si Si1 0.530447 0.415458 0.571496
Si Si2 0.455975 0.015995 0.762365
Si Si3 0.960940 0.077400 0.357204
Si Si4 0.469432 0.310990 0.046073
Si Si5 0.534392 0.618109 0.129704
Si Si6 0.467083 0.309902 0.269777
Si Si7 0.534571 0.310911 0.678936
O O1 0.750000 0.417817 0.573931
O O2 0.460155 0.452067 0.659248
O O3 0.465514 0.433013 0.465130
O O4 0.474727 0.354018 0.597505
O O5 0.250000 0.006792 0.794617
O O6 0.537768 0.059433 0.837328
O O7 0.538677 0.958646 0.730988
O O8 0.750000 0.063325 0.361239
O O9 0.973932 0.140486 0.334853
O O10 0.250000 0.311932 0.045229
O O11 0.522205 0.250000 0.016182
O O12 0.525699 0.319070 0.157733
O O13 0.533725 0.355465 0.969726
O O14 0.750000 0.612334 0.121275
O O15 0.503663 0.660488 0.217543
O O16 0.250000 0.309511 0.269647
O O17 0.527776 0.250000 0.300264
O O18 0.750000 0.307690 0.670524
O O19 0.462714 0.250000 0.672908
#
# Coordination Sequence:
#
# PCOD9449630 Si02
#       7
#     8   8   8   8   8   8   8
#     4   9  18  31  47  66  90 126 165 192 222 272
#     4   9  18  31  47  71  99 122 151 194 235 271
#     4  10  20  33  49  69  94 125 157 190 233 280
#     4   8  14  27  48  70  90 116 152 190 228 274
#     4   9  16  28  48  70  92 120 152 186 226 274
#     4   9  19  35  52  70  91 116 153 198 234 269
#     4   9  17  28  41  62  93 121 147 186 231 272
#
# _framework density 22.206956999999999
#
# number of rings (size 3 to 8) (size 9 to 14) (size 15 to 20)
#    0.000    3.000    0.000    1.714    0.000    2.857 
#    0.000    2.857    0.000    0.857    0.000    0.000 
#    0.000    0.000    0.000    0.000    0.000    0.000 
#
# Total GULP energy -312396.209188 kJ/mol
# GULP energy per Si atom -5578.503736 kJ/mol
# Density = 2.215641 g / cm^3
# Si number density = 22.206957 Si / 1000 Ang^3
#
#
#
# Elastic Constant Matrix: (Units=GPa)
#
#
# Indices 1 2 3 4 5 6 
#
# 1 74.2584 -7.5799 -8.8874 0.0000 0.0000 0.0000
# 2 -7.5799 77.1964 -3.6616 0.0000 0.0000 0.0000
# 3 -8.8874 -3.6616 23.7548 0.0000 0.0000 0.0000
# 4 0.0000 0.0000 0.0000 23.5036 0.0000 0.0000
# 5 0.0000 0.0000 0.0000 0.0000 3.8183 0.0000
# 6 0.0000 0.0000 0.0000 0.0000 0.0000 4.9660
#
#
#
# Elastic Compliance Matrix: (Units=1/GPa)
#
#
# Indices 1 2 3 4 5 6 
#
# 1 0.014309 0.001671 0.005611 0.000000 0.000000 0.000000
# 2 0.001671 0.013245 0.002667 0.000000 0.000000 0.000000
# 3 0.005611 0.002667 0.044607 0.000000 0.000000 0.000000
# 4 0.000000 0.000000 0.000000 0.042547 0.000000 0.000000
# 5 0.000000 0.000000 0.000000 0.000000 0.261895 0.000000
# 6 0.000000 0.000000 0.000000 0.000000 0.000000 0.201369
#
#
# Mechanical properties :
#
#
# Convention : Reuss Voigt Hill
#
# Bulk Modulus (GPa) = 10.86278 14.99465 12.92871
# Shear Modulus (GPa) = 8.49244 19.48016 13.98630
#
# Velocity S-wave (km/s) = 1.95768 2.96499 2.51234
# Velocity P-wave (km/s) = 3.16422 4.29981 3.77496
#
# Compressibility (1/GPa) = 0.09205746
#
# Stress axis : x y z
#
# Youngs Moduli (GPa) = 69.88810 75.50280 22.41802
#
# Poissons Ratio (x) = -0.12617 -0.12578
# Poissons Ratio (y) = -0.11679 -0.05978
# Poissons Ratio (z) = -0.39213 -0.20134
#
# Static dielectric constant tensor:
#      x y z
#    x 1.841310 0.000000 0.000000 
#    y 0.000000 1.853700 0.000000 
#    z 0.000000 0.000000 1.787050 
# 
# From -- ./inp_files/20913.got.cif
#   From: 2010.05.17/outbox.cif.g08.bks.cpg/sg59_11_cif.got.tgz:20913.got - 2010.06.03 14:40:33.
