data_PCOD9449842
_publ_section_title
;
Structure prediction by ZEFSAII (Michael W. Deem and Ramdas Pophale) SiO2 
 PCOD9449842
Probable space group: P M M N
;
_chemical_formula_sum "Si O2"
_cell_formula_units_Z 64
_cell_length_a 8.965884
_cell_length_b 23.457592
_cell_length_c 16.224801
_cell_angle_alpha 90.000000
_cell_angle_beta 90.000000
_cell_angle_gamma 90.000000
_cell_volume 3412.368488
_symmetry_space_group_name_H-M "P M M N"
_symmetry_group_IT_number 59
_space_group.IT_coordinate_system_code '2'
_symmetry_cell_setting 'orthorhombic'
loop_
_space_group_symop_operation_xyz
x,y,z
1/2-x,1/2-y,z
1/2+x,-y,-z
-x,1/2+y,-z
-x,-y,-z
1/2+x,1/2+y,-z
1/2-x,y,z
x,1/2-y,z
loop_
_atom_site_type_symbol
_atom_site_label
_atom_site_fract_x
_atom_site_fract_y
_atom_site_fract_z
Si Si1 0.427879 0.411029 0.449810
Si Si2 0.075929 0.008517 0.088835
Si Si3 0.074182 0.476603 0.616235
Si Si4 0.573346 0.116325 0.174736
Si Si5 0.080982 0.318258 0.033065
Si Si6 0.577423 0.420880 0.767743
Si Si7 0.430303 0.682912 0.658162
Si Si8 0.425789 0.683419 0.135115
O O1 0.250000 0.405918 0.442479
O O2 0.486803 0.464320 0.395925
O O3 0.464238 0.432381 0.542542
O O4 0.503447 0.353138 0.417878
O O5 0.250000 0.020842 0.075369
O O6 0.005441 0.058239 0.145552
O O7 0.064467 0.952147 0.144414
O O8 0.000000 0.000000 0.000000
O O9 0.250000 0.488730 0.610931
O O10 0.029519 0.449001 0.701984
O O11 0.750000 0.106474 0.180260
O O12 0.524629 0.147259 0.259550
O O13 0.531575 0.158900 0.100984
O O14 0.250000 0.338440 0.048488
O O15 0.081190 0.250000 0.035965
O O16 0.024516 0.334695 0.942638
O O17 0.750000 0.427285 0.740314
O O18 0.543585 0.355240 0.786079
O O19 0.250000 0.681888 0.654488
O O20 0.475193 0.750000 0.661535
O O21 0.250000 0.675764 0.114209
O O22 0.451158 0.750000 0.150451
#
# Coordination Sequence:
#
# PCOD9449842 Si02
#       8
#     8   8   8   8   8   8   8   8
#     4  10  21  38  60  86 114 144 181 226 277 333
#     4  11  23  37  54  80 114 151 191 235 284 335
#     4  10  21  37  60  87 112 143 182 226 279 335
#     4  11  22  36  54  77 108 146 188 232 278 331
#     4  10  20  33  51  76 104 137 180 226 270 317
#     4  10  21  36  55  81 110 140 179 224 269 322
#     4  10  22  39  59  85 117 154 194 234 281 341
#     4   9  18  34  55  77 104 139 177 218 265 317
#
# _framework density 18.755300999999999
#
# number of rings (size 3 to 8) (size 9 to 14) (size 15 to 20)
#    0.000    1.875    0.000    3.750    0.000    8.500 
#    0.000    0.625    0.000    2.250    0.000    0.000 
#    0.000    0.000    0.000    0.000    0.000    0.000 
#
# Total GULP energy -357273.249441 kJ/mol
# GULP energy per Si atom -5582.394523 kJ/mol
# Density = 1.871261 g / cm^3
# Si number density = 18.755301 Si / 1000 Ang^3
#
#
#
# Elastic Constant Matrix: (Units=GPa)
#
#
# Indices 1 2 3 4 5 6 
#
# 1 42.0341 33.9964 22.4587 0.0000 0.0000 0.0000
# 2 33.9964 95.4200 39.2131 0.0000 0.0000 0.0000
# 3 22.4587 39.2131 54.7116 0.0000 0.0000 0.0000
# 4 0.0000 0.0000 0.0000 27.6293 0.0000 0.0000
# 5 0.0000 0.0000 0.0000 0.0000 29.8687 0.0000
# 6 0.0000 0.0000 0.0000 0.0000 0.0000 26.7926
#
#
#
# Elastic Compliance Matrix: (Units=1/GPa)
#
#
# Indices 1 2 3 4 5 6 
#
# 1 0.035644 -0.009478 -0.007838 0.000000 0.000000 0.000000
# 2 -0.009478 0.017376 -0.008563 0.000000 0.000000 0.000000
# 3 -0.007838 -0.008563 0.027633 0.000000 0.000000 0.000000
# 4 0.000000 0.000000 0.000000 0.036193 0.000000 0.000000
# 5 0.000000 0.000000 0.000000 0.000000 0.033480 0.000000
# 6 0.000000 0.000000 0.000000 0.000000 0.000000 0.037324
#
#
# Mechanical properties :
#
#
# Convention : Reuss Voigt Hill
#
# Bulk Modulus (GPa) = 34.61000 42.61135 38.61067
# Shear Modulus (GPa) = 20.07713 23.29128 21.68420
#
# Velocity S-wave (km/s) = 3.27536 3.52781 3.40393
# Velocity P-wave (km/s) = 5.72691 6.27399 6.00668
#
# Compressibility (1/GPa) = 0.02889339
#
# Stress axis : x y z
#
# Youngs Moduli (GPa) = 28.05521 57.55116 36.18919
#
# Poissons Ratio (x) = 0.54548 0.28367
# Poissons Ratio (y) = 0.26591 0.30989
# Poissons Ratio (z) = 0.21991 0.49281
#
# Static dielectric constant tensor:
#      x y z
#    x 1.655790 0.000000 0.000000 
#    y 0.000000 1.693910 0.000000 
#    z 0.000000 0.000000 1.633850 
# 
# From -- ./inp_files/21536.got.cif
#   From: 2010.05.17/outbox.cif.g08.bks.cpg/sg59_11_cif.got.tgz:21536.got - 2010.06.03 14:40:33.
