data_PCOD9449794
_publ_section_title
;
Structure prediction by ZEFSAII (Michael W. Deem and Ramdas Pophale) SiO2 
 PCOD9449794
Probable space group: P M M N
;
_chemical_formula_sum "Si O2"
_cell_formula_units_Z 64
_cell_length_a 30.356693
_cell_length_b 8.699397
_cell_length_c 15.238398
_cell_angle_alpha 90.000000
_cell_angle_beta 90.000000
_cell_angle_gamma 90.000000
_cell_volume 4024.231178
_symmetry_space_group_name_H-M "P M M N"
_symmetry_group_IT_number 59
_space_group.IT_coordinate_system_code '2'
_symmetry_cell_setting 'orthorhombic'
loop_
_space_group_symop_operation_xyz
x,y,z
1/2-x,1/2-y,z
1/2+x,-y,-z
-x,1/2+y,-z
-x,-y,-z
1/2+x,1/2+y,-z
1/2-x,y,z
x,1/2-y,z
loop_
_atom_site_type_symbol
_atom_site_label
_atom_site_fract_x
_atom_site_fract_y
_atom_site_fract_z
Si Si1 0.968975 0.566694 0.871115
Si Si2 0.799696 0.435061 0.493047
Si Si3 0.199506 0.933441 0.713608
Si Si4 0.615710 0.567335 0.198735
Si Si5 0.936417 0.067092 0.045071
Si Si6 0.058171 0.063180 0.633649
Si Si7 0.608803 0.934268 0.542747
Si Si8 0.040038 0.565743 0.321792
O O1 0.967138 0.750000 0.860761
O O2 0.959170 0.486956 0.779070
O O3 0.018214 0.523801 0.904119
O O4 0.937807 0.512975 0.950573
O O5 0.750000 0.483398 0.519475
O O6 0.801495 0.250000 0.500188
O O7 0.805021 0.473292 0.389572
O O8 0.841074 0.506979 0.542420
O O9 0.250000 0.964069 0.738724
O O10 0.191765 0.750000 0.721481
O O11 0.164329 0.024554 0.769881
O O12 0.610503 0.750000 0.189253
O O13 0.602181 0.486466 0.108866
O O14 0.583393 0.514045 0.277947
O O15 0.936407 0.250000 0.033314
O O16 0.058627 0.250000 0.633137
O O17 0.084500 0.011797 0.547301
O O18 0.007264 0.014173 0.637980
O O19 0.608772 0.750000 0.542849
O O20 0.579777 0.995666 0.622759
O O21 0.041774 0.750000 0.326259
#
# Coordination Sequence:
#
# PCOD9449794 Si02
#       8
#     8   8   8   8   8   8   8   8
#     4  10  20  34  51  73  98 128 166 210 251 292
#     4   9  18  33  51  71  96 128 167 209 254 302
#     4   9  18  32  49  71 100 132 167 208 253 303
#     4  11  19  31  50  74 102 133 171 210 249 298
#     4  10  20  33  51  74  99 130 165 203 250 300
#     4   9  19  32  46  68 100 136 172 208 244 290
#     4  11  21  34  49  72 101 133 173 212 253 300
#     4  11  21  35  51  69  99 138 175 212 253 296
#
# _framework density 15.90366
#
# number of rings (size 3 to 8) (size 9 to 14) (size 15 to 20)
#    0.000    2.000    2.500    3.000    0.000    1.500 
#    0.000    3.125    0.000    0.000    0.000    0.875 
#    0.000    7.000    0.000    0.000    0.000    0.000 
#
# Total GULP energy -357158.949868 kJ/mol
# GULP energy per Si atom -5580.608592 kJ/mol
# Density = 1.586746 g / cm^3
# Si number density = 15.903660 Si / 1000 Ang^3
#
#
#
# Elastic Constant Matrix: (Units=GPa)
#
#
# Indices 1 2 3 4 5 6 
#
# 1 101.7559 27.3108 46.1089 0.0000 0.0000 0.0000
# 2 27.3108 25.9115 18.5124 0.0000 0.0000 0.0000
# 3 46.1089 18.5124 70.0653 0.0000 0.0000 0.0000
# 4 0.0000 0.0000 0.0000 23.1354 0.0000 0.0000
# 5 0.0000 0.0000 0.0000 0.0000 18.9973 0.0000
# 6 0.0000 0.0000 0.0000 0.0000 0.0000 24.5639
#
#
#
# Elastic Compliance Matrix: (Units=1/GPa)
#
#
# Indices 1 2 3 4 5 6 
#
# 1 0.016522 -0.011891 -0.007731 0.000000 0.000000 0.000000
# 2 -0.011891 0.056131 -0.007006 0.000000 0.000000 0.000000
# 3 -0.007731 -0.007006 0.021211 0.000000 0.000000 0.000000
# 4 0.000000 0.000000 0.000000 0.043224 0.000000 0.000000
# 5 0.000000 0.000000 0.000000 0.000000 0.052639 0.000000
# 6 0.000000 0.000000 0.000000 0.000000 0.000000 0.040710
#
#
# Mechanical properties :
#
#
# Convention : Reuss Voigt Hill
#
# Bulk Modulus (GPa) = 24.62506 42.39966 33.51236
# Shear Modulus (GPa) = 16.82207 20.39271 18.60739
#
# Velocity S-wave (km/s) = 3.25583 3.58476 3.42425
# Velocity P-wave (km/s) = 5.44531 6.62210 6.06233
#
# Compressibility (1/GPa) = 0.04060904
#
# Stress axis : x y z
#
# Youngs Moduli (GPa) = 60.52488 17.81549 47.14494
#
# Poissons Ratio (x) = 0.21184 0.36449
# Poissons Ratio (y) = 0.71969 0.33028
# Poissons Ratio (z) = 0.46793 0.12481
#
# Static dielectric constant tensor:
#      x y z
#    x 1.529410 0.000000 0.000000 
#    y 0.000000 1.529770 0.000000 
#    z 0.000000 0.000000 1.510660 
# 
# From -- ./inp_files/25052.got.cif
#   From: 2010.05.17/outbox.cif.g08.bks.cpg/sg59_13_cif.got.tgz:25052.got - 2010.06.03 14:40:33.
