data_PCOD9449132
_publ_section_title
;
Structure prediction by ZEFSAII (Michael W. Deem and Ramdas Pophale) SiO2 
 PCOD9449132
Probable space group: P M M N
;
_chemical_formula_sum "Si O2"
_cell_formula_units_Z 48
_cell_length_a 29.039702
_cell_length_b 8.190647
_cell_length_c 10.433326
_cell_angle_alpha 90.000000
_cell_angle_beta 90.000000
_cell_angle_gamma 90.000000
_cell_volume 2481.607781
_symmetry_space_group_name_H-M "P M M N"
_symmetry_group_IT_number 59
_space_group.IT_coordinate_system_code '2'
_symmetry_cell_setting 'orthorhombic'
loop_
_space_group_symop_operation_xyz
x,y,z
1/2-x,1/2-y,z
1/2+x,-y,-z
-x,1/2+y,-z
-x,-y,-z
1/2+x,1/2+y,-z
1/2-x,y,z
x,1/2-y,z
loop_
_atom_site_type_symbol
_atom_site_label
_atom_site_fract_x
_atom_site_fract_y
_atom_site_fract_z
Si Si1 0.005374 0.447622 0.147896
Si Si2 0.103068 0.054422 0.254614
Si Si3 0.649687 0.555283 0.485775
Si Si4 0.250000 0.555191 0.590553
Si Si5 0.346336 0.552476 0.004686
Si Si6 0.750000 0.449384 0.114432
Si Si7 0.907220 0.052865 0.237668
O O1 0.006092 0.250000 0.148551
O O2 0.960185 0.501027 0.226706
O O3 0.052887 0.508593 0.210451
O O4 0.000000 0.500000 0.000000
O O5 0.098667 0.250000 0.266874
O O6 0.123252 0.990311 0.388408
O O7 0.137938 0.016085 0.139857
O O8 0.650819 0.750000 0.493637
O O9 0.702422 0.497437 0.474941
O O10 0.621355 0.507126 0.359136
O O11 0.250000 0.750000 0.596059
O O12 0.250000 0.493697 0.738208
O O13 0.347006 0.750000 0.011535
O O14 0.295953 0.499735 0.958724
O O15 0.381871 0.501869 0.893397
O O16 0.750000 0.250000 0.118172
O O17 0.906248 0.250000 0.241319
#
# Coordination Sequence:
#
# PCOD9449132 Si02
#       7
#     8   8   8   4   8   4   8
#     4  10  20  36  59  86 116 153 196 245 299 351
#     4  10  23  40  56  82 123 158 188 238 298 351
#     4  11  24  40  58  86 123 159 194 236 291 357
#     4  11  21  40  65  86 114 154 195 243 294 341
#     4  10  19  35  59  86 112 144 191 243 288 343
#     4   9  18  34  57  84 112 138 181 241 290 333
#     4  10  20  36  60  88 115 149 198 247 288 343
#
# _framework density 19.342300000000002
#
# number of rings (size 3 to 8) (size 9 to 14) (size 15 to 20)
#    0.000    1.833    3.333    0.750    0.000    4.000 
#    0.000    2.083    0.000    0.000    0.000    0.000 
#    0.000    0.000    0.000    0.000    0.000    0.000 
#
# Total GULP energy -268044.059824 kJ/mol
# GULP energy per Si atom -5584.251246 kJ/mol
# Density = 1.929828 g / cm^3
# Si number density = 19.342300 Si / 1000 Ang^3
#
#
#
# Elastic Constant Matrix: (Units=GPa)
#
#
# Indices 1 2 3 4 5 6 
#
# 1 149.5324 13.6879 51.1244 0.0000 0.0000 0.0000
# 2 13.6879 11.6495 7.1057 0.0000 0.0000 0.0000
# 3 51.1244 7.1057 116.0959 0.0000 0.0000 0.0000
# 4 0.0000 0.0000 0.0000 28.5522 0.0000 0.0000
# 5 0.0000 0.0000 0.0000 0.0000 29.2238 0.0000
# 6 0.0000 0.0000 0.0000 0.0000 0.0000 17.5854
#
#
#
# Elastic Compliance Matrix: (Units=1/GPa)
#
#
# Indices 1 2 3 4 5 6 
#
# 1 0.008541 -0.008042 -0.003269 0.000000 0.000000 0.000000
# 2 -0.008042 0.096741 -0.002380 0.000000 0.000000 0.000000
# 3 -0.003269 -0.002380 0.010199 0.000000 0.000000 0.000000
# 4 0.000000 0.000000 0.000000 0.035024 0.000000 0.000000
# 5 0.000000 0.000000 0.000000 0.000000 0.034219 0.000000
# 6 0.000000 0.000000 0.000000 0.000000 0.000000 0.056865
#
#
# Mechanical properties :
#
#
# Convention : Reuss Voigt Hill
#
# Bulk Modulus (GPa) = 11.35080 46.79043 29.07062
# Shear Modulus (GPa) = 16.75961 28.76294 22.76128
#
# Velocity S-wave (km/s) = 2.94679 3.86041 3.43412
# Velocity P-wave (km/s) = 4.17842 6.64181 5.54855
#
# Compressibility (1/GPa) = 0.08809953
#
# Stress axis : x y z
#
# Youngs Moduli (GPa) = 117.07779 10.33691 98.05060
#
# Poissons Ratio (x) = 0.08313 0.32054
# Poissons Ratio (y) = 0.94152 0.23334
# Poissons Ratio (z) = 0.38274 0.02460
#
# Static dielectric constant tensor:
#      x y z
#    x 1.685900 0.000000 0.000000 
#    y 0.000000 1.683970 0.000000 
#    z 0.000000 0.000000 1.642040 
# 
# From -- ./inp_files/13067.got.cif
#   From: 2010.05.17/outbox.cif.g08.bks.cpg/sg59_7_cif.got.tgz:13067.got - 2010.06.03 14:40:33.
