data_PCOD9449881
_publ_section_title
;
Structure prediction by ZEFSAII (Michael W. Deem and Ramdas Pophale) SiO2 
 PCOD9449881
Probable space group: P M M N
;
_chemical_formula_sum "Si O2"
_cell_formula_units_Z 64
_cell_length_a 7.946638
_cell_length_b 28.916308
_cell_length_c 12.716306
_cell_angle_alpha 90.000000
_cell_angle_beta 90.000000
_cell_angle_gamma 90.000000
_cell_volume 2922.047300
_symmetry_space_group_name_H-M "P M M N"
_symmetry_group_IT_number 59
_space_group.IT_coordinate_system_code '2'
_symmetry_cell_setting 'orthorhombic'
loop_
_space_group_symop_operation_xyz
x,y,z
1/2-x,1/2-y,z
1/2+x,-y,-z
-x,1/2+y,-z
-x,-y,-z
1/2+x,1/2+y,-z
1/2-x,y,z
x,1/2-y,z
loop_
_atom_site_type_symbol
_atom_site_label
_atom_site_fract_x
_atom_site_fract_y
_atom_site_fract_z
Si Si1 0.452601 0.875138 0.120972
Si Si2 0.050604 0.462963 0.763557
Si Si3 0.950971 0.198660 0.047212
Si Si4 0.053154 0.798890 0.276624
Si Si5 0.545877 0.837318 0.728320
Si Si6 0.952531 0.942462 0.694089
Si Si7 0.553579 0.675945 0.499580
Si Si8 0.552030 0.565514 0.464502
O O1 0.250000 0.875907 0.117385
O O2 0.501957 0.927617 0.144690
O O3 0.515675 0.844284 0.220115
O O4 0.514007 0.844914 0.021658
O O5 0.250000 0.460528 0.756229
O O6 0.976929 0.446619 0.649354
O O7 0.999697 0.516368 0.771815
O O8 0.750000 0.200131 0.030855
O O9 0.016676 0.250000 0.018916
O O10 0.985874 0.188553 0.168794
O O11 0.250000 0.797893 0.248590
O O12 0.977279 0.750000 0.241385
O O13 0.037946 0.802233 0.401281
O O14 0.750000 0.837076 0.726764
O O15 0.490529 0.891279 0.727802
O O16 0.490502 0.815372 0.617321
O O17 0.750000 0.940328 0.686533
O O18 0.018818 0.953775 0.575301
O O19 0.750000 0.689323 0.493568
O O20 0.543849 0.620674 0.481898
O O21 0.750000 0.553042 0.461544
#
# Coordination Sequence:
#
# PCOD9449881 Si02
#       8
#     8   8   8   8   8   8   8   8
#     4  10  21  38  57  78 108 147 186 226 280 338
#     4  11  20  31  52  83 115 146 185 231 273 321
#     4  10  22  41  64  85 106 139 186 239 288 333
#     4  10  20  33  51  77 108 140 178 225 275 332
#     4   9  20  38  60  83 112 147 185 230 276 329
#     4   9  18  34  54  78 112 153 188 220 269 330
#     4   9  17  33  53  76 110 147 177 213 269 330
#     4   8  15  29  49  74 109 147 181 218 258 311
#
# _framework density 21.902452
#
# number of rings (size 3 to 8) (size 9 to 14) (size 15 to 20)
#    0.000    2.500    1.250    2.625    0.000    4.000 
#    0.000    5.625    0.000    2.250    0.000    0.000 
#    0.000    0.000    0.000    0.000    0.000    0.000 
#
# Total GULP energy -357007.021608 kJ/mol
# GULP energy per Si atom -5578.234713 kJ/mol
# Density = 2.185260 g / cm^3
# Si number density = 21.902452 Si / 1000 Ang^3
#
#
#
# Elastic Constant Matrix: (Units=GPa)
#
#
# Indices 1 2 3 4 5 6 
#
# 1 20.8663 3.0816 -0.8990 0.0000 0.0000 0.0000
# 2 3.0816 43.6025 5.4447 0.0000 0.0000 0.0000
# 3 -0.8990 5.4447 75.8731 0.0000 0.0000 0.0000
# 4 0.0000 0.0000 0.0000 28.6560 0.0000 0.0000
# 5 0.0000 0.0000 0.0000 0.0000 15.6202 0.0000
# 6 0.0000 0.0000 0.0000 0.0000 0.0000 11.2365
#
#
#
# Elastic Compliance Matrix: (Units=1/GPa)
#
#
# Indices 1 2 3 4 5 6 
#
# 1 0.048481 -0.003530 0.000828 0.000000 0.000000 0.000000
# 2 -0.003530 0.023399 -0.001721 0.000000 0.000000 0.000000
# 3 0.000828 -0.001721 0.013313 0.000000 0.000000 0.000000
# 4 0.000000 0.000000 0.000000 0.034897 0.000000 0.000000
# 5 0.000000 0.000000 0.000000 0.000000 0.064020 0.000000
# 6 0.000000 0.000000 0.000000 0.000000 0.000000 0.088995
#
#
# Mechanical properties :
#
#
# Convention : Reuss Voigt Hill
#
# Bulk Modulus (GPa) = 13.09806 17.28850 15.19328
# Shear Modulus (GPa) = 16.26546 19.95019 18.10782
#
# Velocity S-wave (km/s) = 2.72808 3.02133 2.87844
# Velocity P-wave (km/s) = 3.98954 4.48127 4.24253
#
# Compressibility (1/GPa) = 0.07634719
#
# Stress axis : x y z
#
# Youngs Moduli (GPa) = 20.62660 42.73713 75.11335
#
# Poissons Ratio (x) = 0.15085 -0.06217
# Poissons Ratio (y) = 0.07281 0.12927
# Poissons Ratio (z) = -0.01707 0.07355
#
# Static dielectric constant tensor:
#      x y z
#    x 1.791870 0.000000 0.000000 
#    y 0.000000 1.849280 0.000000 
#    z 0.000000 0.000000 1.815900 
# 
# From -- ./inp_files/14965.got.cif
#   From: 2010.05.17/outbox.cif.g08.bks.cpg/sg59_8_cif.got.tgz:14965.got - 2010.06.03 14:40:33.
