data_PCOD9449072
_publ_section_title
;
Structure prediction by ZEFSAII (Michael W. Deem and Ramdas Pophale) SiO2 
 PCOD9449072
Probable space group: P M M N
;
_chemical_formula_sum "Si O2"
_cell_formula_units_Z 64
_cell_length_a 14.979465
_cell_length_b 19.592029
_cell_length_c 10.215076
_cell_angle_alpha 90.000000
_cell_angle_beta 90.000000
_cell_angle_gamma 90.000000
_cell_volume 2997.901225
_symmetry_space_group_name_H-M "P M M N"
_symmetry_group_IT_number 59
_space_group.IT_coordinate_system_code '2'
_symmetry_cell_setting 'orthorhombic'
loop_
_space_group_symop_operation_xyz
x,y,z
1/2-x,1/2-y,z
1/2+x,-y,-z
-x,1/2+y,-z
-x,-y,-z
1/2+x,1/2+y,-z
1/2-x,y,z
x,1/2-y,z
loop_
_atom_site_type_symbol
_atom_site_label
_atom_site_fract_x
_atom_site_fract_y
_atom_site_fract_z
Si Si1 0.605396 0.172198 0.309526
Si Si2 0.145562 0.088900 0.056194
Si Si3 0.358126 0.170880 0.805493
Si Si4 0.109240 0.564786 0.480059
Si Si5 0.610503 0.672968 0.688928
Si Si6 0.643320 0.327431 0.015049
Si Si7 0.143732 0.946416 0.171028
Si Si8 0.603279 0.582951 0.451015
O O1 0.637817 0.250000 0.319639
O O2 0.640792 0.126572 0.428331
O O3 0.497552 0.173442 0.315249
O O4 0.628194 0.147125 0.163423
O O5 0.250000 0.075950 0.027751
O O6 0.139090 0.142878 0.173182
O O7 0.106353 0.017506 0.111323
O O8 0.107975 0.126096 0.928135
O O9 0.250000 0.174001 0.813411
O O10 0.389720 0.250000 0.804576
O O11 0.382314 0.129000 0.675606
O O12 0.133180 0.561015 0.326974
O O13 0.137788 0.494337 0.549467
O O14 0.002129 0.573197 0.476005
O O15 0.641389 0.750000 0.669331
O O16 0.642038 0.623206 0.574648
O O17 0.750000 0.322398 0.996761
O O18 0.606275 0.250000 0.004283
O O19 0.608543 0.381047 0.908626
O O20 0.250000 0.948487 0.148969
#
# Coordination Sequence:
#
# PCOD9449072 Si02
#       8
#     8   8   8   8   8   8   8   8
#     4   9  20  36  56  84 111 140 182 229 276 328
#     4  10  21  37  55  81 114 146 186 231 278 331
#     4  10  22  39  58  83 115 151 192 235 280 333
#     4  10  21  37  56  81 113 148 184 230 279 332
#     4  10  19  35  57  79 110 147 183 225 270 322
#     4   9  19  37  58  80 108 142 181 225 277 335
#     4  10  21  37  56  82 112 145 185 230 278 332
#     4  10  21  37  55  81 112 147 188 228 275 329
#
# _framework density 21.348269999999999
#
# number of rings (size 3 to 8) (size 9 to 14) (size 15 to 20)
#    0.000    2.250    1.250    0.750    1.750    4.250 
#    0.000    2.500    0.000    0.000    0.000    0.000 
#    0.000    0.000    0.000    0.000    0.000    0.000 
#
# Total GULP energy -357237.218903 kJ/mol
# GULP energy per Si atom -5581.831545 kJ/mol
# Density = 2.129968 g / cm^3
# Si number density = 21.348270 Si / 1000 Ang^3
#
#
#
# Elastic Constant Matrix: (Units=GPa)
#
#
# Indices 1 2 3 4 5 6 
#
# 1 41.8652 5.3392 -8.6553 0.0000 0.0000 0.0000
# 2 5.3392 126.0730 65.4602 0.0000 0.0000 0.0000
# 3 -8.6553 65.4602 128.3682 0.0000 0.0000 0.0000
# 4 0.0000 0.0000 0.0000 35.8781 0.0000 0.0000
# 5 0.0000 0.0000 0.0000 0.0000 23.7095 0.0000
# 6 0.0000 0.0000 0.0000 0.0000 0.0000 11.2620
#
#
#
# Elastic Compliance Matrix: (Units=1/GPa)
#
#
# Indices 1 2 3 4 5 6 
#
# 1 0.024841 -0.002614 0.003008 0.000000 0.000000 0.000000
# 2 -0.002614 0.011063 -0.005818 0.000000 0.000000 0.000000
# 3 0.003008 -0.005818 0.010960 0.000000 0.000000 0.000000
# 4 0.000000 0.000000 0.000000 0.027872 0.000000 0.000000
# 5 0.000000 0.000000 0.000000 0.000000 0.042177 0.000000
# 6 0.000000 0.000000 0.000000 0.000000 0.000000 0.088794
#
#
# Mechanical properties :
#
#
# Convention : Reuss Voigt Hill
#
# Bulk Modulus (GPa) = 27.76490 46.73277 37.24883
# Shear Modulus (GPa) = 21.87593 29.78072 25.82833
#
# Velocity S-wave (km/s) = 3.20459 3.73901 3.48207
# Velocity P-wave (km/s) = 5.16977 6.37012 5.80108
#
# Compressibility (1/GPa) = 0.03601670
#
# Stress axis : x y z
#
# Youngs Moduli (GPa) = 40.25542 90.38804 91.24348
#
# Poissons Ratio (x) = 0.23625 -0.27444
# Poissons Ratio (y) = 0.10522 0.53085
# Poissons Ratio (z) = -0.12108 0.52587
#
# Static dielectric constant tensor:
#      x y z
#    x 1.799870 0.000000 0.000000 
#    y 0.000000 1.798290 0.000000 
#    z 0.000000 0.000000 1.736710 
# 
# From -- ./inp_files/11602.got.cif
#   From: 2010.05.17/outbox.cif.g08.bks.cpg/sg59_6_cif.got.tgz:11602.got - 2010.06.03 14:40:33.
