data_PCOD9449311
_publ_section_title
;
Structure prediction by ZEFSAII (Michael W. Deem and Ramdas Pophale) SiO2 
 PCOD9449311
Probable space group: P M M N
;
_chemical_formula_sum "Si O2"
_cell_formula_units_Z 56
_cell_length_a 7.485019
_cell_length_b 20.096508
_cell_length_c 18.294180
_cell_angle_alpha 90.000000
_cell_angle_beta 90.000000
_cell_angle_gamma 90.000000
_cell_volume 2751.860759
_symmetry_space_group_name_H-M "P M M N"
_symmetry_group_IT_number 59
_space_group.IT_coordinate_system_code '2'
_symmetry_cell_setting 'orthorhombic'
loop_
_space_group_symop_operation_xyz
x,y,z
1/2-x,1/2-y,z
1/2+x,-y,-z
-x,1/2+y,-z
-x,-y,-z
1/2+x,1/2+y,-z
1/2-x,y,z
x,1/2-y,z
loop_
_atom_site_type_symbol
_atom_site_label
_atom_site_fract_x
_atom_site_fract_y
_atom_site_fract_z
Si Si1 0.462873 0.422839 0.293054
Si Si2 0.967904 0.064651 0.879173
Si Si3 0.031966 0.927801 0.288263
Si Si4 0.960288 0.325102 0.992342
Si Si5 0.965849 0.586931 0.870962
Si Si6 0.536068 0.174801 0.425801
Si Si7 0.032028 0.826864 0.411649
O O1 0.250000 0.428131 0.285429
O O2 0.527487 0.497628 0.308486
O O3 0.527967 0.401557 0.212494
O O4 0.496473 0.373226 0.358984
O O5 0.750000 0.063542 0.881822
O O6 0.019126 0.083090 0.796136
O O7 0.024454 0.988102 0.893373
O O8 0.033893 0.119604 0.936184
O O9 0.250000 0.926348 0.289512
O O10 0.969030 0.874246 0.346903
O O11 0.750000 0.320057 0.975445
O O12 0.034141 0.250000 0.988033
O O13 0.976291 0.357203 0.072408
O O14 0.750000 0.586821 0.871705
O O15 0.750000 0.178583 0.430609
O O16 0.469285 0.250000 0.412893
O O17 0.474190 0.152445 0.506518
O O18 0.250000 0.828479 0.410550
O O19 0.980084 0.750000 0.401063
#
# Coordination Sequence:
#
# PCOD9449311 Si02
#       7
#     8   8   8   8   8   8   8
#     4   9  18  31  47  68  90 114 150 191 224 258
#     4   8  15  29  47  66  90 119 148 180 221 266
#     4   8  14  26  45  68  92 116 145 184 224 260
#     4  10  20  31  45  70  98 117 141 183 228 265
#     4   9  18  33  50  65  86 120 156 184 215 263
#     4   9  18  31  45  64  92 122 150 182 221 265
#     4   8  14  25  42  65  92 121 150 178 215 267
#
# _framework density 20.349868000000001
#
# number of rings (size 3 to 8) (size 9 to 14) (size 15 to 20)
#    0.000    3.286    0.000    3.000    0.000    2.857 
#    0.000    5.714    0.000    0.857    0.000    0.000 
#    0.000    2.286    0.000    0.000    0.000    0.000 
#
# Total GULP energy -312260.358466 kJ/mol
# GULP energy per Si atom -5576.077830 kJ/mol
# Density = 2.030355 g / cm^3
# Si number density = 20.349868 Si / 1000 Ang^3
#
#
#
# Elastic Constant Matrix: (Units=GPa)
#
#
# Indices 1 2 3 4 5 6 
#
# 1 52.3341 -4.0702 -9.3750 0.0000 0.0000 0.0000
# 2 -4.0702 89.8274 64.0678 0.0000 0.0000 0.0000
# 3 -9.3750 64.0678 90.0279 0.0000 0.0000 0.0000
# 4 0.0000 0.0000 0.0000-1005.3548 0.0000 0.0000
# 5 0.0000 0.0000 0.0000 0.0000 23.3273 0.0000
# 6 0.0000 0.0000 0.0000 0.0000 0.0000 10.8576
#
#
#
# Elastic Compliance Matrix: (Units=1/GPa)
#
#
# Indices 1 2 3 4 5 6 
#
# 1 0.019529 -0.001149 0.002851 0.000000 0.000000 0.000000
# 2 -0.001149 0.022675 -0.016256 0.000000 0.000000 0.000000
# 3 0.002851 -0.016256 0.022973 0.000000 0.000000 0.000000
# 4 0.000000 0.000000 0.000000 -0.000995 0.000000 0.000000
# 5 0.000000 0.000000 0.000000 0.000000 0.042868 0.000000
# 6 0.000000 0.000000 0.000000 0.000000 0.000000 0.092101
#
#
# Mechanical properties :
#
#
# Convention : Reuss Voigt Hill
#
# Bulk Modulus (GPa) = 27.72370 37.04829 32.38600
# Shear Modulus (GPa) = 20.80891 -182.12952 -80.66030
#
# Velocity S-wave (km/s) = 3.20121 -9.47066 -6.30260
# Velocity P-wave (km/s) = 5.22655 10.06708 6.08396
#
# Compressibility (1/GPa) = 0.03607022
#
# Stress axis : x y z
#
# Youngs Moduli (GPa) = 51.20484 44.10216 43.52949
#
# Poissons Ratio (x) = 0.05065 -0.12410
# Poissons Ratio (y) = 0.05881 0.70761
# Poissons Ratio (z) = -0.14599 0.71692
#
# Static dielectric constant tensor:
#      x y z
#    x 1.809070 0.000000 0.000000 
#    y 0.000000 1.707670 0.000000 
#    z 0.000000 0.000000 1.711650 
# 
# From -- ./inp_files/26090.got.cif
#   From: 2010.05.17/outbox.cif.g08.bks.cpg/sg59_14_cif.got.tgz:26090.got - 2010.06.03 14:40:33.
