data_PCOD9449562
_publ_section_title
;
Structure prediction by ZEFSAII (Michael W. Deem and Ramdas Pophale) SiO2 
 PCOD9449562
Probable space group: P M M N
;
_chemical_formula_sum "Si O2"
_cell_formula_units_Z 64
_cell_length_a 8.661215
_cell_length_b 15.525570
_cell_length_c 24.255881
_cell_angle_alpha 90.000000
_cell_angle_beta 90.000000
_cell_angle_gamma 90.000000
_cell_volume 3261.695589
_symmetry_space_group_name_H-M "P M M N"
_symmetry_group_IT_number 59
_space_group.IT_coordinate_system_code '2'
_symmetry_cell_setting 'orthorhombic'
loop_
_space_group_symop_operation_xyz
x,y,z
1/2-x,1/2-y,z
1/2+x,-y,-z
-x,1/2+y,-z
-x,-y,-z
1/2+x,1/2+y,-z
1/2-x,y,z
x,1/2-y,z
loop_
_atom_site_type_symbol
_atom_site_label
_atom_site_fract_x
_atom_site_fract_y
_atom_site_fract_z
Si Si1 0.936161 0.478246 0.257693
Si Si2 0.433185 0.850700 0.304000
Si Si3 0.438007 0.346752 0.917215
Si Si4 0.435796 0.151033 0.044248
Si Si5 0.938405 0.149837 0.355026
Si Si6 0.936426 0.477569 0.135097
Si Si7 0.934698 0.089380 0.476834
Si Si8 0.919694 0.849058 0.417000
O O1 0.750000 0.477009 0.259615
O O2 0.990745 0.413452 0.305902
O O3 0.986499 0.450995 0.196433
O O4 0.987999 0.576688 0.267024
O O5 0.250000 0.853861 0.297881
O O6 0.479855 0.750000 0.294256
O O7 0.477734 0.880645 0.366358
O O8 0.250000 0.345052 0.916251
O O9 0.490318 0.250000 0.902373
O O10 0.489080 0.425155 0.879043
O O11 0.483117 0.365342 0.980735
O O12 0.250000 0.144817 0.046004
O O13 0.478244 0.250000 0.057135
O O14 0.505907 0.085639 0.087667
O O15 0.750000 0.149480 0.354707
O O16 0.986000 0.250000 0.348582
O O17 0.985759 0.114007 0.415243
O O18 0.750000 0.477364 0.134245
O O19 0.750000 0.090023 0.477760
O O20 0.000821 0.150416 0.524012
O O21 0.000000 0.000000 0.500000
O O22 0.750000 0.892339 0.418062
O O23 0.898334 0.750000 0.403072
#
# Coordination Sequence:
#
# PCOD9449562 Si02
#       8
#     8   8   8   8   8   8   8   8
#     4  10  21  36  55  80 108 141 183 228 273 320
#     4  10  21  37  57  80 108 144 183 223 270 327
#     4   8  15  30  51  76 108 143 177 215 266 331
#     4   9  18  33  53  75 103 143 183 218 265 325
#     4   9  19  36  55  74 102 143 185 221 262 318
#     4  10  20  32  52  82 109 137 177 227 278 322
#     4  11  21  33  53  78 103 134 174 221 275 333
#     4  10  20  34  53  77 104 131 162 208 267 328
#
# _framework density 19.621696
#
# number of rings (size 3 to 8) (size 9 to 14) (size 15 to 20)
#    0.000    2.375    0.000    3.375    0.000    4.750 
#    0.000    3.125    0.000    3.000    0.000    0.000 
#    0.000    0.000    0.000    0.000    0.000    0.000 
#
# Total GULP energy -356764.349198 kJ/mol
# GULP energy per Si atom -5574.442956 kJ/mol
# Density = 1.957704 g / cm^3
# Si number density = 19.621696 Si / 1000 Ang^3
#
#
#
# Elastic Constant Matrix: (Units=GPa)
#
#
# Indices 1 2 3 4 5 6 
#
# 1 9.2165 7.8333 4.3716 0.0000 0.0000 0.0000
# 2 7.8333 91.6740 39.0879 0.0000 0.0000 0.0000
# 3 4.3716 39.0879 70.5606 0.0000 0.0000 0.0000
# 4 0.0000 0.0000 0.0000 13.7681 0.0000 0.0000
# 5 0.0000 0.0000 0.0000 0.0000 17.7069 0.0000
# 6 0.0000 0.0000 0.0000 0.0000 0.0000 25.7355
#
#
#
# Elastic Compliance Matrix: (Units=1/GPa)
#
#
# Indices 1 2 3 4 5 6 
#
# 1 0.117269 -0.009063 -0.002245 0.000000 0.000000 0.000000
# 2 -0.009063 0.014982 -0.007738 0.000000 0.000000 0.000000
# 3 -0.002245 -0.007738 0.018598 0.000000 0.000000 0.000000
# 4 0.000000 0.000000 0.000000 0.072631 0.000000 0.000000
# 5 0.000000 0.000000 0.000000 0.000000 0.056475 0.000000
# 6 0.000000 0.000000 0.000000 0.000000 0.000000 0.038857
#
#
# Mechanical properties :
#
#
# Convention : Reuss Voigt Hill
#
# Bulk Modulus (GPa) = 8.86862 30.44851 19.65856
# Shear Modulus (GPa) = 12.67460 19.45265 16.06362
#
# Velocity S-wave (km/s) = 2.54431 3.15204 2.86434
# Velocity P-wave (km/s) = 3.62780 5.36643 4.58037
#
# Compressibility (1/GPa) = 0.11275709
#
# Stress axis : x y z
#
# Youngs Moduli (GPa) = 8.52739 66.74715 53.76977
#
# Poissons Ratio (x) = 0.60494 0.12071
# Poissons Ratio (y) = 0.07728 0.41606
# Poissons Ratio (z) = 0.01914 0.51648
#
# Static dielectric constant tensor:
#      x y z
#    x 1.689410 0.000000 0.000000 
#    y 0.000000 1.630790 0.000000 
#    z 0.000000 0.000000 1.670590 
# 
# From -- ./inp_files/31512.got.cif
#   From: 2010.05.17/outbox.cif.g08.bks.cpg/sg59_16_cif.got.tgz:31512.got - 2010.06.03 14:40:33.
