data_PCOD9449647
_publ_section_title
;
Structure prediction by ZEFSAII (Michael W. Deem and Ramdas Pophale) SiO2 
 PCOD9449647
Probable space group: P M M N
;
_chemical_formula_sum "Si O2"
_cell_formula_units_Z 56
_cell_length_a 9.312301
_cell_length_b 14.796675
_cell_length_c 18.992742
_cell_angle_alpha 90.000000
_cell_angle_beta 90.000000
_cell_angle_gamma 90.000000
_cell_volume 2617.030649
_symmetry_space_group_name_H-M "P M M N"
_symmetry_group_IT_number 59
_space_group.IT_coordinate_system_code '2'
_symmetry_cell_setting 'orthorhombic'
loop_
_space_group_symop_operation_xyz
x,y,z
1/2-x,1/2-y,z
1/2+x,-y,-z
-x,1/2+y,-z
-x,-y,-z
1/2+x,1/2+y,-z
1/2-x,y,z
x,1/2-y,z
loop_
_atom_site_type_symbol
_atom_site_label
_atom_site_fract_x
_atom_site_fract_y
_atom_site_fract_z
Si Si1 0.416012 0.387600 0.066369
Si Si2 0.923445 0.852736 0.235831
Si Si3 0.921511 0.569865 0.081911
Si Si4 0.091796 0.646007 0.797049
Si Si5 0.583617 0.639100 0.388060
Si Si6 0.913609 0.638936 0.665492
Si Si7 0.585735 0.139426 0.473512
O O1 0.250000 0.371031 0.084639
O O2 0.460654 0.492668 0.069046
O O3 0.519530 0.351206 0.126643
O O4 0.437867 0.362083 0.984412
O O5 0.750000 0.849426 0.242464
O O6 0.977251 0.750000 0.230764
O O7 0.949962 0.898013 0.160947
O O8 0.972085 0.891518 0.311233
O O9 0.750000 0.542582 0.077385
O O10 0.250000 0.602805 0.798626
O O11 0.109498 0.750000 0.775892
O O12 0.989644 0.606502 0.737193
O O13 0.750000 0.612720 0.397350
O O14 0.581373 0.750000 0.385985
O O15 0.492423 0.609949 0.455127
O O16 0.750000 0.608269 0.661816
O O17 0.909880 0.750000 0.665963
O O18 0.002733 0.611641 0.596904
O O19 0.750000 0.109771 0.471404
O O20 0.584721 0.250000 0.473922
#
# Coordination Sequence:
#
# PCOD9449647 Si02
#       7
#     8   8   8   8   8   8   8
#     4  10  20  33  50  71  95 124 159 198 238 284
#     4   8  14  26  46  71  95 120 155 198 239 278
#     4   9  18  33  52  71  93 124 161 199 237 280
#     4  10  20  33  49  70  97 126 156 194 240 286
#     4   8  13  22  37  58  85 116 150 188 228 269
#     4   9  16  26  41  62  89 120 154 191 230 272
#     4   9  15  22  34  55  86 122 155 185 222 269
#
# _framework density 21.398299000000002
#
# number of rings (size 3 to 8) (size 9 to 14) (size 15 to 20)
#    0.000    3.000    0.000    2.571    0.000    5.429 
#    0.000    2.143    0.000    1.286    0.000    1.000 
#    0.000    0.000    0.000    0.000    0.000    0.000 
#
# Total GULP energy -312119.658442 kJ/mol
# GULP energy per Si atom -5573.565329 kJ/mol
# Density = 2.134960 g / cm^3
# Si number density = 21.398299 Si / 1000 Ang^3
#
#
#
# Elastic Constant Matrix: (Units=GPa)
#
#
# Indices 1 2 3 4 5 6 
#
# 1 127.5124 3.4015 87.9372 0.0000 0.0000 0.0000
# 2 3.4015 21.4524 6.0904 0.0000 0.0000 0.0000
# 3 87.9372 6.0904 201.3460 0.0000 0.0000 0.0000
# 4 0.0000 0.0000 0.0000 64.3574 0.0000 0.0000
# 5 0.0000 0.0000 0.0000 0.0000 26.2080 0.0000
# 6 0.0000 0.0000 0.0000 0.0000 0.0000 2.2018
#
#
#
# Elastic Compliance Matrix: (Units=1/GPa)
#
#
# Indices 1 2 3 4 5 6 
#
# 1 0.011226 -0.000391 -0.004891 0.000000 0.000000 0.000000
# 2 -0.000391 0.047032 -0.001252 0.000000 0.000000 0.000000
# 3 -0.004891 -0.001252 0.007141 0.000000 0.000000 0.000000
# 4 0.000000 0.000000 0.000000 0.015538 0.000000 0.000000
# 5 0.000000 0.000000 0.000000 0.000000 0.038156 0.000000
# 6 0.000000 0.000000 0.000000 0.000000 0.000000 0.454164
#
#
# Mechanical properties :
#
#
# Convention : Reuss Voigt Hill
#
# Bulk Modulus (GPa) = 19.10934 60.57433 39.84183
# Shear Modulus (GPa) = 8.28131 35.41223 21.84677
#
# Velocity S-wave (km/s) = 1.96939 4.07247 3.19871
# Velocity P-wave (km/s) = 3.75779 7.10513 5.68348
#
# Compressibility (1/GPa) = 0.05233044
#
# Stress axis : x y z
#
# Youngs Moduli (GPa) = 89.08031 21.26200 140.04488
#
# Poissons Ratio (x) = 0.00832 0.68496
# Poissons Ratio (y) = 0.03487 0.17530
# Poissons Ratio (z) = 0.43569 0.02661
#
# Static dielectric constant tensor:
#      x y z
#    x 1.735790 0.000000 0.000000 
#    y 0.000000 1.900410 0.000000 
#    z 0.000000 0.000000 1.798210 
# 
# From -- ./inp_files/26001.got.cif
#   From: 2010.05.17/outbox.cif.g08.bks.cpg/sg59_14_cif.got.tgz:26001.got - 2010.06.03 14:40:33.
