data_PCOD9449497
_publ_section_title
;
Structure prediction by ZEFSAII (Michael W. Deem and Ramdas Pophale) SiO2 
 PCOD9449497
Probable space group: P M M N
;
_chemical_formula_sum "Si O2"
_cell_formula_units_Z 56
_cell_length_a 7.690844
_cell_length_b 14.857447
_cell_length_c 24.643566
_cell_angle_alpha 90.000000
_cell_angle_beta 90.000000
_cell_angle_gamma 90.000000
_cell_volume 2815.929281
_symmetry_space_group_name_H-M "P M M N"
_symmetry_group_IT_number 59
_space_group.IT_coordinate_system_code '2'
_symmetry_cell_setting 'orthorhombic'
loop_
_space_group_symop_operation_xyz
x,y,z
1/2-x,1/2-y,z
1/2+x,-y,-z
-x,1/2+y,-z
-x,-y,-z
1/2+x,1/2+y,-z
1/2-x,y,z
x,1/2-y,z
loop_
_atom_site_type_symbol
_atom_site_label
_atom_site_fract_x
_atom_site_fract_y
_atom_site_fract_z
Si Si1 0.039851 0.354406 0.933010
Si Si2 0.959478 0.147939 0.353346
Si Si3 0.453546 0.011319 0.144948
Si Si4 0.043310 0.351518 0.645806
Si Si5 0.037703 0.354390 0.053990
Si Si6 0.542987 0.498007 0.733647
Si Si7 0.959030 0.000428 0.436861
O O1 0.250000 0.359575 0.931503
O O2 0.991678 0.250000 0.926350
O O3 0.967876 0.417137 0.886244
O O4 0.981690 0.383544 0.993525
O O5 0.750000 0.152687 0.356633
O O6 0.026189 0.250000 0.351187
O O7 0.021993 0.089431 0.404966
O O8 0.001846 0.087071 0.301159
O O9 0.250000 0.034667 0.151379
O O10 0.528523 0.005682 0.205355
O O11 0.528436 0.084182 0.102802
O O12 0.250000 0.343732 0.637488
O O13 0.972177 0.250000 0.648940
O O14 0.974076 0.413298 0.596348
O O15 0.019910 0.411562 0.699704
O O16 0.250000 0.358270 0.053590
O O17 0.990160 0.250000 0.061124
O O18 0.750000 0.488750 0.736608
O O19 0.750000 0.999939 0.431620
O O20 0.000000 0.000000 0.500000
#
# Coordination Sequence:
#
# PCOD9449497 Si02
#       7
#     8   8   8   8   8   8   8
#     4   9  18  32  50  71  94 124 163 202 240 290
#     4   9  19  37  57  74  99 138 175 205 243 291
#     4  10  20  32  49  73  99 128 159 198 251 299
#     4   9  19  37  57  73  96 136 177 208 244 291
#     4   8  15  30  50  70  94 125 160 197 241 296
#     4  10  21  34  49  75 105 130 165 212 255 296
#     4   9  18  32  51  78 108 133 162 202 245 292
#
# _framework density 19.886863000000002
#
# number of rings (size 3 to 8) (size 9 to 14) (size 15 to 20)
#    0.000    2.857    0.000    2.571    0.000    6.000 
#    0.000    4.286    0.000    1.286    0.000    0.000 
#    0.000    0.000    0.000    0.000    0.000    0.000 
#
# Total GULP energy -312326.636283 kJ/mol
# GULP energy per Si atom -5577.261362 kJ/mol
# Density = 1.984160 g / cm^3
# Si number density = 19.886863 Si / 1000 Ang^3
#
#
#
# Elastic Constant Matrix: (Units=GPa)
#
#
# Indices 1 2 3 4 5 6 
#
# 1 30.2293 -1.0170 -5.3538 0.0000 0.0000 0.0000
# 2 -1.0170 151.9526 93.5356 0.0000 0.0000 0.0000
# 3 -5.3538 93.5356 195.9539 0.0000 0.0000 0.0000
# 4 0.0000 0.0000 0.0000 1.5765 0.0000 0.0000
# 5 0.0000 0.0000 0.0000 0.0000 8.6122 0.0000
# 6 0.0000 0.0000 0.0000 0.0000 0.0000 12.9537
#
#
#
# Elastic Compliance Matrix: (Units=1/GPa)
#
#
# Indices 1 2 3 4 5 6 
#
# 1 0.033266 -0.000477 0.001137 0.000000 0.000000 0.000000
# 2 -0.000477 0.009326 -0.004465 0.000000 0.000000 0.000000
# 3 0.001137 -0.004465 0.007265 0.000000 0.000000 0.000000
# 4 0.000000 0.000000 0.000000 0.634300 0.000000 0.000000
# 5 0.000000 0.000000 0.000000 0.000000 0.116114 0.000000
# 6 0.000000 0.000000 0.000000 0.000000 0.000000 0.077198
#
#
# Mechanical properties :
#
#
# Convention : Reuss Voigt Hill
#
# Bulk Modulus (GPa) = 23.67030 61.38505 42.52768
# Shear Modulus (GPa) = 5.56073 24.02657 14.79365
#
# Velocity S-wave (km/s) = 1.67399 3.47963 2.73039
# Velocity P-wave (km/s) = 3.95786 6.86134 5.60101
#
# Compressibility (1/GPa) = 0.04224703
#
# Stress axis : x y z
#
# Youngs Moduli (GPa) = 30.06098 107.22611 137.63778
#
# Poissons Ratio (x) = 0.05114 -0.15643
# Poissons Ratio (y) = 0.01434 0.61451
# Poissons Ratio (z) = -0.03417 0.47873
#
# Static dielectric constant tensor:
#      x y z
#    x 1.738440 0.000000 0.000000 
#    y 0.000000 0.757810 0.000000 
#    z 0.000000 0.000000 1.691840 
# 
# From -- ./inp_files/29155.got.cif
#   From: 2010.05.17/outbox.cif.g08.bks.cpg/sg59_15_cif.got.tgz:29155.got - 2010.06.03 14:40:33.
