data_PCOD9449710
_publ_section_title
;
Structure prediction by ZEFSAII (Michael W. Deem and Ramdas Pophale) SiO2 
 PCOD9449710
Probable space group: P M M N
;
_chemical_formula_sum "Si O2"
_cell_formula_units_Z 64
_cell_length_a 14.141452
_cell_length_b 9.005162
_cell_length_c 29.862967
_cell_angle_alpha 90.000000
_cell_angle_beta 90.000000
_cell_angle_gamma 90.000000
_cell_volume 3802.931372
_symmetry_space_group_name_H-M "P M M N"
_symmetry_group_IT_number 59
_space_group.IT_coordinate_system_code '2'
_symmetry_cell_setting 'orthorhombic'
loop_
_space_group_symop_operation_xyz
x,y,z
1/2-x,1/2-y,z
1/2+x,-y,-z
-x,1/2+y,-z
-x,-y,-z
1/2+x,1/2+y,-z
1/2-x,y,z
x,1/2-y,z
loop_
_atom_site_type_symbol
_atom_site_label
_atom_site_fract_x
_atom_site_fract_y
_atom_site_fract_z
Si Si1 0.359837 0.429071 0.615513
Si Si2 0.141139 0.569328 0.157955
Si Si3 0.864411 0.420493 0.575656
Si Si4 0.966632 0.926231 0.658045
Si Si5 0.862803 0.427162 0.740962
Si Si6 0.642878 0.571231 0.016416
Si Si7 0.457447 0.570707 0.067973
Si Si8 0.365346 0.420383 0.514626
O O1 0.250000 0.469690 0.621621
O O2 0.366071 0.250000 0.618020
O O3 0.429960 0.505028 0.649927
O O4 0.390336 0.470965 0.564704
O O5 0.250000 0.523177 0.149791
O O6 0.141360 0.750000 0.158423
O O7 0.113185 0.524573 0.208240
O O8 0.075087 0.521089 0.117142
O O9 0.750000 0.425880 0.576980
O O10 0.894259 0.250000 0.581982
O O11 0.905095 0.517609 0.615770
O O12 0.895179 0.479180 0.526905
O O13 0.970140 0.750000 0.658650
O O14 0.919568 0.988392 0.702984
O O15 0.750000 0.449586 0.735193
O O16 0.879768 0.250000 0.736868
O O17 0.750000 0.528352 0.027721
O O18 0.639688 0.750000 0.011360
O O19 0.564066 0.530474 0.053356
O O20 0.610080 0.497571 0.970001
O O21 0.449578 0.750000 0.066261
O O22 0.250000 0.418224 0.514476
O O23 0.396383 0.250000 0.508023
#
# Coordination Sequence:
#
# PCOD9449710 Si02
#       8
#     8   8   8   8   8   8   8   8
#     4   9  19  37  58  75  93 121 157 196 235 276
#     4   8  14  26  47  72  92 115 154 202 243 276
#     4  10  20  33  50  72  99 131 162 191 227 276
#     4  12  24  34  49  73  99 127 156 191 237 287
#     4   9  18  34  54  73  95 123 155 195 243 291
#     4   9  17  27  39  62  99 135 162 195 240 282
#     4   9  16  27  45  67  91 125 168 205 237 281
#     4   8  15  30  51  73  96 121 151 190 233 274
#
# _framework density 16.829124
#
# number of rings (size 3 to 8) (size 9 to 14) (size 15 to 20)
#    0.000    2.750    0.000    3.750    0.000    4.500 
#    0.000    1.875    0.000    1.500    0.000    3.500 
#    0.000    0.000    0.000    0.000    0.000    0.000 
#
# Total GULP energy -357000.417536 kJ/mol
# GULP energy per Si atom -5578.131524 kJ/mol
# Density = 1.679082 g / cm^3
# Si number density = 16.829124 Si / 1000 Ang^3
#
#
#
# Elastic Constant Matrix: (Units=GPa)
#
#
# Indices 1 2 3 4 5 6 
#
# 1 92.8012 38.5062 72.5993 0.0000 0.0000 0.0000
# 2 38.5062 38.7893 48.4612 0.0000 0.0000 0.0000
# 3 72.5993 48.4612 148.0746 0.0000 0.0000 0.0000
# 4 0.0000 0.0000 0.0000 22.8595 0.0000 0.0000
# 5 0.0000 0.0000 0.0000 0.0000 27.9548 0.0000
# 6 0.0000 0.0000 0.0000 0.0000 0.0000 16.4199
#
#
#
# Elastic Compliance Matrix: (Units=1/GPa)
#
#
# Indices 1 2 3 4 5 6 
#
# 1 0.020954 -0.013476 -0.005863 0.000000 0.000000 0.000000
# 2 -0.013476 0.052280 -0.010503 0.000000 0.000000 0.000000
# 3 -0.005863 -0.010503 0.013065 0.000000 0.000000 0.000000
# 4 0.000000 0.000000 0.000000 0.043746 0.000000 0.000000
# 5 0.000000 0.000000 0.000000 0.000000 0.035772 0.000000
# 6 0.000000 0.000000 0.000000 0.000000 0.000000 0.060902
#
#
# Mechanical properties :
#
#
# Convention : Reuss Voigt Hill
#
# Bulk Modulus (GPa) = 37.57267 66.53318 52.05293
# Shear Modulus (GPa) = 16.93341 21.45338 19.19340
#
# Velocity S-wave (km/s) = 3.17550 3.57428 3.38077
# Velocity P-wave (km/s) = 5.98494 7.52691 6.79977
#
# Compressibility (1/GPa) = 0.02661509
#
# Stress axis : x y z
#
# Youngs Moduli (GPa) = 47.72296 19.12793 76.53877
#
# Poissons Ratio (x) = 0.25777 0.44876
# Poissons Ratio (y) = 0.64312 0.80386
# Poissons Ratio (z) = 0.27981 0.20089
#
# Static dielectric constant tensor:
#      x y z
#    x 1.594460 0.000000 0.000000 
#    y 0.000000 1.561560 0.000000 
#    z 0.000000 0.000000 1.551990 
# 
# From -- ./inp_files/33343.got.cif
#   From: 2010.05.17/outbox.cif.g08.bks.cpg/sg59_17_cif.got.tgz:33343.got - 2010.06.03 14:40:33.
