data_PCOD9449666
_publ_section_title
;
Structure prediction by ZEFSAII (Michael W. Deem and Ramdas Pophale) SiO2 
 PCOD9449666
Probable space group: P M M N
;
_chemical_formula_sum "Si O2"
_cell_formula_units_Z 64
_cell_length_a 24.352682
_cell_length_b 9.050415
_cell_length_c 16.622423
_cell_angle_alpha 90.000000
_cell_angle_beta 90.000000
_cell_angle_gamma 90.000000
_cell_volume 3663.613254
_symmetry_space_group_name_H-M "P M M N"
_symmetry_group_IT_number 59
_space_group.IT_coordinate_system_code '2'
_symmetry_cell_setting 'orthorhombic'
loop_
_space_group_symop_operation_xyz
x,y,z
1/2-x,1/2-y,z
1/2+x,-y,-z
-x,1/2+y,-z
-x,-y,-z
1/2+x,1/2+y,-z
1/2-x,y,z
x,1/2-y,z
loop_
_atom_site_type_symbol
_atom_site_label
_atom_site_fract_x
_atom_site_fract_y
_atom_site_fract_z
Si Si1 0.814899 0.572137 0.349592
Si Si2 0.914919 0.571523 0.778131
Si Si3 0.036359 0.072965 0.394920
Si Si4 0.037106 0.415022 0.060965
Si Si5 0.816014 0.079261 0.177730
Si Si6 0.085761 0.927153 0.552465
Si Si7 0.311046 0.923505 0.147124
Si Si8 0.841458 0.918002 0.013394
O O1 0.750000 0.536387 0.367622
O O2 0.819503 0.750000 0.348991
O O3 0.827428 0.506015 0.260929
O O4 0.860212 0.503223 0.409823
O O5 0.910729 0.750000 0.785362
O O6 0.938694 0.535627 0.691521
O O7 0.954623 0.519500 0.850365
O O8 0.856108 0.503039 0.798350
O O9 0.041812 0.250000 0.408236
O O10 0.971065 0.039889 0.398967
O O11 0.069605 0.988344 0.464372
O O12 0.015101 0.250000 0.070637
O O13 0.096871 0.409599 0.020440
O O14 0.000000 0.500000 0.000000
O O15 0.750000 0.079490 0.168320
O O16 0.834537 0.250000 0.182866
O O17 0.839003 0.998940 0.098789
O O18 0.093384 0.750000 0.551315
O O19 0.250000 0.941770 0.180778
O O20 0.323660 0.750000 0.140882
O O21 0.311920 0.992455 0.057641
O O22 0.820371 0.750000 0.020921
#
# Coordination Sequence:
#
# PCOD9449666 Si02
#       8
#     8   8   8   8   8   8   8   8
#     4  10  21  37  56  79 110 146 181 218 263 318
#     4   9  19  36  55  75 102 136 175 217 261 313
#     4   9  19  37  59  82 108 139 177 220 265 317
#     4   9  19  33  48  70  99 132 170 211 255 303
#     4  10  20  33  50  74 103 134 171 214 257 302
#     4  10  20  35  58  86 112 139 173 217 267 316
#     4  10  20  33  50  74 103 134 172 218 266 314
#     4  10  20  33  49  71  99 133 175 216 255 305
#
# _framework density 17.469093000000001
#
# number of rings (size 3 to 8) (size 9 to 14) (size 15 to 20)
#    0.000    2.375    0.000    3.000    0.000    8.500 
#    0.000    1.875    0.000    0.750    0.000    0.000 
#    0.000    0.000    0.000    0.000    0.000    0.000 
#
# Total GULP energy -356793.898727 kJ/mol
# GULP energy per Si atom -5574.904668 kJ/mol
# Density = 1.742933 g / cm^3
# Si number density = 17.469093 Si / 1000 Ang^3
#
#
#
# Elastic Constant Matrix: (Units=GPa)
#
#
# Indices 1 2 3 4 5 6 
#
# 1 83.6677 50.8238 80.2328 0.0000 0.0000 0.0000
# 2 50.8238 80.0612 65.7643 0.0000 0.0000 0.0000
# 3 80.2328 65.7643 137.5556 0.0000 0.0000 0.0000
# 4 0.0000 0.0000 0.0000 30.3323 0.0000 0.0000
# 5 0.0000 0.0000 0.0000 0.0000 8.8170 0.0000
# 6 0.0000 0.0000 0.0000 0.0000 0.0000 29.0152
#
#
#
# Elastic Compliance Matrix: (Units=1/GPa)
#
#
# Indices 1 2 3 4 5 6 
#
# 1 0.029696 -0.007614 -0.013681 0.000000 0.000000 0.000000
# 2 -0.007614 0.022520 -0.006326 0.000000 0.000000 0.000000
# 3 -0.013681 -0.006326 0.018274 0.000000 0.000000 0.000000
# 4 0.000000 0.000000 0.000000 0.032968 0.000000 0.000000
# 5 0.000000 0.000000 0.000000 0.000000 0.113418 0.000000
# 6 0.000000 0.000000 0.000000 0.000000 0.000000 0.034465
#
#
# Mechanical properties :
#
#
# Convention : Reuss Voigt Hill
#
# Bulk Modulus (GPa) = 65.57732 77.21404 71.39568
# Shear Modulus (GPa) = 16.04288 20.59715 18.32002
#
# Velocity S-wave (km/s) = 3.03373 3.43747 3.24189
# Velocity P-wave (km/s) = 7.06342 7.74928 7.41428
#
# Compressibility (1/GPa) = 0.01524918
#
# Stress axis : x y z
#
# Youngs Moduli (GPa) = 33.67408 44.40557 54.72259
#
# Poissons Ratio (x) = 0.33808 0.74867
# Poissons Ratio (y) = 0.25638 0.34616
# Poissons Ratio (z) = 0.46070 0.28090
#
# Static dielectric constant tensor:
#      x y z
#    x 1.610020 0.000000 0.000000 
#    y 0.000000 1.606110 0.000000 
#    z 0.000000 0.000000 1.571810 
# 
# From -- ./inp_files/24751.got.cif
#   From: 2010.05.17/outbox.cif.g08.bks.cpg/sg59_13_cif.got.tgz:24751.got - 2010.06.03 14:40:33.
