data_PCOD9449393
_publ_section_title
;
Structure prediction by ZEFSAII (Michael W. Deem and Ramdas Pophale) SiO2 
 PCOD9449393
Probable space group: P M M N
;
_chemical_formula_sum "Si O2"
_cell_formula_units_Z 64
_cell_length_a 8.592347
_cell_length_b 17.582150
_cell_length_c 22.126168
_cell_angle_alpha 90.000000
_cell_angle_beta 90.000000
_cell_angle_gamma 90.000000
_cell_volume 3342.642987
_symmetry_space_group_name_H-M "P M M N"
_symmetry_group_IT_number 59
_space_group.IT_coordinate_system_code '2'
_symmetry_cell_setting 'orthorhombic'
loop_
_space_group_symop_operation_xyz
x,y,z
1/2-x,1/2-y,z
1/2+x,-y,-z
-x,1/2+y,-z
-x,-y,-z
1/2+x,1/2+y,-z
1/2-x,y,z
x,1/2-y,z
loop_
_atom_site_type_symbol
_atom_site_label
_atom_site_fract_x
_atom_site_fract_y
_atom_site_fract_z
Si Si1 0.930369 0.334642 0.140313
Si Si2 0.934747 0.402707 0.260952
Si Si3 0.435915 0.935862 0.090022
Si Si4 0.067585 0.403809 0.032840
Si Si5 0.434789 0.334806 0.377343
Si Si6 0.565822 0.929494 0.314549
Si Si7 0.436132 0.988872 0.566832
Si Si8 0.562233 0.162356 0.795219
O O1 0.750000 0.351533 0.124613
O O2 0.934132 0.250000 0.166604
O O3 0.986017 0.390669 0.192603
O O4 0.033284 0.339629 0.081250
O O5 0.750000 0.384807 0.264348
O O6 0.954534 0.489233 0.281437
O O7 0.025326 0.349392 0.307268
O O8 0.250000 0.941540 0.096248
O O9 0.494836 0.894642 0.151010
O O10 0.491954 0.019925 0.068581
O O11 0.480076 0.889435 0.029775
O O12 0.250000 0.413439 0.020389
O O13 0.250000 0.339976 0.386661
O O14 0.486787 0.250000 0.395221
O O15 0.515427 0.404903 0.411059
O O16 0.750000 0.912540 0.317645
O O17 0.487363 0.868310 0.270744
O O18 0.508852 0.948963 0.382809
O O19 0.250000 0.993356 0.566670
O O20 0.500000 0.000000 0.500000
O O21 0.750000 0.161916 0.797874
O O22 0.510635 0.250000 0.804548
#
# Coordination Sequence:
#
# PCOD9449393 Si02
#       8
#     8   8   8   8   8   8   8   8
#     4  10  20  32  47  69 100 137 170 204 254 313
#     4   9  18  33  53  76 103 138 179 217 256 311
#     4   9  19  36  54  72  98 132 171 218 270 321
#     4  10  20  33  51  74  98 129 172 221 270 321
#     4  10  20  33  52  81 114 145 179 221 267 313
#     4   9  19  35  56  82 108 135 169 212 262 311
#     4  10  21  38  60  85 113 147 185 222 265 319
#     4  10  21  36  55  79 105 137 180 225 269 323
#
# _framework density 19.146525
#
# number of rings (size 3 to 8) (size 9 to 14) (size 15 to 20)
#    0.000    2.375    0.000    3.000    0.000    6.500 
#    0.000    1.875    0.000    0.750    0.000    0.000 
#    0.000    0.000    0.000    0.000    0.000    0.000 
#
# Total GULP energy -356708.197602 kJ/mol
# GULP energy per Si atom -5573.565588 kJ/mol
# Density = 1.910295 g / cm^3
# Si number density = 19.146525 Si / 1000 Ang^3
#
#
#
# Elastic Constant Matrix: (Units=GPa)
#
#
# Indices 1 2 3 4 5 6 
#
# 1 6.8378 11.4342 7.4871 0.0000 0.0000 0.0000
# 2 11.4342 55.4856 35.6309 0.0000 0.0000 0.0000
# 3 7.4871 35.6309 124.3049 0.0000 0.0000 0.0000
# 4 0.0000 0.0000 0.0000 15.0414 0.0000 0.0000
# 5 0.0000 0.0000 0.0000 0.0000 30.8869 0.0000
# 6 0.0000 0.0000 0.0000 0.0000 0.0000 22.5936
#
#
#
# Elastic Compliance Matrix: (Units=1/GPa)
#
#
# Indices 1 2 3 4 5 6 
#
# 1 0.223148 -0.045781 -0.000318 0.000000 0.000000 0.000000
# 2 -0.045781 0.031481 -0.006266 0.000000 0.000000 0.000000
# 3 -0.000318 -0.006266 0.009860 0.000000 0.000000 0.000000
# 4 0.000000 0.000000 0.000000 0.066483 0.000000 0.000000
# 5 0.000000 0.000000 0.000000 0.000000 0.032376 0.000000
# 6 0.000000 0.000000 0.000000 0.000000 0.000000 0.044260
#
#
# Mechanical properties :
#
#
# Convention : Reuss Voigt Hill
#
# Bulk Modulus (GPa) = 6.25943 32.85916 19.55930
# Shear Modulus (GPa) = 8.84029 22.50946 15.67487
#
# Velocity S-wave (km/s) = 2.15109 3.43248 2.86436
# Velocity P-wave (km/s) = 3.07342 5.73659 4.60187
#
# Compressibility (1/GPa) = 0.15975891
#
# Stress axis : x y z
#
# Youngs Moduli (GPa) = 4.48133 31.76517 101.41932
#
# Poissons Ratio (x) = 1.45425 0.03223
# Poissons Ratio (y) = 0.20516 0.63552
# Poissons Ratio (z) = 0.00142 0.19905
#
# Static dielectric constant tensor:
#      x y z
#    x 1.664690 0.000000 0.000000 
#    y 0.000000 1.712790 0.000000 
#    z 0.000000 0.000000 1.685570 
# 
# From -- ./inp_files/29614.got.cif
#   From: 2010.05.17/outbox.cif.g08.bks.cpg/sg59_15_cif.got.tgz:29614.got - 2010.06.03 14:40:33.
