data_PCOD9449943
_publ_section_title
;
Structure prediction by ZEFSAII (Michael W. Deem and Ramdas Pophale) SiO2 
 PCOD9449943
Probable space group: P M M N
;
_chemical_formula_sum "Si O2"
_cell_formula_units_Z 64
_cell_length_a 14.741845
_cell_length_b 9.150998
_cell_length_c 26.926367
_cell_angle_alpha 90.000000
_cell_angle_beta 90.000000
_cell_angle_gamma 90.000000
_cell_volume 3632.436758
_symmetry_space_group_name_H-M "P M M N"
_symmetry_group_IT_number 59
_space_group.IT_coordinate_system_code '2'
_symmetry_cell_setting 'orthorhombic'
loop_
_space_group_symop_operation_xyz
x,y,z
1/2-x,1/2-y,z
1/2+x,-y,-z
-x,1/2+y,-z
-x,-y,-z
1/2+x,1/2+y,-z
1/2-x,y,z
x,1/2-y,z
loop_
_atom_site_type_symbol
_atom_site_label
_atom_site_fract_x
_atom_site_fract_y
_atom_site_fract_z
Si Si1 0.006725 0.424825 0.053253
Si Si2 0.644788 0.074202 0.501250
Si Si3 0.141274 0.920465 0.126236
Si Si4 0.856460 0.922564 0.771313
Si Si5 0.006590 0.925286 0.690885
Si Si6 0.144250 0.923928 0.866137
Si Si7 0.358091 0.421853 0.763528
Si Si8 0.989549 0.574197 0.576501
O O1 0.012956 0.250000 0.048175
O O2 0.918973 0.459330 0.087330
O O3 0.091064 0.488122 0.084091
O O4 0.000000 0.500000 0.000000
O O5 0.750000 0.029746 0.496498
O O6 0.642573 0.250000 0.506964
O O7 0.582111 0.038204 0.453462
O O8 0.593352 0.000324 0.547422
O O9 0.250000 0.932764 0.121120
O O10 0.116355 0.750000 0.122984
O O11 0.117476 0.985217 0.180276
O O12 0.750000 0.946933 0.761087
O O13 0.868547 0.750000 0.782800
O O14 0.917926 0.957872 0.724043
O O15 0.019989 0.750000 0.691535
O O16 0.995740 0.970723 0.633825
O O17 0.089115 0.001649 0.719004
O O18 0.250000 0.958015 0.875918
O O19 0.136939 0.750000 0.856906
O O20 0.115378 0.006627 0.816194
O O21 0.250000 0.442896 0.758255
O O22 0.377444 0.250000 0.764403
O O23 0.978137 0.750000 0.574599
#
# Coordination Sequence:
#
# PCOD9449943 Si02
#       8
#     8   8   8   8   8   8   8   8
#     4  11  23  37  55  80 107 136 172 214 263 315
#     4   9  18  34  54  74 100 136 176 218 264 311
#     4  10  21  37  56  77 103 137 176 216 258 307
#     4   9  18  33  52  75 104 136 170 209 255 308
#     4  10  20  33  52  78 107 139 172 210 256 305
#     4   9  19  37  58  77 101 136 175 213 255 307
#     4  10  21  35  52  77 107 138 172 210 254 304
#     4   9  19  34  52  77 105 134 174 218 259 307
#
# _framework density 17.619026999999999
#
# number of rings (size 3 to 8) (size 9 to 14) (size 15 to 20)
#    0.000    2.375    0.000    1.875    0.000    8.250 
#    0.000    3.750    0.000    1.500    0.000    0.000 
#    0.000    0.000    0.000    0.000    0.000    0.000 
#
# Total GULP energy -357226.254466 kJ/mol
# GULP energy per Si atom -5581.660226 kJ/mol
# Density = 1.757893 g / cm^3
# Si number density = 17.619027 Si / 1000 Ang^3
#
#
#
# Elastic Constant Matrix: (Units=GPa)
#
#
# Indices 1 2 3 4 5 6 
#
# 1 92.5408 48.1405 72.1487 0.0000 0.0000 0.0000
# 2 48.1405 44.7078 67.5430 0.0000 0.0000 0.0000
# 3 72.1487 67.5430 178.2715 0.0000 0.0000 0.0000
# 4 0.0000 0.0000 0.0000 30.9708 0.0000 0.0000
# 5 0.0000 0.0000 0.0000 0.0000 -310.2605 0.0000
# 6 0.0000 0.0000 0.0000 0.0000 0.0000 26.6483
#
#
#
# Elastic Compliance Matrix: (Units=1/GPa)
#
#
# Indices 1 2 3 4 5 6 
#
# 1 0.024570 -0.026740 0.000187 0.000000 0.000000 0.000000
# 2 -0.026740 0.081409 -0.020022 0.000000 0.000000 0.000000
# 3 0.000187 -0.020022 0.013120 0.000000 0.000000 0.000000
# 4 0.000000 0.000000 0.000000 0.032288 0.000000 0.000000
# 5 0.000000 0.000000 0.000000 0.000000 -0.003223 0.000000
# 6 0.000000 0.000000 0.000000 0.000000 0.000000 0.037526
#
#
# Mechanical properties :
#
#
# Convention : Reuss Voigt Hill
#
# Bulk Modulus (GPa) = 38.53610 76.79826 57.66718
# Shear Modulus (GPa) = 17.39194 -42.01574 -12.31190
#
# Velocity S-wave (km/s) = 3.14524 -4.88862 -2.64632
# Velocity P-wave (km/s) = 5.92532 3.43775 4.84394
#
# Compressibility (1/GPa) = 0.02594969
#
# Stress axis : x y z
#
# Youngs Moduli (GPa) = 40.69943 12.28365 76.22162
#
# Poissons Ratio (x) = 0.32846 -0.01426
# Poissons Ratio (y) = 1.08829 1.52612
# Poissons Ratio (z) = -0.00761 0.24595
#
# Static dielectric constant tensor:
#      x y z
#    x 1.603700 0.000000 0.000000 
#    y 0.000000 1.589460 0.000000 
#    z 0.000000 0.000000 1.564800 
# 
# From -- ./inp_files/31432.got.cif
#   From: 2010.05.17/outbox.cif.g08.bks.cpg/sg59_16_cif.got.tgz:31432.got - 2010.06.03 14:40:33.
