data_PCOD9449169
_publ_section_title
;
Structure prediction by ZEFSAII (Michael W. Deem and Ramdas Pophale) SiO2 
 PCOD9449169
Probable space group: P M M N
;
_chemical_formula_sum "Si O2"
_cell_formula_units_Z 64
_cell_length_a 14.033948
_cell_length_b 18.534063
_cell_length_c 12.142352
_cell_angle_alpha 90.000000
_cell_angle_beta 90.000000
_cell_angle_gamma 90.000000
_cell_volume 3158.299537
_symmetry_space_group_name_H-M "P M M N"
_symmetry_group_IT_number 59
_space_group.IT_coordinate_system_code '2'
_symmetry_cell_setting 'orthorhombic'
loop_
_space_group_symop_operation_xyz
x,y,z
1/2-x,1/2-y,z
1/2+x,-y,-z
-x,1/2+y,-z
-x,-y,-z
1/2+x,1/2+y,-z
1/2-x,y,z
x,1/2-y,z
loop_
_atom_site_type_symbol
_atom_site_label
_atom_site_fract_x
_atom_site_fract_y
_atom_site_fract_z
Si Si1 0.138594 0.173266 0.954707
Si Si2 0.044498 0.937257 0.859755
Si Si3 0.139046 0.531764 0.085588
Si Si4 0.137304 0.430329 0.773062
Si Si5 0.910492 0.830978 0.791587
Si Si6 0.360010 0.590619 0.327434
Si Si7 0.642457 0.572267 0.595748
Si Si8 0.042762 0.335713 0.587225
O O1 0.250000 0.175390 0.926103
O O2 0.094486 0.250000 0.918888
O O3 0.101607 0.105019 0.888280
O O4 0.130850 0.170026 0.085197
O O5 0.017440 0.860863 0.808063
O O6 0.088396 0.991938 0.770641
O O7 0.110573 0.933870 0.967934
O O8 0.942376 0.971992 0.894022
O O9 0.250000 0.506133 0.079990
O O10 0.132110 0.581669 0.194563
O O11 0.250000 0.440871 0.772833
O O12 0.107072 0.372888 0.682027
O O13 0.905706 0.750000 0.747425
O O14 0.858124 0.885679 0.711317
O O15 0.250000 0.607482 0.352350
O O16 0.381406 0.511062 0.379079
O O17 0.435246 0.646529 0.375472
O O18 0.750000 0.574422 0.548829
O O19 0.571240 0.617413 0.519583
O O20 0.059122 0.250000 0.575183
#
# Coordination Sequence:
#
# PCOD9449169 Si02
#       8
#     8   8   8   8   8   8   8   8
#     4   9  18  31  49  78 114 149 185 232 294 361
#     4  11  21  35  57  90 122 159 204 251 311 369
#     4  10  19  35  62  92 123 158 204 257 305 363
#     4  11  22  37  58  86 120 159 201 248 307 371
#     4  11  22  35  55  83 119 158 201 251 307 365
#     4  10  22  42  68  93 121 161 211 261 301 354
#     4  11  23  41  65  91 122 162 210 259 307 361
#     4  12  25  41  62  92 130 165 202 250 310 373
#
# _framework density 20.264068999999999
#
# number of rings (size 3 to 8) (size 9 to 14) (size 15 to 20)
#    0.000    1.375    2.500    3.750    0.000    4.500 
#    0.000    0.000    0.000    3.000    0.000    0.000 
#    0.000    0.000    0.000    0.000    0.000    0.000 
#
# Total GULP energy -357242.505933 kJ/mol
# GULP energy per Si atom -5581.914155 kJ/mol
# Density = 2.021795 g / cm^3
# Si number density = 20.264069 Si / 1000 Ang^3
#
#
#
# Elastic Constant Matrix: (Units=GPa)
#
#
# Indices 1 2 3 4 5 6 
#
# 1 95.7717 11.2667 16.0787 0.0000 0.0000 0.0000
# 2 11.2667 44.1491 -3.2299 0.0000 0.0000 0.0000
# 3 16.0787 -3.2299 52.9681 0.0000 0.0000 0.0000
# 4 0.0000 0.0000 0.0000 12.4548 0.0000 0.0000
# 5 0.0000 0.0000 0.0000 0.0000 30.4728 0.0000
# 6 0.0000 0.0000 0.0000 0.0000 0.0000 9.8713
#
#
#
# Elastic Compliance Matrix: (Units=1/GPa)
#
#
# Indices 1 2 3 4 5 6 
#
# 1 0.011431 -0.003185 -0.003664 0.000000 0.000000 0.000000
# 2 -0.003185 0.023640 0.002408 0.000000 0.000000 0.000000
# 3 -0.003664 0.002408 0.020138 0.000000 0.000000 0.000000
# 4 0.000000 0.000000 0.000000 0.080290 0.000000 0.000000
# 5 0.000000 0.000000 0.000000 0.000000 0.032816 0.000000
# 6 0.000000 0.000000 0.000000 0.000000 0.000000 0.101304
#
#
# Mechanical properties :
#
#
# Convention : Reuss Voigt Hill
#
# Bulk Modulus (GPa) = 21.58565 26.79108 24.18836
# Shear Modulus (GPa) = 17.01003 21.81135 19.41069
#
# Velocity S-wave (km/s) = 2.90041 3.28435 3.09833
# Velocity P-wave (km/s) = 4.67887 5.25664 4.97615
#
# Compressibility (1/GPa) = 0.04632708
#
# Stress axis : x y z
#
# Youngs Moduli (GPa) = 87.47831 42.30194 49.65625
#
# Poissons Ratio (x) = 0.13475 0.18195
# Poissons Ratio (y) = 0.27865 -0.11959
# Poissons Ratio (z) = 0.32055 -0.10188
#
# Static dielectric constant tensor:
#      x y z
#    x 1.734020 0.000000 0.000000 
#    y 0.000000 1.751820 0.000000 
#    z 0.000000 0.000000 1.776500 
# 
# From -- ./inp_files/17201.got.cif
#   From: 2010.05.17/outbox.cif.g08.bks.cpg/sg59_9_cif.got.tgz:17201.got - 2010.06.03 14:40:33.
