data_PCOD9449476
_publ_section_title
;
Structure prediction by ZEFSAII (Michael W. Deem and Ramdas Pophale) SiO2 
 PCOD9449476
Probable space group: P M M N
;
_chemical_formula_sum "Si O2"
_cell_formula_units_Z 48
_cell_length_a 7.551709
_cell_length_b 9.402422
_cell_length_c 32.024242
_cell_angle_alpha 90.000000
_cell_angle_beta 90.000000
_cell_angle_gamma 90.000000
_cell_volume 2273.860642
_symmetry_space_group_name_H-M "P M M N"
_symmetry_group_IT_number 59
_space_group.IT_coordinate_system_code '2'
_symmetry_cell_setting 'orthorhombic'
loop_
_space_group_symop_operation_xyz
x,y,z
1/2-x,1/2-y,z
1/2+x,-y,-z
-x,1/2+y,-z
-x,-y,-z
1/2+x,1/2+y,-z
1/2-x,y,z
x,1/2-y,z
loop_
_atom_site_type_symbol
_atom_site_label
_atom_site_fract_x
_atom_site_fract_y
_atom_site_fract_z
Si Si1 0.036483 0.914345 0.632892
Si Si2 0.462441 0.087715 0.041825
Si Si3 0.040112 0.910204 0.284914
Si Si4 0.033266 0.086308 0.205307
Si Si5 0.037980 0.589383 0.540948
Si Si6 0.966516 0.085766 0.877096
O O1 0.250000 0.912692 0.632967
O O2 0.978020 0.750000 0.638919
O O3 0.975944 0.962854 0.586605
O O4 0.981840 0.013996 0.670673
O O5 0.250000 0.096274 0.045857
O O6 0.529924 0.250000 0.039869
O O7 0.526824 0.000961 0.082204
O O8 0.500000 0.000000 0.000000
O O9 0.250000 0.898865 0.277441
O O10 0.966908 0.750000 0.284644
O O11 0.971092 0.008723 0.247461
O O12 0.250000 0.088537 0.205553
O O13 0.975548 0.250000 0.203239
O O14 0.979552 0.996039 0.164862
O O15 0.250000 0.596283 0.544010
O O16 0.970487 0.750000 0.535647
O O17 0.000000 0.500000 0.500000
O O18 0.750000 0.087028 0.877505
O O19 0.023687 0.250000 0.877732
#
# Coordination Sequence:
#
# PCOD9449476 Si02
#       6
#     8   8   8   8   8   8
#     4   9  19  36  54  71  96 132 169 202 240 290
#     4  10  20  33  50  73 100 131 168 207 248 297
#     4  10  20  32  48  74 104 130 160 201 246 289
#     4   9  16  27  45  69  97 128 162 201 243 287
#     4   9  19  35  53  74 100 129 163 203 245 290
#     4   9  16  27  45  69  97 128 162 202 247 293
#
# _framework density 21.109472
#
# number of rings (size 3 to 8) (size 9 to 14) (size 15 to 20)
#    0.000    2.667    0.000    3.000    0.000    8.000 
#    0.000    5.000    0.000    1.000    0.000    0.000 
#    0.000    0.000    0.000    0.000    0.000    0.000 
#
# Total GULP energy -267997.897274 kJ/mol
# GULP energy per Si atom -5583.289527 kJ/mol
# Density = 2.106143 g / cm^3
# Si number density = 21.109472 Si / 1000 Ang^3
#
#
#
# Elastic Constant Matrix: (Units=GPa)
#
#
# Indices 1 2 3 4 5 6 
#
# 1 47.5114 6.3766 -0.8689 0.0000 0.0000 0.0000
# 2 6.3766 210.7586 147.3408 0.0000 0.0000 0.0000
# 3 -0.8689 147.3408 234.8537 0.0000 0.0000 0.0000
# 4 0.0000 0.0000 0.0000 42.9695 0.0000 0.0000
# 5 0.0000 0.0000 0.0000 0.0000 18.1446 0.0000
# 6 0.0000 0.0000 0.0000 0.0000 0.0000 11.6906
#
#
#
# Elastic Compliance Matrix: (Units=1/GPa)
#
#
# Indices 1 2 3 4 5 6 
#
# 1 0.021230 -0.001242 0.000858 0.000000 0.000000 0.000000
# 2 -0.001242 0.008524 -0.005352 0.000000 0.000000 0.000000
# 3 0.000858 -0.005352 0.007619 0.000000 0.000000 0.000000
# 4 0.000000 0.000000 0.000000 0.023272 0.000000 0.000000
# 5 0.000000 0.000000 0.000000 0.000000 0.055113 0.000000
# 6 0.000000 0.000000 0.000000 0.000000 0.000000 0.085539
#
#
# Mechanical properties :
#
#
# Convention : Reuss Voigt Hill
#
# Bulk Modulus (GPa) = 38.61018 88.75786 63.68402
# Shear Modulus (GPa) = 22.58316 37.24597 29.91456
#
# Velocity S-wave (km/s) = 3.27435 4.20506 3.76854
# Velocity P-wave (km/s) = 5.71185 8.10644 7.01212
#
# Compressibility (1/GPa) = 0.02589991
#
# Stress axis : x y z
#
# Youngs Moduli (GPa) = 47.10329 117.31254 131.24845
#
# Poissons Ratio (x) = 0.14570 -0.11257
# Poissons Ratio (y) = 0.05850 0.70250
# Poissons Ratio (z) = -0.04040 0.62791
#
# Static dielectric constant tensor:
#      x y z
#    x 1.824070 0.000000 0.000000 
#    y 0.000000 1.731940 0.000000 
#    z 0.000000 0.000000 1.731080 
# 
# From -- ./inp_files/31858.got.cif
#   From: 2010.05.17/outbox.cif.g08.bks.cpg/sg59_16_cif.got.tgz:31858.got - 2010.06.03 14:40:33.
