data_PCOD9449146
_publ_section_title
;
Structure prediction by ZEFSAII (Michael W. Deem and Ramdas Pophale) SiO2 
 PCOD9449146
Probable space group: P M M N
;
_chemical_formula_sum "Si O2"
_cell_formula_units_Z 48
_cell_length_a 8.322559
_cell_length_b 15.613537
_cell_length_c 19.570694
_cell_angle_alpha 90.000000
_cell_angle_beta 90.000000
_cell_angle_gamma 90.000000
_cell_volume 2543.105669
_symmetry_space_group_name_H-M "P M M N"
_symmetry_group_IT_number 59
_space_group.IT_coordinate_system_code '2'
_symmetry_cell_setting 'orthorhombic'
loop_
_space_group_symop_operation_xyz
x,y,z
1/2-x,1/2-y,z
1/2+x,-y,-z
-x,1/2+y,-z
-x,-y,-z
1/2+x,1/2+y,-z
1/2-x,y,z
x,1/2-y,z
loop_
_atom_site_type_symbol
_atom_site_label
_atom_site_fract_x
_atom_site_fract_y
_atom_site_fract_z
Si Si1 0.446164 0.846893 0.326203
Si Si2 0.444148 0.599070 0.173237
Si Si3 0.055685 0.404919 0.176287
Si Si4 0.553457 0.750000 0.920066
Si Si5 0.442207 0.001509 0.422456
Si Si6 0.558075 0.750000 0.076317
Si Si7 0.942538 0.152384 0.326127
O O1 0.250000 0.847452 0.326604
O O2 0.497870 0.750000 0.342019
O O3 0.495855 0.872110 0.249307
O O4 0.501033 0.918627 0.379641
O O5 0.250000 0.600207 0.173065
O O6 0.498176 0.501634 0.160706
O O7 0.502195 0.666612 0.117696
O O8 0.250000 0.405015 0.176336
O O9 0.001426 0.334124 0.121743
O O10 0.001026 0.378215 0.251808
O O11 0.750000 0.750000 0.920203
O O12 0.498440 0.750000 0.998243
O O13 0.250000 0.999030 0.421719
O O14 0.497050 0.086274 0.382705
O O15 0.500000 0.000000 0.500000
O O16 0.750000 0.750000 0.074452
O O17 0.750000 0.151945 0.326547
O O18 0.998306 0.250000 0.337840
#
# Coordination Sequence:
#
# PCOD9449146 Si02
#       7
#     8   8   8   4   8   4   8
#     4   9  17  33  59  85 109 142 189 236 283 341
#     4  10  19  35  60  87 110 146 198 242 284 346
#     4  10  19  36  63  87 110 151 200 243 290 353
#     4   9  20  37  57  83 120 155 192 239 297 356
#     4  11  23  40  61  88 120 158 196 241 295 351
#     4  11  23  37  53  83 122 159 190 237 299 350
#     4  11  23  38  59  89 122 155 195 247 297 349
#
# _framework density 18.874559000000001
#
# number of rings (size 3 to 8) (size 9 to 14) (size 15 to 20)
#    0.000    1.833    3.333    1.250    0.000    3.000 
#    0.000    3.333    0.000    0.000    0.000    0.000 
#    0.000    0.000    0.000    0.000    0.000    0.000 
#
# Total GULP energy -268086.188903 kJ/mol
# GULP energy per Si atom -5585.128935 kJ/mol
# Density = 1.883160 g / cm^3
# Si number density = 18.874559 Si / 1000 Ang^3
#
#
#
# Elastic Constant Matrix: (Units=GPa)
#
#
# Indices 1 2 3 4 5 6 
#
# 1 14.0297 26.8858 18.2827 0.0000 0.0000 0.0000
# 2 26.8858 231.3389 125.4416 0.0000 0.0000 0.0000
# 3 18.2827 125.4416 194.8786 0.0000 0.0000 0.0000
# 4 0.0000 0.0000 0.0000 34.7888 0.0000 0.0000
# 5 0.0000 0.0000 0.0000 0.0000 25.7899 0.0000
# 6 0.0000 0.0000 0.0000 0.0000 0.0000 17.0693
#
#
#
# Elastic Compliance Matrix: (Units=1/GPa)
#
#
# Indices 1 2 3 4 5 6 
#
# 1 0.092619 -0.009298 -0.002704 0.000000 0.000000 0.000000
# 2 -0.009298 0.007574 -0.004003 0.000000 0.000000 0.000000
# 3 -0.002704 -0.004003 0.007962 0.000000 0.000000 0.000000
# 4 0.000000 0.000000 0.000000 0.028745 0.000000 0.000000
# 5 0.000000 0.000000 0.000000 0.000000 0.038775 0.000000
# 6 0.000000 0.000000 0.000000 0.000000 0.000000 0.058585
#
#
# Mechanical properties :
#
#
# Convention : Reuss Voigt Hill
#
# Bulk Modulus (GPa) = 13.13288 86.82973 49.98130
# Shear Modulus (GPa) = 17.14382 33.50540 25.32461
#
# Velocity S-wave (km/s) = 3.01708 4.21784 3.66694
# Velocity P-wave (km/s) = 4.37151 8.35605 6.66835
#
# Compressibility (1/GPa) = 0.07614479
#
# Stress axis : x y z
#
# Youngs Moduli (GPa) = 10.79692 132.03494 125.60077
#
# Poissons Ratio (x) = 1.22761 0.33967
# Poissons Ratio (y) = 0.10039 0.50277
# Poissons Ratio (z) = 0.02920 0.52852
#
# Static dielectric constant tensor:
#      x y z
#    x 1.664850 0.000000 0.000000 
#    y 0.000000 1.654660 0.000000 
#    z 0.000000 0.000000 1.637310 
# 
# From -- ./inp_files/25551.got.cif
#   From: 2010.05.17/outbox.cif.g08.bks.cpg/sg59_13_cif.got.tgz:25551.got - 2010.06.03 14:40:33.
