data_PCOD9449171
_publ_section_title
;
Structure prediction by ZEFSAII (Michael W. Deem and Ramdas Pophale) SiO2 
 PCOD9449171
Probable space group: P M M N
;
_chemical_formula_sum "Si O2"
_cell_formula_units_Z 64
_cell_length_a 17.965762
_cell_length_b 15.752469
_cell_length_c 11.849239
_cell_angle_alpha 90.000000
_cell_angle_beta 90.000000
_cell_angle_gamma 90.000000
_cell_volume 3353.395174
_symmetry_space_group_name_H-M "P M M N"
_symmetry_group_IT_number 59
_space_group.IT_coordinate_system_code '2'
_symmetry_cell_setting 'orthorhombic'
loop_
_space_group_symop_operation_xyz
x,y,z
1/2-x,1/2-y,z
1/2+x,-y,-z
-x,1/2+y,-z
-x,-y,-z
1/2+x,1/2+y,-z
1/2-x,y,z
x,1/2-y,z
loop_
_atom_site_type_symbol
_atom_site_label
_atom_site_fract_x
_atom_site_fract_y
_atom_site_fract_z
Si Si1 0.578516 0.845038 0.509812
Si Si2 0.666512 0.488296 0.485647
Si Si3 0.462722 0.575080 0.679040
Si Si4 0.333943 0.002711 0.033406
Si Si5 0.406440 0.653391 0.909789
Si Si6 0.832977 0.092549 0.734666
Si Si7 0.996288 0.118470 0.721720
Si Si8 0.937601 0.656413 0.041859
O O1 0.605564 0.750000 0.526181
O O2 0.643295 0.913590 0.494520
O O3 0.526506 0.874512 0.612989
O O4 0.527630 0.849975 0.397281
O O5 0.750000 0.477714 0.440348
O O6 0.603900 0.445266 0.408240
O O7 0.664464 0.449317 0.610988
O O8 0.429933 0.625767 0.784327
O O9 0.496367 0.484292 0.717428
O O10 0.250000 0.029210 0.007904
O O11 0.389053 0.078215 0.001241
O O12 0.353659 0.917904 0.963149
O O13 0.338481 0.975904 0.164534
O O14 0.377315 0.750000 0.912695
O O15 0.482082 0.650753 0.982731
O O16 0.750000 0.132883 0.746867
O O17 0.910294 0.143811 0.741889
O O18 0.046845 0.148389 0.825010
O O19 0.905865 0.750000 0.016482
#
# Coordination Sequence:
#
# PCOD9449171 Si02
#       8
#     8   8   8   8   8   8   8   8
#     4  11  22  35  56  88 120 152 194 244 296 351
#     4  10  21  38  60  84 112 154 198 238 292 354
#     4  11  20  37  60  87 113 157 198 241 295 347
#     4  11  23  40  62  87 121 159 192 242 302 353
#     4  11  23  38  62  91 117 153 201 245 294 355
#     4  10  19  35  63  88 110 148 195 239 293 354
#     4  11  18  38  63  83 114 154 204 246 285 342
#     4  11  23  39  63  90 118 157 202 248 292 348
#
# _framework density 19.085135999999999
#
# number of rings (size 3 to 8) (size 9 to 14) (size 15 to 20)
#    0.000    1.250    5.000    2.625    0.000    1.250 
#    0.000    0.000    0.000    7.125    0.000    0.000 
#    0.000    0.000    0.000    0.000    0.000    0.000 
#
# Total GULP energy -357416.563219 kJ/mol
# GULP energy per Si atom -5584.633800 kJ/mol
# Density = 1.904170 g / cm^3
# Si number density = 19.085136 Si / 1000 Ang^3
#
#
#
# Elastic Constant Matrix: (Units=GPa)
#
#
# Indices 1 2 3 4 5 6 
#
# 1 54.6839 -14.1043 -4.1417 0.0000 0.0000 0.0000
# 2 -14.1043 55.1425 1.9128 0.0000 0.0000 0.0000
# 3 -4.1417 1.9128 78.2124 0.0000 0.0000 0.0000
# 4 0.0000 0.0000 0.0000 12.9650 0.0000 0.0000
# 5 0.0000 0.0000 0.0000 0.0000 23.2241 0.0000
# 6 0.0000 0.0000 0.0000 0.0000 0.0000 -1.4157
#
#
#
# Elastic Compliance Matrix: (Units=1/GPa)
#
#
# Indices 1 2 3 4 5 6 
#
# 1 0.019644 0.004993 0.000918 0.000000 0.000000 0.000000
# 2 0.004993 0.019419 -0.000211 0.000000 0.000000 0.000000
# 3 0.000918 -0.000211 0.012839 0.000000 0.000000 0.000000
# 4 0.000000 0.000000 0.000000 0.077130 0.000000 0.000000
# 5 0.000000 0.000000 0.000000 0.000000 0.043059 0.000000
# 6 0.000000 0.000000 0.000000 0.000000 0.000000 -0.706348
#
#
# Mechanical properties :
#
#
# Convention : Reuss Voigt Hill
#
# Bulk Modulus (GPa) = 15.79689 17.26359 16.53024
# Shear Modulus (GPa) = -9.53188 20.57948 5.52380
#
# Velocity S-wave (km/s) = -2.23724 3.28731 1.70311
# Velocity P-wave (km/s) = 1.27333 4.84497 3.54225
#
# Compressibility (1/GPa) = 0.06330359
#
# Stress axis : x y z
#
# Youngs Moduli (GPa) = 50.90554 51.49544 77.88483
#
# Poissons Ratio (x) = -0.25710 -0.07151
# Poissons Ratio (y) = -0.25416 0.01640
# Poissons Ratio (z) = -0.04674 0.01084
#
# Static dielectric constant tensor:
#      x y z
#    x 1.655180 0.000000 0.000000 
#    y 0.000000 1.687800 0.000000 
#    z 0.000000 0.000000 1.651380 
# 
# From -- ./inp_files/17179.got.cif
#   From: 2010.05.17/outbox.cif.g08.bks.cpg/sg59_9_cif.got.tgz:17179.got - 2010.06.03 14:40:33.
