data_PCOD9449814
_publ_section_title
;
Structure prediction by ZEFSAII (Michael W. Deem and Ramdas Pophale) SiO2 
 PCOD9449814
Probable space group: P M M N
;
_chemical_formula_sum "Si O2"
_cell_formula_units_Z 48
_cell_length_a 9.334896
_cell_length_b 15.211479
_cell_length_c 16.284242
_cell_angle_alpha 90.000000
_cell_angle_beta 90.000000
_cell_angle_gamma 90.000000
_cell_volume 2312.322866
_symmetry_space_group_name_H-M "P M M N"
_symmetry_group_IT_number 59
_space_group.IT_coordinate_system_code '2'
_symmetry_cell_setting 'orthorhombic'
loop_
_space_group_symop_operation_xyz
x,y,z
1/2-x,1/2-y,z
1/2+x,-y,-z
-x,1/2+y,-z
-x,-y,-z
1/2+x,1/2+y,-z
1/2-x,y,z
x,1/2-y,z
loop_
_atom_site_type_symbol
_atom_site_label
_atom_site_fract_x
_atom_site_fract_y
_atom_site_fract_z
Si Si1 0.084342 0.644176 0.837903
Si Si2 0.576069 0.595659 0.498661
Si Si3 0.913802 0.387214 0.660655
Si Si4 0.589316 0.901939 0.677312
Si Si5 0.410190 0.145786 0.825052
Si Si6 0.416915 0.857606 0.018492
O O1 0.250000 0.617517 0.833599
O O2 0.079329 0.750000 0.837599
O O3 0.004962 0.613746 0.756747
O O4 0.029203 0.615705 0.927878
O O5 0.500000 0.500000 0.500000
O O6 0.750000 0.588691 0.491578
O O7 0.506408 0.640185 0.418825
O O8 0.543578 0.636082 0.588489
O O9 0.750000 0.355064 0.657243
O O10 0.906226 0.493337 0.662817
O O11 0.993890 0.363525 0.744326
O O12 0.750000 0.870144 0.694297
O O13 0.250000 0.109193 0.813432
O O14 0.396749 0.250000 0.838953
O O15 0.489112 0.109376 0.905671
O O16 0.250000 0.883045 0.027721
O O17 0.417942 0.750000 0.020042
#
# Coordination Sequence:
#
# PCOD9449814 Si02
#       6
#     8   8   8   8   8   8
#     4   9  18  32  51  75 100 128 164 202 240 287
#     4   9  17  31  50  72  98 129 166 204 243 291
#     4  10  20  34  52  74  99 129 166 204 245 294
#     4   9  19  33  50  74 100 127 161 201 243 288
#     4  10  20  33  51  76 101 126 161 203 246 294
#     4   8  15  30  50  70  95 128 163 198 238 286
#
# _framework density 20.758347000000001
#
# number of rings (size 3 to 8) (size 9 to 14) (size 15 to 20)
#    0.000    2.833    0.000    3.500    0.000    6.000 
#    0.000    3.333    0.000    1.000    0.000    0.000 
#    0.000    0.000    0.000    0.000    0.000    0.000 
#
# Total GULP energy -267604.364756 kJ/mol
# GULP energy per Si atom -5575.090932 kJ/mol
# Density = 2.071110 g / cm^3
# Si number density = 20.758347 Si / 1000 Ang^3
#
#
#
# Elastic Constant Matrix: (Units=GPa)
#
#
# Indices 1 2 3 4 5 6 
#
# 1 123.6434 6.3724 109.0124 0.0000 0.0000 0.0000
# 2 6.3724 32.3917 8.7976 0.0000 0.0000 0.0000
# 3 109.0124 8.7976 225.1645 0.0000 0.0000 0.0000
# 4 0.0000 0.0000 0.0000 24.8566 0.0000 0.0000
# 5 0.0000 0.0000 0.0000 0.0000 44.2143 0.0000
# 6 0.0000 0.0000 0.0000 0.0000 0.0000 14.3536
#
#
#
# Elastic Compliance Matrix: (Units=1/GPa)
#
#
# Indices 1 2 3 4 5 6 
#
# 1 0.014139 -0.000932 -0.006809 0.000000 0.000000 0.000000
# 2 -0.000932 0.031265 -0.000770 0.000000 0.000000 0.000000
# 3 -0.006809 -0.000770 0.007768 0.000000 0.000000 0.000000
# 4 0.000000 0.000000 0.000000 0.040231 0.000000 0.000000
# 5 0.000000 0.000000 0.000000 0.000000 0.022617 0.000000
# 6 0.000000 0.000000 0.000000 0.000000 0.000000 0.069669
#
#
# Mechanical properties :
#
#
# Convention : Reuss Voigt Hill
#
# Bulk Modulus (GPa) = 27.66348 69.95160 48.80754
# Shear Modulus (GPa) = 23.28173 33.81938 28.55055
#
# Velocity S-wave (km/s) = 3.35260 4.04071 3.71263
# Velocity P-wave (km/s) = 5.32372 7.45258 6.47622
#
# Compressibility (1/GPa) = 0.03614874
#
# Stress axis : x y z
#
# Youngs Moduli (GPa) = 70.72620 31.98494 128.73660
#
# Poissons Ratio (x) = 0.02982 0.87656
# Poissons Ratio (y) = 0.06593 0.09916
# Poissons Ratio (z) = 0.48157 0.02464
#
# Static dielectric constant tensor:
#      x y z
#    x 1.628380 0.000000 0.000000 
#    y 0.000000 1.812240 0.000000 
#    z 0.000000 0.000000 1.764160 
# 
# From -- ./inp_files/20353.got.cif
#   From: 2010.05.17/outbox.cif.g08.bks.cpg/sg59_11_cif.got.tgz:20353.got - 2010.06.03 14:40:33.
