data_PCOD9449120
_publ_section_title
;
Structure prediction by ZEFSAII (Michael W. Deem and Ramdas Pophale) SiO2 
 PCOD9449120
Probable space group: P M M N
;
_chemical_formula_sum "Si O2"
_cell_formula_units_Z 32
_cell_length_a 9.952200
_cell_length_b 7.458638
_cell_length_c 19.267023
_cell_angle_alpha 90.000000
_cell_angle_beta 90.000000
_cell_angle_gamma 90.000000
_cell_volume 1430.188364
_symmetry_space_group_name_H-M "P M M N"
_symmetry_group_IT_number 59
_space_group.IT_coordinate_system_code '2'
_symmetry_cell_setting 'orthorhombic'
loop_
_space_group_symop_operation_xyz
x,y,z
1/2-x,1/2-y,z
1/2+x,-y,-z
-x,1/2+y,-z
-x,-y,-z
1/2+x,1/2+y,-z
1/2-x,y,z
x,1/2-y,z
loop_
_atom_site_type_symbol
_atom_site_label
_atom_site_fract_x
_atom_site_fract_y
_atom_site_fract_z
Si Si1 0.250000 0.030931 0.950203
Si Si2 0.750000 0.964578 0.891348
Si Si3 0.899857 0.969280 0.315951
Si Si4 0.597062 0.464698 0.564970
Si Si5 0.959608 0.540656 0.161727
O O1 0.250000 0.250000 0.954638
O O2 0.377503 0.970339 0.904529
O O3 0.250000 0.967518 0.029201
O O4 0.750000 0.750000 0.892980
O O5 0.883723 0.023852 0.852545
O O6 0.750000 0.020176 0.340215
O O7 0.904000 0.750000 0.315584
O O8 0.017407 0.031060 0.367023
O O9 0.920423 0.032788 0.236938
O O10 0.500000 0.500000 0.500000
O O11 0.750000 0.533292 0.557306
O O12 0.606862 0.250000 0.571439
O O13 0.923142 0.750000 0.165051
#
# Coordination Sequence:
#
# PCOD9449120 Si02
#       5
#     4   4   8   8   8
#     4   9  18  35  57  81 106 137 184 234 275 321
#     4  11  23  35  49  77 118 149 174 222 281 331
#     4   9  17  32  57  84 107 135 180 234 274 308
#     4  10  21  36  57  86 116 144 177 219 267 320
#     4  10  19  35  59  82 103 139 189 231 269 320
#
# _framework density 22.374676000000001
#
# number of rings (size 3 to 8) (size 9 to 14) (size 15 to 20)
#    0.000    2.250    1.250    1.875    1.750    1.500 
#    0.000    3.125    0.000    1.500    0.000    0.000 
#    0.000    0.000    0.000    0.000    0.000    0.000 
#
# Total GULP energy -178796.244514 kJ/mol
# GULP energy per Si atom -5587.382641 kJ/mol
# Density = 2.232375 g / cm^3
# Si number density = 22.374676 Si / 1000 Ang^3
#
#
#
# Elastic Constant Matrix: (Units=GPa)
#
#
# Indices 1 2 3 4 5 6 
#
# 1 197.7015 -5.6605 62.8224 0.0000 0.0000 0.0000
# 2 -5.6605 67.4865 3.4068 0.0000 0.0000 0.0000
# 3 62.8224 3.4068 110.4064 0.0000 0.0000 0.0000
# 4 0.0000 0.0000 0.0000 11.7501 0.0000 0.0000
# 5 0.0000 0.0000 0.0000 0.0000 47.6033 0.0000
# 6 0.0000 0.0000 0.0000 0.0000 0.0000 -49.6764
#
#
#
# Elastic Compliance Matrix: (Units=1/GPa)
#
#
# Indices 1 2 3 4 5 6 
#
# 1 0.006207 0.000700 -0.003554 0.000000 0.000000 0.000000
# 2 0.000700 0.014920 -0.000859 0.000000 0.000000 0.000000
# 3 -0.003554 -0.000859 0.011106 0.000000 0.000000 0.000000
# 4 0.000000 0.000000 0.000000 0.085106 0.000000 0.000000
# 5 0.000000 0.000000 0.000000 0.000000 0.021007 0.000000
# 6 0.000000 0.000000 0.000000 0.000000 0.000000 -0.020130
#
#
# Mechanical properties :
#
#
# Convention : Reuss Voigt Hill
#
# Bulk Modulus (GPa) = 40.30862 55.19240 47.75051
# Shear Modulus (GPa) = 37.33857 22.93712 30.13785
#
# Velocity S-wave (km/s) = 4.08951 3.20525 3.67408
# Velocity P-wave (km/s) = 6.35242 6.19831 6.27584
#
# Compressibility (1/GPa) = 0.02480859
#
# Stress axis : x y z
#
# Youngs Moduli (GPa) = 161.09793 67.02484 90.04130
#
# Poissons Ratio (x) = -0.04692 0.31998
# Poissons Ratio (y) = -0.11278 0.07732
# Poissons Ratio (z) = 0.57249 0.05755
#
# Static dielectric constant tensor:
#      x y z
#    x 1.786820 0.000000 0.000000 
#    y 0.000000 1.887320 0.000000 
#    z 0.000000 0.000000 1.797310 
# 
# From -- ./inp_files/25239.got.cif
#   From: 2010.05.17/outbox.cif.g08.bks.cpg/sg59_13_cif.got.tgz:25239.got - 2010.06.03 14:40:33.
