data_PCOD9449587
_publ_section_title
;
Structure prediction by ZEFSAII (Michael W. Deem and Ramdas Pophale) SiO2 
 PCOD9449587
Probable space group: P M M N
;
_chemical_formula_sum "Si O2"
_cell_formula_units_Z 64
_cell_length_a 20.590192
_cell_length_b 7.899478
_cell_length_c 18.063051
_cell_angle_alpha 90.000000
_cell_angle_beta 90.000000
_cell_angle_gamma 90.000000
_cell_volume 2937.987194
_symmetry_space_group_name_H-M "P M M N"
_symmetry_group_IT_number 59
_space_group.IT_coordinate_system_code '2'
_symmetry_cell_setting 'orthorhombic'
loop_
_space_group_symop_operation_xyz
x,y,z
1/2-x,1/2-y,z
1/2+x,-y,-z
-x,1/2+y,-z
-x,-y,-z
1/2+x,1/2+y,-z
1/2-x,y,z
x,1/2-y,z
loop_
_atom_site_type_symbol
_atom_site_label
_atom_site_fract_x
_atom_site_fract_y
_atom_site_fract_z
Si Si1 0.534857 0.954903 0.718603
Si Si2 0.324098 0.957269 0.622797
Si Si3 0.851825 0.447944 0.906636
Si Si4 0.459578 0.546311 0.572109
Si Si5 0.997627 0.453124 0.881463
Si Si6 0.827500 0.059101 0.212898
Si Si7 0.872125 0.554525 0.057125
Si Si8 0.319547 0.052621 0.251681
O O1 0.537128 0.750000 0.717790
O O2 0.497312 0.014358 0.645720
O O3 0.610118 0.017891 0.723305
O O4 0.498579 0.005020 0.794382
O O5 0.250000 0.013654 0.606370
O O6 0.321707 0.750000 0.624166
O O7 0.384181 0.011058 0.571656
O O8 0.344585 0.010056 0.706212
O O9 0.848960 0.250000 0.887921
O O10 0.820043 0.540843 0.837787
O O11 0.926600 0.509447 0.906179
O O12 0.831478 0.470081 0.991494
O O13 0.500000 0.500000 0.500000
O O14 0.457645 0.750000 0.577160
O O15 0.000443 0.250000 0.888176
O O16 0.056240 0.524202 0.930071
O O17 0.750000 0.072673 0.216271
O O18 0.854888 0.250000 0.205529
O O19 0.843855 0.958544 0.139451
O O20 0.876408 0.750000 0.036167
O O21 0.250000 0.977939 0.277169
O O22 0.319648 0.250000 0.272929
#
# Coordination Sequence:
#
# PCOD9449587 Si02
#       8
#     8   8   8   8   8   8   8   8
#     4   9  18  33  54  77  99 129 169 209 252 305
#     4   8  15  31  55  78 101 135 177 213 245 292
#     4  10  20  33  48  67  94 128 168 213 257 302
#     4  10  20  34  54  82 113 140 168 205 250 301
#     4   9  19  33  49  71  96 124 162 209 257 302
#     4   9  18  33  52  72  93 122 164 208 246 288
#     4  11  21  31  45  68  99 131 163 204 257 311
#     4   9  18  34  54  73  95 127 168 214 264 314
#
# _framework density 21.783619999999999
#
# number of rings (size 3 to 8) (size 9 to 14) (size 15 to 20)
#    0.000    2.625    0.000    2.625    0.000    4.000 
#    0.000    1.250    0.000    1.875    0.000    0.000 
#    0.000    0.000    0.000    0.000    0.000    0.000 
#
# Total GULP energy -356923.638507 kJ/mol
# GULP energy per Si atom -5576.931852 kJ/mol
# Density = 2.173404 g / cm^3
# Si number density = 21.783620 Si / 1000 Ang^3
#
#
#
# Elastic Constant Matrix: (Units=GPa)
#
#
# Indices 1 2 3 4 5 6 
#
# 1 121.5792 2.8799 49.1038 0.0000 0.0000 0.0000
# 2 2.8799 27.5921 -3.5072 0.0000 0.0000 0.0000
# 3 49.1038 -3.5072 93.4063 0.0000 0.0000 0.0000
# 4 0.0000 0.0000 0.0000 20.8838 0.0000 0.0000
# 5 0.0000 0.0000 0.0000 0.0000 3.3960 0.0000
# 6 0.0000 0.0000 0.0000 0.0000 0.0000 10.5874
#
#
#
# Elastic Compliance Matrix: (Units=1/GPa)
#
#
# Indices 1 2 3 4 5 6 
#
# 1 0.010532 -0.001812 -0.005604 0.000000 0.000000 0.000000
# 2 -0.001812 0.036728 0.002331 0.000000 0.000000 0.000000
# 3 -0.005604 0.002331 0.013740 0.000000 0.000000 0.000000
# 4 0.000000 0.000000 0.000000 0.047884 0.000000 0.000000
# 5 0.000000 0.000000 0.000000 0.000000 0.294460 0.000000
# 6 0.000000 0.000000 0.000000 0.000000 0.000000 0.094452
#
#
# Mechanical properties :
#
#
# Convention : Reuss Voigt Hill
#
# Bulk Modulus (GPa) = 19.67354 37.72561 28.69958
# Shear Modulus (GPa) = 9.52549 19.91353 14.71951
#
# Velocity S-wave (km/s) = 2.09339 3.02677 2.60227
# Velocity P-wave (km/s) = 3.85927 5.43793 4.71514
#
# Compressibility (1/GPa) = 0.05082969
#
# Stress axis : x y z
#
# Youngs Moduli (GPa) = 94.95272 27.22738 72.78161
#
# Poissons Ratio (x) = 0.04933 0.40790
# Poissons Ratio (y) = 0.17202 -0.16968
# Poissons Ratio (z) = 0.53216 -0.06348
#
# Static dielectric constant tensor:
#      x y z
#    x 1.873340 0.000000 0.000000 
#    y 0.000000 1.789730 0.000000 
#    z 0.000000 0.000000 1.794790 
# 
# From -- ./inp_files/28282.got.cif
#   From: 2010.05.17/outbox.cif.g08.bks.cpg/sg59_15_cif.got.tgz:28282.got - 2010.06.03 14:40:33.
