data_PCOD9449424
_publ_section_title
;
Structure prediction by ZEFSAII (Michael W. Deem and Ramdas Pophale) SiO2 
 PCOD9449424
Probable space group: P M M N
;
_chemical_formula_sum "Si O2"
_cell_formula_units_Z 56
_cell_length_a 15.035097
_cell_length_b 9.282654
_cell_length_c 19.215159
_cell_angle_alpha 90.000000
_cell_angle_beta 90.000000
_cell_angle_gamma 90.000000
_cell_volume 2681.775258
_symmetry_space_group_name_H-M "P M M N"
_symmetry_group_IT_number 59
_space_group.IT_coordinate_system_code '2'
_symmetry_cell_setting 'orthorhombic'
loop_
_space_group_symop_operation_xyz
x,y,z
1/2-x,1/2-y,z
1/2+x,-y,-z
-x,1/2+y,-z
-x,-y,-z
1/2+x,1/2+y,-z
1/2-x,y,z
x,1/2-y,z
loop_
_atom_site_type_symbol
_atom_site_label
_atom_site_fract_x
_atom_site_fract_y
_atom_site_fract_z
Si Si1 0.140818 0.417461 0.588717
Si Si2 0.610589 0.914516 0.137788
Si Si3 0.902949 0.424824 0.001931
Si Si4 0.103158 0.911973 0.149140
Si Si5 0.144523 0.910777 0.722461
Si Si6 0.854405 0.574365 0.562964
Si Si7 0.357232 0.085491 0.287572
O O1 0.250000 0.419568 0.587698
O O2 0.115930 0.250000 0.598320
O O3 0.109062 0.512354 0.653212
O O4 0.109436 0.470007 0.512516
O O5 0.642947 0.750000 0.134555
O O6 0.503186 0.908023 0.138590
O O7 0.633816 0.992563 0.209423
O O8 0.640065 0.007415 0.070880
O O9 0.909587 0.250000 0.006886
O O10 0.860696 0.459815 0.926529
O O11 0.000000 0.500000 0.000000
O O12 0.135379 0.750000 0.161892
O O13 0.120518 0.004156 0.217125
O O14 0.250000 0.898020 0.711490
O O15 0.107717 0.750000 0.732700
O O16 0.750000 0.534088 0.561760
O O17 0.857744 0.750000 0.563930
O O18 0.890574 0.524591 0.637878
O O19 0.250000 0.087986 0.292869
O O20 0.388154 0.250000 0.281438
#
# Coordination Sequence:
#
# PCOD9449424 Si02
#       7
#     8   8   8   8   8   8   8
#     4   8  13  24  44  66  89 121 157 190 227 272
#     4  10  20  34  52  72  93 121 160 199 235 281
#     4   9  17  31  50  71  94 121 157 198 237 279
#     4   9  19  33  49  71  96 122 153 191 235 279
#     4  10  20  32  47  71 101 126 151 190 239 286
#     4   7  11  22  41  65  91 119 154 193 228 265
#     4   9  17  29  47  72  99 126 158 194 230 273
#
# _framework density 20.881689999999999
#
# number of rings (size 3 to 8) (size 9 to 14) (size 15 to 20)
#    0.000    3.143    0.000    3.857    0.000    4.571 
#    0.000    1.429    0.000    4.286    0.000    0.000 
#    0.000    0.000    0.000    0.000    0.000    0.000 
#
# Total GULP energy -311986.093836 kJ/mol
# GULP energy per Si atom -5571.180247 kJ/mol
# Density = 2.083416 g / cm^3
# Si number density = 20.881690 Si / 1000 Ang^3
#
#
#
# Elastic Constant Matrix: (Units=GPa)
#
#
# Indices 1 2 3 4 5 6 
#
# 1 43.2331 1.4867 2.4535 0.0000 0.0000 0.0000
# 2 1.4867 102.6398 105.1163 0.0000 0.0000 0.0000
# 3 2.4535 105.1163 259.5873 0.0000 0.0000 0.0000
# 4 0.0000 0.0000 0.0000 25.0479 0.0000 0.0000
# 5 0.0000 0.0000 0.0000 0.0000 23.6635 0.0000
# 6 0.0000 0.0000 0.0000 0.0000 0.0000 11.6036
#
#
#
# Elastic Compliance Matrix: (Units=1/GPa)
#
#
# Indices 1 2 3 4 5 6 
#
# 1 0.023145 -0.000190 -0.000142 0.000000 0.000000 0.000000
# 2 -0.000190 0.016648 -0.006739 0.000000 0.000000 0.000000
# 3 -0.000142 -0.006739 0.006583 0.000000 0.000000 0.000000
# 4 0.000000 0.000000 0.000000 0.039923 0.000000 0.000000
# 5 0.000000 0.000000 0.000000 0.000000 0.042259 0.000000
# 6 0.000000 0.000000 0.000000 0.000000 0.000000 0.086180
#
#
# Mechanical properties :
#
#
# Convention : Reuss Voigt Hill
#
# Bulk Modulus (GPa) = 31.02435 69.28592 50.15513
# Shear Modulus (GPa) = 20.86596 31.82324 26.34460
#
# Velocity S-wave (km/s) = 3.16452 3.90805 3.55577
# Velocity P-wave (km/s) = 5.31429 7.32230 6.39757
#
# Compressibility (1/GPa) = 0.03223275
#
# Stress axis : x y z
#
# Youngs Moduli (GPa) = 43.20585 60.06875 151.91468
#
# Poissons Ratio (x) = 0.01141 0.02154
# Poissons Ratio (y) = 0.00821 1.02382
# Poissons Ratio (z) = 0.00613 0.40483
#
# Static dielectric constant tensor:
#      x y z
#    x 1.831950 0.000000 0.000000 
#    y 0.000000 1.710690 0.000000 
#    z 0.000000 0.000000 1.795080 
# 
# From -- ./inp_files/28078.got.cif
#   From: 2010.05.17/outbox.cif.g08.bks.cpg/sg59_15_cif.got.tgz:28078.got - 2010.06.03 14:40:33.
