data_PCOD9449390
_publ_section_title
;
Structure prediction by ZEFSAII (Michael W. Deem and Ramdas Pophale) SiO2 
 PCOD9449390
Probable space group: P M M N
;
_chemical_formula_sum "Si O2"
_cell_formula_units_Z 64
_cell_length_a 9.088380
_cell_length_b 19.614902
_cell_length_c 22.317064
_cell_angle_alpha 90.000000
_cell_angle_beta 90.000000
_cell_angle_gamma 90.000000
_cell_volume 3978.411292
_symmetry_space_group_name_H-M "P M M N"
_symmetry_group_IT_number 59
_space_group.IT_coordinate_system_code '2'
_symmetry_cell_setting 'orthorhombic'
loop_
_space_group_symop_operation_xyz
x,y,z
1/2-x,1/2-y,z
1/2+x,-y,-z
-x,1/2+y,-z
-x,-y,-z
1/2+x,1/2+y,-z
1/2-x,y,z
x,1/2-y,z
loop_
_atom_site_type_symbol
_atom_site_label
_atom_site_fract_x
_atom_site_fract_y
_atom_site_fract_z
Si Si1 0.425699 0.543227 0.329882
Si Si2 0.076926 0.329122 0.620721
Si Si3 0.426708 0.534008 0.193071
Si Si4 0.922444 0.326989 0.493703
Si Si5 0.918765 0.460961 0.087163
Si Si6 0.575008 0.031745 0.440753
Si Si7 0.927246 0.173413 0.872060
Si Si8 0.081077 0.106725 0.982326
O O1 0.250000 0.540171 0.337312
O O2 0.482219 0.620066 0.339621
O O3 0.464032 0.522276 0.262277
O O4 0.503180 0.499375 0.381559
O O5 0.250000 0.344905 0.624799
O O6 0.054599 0.250000 0.636460
O O7 0.021753 0.337811 0.552317
O O8 0.250000 0.529942 0.186552
O O9 0.500793 0.480116 0.148639
O O10 0.470438 0.610804 0.171689
O O11 0.750000 0.332017 0.512340
O O12 0.947199 0.250000 0.471525
O O13 0.948068 0.387015 0.446788
O O14 0.750000 0.441137 0.096685
O O15 0.918940 0.532704 0.050553
O O16 0.001786 0.406696 0.045411
O O17 0.750000 0.017932 0.441755
O O18 0.500000 0.000000 0.500000
O O19 0.750000 0.171675 0.876655
O O20 0.970389 0.250000 0.852821
O O21 0.995943 0.155989 0.936789
O O22 0.250000 0.127858 0.990007
#
# Coordination Sequence:
#
# PCOD9449390 Si02
#       8
#     8   8   8   8   8   8   8   8
#     4  11  22  34  49  70  98 134 172 208 251 307
#     4  10  20  32  47  68  94 125 162 205 249 294
#     4   9  19  33  47  65  92 128 168 204 240 287
#     4   9  18  33  52  72  93 120 155 195 245 304
#     4   9  16  27  45  67  90 117 151 193 239 279
#     4  11  21  33  52  75 100 127 159 206 260 310
#     4   9  17  30  47  67  94 128 166 204 237 274
#     4   9  16  26  43  67  93 120 151 189 233 279
#
# _framework density 16.086822999999999
#
# number of rings (size 3 to 8) (size 9 to 14) (size 15 to 20)
#    0.000    2.375    1.250    1.875    0.000    6.000 
#    0.000    1.250    0.000    0.000    0.000    0.875 
#    0.000    3.000    0.000    0.000    0.000    0.000 
#
# Total GULP energy -356763.477943 kJ/mol
# GULP energy per Si atom -5574.429343 kJ/mol
# Density = 1.605021 g / cm^3
# Si number density = 16.086823 Si / 1000 Ang^3
#
#
#
# Elastic Constant Matrix: (Units=GPa)
#
#
# Indices 1 2 3 4 5 6 
#
# 1 57.0350 22.0067 52.8579 0.0000 0.0000 0.0000
# 2 22.0067 36.3762 35.3250 0.0000 0.0000 0.0000
# 3 52.8579 35.3250 121.2696 0.0000 0.0000 0.0000
# 4 0.0000 0.0000 0.0000 16.1248 0.0000 0.0000
# 5 0.0000 0.0000 0.0000 0.0000 24.8814 0.0000
# 6 0.0000 0.0000 0.0000 0.0000 0.0000 21.0412
#
#
#
# Elastic Compliance Matrix: (Units=1/GPa)
#
#
# Indices 1 2 3 4 5 6 
#
# 1 0.030940 -0.007839 -0.011202 0.000000 0.000000 0.000000
# 2 -0.007839 0.040321 -0.008328 0.000000 0.000000 0.000000
# 3 -0.011202 -0.008328 0.015555 0.000000 0.000000 0.000000
# 4 0.000000 0.000000 0.000000 0.062016 0.000000 0.000000
# 5 0.000000 0.000000 0.000000 0.000000 0.040191 0.000000
# 6 0.000000 0.000000 0.000000 0.000000 0.000000 0.047526
#
#
# Mechanical properties :
#
#
# Convention : Reuss Voigt Hill
#
# Bulk Modulus (GPa) = 31.17623 48.33998 39.75811
# Shear Modulus (GPa) = 16.55745 19.37556 17.96650
#
# Velocity S-wave (km/s) = 3.21168 3.47426 3.34555
# Velocity P-wave (km/s) = 5.75980 6.79770 6.30016
#
# Compressibility (1/GPa) = 0.03207572
#
# Stress axis : x y z
#
# Youngs Moduli (GPa) = 32.32107 24.80120 64.28906
#
# Poissons Ratio (x) = 0.19442 0.72018
# Poissons Ratio (y) = 0.25337 0.53541
# Poissons Ratio (z) = 0.36207 0.20655
#
# Static dielectric constant tensor:
#      x y z
#    x 1.544400 0.000000 0.000000 
#    y 0.000000 1.550630 0.000000 
#    z 0.000000 0.000000 1.518750 
# 
# From -- ./inp_files/29708.got.cif
#   From: 2010.05.17/outbox.cif.g08.bks.cpg/sg59_15_cif.got.tgz:29708.got - 2010.06.03 14:40:33.
