data_PCOD9449959
_publ_section_title
;
Structure prediction by ZEFSAII (Michael W. Deem and Ramdas Pophale) SiO2 
 PCOD9449959
Probable space group: P M M N
;
_chemical_formula_sum "Si O2"
_cell_formula_units_Z 40
_cell_length_a 12.936521
_cell_length_b 11.324257
_cell_length_c 13.105383
_cell_angle_alpha 90.000000
_cell_angle_beta 90.000000
_cell_angle_gamma 90.000000
_cell_volume 1919.892590
_symmetry_space_group_name_H-M "P M M N"
_symmetry_group_IT_number 59
_space_group.IT_coordinate_system_code '2'
_symmetry_cell_setting 'orthorhombic'
loop_
_space_group_symop_operation_xyz
x,y,z
1/2-x,1/2-y,z
1/2+x,-y,-z
-x,1/2+y,-z
-x,-y,-z
1/2+x,1/2+y,-z
1/2-x,y,z
x,1/2-y,z
loop_
_atom_site_type_symbol
_atom_site_label
_atom_site_fract_x
_atom_site_fract_y
_atom_site_fract_z
Si Si1 0.092080 0.882585 0.086304
Si Si2 0.410623 0.620087 0.709284
Si Si3 0.425167 0.886562 0.484405
Si Si4 0.362616 0.457537 0.894906
Si Si5 0.637671 0.977166 0.708971
O O1 0.129109 0.750000 0.095380
O O2 0.128708 0.960406 0.181523
O O3 0.127822 0.942413 0.981827
O O4 0.966619 0.883411 0.089688
O O5 0.387653 0.750000 0.751139
O O6 0.368923 0.613251 0.593967
O O7 0.371487 0.519992 0.784805
O O8 0.535701 0.604100 0.700949
O O9 0.465291 0.750000 0.473718
O O10 0.369518 0.923692 0.380068
O O11 0.500000 0.000000 0.500000
O O12 0.250000 0.399789 0.904376
O O13 0.750000 0.917889 0.699687
#
# Coordination Sequence:
#
# PCOD9449959 Si02
#       5
#     8   8   8   8   8
#     4  10  21  36  53  75 104 135 169 212 260 312
#     4   9  19  35  53  76 107 140 175 216 261 312
#     4   9  18  33  52  74 103 138 176 220 267 314
#     4  10  21  36  54  77 103 133 172 215 260 311
#     4  10  20  33  52  79 108 139 176 217 262 312
#
# _framework density 20.834498
#
# number of rings (size 3 to 8) (size 9 to 14) (size 15 to 20)
#    0.000    2.400    0.000    1.800    0.000    5.600 
#    0.000    2.000    0.000    7.200    0.000   11.200 
#    0.000    0.000    0.000    0.000    0.000    0.000 
#
# Total GULP energy -222829.499238 kJ/mol
# GULP energy per Si atom -5570.737481 kJ/mol
# Density = 2.078708 g / cm^3
# Si number density = 20.834498 Si / 1000 Ang^3
#
#
#
# Elastic Constant Matrix: (Units=GPa)
#
#
# Indices 1 2 3 4 5 6 
#
# 1 143.9717 6.7514 -4.7677 0.0000 0.0000 0.0000
# 2 6.7514 72.0118 -2.8780 0.0000 0.0000 0.0000
# 3 -4.7677 -2.8780 89.7153 0.0000 0.0000 0.0000
# 4 0.0000 0.0000 0.0000 11.2698 0.0000 0.0000
# 5 0.0000 0.0000 0.0000 0.0000 -25.6451 0.0000
# 6 0.0000 0.0000 0.0000 0.0000 0.0000 -9.4998
#
#
#
# Elastic Compliance Matrix: (Units=1/GPa)
#
#
# Indices 1 2 3 4 5 6 
#
# 1 0.006987 -0.000641 0.000351 0.000000 0.000000 0.000000
# 2 -0.000641 0.013963 0.000414 0.000000 0.000000 0.000000
# 3 0.000351 0.000414 0.011178 0.000000 0.000000 0.000000
# 4 0.000000 0.000000 0.000000 0.088733 0.000000 0.000000
# 5 0.000000 0.000000 0.000000 0.000000 -0.038994 0.000000
# 6 0.000000 0.000000 0.000000 0.000000 0.000000 -0.105265
#
#
# Mechanical properties :
#
#
# Convention : Reuss Voigt Hill
#
# Bulk Modulus (GPa) = 30.88697 33.76780 32.32739
# Shear Modulus (GPa) = -389.03928 15.66452 -186.68738
#
# Velocity S-wave (km/s) = -13.67969 2.74497 -9.47626
# Velocity P-wave (km/s) = 15.31844 5.12731 10.20699
#
# Compressibility (1/GPa) = 0.03237611
#
# Stress axis : x y z
#
# Youngs Moduli (GPa) = 143.11299 71.61658 89.45910
#
# Poissons Ratio (x) = 0.04591 -0.03138
# Poissons Ratio (y) = 0.09175 -0.03702
# Poissons Ratio (z) = -0.05020 -0.02964
#
# Static dielectric constant tensor:
#      x y z
#    x 1.748160 0.000000 0.000000 
#    y 0.000000 1.702850 0.000000 
#    z 0.000000 0.000000 1.725160 
# 
# From -- ./inp_files/15530.got.cif
#   From: 2010.05.17/outbox.cif.g08.bks.cpg/sg59_8_cif.got.tgz:15530.got - 2010.06.03 14:40:33.
