data_PCOD9449369
_publ_section_title
;
Structure prediction by ZEFSAII (Michael W. Deem and Ramdas Pophale) SiO2 
 PCOD9449369
Probable space group: P M M N
;
_chemical_formula_sum "Si O2"
_cell_formula_units_Z 40
_cell_length_a 15.585060
_cell_length_b 26.902036
_cell_length_c 5.231638
_cell_angle_alpha 90.000000
_cell_angle_beta 90.000000
_cell_angle_gamma 90.000000
_cell_volume 2193.468054
_symmetry_space_group_name_H-M "P M M N"
_symmetry_group_IT_number 59
_space_group.IT_coordinate_system_code '2'
_symmetry_cell_setting 'orthorhombic'
loop_
_space_group_symop_operation_xyz
x,y,z
1/2-x,1/2-y,z
1/2+x,-y,-z
-x,1/2+y,-z
-x,-y,-z
1/2+x,1/2+y,-z
1/2-x,y,z
x,1/2-y,z
loop_
_atom_site_type_symbol
_atom_site_label
_atom_site_fract_x
_atom_site_fract_y
_atom_site_fract_z
Si Si1 0.852903 0.868372 0.649135
Si Si2 0.657069 0.443834 0.574439
Si Si3 0.025567 0.444775 0.595424
Si Si4 0.853521 0.806376 0.142659
Si Si5 0.157371 0.012943 0.928179
O O1 0.750000 0.877912 0.650530
O O2 0.871882 0.830987 0.414845
O O3 0.906187 0.917473 0.583658
O O4 0.879788 0.841898 0.910648
O O5 0.750000 0.417662 0.595884
O O6 0.658288 0.472800 0.303697
O O7 0.565615 0.416638 0.600583
O O8 0.654424 0.483232 0.808572
O O9 0.000000 0.500000 0.500000
O O10 0.076056 0.453194 0.860959
O O11 0.750000 0.803662 0.123546
O O12 0.886311 0.750000 0.120944
O O13 0.250000 0.040120 0.914086
#
# Coordination Sequence:
#
# PCOD9449369 Si02
#       5
#     8   8   8   8   8
#     4  10  20  32  50  76 102 132 169 201 240 299
#     4   9  18  30  43  58  81 120 163 196 228 266
#     4  10  20  32  46  67  99 134 166 202 240 282
#     4   9  18  34  54  75 101 129 158 202 256 304
#     4   9  17  29  43  59  82 118 160 195 230 271
#
# _framework density 18.235961
#
# number of rings (size 3 to 8) (size 9 to 14) (size 15 to 20)
#    0.000    2.600    0.000    1.800    0.000    9.600 
#    0.000   10.000    0.000    0.000    0.000    0.000 
#    0.000    4.800    0.000    0.000    0.000    0.000 
#
# Total GULP energy -222982.356751 kJ/mol
# GULP energy per Si atom -5574.558919 kJ/mol
# Density = 1.819446 g / cm^3
# Si number density = 18.235961 Si / 1000 Ang^3
#
#
#
# Elastic Constant Matrix: (Units=GPa)
#
#
# Indices 1 2 3 4 5 6 
#
# 1 108.2276 9.8159 0.7346 0.0000 0.0000 0.0000
# 2 9.8159 67.1990 19.7616 0.0000 0.0000 0.0000
# 3 0.7346 19.7616 92.7677 0.0000 0.0000 0.0000
# 4 0.0000 0.0000 0.0000 15.9301 0.0000 0.0000
# 5 0.0000 0.0000 0.0000 0.0000 -1.5855 0.0000
# 6 0.0000 0.0000 0.0000 0.0000 0.0000 16.1983
#
#
#
# Elastic Compliance Matrix: (Units=1/GPa)
#
#
# Indices 1 2 3 4 5 6 
#
# 1 0.009369 -0.001437 0.000232 0.000000 0.000000 0.000000
# 2 -0.001437 0.016096 -0.003417 0.000000 0.000000 0.000000
# 3 0.000232 -0.003417 0.011506 0.000000 0.000000 0.000000
# 4 0.000000 0.000000 0.000000 0.062774 0.000000 0.000000
# 5 0.000000 0.000000 0.000000 0.000000 -0.630726 0.000000
# 6 0.000000 0.000000 0.000000 0.000000 0.000000 0.061735
#
#
# Mechanical properties :
#
#
# Convention : Reuss Voigt Hill
#
# Bulk Modulus (GPa) = 36.06746 36.53537 36.30141
# Shear Modulus (GPa) = -11.09239 21.96739 5.43750
#
# Velocity S-wave (km/s) = -2.46899 3.47453 1.72865
# Velocity P-wave (km/s) = 3.41954 6.01454 4.89224
#
# Compressibility (1/GPa) = 0.02772583
#
# Stress axis : x y z
#
# Youngs Moduli (GPa) = 106.74046 62.12713 86.91288
#
# Poissons Ratio (x) = 0.08926 -0.02015
# Poissons Ratio (y) = 0.15335 0.29702
# Poissons Ratio (z) = -0.02475 0.21232
#
# Static dielectric constant tensor:
#      x y z
#    x 1.743880 0.000000 0.000000 
#    y 0.000000 1.622420 0.000000 
#    z 0.000000 0.000000 1.667680 
# 
# From -- ./inp_files/2068.got.cif
#   From: 2010.05.17/outbox.cif.g08.bks.cpg/sg59_2_cif.got.tgz:2068.got - 2010.06.03 14:40:33.
