data_PCOD9449677
_publ_section_title
;
Structure prediction by ZEFSAII (Michael W. Deem and Ramdas Pophale) SiO2 
 PCOD9449677
Probable space group: P M M N
;
_chemical_formula_sum "Si O2"
_cell_formula_units_Z 48
_cell_length_a 26.235785
_cell_length_b 8.235929
_cell_length_c 12.191578
_cell_angle_alpha 90.000000
_cell_angle_beta 90.000000
_cell_angle_gamma 90.000000
_cell_volume 2634.308170
_symmetry_space_group_name_H-M "P M M N"
_symmetry_group_IT_number 59
_space_group.IT_coordinate_system_code '2'
_symmetry_cell_setting 'orthorhombic'
loop_
_space_group_symop_operation_xyz
x,y,z
1/2-x,1/2-y,z
1/2+x,-y,-z
-x,1/2+y,-z
-x,-y,-z
1/2+x,1/2+y,-z
1/2-x,y,z
x,1/2-y,z
loop_
_atom_site_type_symbol
_atom_site_label
_atom_site_fract_x
_atom_site_fract_y
_atom_site_fract_z
Si Si1 0.597040 0.556334 0.767290
Si Si2 0.558736 0.056178 0.000655
Si Si3 0.808180 0.445914 0.628763
Si Si4 0.998977 0.554083 0.625157
Si Si5 0.902623 0.448636 0.235142
Si Si6 0.808076 0.448132 0.378279
O O1 0.593957 0.750000 0.769050
O O2 0.586650 0.496246 0.889845
O O3 0.650461 0.506307 0.714491
O O4 0.551187 0.494541 0.689108
O O5 0.558092 0.250000 0.005309
O O6 0.586681 0.996544 0.111166
O O7 0.500000 0.000000 0.000000
O O8 0.750000 0.498104 0.651974
O O9 0.808766 0.250000 0.629783
O O10 0.820858 0.497354 0.503521
O O11 0.998422 0.750000 0.627444
O O12 0.000000 0.500000 0.500000
O O13 0.049478 0.501131 0.690104
O O14 0.901742 0.250000 0.234502
O O15 0.850361 0.503562 0.292065
O O16 0.750000 0.499205 0.354307
O O17 0.808266 0.250000 0.377614
#
# Coordination Sequence:
#
# PCOD9449677 Si02
#       6
#     8   8   8   8   8   8
#     4  11  22  36  53  77 108 142 182 223 270 327
#     4  11  21  36  55  75 104 145 185 226 273 322
#     4   9  18  34  57  83 108 138 177 217 263 323
#     4  10  20  33  49  74 105 136 172 218 271 326
#     4   9  17  31  49  71 104 137 172 218 265 312
#     4   8  14  27  51  80 106 133 167 212 267 320
#
# _framework density 18.221101999999998
#
# number of rings (size 3 to 8) (size 9 to 14) (size 15 to 20)
#    0.000    2.333    1.667    3.000    0.000    3.000 
#    0.000    0.833    0.000    4.000    0.000    0.000 
#    0.000    0.000    0.000    0.000    0.000    0.000 
#
# Total GULP energy -267856.511811 kJ/mol
# GULP energy per Si atom -5580.343996 kJ/mol
# Density = 1.817963 g / cm^3
# Si number density = 18.221102 Si / 1000 Ang^3
#
#
#
# Elastic Constant Matrix: (Units=GPa)
#
#
# Indices 1 2 3 4 5 6 
#
# 1 153.7825 20.2713 122.9460 0.0000 0.0000 0.0000
# 2 20.2713 15.4609 20.8469 0.0000 0.0000 0.0000
# 3 122.9460 20.8469 202.3266 0.0000 0.0000 0.0000
# 4 0.0000 0.0000 0.0000 21.1755 0.0000 0.0000
# 5 0.0000 0.0000 0.0000 0.0000 23.6371 0.0000
# 6 0.0000 0.0000 0.0000 0.0000 0.0000 19.8234
#
#
#
# Elastic Compliance Matrix: (Units=1/GPa)
#
#
# Indices 1 2 3 4 5 6 
#
# 1 0.013381 -0.007643 -0.007344 0.000000 0.000000 0.000000
# 2 -0.007643 0.079480 -0.003545 0.000000 0.000000 0.000000
# 3 -0.007344 -0.003545 0.009770 0.000000 0.000000 0.000000
# 4 0.000000 0.000000 0.000000 0.047224 0.000000 0.000000
# 5 0.000000 0.000000 0.000000 0.000000 0.042306 0.000000
# 6 0.000000 0.000000 0.000000 0.000000 0.000000 0.050445
#
#
# Mechanical properties :
#
#
# Convention : Reuss Voigt Hill
#
# Bulk Modulus (GPa) = 15.25130 77.74425 46.49777
# Shear Modulus (GPa) = 16.58228 26.76094 21.67161
#
# Velocity S-wave (km/s) = 3.01999 3.83649 3.45246
# Velocity P-wave (km/s) = 4.53307 7.89840 6.43947
#
# Compressibility (1/GPa) = 0.06556818
#
# Stress axis : x y z
#
# Youngs Moduli (GPa) = 74.73053 12.58185 102.35008
#
# Poissons Ratio (x) = 0.09616 0.75165
# Poissons Ratio (y) = 0.57113 0.36285
# Poissons Ratio (z) = 0.54881 0.04460
#
# Static dielectric constant tensor:
#      x y z
#    x 1.611260 0.000000 0.000000 
#    y 0.000000 1.646930 0.000000 
#    z 0.000000 0.000000 1.587800 
# 
# From -- ./inp_files/14293.got.cif
#   From: 2010.05.17/outbox.cif.g08.bks.cpg/sg59_8_cif.got.tgz:14293.got - 2010.06.03 14:40:33.
