data_PCOD9449365
_publ_section_title
;
Structure prediction by ZEFSAII (Michael W. Deem and Ramdas Pophale) SiO2 
 PCOD9449365
Probable space group: P M M N
;
_chemical_formula_sum "Si O2"
_cell_formula_units_Z 64
_cell_length_a 15.000453
_cell_length_b 9.406764
_cell_length_c 21.963792
_cell_angle_alpha 90.000000
_cell_angle_beta 90.000000
_cell_angle_gamma 90.000000
_cell_volume 3099.216712
_symmetry_space_group_name_H-M "P M M N"
_symmetry_group_IT_number 59
_space_group.IT_coordinate_system_code '2'
_symmetry_cell_setting 'orthorhombic'
loop_
_space_group_symop_operation_xyz
x,y,z
1/2-x,1/2-y,z
1/2+x,-y,-z
-x,1/2+y,-z
-x,-y,-z
1/2+x,1/2+y,-z
1/2-x,y,z
x,1/2-y,z
loop_
_atom_site_type_symbol
_atom_site_label
_atom_site_fract_x
_atom_site_fract_y
_atom_site_fract_z
Si Si1 0.356913 0.587843 0.126706
Si Si2 0.356353 0.408295 0.877125
Si Si3 0.102672 0.088770 0.246472
Si Si4 0.358875 0.914666 0.991980
Si Si5 0.406479 0.578872 0.627847
Si Si6 0.096390 0.579614 0.364038
Si Si7 0.388530 0.590739 0.758174
Si Si8 0.594365 0.080668 0.503925
O O1 0.250000 0.594646 0.123565
O O2 0.388777 0.750000 0.136714
O O3 0.378787 0.488482 0.183038
O O4 0.386906 0.537345 0.059643
O O5 0.250000 0.398828 0.885686
O O6 0.393853 0.250000 0.875002
O O7 0.369480 0.487399 0.813480
O O8 0.391888 0.494157 0.935205
O O9 0.136702 0.250000 0.247673
O O10 0.995299 0.095128 0.249788
O O11 0.135003 0.999154 0.304923
O O12 0.250000 0.918237 0.990738
O O13 0.384523 0.750000 0.984862
O O14 0.428715 0.750000 0.629967
O O15 0.495394 0.481886 0.629920
O O16 0.355127 0.550048 0.690716
O O17 0.361595 0.553895 0.562017
O O18 0.097183 0.750000 0.354757
O O19 0.137667 0.545631 0.430728
O O20 0.357382 0.750000 0.773484
O O21 0.577598 0.250000 0.506964
O O22 0.500000 0.000000 0.500000
#
# Coordination Sequence:
#
# PCOD9449365 Si02
#       8
#     8   8   8   8   8   8   8   8
#     4   9  18  33  53  75  95 117 149 187 226 270
#     4  10  20  32  48  71  94 116 148 190 230 269
#     4  10  20  32  46  67  96 127 156 187 225 269
#     4   8  15  30  51  71  91 116 146 182 224 269
#     4   8  14  25  39  58  86 116 148 188 228 267
#     4   9  15  23  38  60  86 118 152 185 226 272
#     4   9  18  31  46  65  92 126 157 185 223 271
#     4   8  13  21  35  56  82 112 146 185 226 266
#
# _framework density 20.650379999999998
#
# number of rings (size 3 to 8) (size 9 to 14) (size 15 to 20)
#    0.000    3.125    0.000    2.625    0.000    4.500 
#    0.000    1.875    0.000    0.000    0.000    0.875 
#    0.000    3.000    0.000    0.000    0.000    0.000 
#
# Total GULP energy -356465.316378 kJ/mol
# GULP energy per Si atom -5569.770568 kJ/mol
# Density = 2.060338 g / cm^3
# Si number density = 20.650380 Si / 1000 Ang^3
#
#
#
# Elastic Constant Matrix: (Units=GPa)
#
#
# Indices 1 2 3 4 5 6 
#
# 1 44.6299 5.2827 6.8230 0.0000 0.0000 0.0000
# 2 5.2827 103.6469 119.3334 0.0000 0.0000 0.0000
# 3 6.8230 119.3334 262.1493 0.0000 0.0000 0.0000
# 4 0.0000 0.0000 0.0000 28.7100 0.0000 0.0000
# 5 0.0000 0.0000 0.0000 0.0000 22.6220 0.0000
# 6 0.0000 0.0000 0.0000 0.0000 0.0000 8.3342
#
#
#
# Elastic Compliance Matrix: (Units=1/GPa)
#
#
# Indices 1 2 3 4 5 6 
#
# 1 0.022545 -0.000995 -0.000134 0.000000 0.000000 0.000000
# 2 -0.000995 0.020318 -0.009223 0.000000 0.000000 0.000000
# 3 -0.000134 -0.009223 0.008016 0.000000 0.000000 0.000000
# 4 0.000000 0.000000 0.000000 0.034831 0.000000 0.000000
# 5 0.000000 0.000000 0.000000 0.000000 0.044205 0.000000
# 6 0.000000 0.000000 0.000000 0.000000 0.000000 0.119987
#
#
# Mechanical properties :
#
#
# Convention : Reuss Voigt Hill
#
# Bulk Modulus (GPa) = 33.13959 74.81160 53.97559
# Shear Modulus (GPa) = 17.81490 30.53238 24.17364
#
# Velocity S-wave (km/s) = 2.94035 3.84935 3.42514
# Velocity P-wave (km/s) = 5.25455 7.48752 6.46813
#
# Compressibility (1/GPa) = 0.03017539
#
# Stress axis : x y z
#
# Youngs Moduli (GPa) = 44.35622 49.21831 124.74290
#
# Poissons Ratio (x) = 0.04897 0.01670
# Poissons Ratio (y) = 0.04413 1.15050
# Poissons Ratio (z) = 0.00594 0.45394
#
# Static dielectric constant tensor:
#      x y z
#    x 1.794710 0.000000 0.000000 
#    y 0.000000 1.708360 0.000000 
#    z 0.000000 0.000000 1.798640 
# 
# From -- ./inp_files/31082.got.cif
#   From: 2010.05.17/outbox.cif.g08.bks.cpg/sg59_16_cif.got.tgz:31082.got - 2010.06.03 14:40:33.
