data_PCOD9449961
_publ_section_title
;
Structure prediction by ZEFSAII (Michael W. Deem and Ramdas Pophale) SiO2 
 PCOD9449961
Probable space group: P M M N
;
_chemical_formula_sum "Si O2"
_cell_formula_units_Z 48
_cell_length_a 8.961453
_cell_length_b 10.190590
_cell_length_c 29.920712
_cell_angle_alpha 90.000000
_cell_angle_beta 90.000000
_cell_angle_gamma 90.000000
_cell_volume 2732.434022
_symmetry_space_group_name_H-M "P M M N"
_symmetry_group_IT_number 59
_space_group.IT_coordinate_system_code '2'
_symmetry_cell_setting 'orthorhombic'
loop_
_space_group_symop_operation_xyz
x,y,z
1/2-x,1/2-y,z
1/2+x,-y,-z
-x,1/2+y,-z
-x,-y,-z
1/2+x,1/2+y,-z
1/2-x,y,z
x,1/2-y,z
loop_
_atom_site_type_symbol
_atom_site_label
_atom_site_fract_x
_atom_site_fract_y
_atom_site_fract_z
Si Si1 0.429512 0.899576 0.798258
Si Si2 0.928071 0.596329 0.463901
Si Si3 0.931160 0.250000 0.035852
Si Si4 0.570074 0.484120 0.100688
Si Si5 0.070832 0.750000 0.067469
Si Si6 0.569505 0.097461 0.727930
Si Si7 0.421010 0.908978 0.371491
O O1 0.250000 0.907448 0.793947
O O2 0.475298 0.750000 0.788168
O O3 0.465287 0.931620 0.849871
O O4 0.503724 0.003680 0.765389
O O5 0.750000 0.589867 0.466755
O O6 0.972699 0.750000 0.470659
O O7 0.000000 0.500000 0.500000
O O8 0.981634 0.555759 0.414281
O O9 0.750000 0.250000 0.036098
O O10 0.978012 0.121759 0.063475
O O11 0.979320 0.250000 0.984539
O O12 0.750000 0.498234 0.097968
O O13 0.492628 0.621292 0.091032
O O14 0.250000 0.750000 0.068642
O O15 0.750000 0.094712 0.728867
O O16 0.524035 0.250000 0.734369
O O17 0.524582 0.051899 0.677848
O O18 0.250000 0.954053 0.377877
O O19 0.417231 0.750000 0.369735
#
# Coordination Sequence:
#
# PCOD9449961 Si02
#       7
#     8   8   4   8   4   8   8
#     4  10  21  37  56  77 102 137 180 218 257 311
#     4  10  20  33  52  79 109 142 182 225 268 314
#     4   9  18  37  61  79 103 141 179 215 258 311
#     4  10  20  38  59  77 103 142 179 213 259 315
#     4  11  23  35  53  85 113 133 169 221 266 307
#     4   9  19  35  56  82 109 137 170 214 268 321
#     4   8  15  31  53  75 103 140 178 215 262 317
#
# _framework density 17.566754
#
# number of rings (size 3 to 8) (size 9 to 14) (size 15 to 20)
#    0.000    2.500    0.833    2.250    1.167    3.000 
#    0.000    3.750    0.000    1.000    0.000    0.000 
#    0.000    0.000    0.000    0.000    0.000    0.000 
#
# Total GULP energy -267716.933420 kJ/mol
# GULP energy per Si atom -5577.436113 kJ/mol
# Density = 1.752677 g / cm^3
# Si number density = 17.566754 Si / 1000 Ang^3
#
#
#
# Elastic Constant Matrix: (Units=GPa)
#
#
# Indices 1 2 3 4 5 6 
#
# 1 26.4649 32.6650 36.5912 0.0000 0.0000 0.0000
# 2 32.6650 111.1264 57.2103 0.0000 0.0000 0.0000
# 3 36.5912 57.2103 113.2077 0.0000 0.0000 0.0000
# 4 0.0000 0.0000 0.0000 34.3833 0.0000 0.0000
# 5 0.0000 0.0000 0.0000 0.0000 32.4827 0.0000
# 6 0.0000 0.0000 0.0000 0.0000 0.0000 14.8642
#
#
#
# Elastic Compliance Matrix: (Units=1/GPa)
#
#
# Indices 1 2 3 4 5 6 
#
# 1 0.082005 -0.014137 -0.019361 0.000000 0.000000 0.000000
# 2 -0.014137 0.014600 -0.002809 0.000000 0.000000 0.000000
# 3 -0.019361 -0.002809 0.016511 0.000000 0.000000 0.000000
# 4 0.000000 0.000000 0.000000 0.029084 0.000000 0.000000
# 5 0.000000 0.000000 0.000000 0.000000 0.030786 0.000000
# 6 0.000000 0.000000 0.000000 0.000000 0.000000 0.067276
#
#
# Mechanical properties :
#
#
# Convention : Reuss Voigt Hill
#
# Bulk Modulus (GPa) = 24.69079 55.97021 40.33050
# Shear Modulus (GPa) = 15.31973 24.63489 19.97731
#
# Velocity S-wave (km/s) = 2.95631 3.74887 3.37593
# Velocity P-wave (km/s) = 5.07336 7.11824 6.18095
#
# Compressibility (1/GPa) = 0.04050093
#
# Stress axis : x y z
#
# Youngs Moduli (GPa) = 12.19442 68.49113 60.56616
#
# Poissons Ratio (x) = 0.96827 1.17264
# Poissons Ratio (y) = 0.17239 0.17013
# Poissons Ratio (z) = 0.23610 0.19239
#
# Static dielectric constant tensor:
#      x y z
#    x 1.590730 0.000000 0.000000 
#    y 0.000000 1.578250 0.000000 
#    z 0.000000 0.000000 1.594100 
# 
# From -- ./inp_files/33028.got.cif
#   From: 2010.05.17/outbox.cif.g08.bks.cpg/sg59_17_cif.got.tgz:33028.got - 2010.06.03 14:40:33.
