data_PCOD9449614
_publ_section_title
;
Structure prediction by ZEFSAII (Michael W. Deem and Ramdas Pophale) SiO2 
 PCOD9449614
Probable space group: P M M N
;
_chemical_formula_sum "Si O2"
_cell_formula_units_Z 64
_cell_length_a 22.627073
_cell_length_b 7.929112
_cell_length_c 18.485675
_cell_angle_alpha 90.000000
_cell_angle_beta 90.000000
_cell_angle_gamma 90.000000
_cell_volume 3316.562941
_symmetry_space_group_name_H-M "P M M N"
_symmetry_group_IT_number 59
_space_group.IT_coordinate_system_code '2'
_symmetry_cell_setting 'orthorhombic'
loop_
_space_group_symop_operation_xyz
x,y,z
1/2-x,1/2-y,z
1/2+x,-y,-z
-x,1/2+y,-z
-x,-y,-z
1/2+x,1/2+y,-z
1/2-x,y,z
x,1/2-y,z
loop_
_atom_site_type_symbol
_atom_site_label
_atom_site_fract_x
_atom_site_fract_y
_atom_site_fract_z
Si Si1 0.026340 0.060250 0.225893
Si Si2 0.415174 0.546685 0.527807
Si Si3 0.902873 0.564063 0.242071
Si Si4 0.471310 0.048779 0.381626
Si Si5 0.814490 0.447022 0.135702
Si Si6 0.315676 0.454260 0.029884
Si Si7 0.451797 0.046293 0.063548
Si Si8 0.683403 0.045974 0.367969
O O1 0.051501 0.250000 0.220829
O O2 0.047446 0.981144 0.302534
O O3 0.031953 0.984864 0.145199
O O4 0.956369 0.064068 0.241047
O O5 0.419807 0.750000 0.526447
O O6 0.466356 0.485279 0.583918
O O7 0.426946 0.483340 0.447454
O O8 0.352381 0.498625 0.560271
O O9 0.927663 0.750000 0.253202
O O10 0.867658 0.551670 0.167653
O O11 0.854734 0.521373 0.301852
O O12 0.477663 0.250000 0.372058
O O13 0.750000 0.499229 0.164986
O O14 0.822745 0.250000 0.153809
O O15 0.812993 0.472215 0.050576
O O16 0.250000 0.500234 0.063372
O O17 0.316259 0.250000 0.028040
O O18 0.382236 0.505043 0.054874
O O19 0.453529 0.250000 0.063703
O O20 0.500000 0.000000 0.000000
O O21 0.750000 0.984922 0.366664
O O22 0.683683 0.250000 0.363043
#
# Coordination Sequence:
#
# PCOD9449614 Si02
#       8
#     8   8   8   8   8   8   8   8
#     4  10  20  36  54  73 102 138 176 213 257 315
#     4   9  17  31  51  75 100 127 165 208 251 298
#     4  12  23  32  46  71 103 135 170 213 260 304
#     4   9  17  31  52  74  98 129 165 209 255 300
#     4  10  20  33  49  68  93 132 176 211 250 308
#     4   9  18  34  54  76 102 131 170 220 272 323
#     4  10  21  35  54  79 107 141 177 221 273 320
#     4  10  20  35  53  72 100 140 177 206 245 307
#
# _framework density 19.297086
#
# number of rings (size 3 to 8) (size 9 to 14) (size 15 to 20)
#    0.000    2.125    1.250    2.625    0.000    6.500 
#    0.000    0.000    0.000    0.750    0.000    1.750 
#    0.000    0.000    0.000    0.000    0.000    0.000 
#
# Total GULP energy -356365.742036 kJ/mol
# GULP energy per Si atom -5568.214719 kJ/mol
# Density = 1.925317 g / cm^3
# Si number density = 19.297086 Si / 1000 Ang^3
#
#
#
# Elastic Constant Matrix: (Units=GPa)
#
#
# Indices 1 2 3 4 5 6 
#
# 1 100.2825 12.1282 49.3000 0.0000 0.0000 0.0000
# 2 12.1282 24.5767 6.8214 0.0000 0.0000 0.0000
# 3 49.3000 6.8214 134.9867 0.0000 0.0000 0.0000
# 4 0.0000 0.0000 0.0000 20.1365 0.0000 0.0000
# 5 0.0000 0.0000 0.0000 0.0000 29.8153 0.0000
# 6 0.0000 0.0000 0.0000 0.0000 0.0000 15.2306
#
#
#
# Elastic Compliance Matrix: (Units=1/GPa)
#
#
# Indices 1 2 3 4 5 6 
#
# 1 0.012748 -0.005070 -0.004400 0.000000 0.000000 0.000000
# 2 -0.005070 0.043284 -0.000336 0.000000 0.000000 0.000000
# 3 -0.004400 -0.000336 0.009032 0.000000 0.000000 0.000000
# 4 0.000000 0.000000 0.000000 0.049661 0.000000 0.000000
# 5 0.000000 0.000000 0.000000 0.000000 0.033540 0.000000
# 6 0.000000 0.000000 0.000000 0.000000 0.000000 0.065657
#
#
# Mechanical properties :
#
#
# Convention : Reuss Voigt Hill
#
# Bulk Modulus (GPa) = 22.00048 44.03835 33.01942
# Shear Modulus (GPa) = 20.10591 25.80957 22.95774
#
# Velocity S-wave (km/s) = 3.23137 3.66113 3.45294
# Velocity P-wave (km/s) = 5.03468 6.38300 5.74851
#
# Compressibility (1/GPa) = 0.04545355
#
# Stress axis : x y z
#
# Youngs Moduli (GPa) = 78.44463 23.10329 110.71834
#
# Poissons Ratio (x) = 0.11713 0.48711
# Poissons Ratio (y) = 0.39769 0.03717
# Poissons Ratio (z) = 0.34512 0.00776
#
# Static dielectric constant tensor:
#      x y z
#    x 1.719120 0.000000 0.000000 
#    y 0.000000 1.713490 0.000000 
#    z 0.000000 0.000000 1.714280 
# 
# From -- ./inp_files/28291.got.cif
#   From: 2010.05.17/outbox.cif.g08.bks.cpg/sg59_15_cif.got.tgz:28291.got - 2010.06.03 14:40:33.
