data_PCOD9449295
_publ_section_title
;
Structure prediction by ZEFSAII (Michael W. Deem and Ramdas Pophale) SiO2 
 PCOD9449295
Probable space group: P M M N
;
_chemical_formula_sum "Si O2"
_cell_formula_units_Z 64
_cell_length_a 9.343869
_cell_length_b 24.598284
_cell_length_c 16.499150
_cell_angle_alpha 90.000000
_cell_angle_beta 90.000000
_cell_angle_gamma 90.000000
_cell_volume 3792.216498
_symmetry_space_group_name_H-M "P M M N"
_symmetry_group_IT_number 59
_space_group.IT_coordinate_system_code '2'
_symmetry_cell_setting 'orthorhombic'
loop_
_space_group_symop_operation_xyz
x,y,z
1/2-x,1/2-y,z
1/2+x,-y,-z
-x,1/2+y,-z
-x,-y,-z
1/2+x,1/2+y,-z
1/2-x,y,z
x,1/2-y,z
loop_
_atom_site_type_symbol
_atom_site_label
_atom_site_fract_x
_atom_site_fract_y
_atom_site_fract_z
Si Si1 0.414849 0.315429 0.177573
Si Si2 0.589358 0.462738 0.942659
Si Si3 0.576008 0.191656 0.843344
Si Si4 0.919836 0.535938 0.388292
Si Si5 0.421901 0.686232 0.654891
Si Si6 0.413528 0.657532 0.982626
Si Si7 0.576334 0.077605 0.770296
Si Si8 0.420101 0.916678 0.542404
O O1 0.250000 0.333864 0.182015
O O2 0.415430 0.250000 0.170019
O O3 0.498714 0.327537 0.260879
O O4 0.493511 0.337416 0.097723
O O5 0.750000 0.484085 0.937287
O O6 0.593389 0.403740 0.984242
O O7 0.536073 0.455577 0.851201
O O8 0.500000 0.500000 0.000000
O O9 0.750000 0.188985 0.847707
O O10 0.534274 0.250000 0.808876
O O11 0.528704 0.187963 0.937245
O O12 0.533225 0.139720 0.791067
O O13 0.750000 0.545416 0.384415
O O14 0.941225 0.471180 0.403476
O O15 0.999036 0.554480 0.307429
O O16 0.988653 0.569846 0.462520
O O17 0.250000 0.683795 0.666919
O O18 0.456085 0.750000 0.633744
O O19 0.457624 0.639510 0.588731
O O20 0.250000 0.675946 0.965326
O O21 0.750000 0.075877 0.762091
O O22 0.250000 0.914174 0.522476
#
# Coordination Sequence:
#
# PCOD9449295 Si02
#       8
#     8   8   8   8   8   8   8   8
#     4  10  20  31  44  68 101 131 160 197 242 291
#     4   9  19  33  48  69  97 130 166 203 245 291
#     4   8  14  27  49  72  91 119 163 209 247 282
#     4  10  20  34  54  78 101 127 160 197 240 289
#     4   9  18  34  55  76  99 129 164 202 246 294
#     4   9  17  30  48  68  91 124 168 210 243 282
#     4   9  18  33  51  72  99 128 161 203 246 289
#     4   9  19  36  56  77  99 124 159 201 240 285
#
# _framework density 16.876674000000001
#
# number of rings (size 3 to 8) (size 9 to 14) (size 15 to 20)
#    0.000    2.875    0.000    2.625    0.000    4.250 
#    0.000    6.250    0.000    4.875    0.000    0.000 
#    0.000    0.000    0.000    0.000    0.000    0.000 
#
# Total GULP energy -356416.039595 kJ/mol
# GULP energy per Si atom -5569.000619 kJ/mol
# Density = 1.683826 g / cm^3
# Si number density = 16.876674 Si / 1000 Ang^3
#
#
#
# Elastic Constant Matrix: (Units=GPa)
#
#
# Indices 1 2 3 4 5 6 
#
# 1 53.0496 42.5054 66.7547 0.0000 0.0000 0.0000
# 2 42.5054 78.4375 75.8732 0.0000 0.0000 0.0000
# 3 66.7547 75.8732 141.9846 0.0000 0.0000 0.0000
# 4 0.0000 0.0000 0.0000 7.3603 0.0000 0.0000
# 5 0.0000 0.0000 0.0000 0.0000 28.8260 0.0000
# 6 0.0000 0.0000 0.0000 0.0000 0.0000 22.8141
#
#
#
# Elastic Compliance Matrix: (Units=1/GPa)
#
#
# Indices 1 2 3 4 5 6 
#
# 1 0.048942 -0.008826 -0.018294 0.000000 0.000000 0.000000
# 2 -0.008826 0.027982 -0.010803 0.000000 0.000000 0.000000
# 3 -0.018294 -0.010803 0.021417 0.000000 0.000000 0.000000
# 4 0.000000 0.000000 0.000000 0.135865 0.000000 0.000000
# 5 0.000000 0.000000 0.000000 0.000000 0.034691 0.000000
# 6 0.000000 0.000000 0.000000 0.000000 0.000000 0.043833
#
#
# Mechanical properties :
#
#
# Convention : Reuss Voigt Hill
#
# Bulk Modulus (GPa) = 44.45508 71.52648 57.99078
# Shear Modulus (GPa) = 12.62390 17.68929 15.15660
#
# Velocity S-wave (km/s) = 2.73794 3.24103 3.00005
# Velocity P-wave (km/s) = 6.03270 7.51529 6.81443
#
# Compressibility (1/GPa) = 0.02249462
#
# Stress axis : x y z
#
# Youngs Moduli (GPa) = 20.43231 35.73734 46.69171
#
# Poissons Ratio (x) = 0.31541 0.85418
# Poissons Ratio (y) = 0.18033 0.50443
# Poissons Ratio (z) = 0.37379 0.38608
#
# Static dielectric constant tensor:
#      x y z
#    x 1.573750 0.000000 0.000000 
#    y 0.000000 1.689370 0.000000 
#    z 0.000000 0.000000 1.546020 
# 
# From -- ./inp_files/21577.got.cif
#   From: 2010.05.17/outbox.cif.g08.bks.cpg/sg59_11_cif.got.tgz:21577.got - 2010.06.03 14:40:33.
