data_PCOD9449400
_publ_section_title
;
Structure prediction by ZEFSAII (Michael W. Deem and Ramdas Pophale) SiO2 
 PCOD9449400
Probable space group: P M M N
;
_chemical_formula_sum "Si O2"
_cell_formula_units_Z 64
_cell_length_a 15.170193
_cell_length_b 7.935139
_cell_length_c 27.047998
_cell_angle_alpha 90.000000
_cell_angle_beta 90.000000
_cell_angle_gamma 90.000000
_cell_volume 3255.972817
_symmetry_space_group_name_H-M "P M M N"
_symmetry_group_IT_number 59
_space_group.IT_coordinate_system_code '2'
_symmetry_cell_setting 'orthorhombic'
loop_
_space_group_symop_operation_xyz
x,y,z
1/2-x,1/2-y,z
1/2+x,-y,-z
-x,1/2+y,-z
-x,-y,-z
1/2+x,1/2+y,-z
1/2-x,y,z
x,1/2-y,z
loop_
_atom_site_type_symbol
_atom_site_label
_atom_site_fract_x
_atom_site_fract_y
_atom_site_fract_z
Si Si1 0.849731 0.047170 0.129567
Si Si2 0.004559 0.448384 0.684028
Si Si3 0.999731 0.046723 0.057089
Si Si4 0.350376 0.450103 0.497559
Si Si5 0.147569 0.453660 0.242800
Si Si6 0.493535 0.947738 0.571895
Si Si7 0.148976 0.046653 0.760773
Si Si8 0.149156 0.044235 0.131277
O O1 0.750000 0.981366 0.125013
O O2 0.846544 0.250000 0.126321
O O3 0.913944 0.984889 0.086803
O O4 0.882468 0.004448 0.184572
O O5 0.018702 0.250000 0.676496
O O6 0.916611 0.474886 0.716001
O O7 0.000064 0.528456 0.630219
O O8 0.084397 0.515789 0.718045
O O9 0.999945 0.250000 0.059731
O O10 0.083888 0.986129 0.088522
O O11 0.000000 0.000000 0.000000
O O12 0.250000 0.518471 0.497596
O O13 0.342585 0.250000 0.489207
O O14 0.418853 0.517256 0.455910
O O15 0.404951 0.475442 0.548228
O O16 0.250000 0.499832 0.250307
O O17 0.142239 0.250000 0.244619
O O18 0.122292 0.507167 0.186902
O O19 0.489148 0.750000 0.560429
O O20 0.250000 0.987069 0.755164
O O21 0.149548 0.250000 0.759042
O O22 0.250000 0.991363 0.123073
O O23 0.148519 0.250000 0.131420
#
# Coordination Sequence:
#
# PCOD9449400 Si02
#       8
#     8   8   8   8   8   8   8   8
#     4   9  18  33  52  72  95 125 162 206 254 301
#     4  11  22  34  51  78 113 146 172 209 261 309
#     4  10  20  32  47  69  96 124 157 199 247 299
#     4   9  19  38  61  80 103 139 179 221 270 315
#     4   9  18  34  56  78 100 132 174 216 259 309
#     4  10  21  36  55  82 111 140 180 222 259 306
#     4   9  19  35  53  74 101 135 174 211 251 305
#     4   8  15  30  51  71  91 121 163 205 244 292
#
# _framework density 19.656184
#
# number of rings (size 3 to 8) (size 9 to 14) (size 15 to 20)
#    0.000    2.625    0.000    2.250    0.000    5.000 
#    0.000    3.125    0.000    0.750    0.000    0.000 
#    0.000    0.000    0.000    0.000    0.000    0.000 
#
# Total GULP energy -357059.651686 kJ/mol
# GULP energy per Si atom -5579.057058 kJ/mol
# Density = 1.961145 g / cm^3
# Si number density = 19.656184 Si / 1000 Ang^3
#
#
#
# Elastic Constant Matrix: (Units=GPa)
#
#
# Indices 1 2 3 4 5 6 
#
# 1 125.0476 5.4027 82.9055 0.0000 0.0000 0.0000
# 2 5.4027 15.3690 -4.1305 0.0000 0.0000 0.0000
# 3 82.9055 -4.1305 155.9042 0.0000 0.0000 0.0000
# 4 0.0000 0.0000 0.0000 27.7365 0.0000 0.0000
# 5 0.0000 0.0000 0.0000 0.0000 -50.8618 0.0000
# 6 0.0000 0.0000 0.0000 0.0000 0.0000 15.7713
#
#
#
# Elastic Compliance Matrix: (Units=1/GPa)
#
#
# Indices 1 2 3 4 5 6 
#
# 1 0.012957 -0.006453 -0.007061 0.000000 0.000000 0.000000
# 2 -0.006453 0.068746 0.005253 0.000000 0.000000 0.000000
# 3 -0.007061 0.005253 0.010308 0.000000 0.000000 0.000000
# 4 0.000000 0.000000 0.000000 0.036054 0.000000 0.000000
# 5 0.000000 0.000000 0.000000 0.000000 -0.019661 0.000000
# 6 0.000000 0.000000 0.000000 0.000000 0.000000 0.063406
#
#
# Mechanical properties :
#
#
# Convention : Reuss Voigt Hill
#
# Bulk Modulus (GPa) = 13.24690 51.63069 32.43879
# Shear Modulus (GPa) = 23.41961 12.67208 18.04584
#
# Velocity S-wave (km/s) = 3.45550 2.54182 3.03326
# Velocity P-wave (km/s) = 4.76178 5.91087 5.36717
#
# Compressibility (1/GPa) = 0.07548939
#
# Stress axis : x y z
#
# Youngs Moduli (GPa) = 77.17637 14.54624 97.00854
#
# Poissons Ratio (x) = 0.09386 0.68501
# Poissons Ratio (y) = 0.49800 -0.50956
# Poissons Ratio (z) = 0.54497 -0.07641
#
# Static dielectric constant tensor:
#      x y z
#    x 1.706240 0.000000 0.000000 
#    y 0.000000 1.716180 0.000000 
#    z 0.000000 0.000000 1.654680 
# 
# From -- ./inp_files/32265.got.cif
#   From: 2010.05.17/outbox.cif.g08.bks.cpg/sg59_17_cif.got.tgz:32265.got - 2010.06.03 14:40:33.
