data_PCOD9449518
_publ_section_title
;
Structure prediction by ZEFSAII (Michael W. Deem and Ramdas Pophale) SiO2 
 PCOD9449518
Probable space group: P M M N
;
_chemical_formula_sum "Si O2"
_cell_formula_units_Z 48
_cell_length_a 19.447362
_cell_length_b 8.057840
_cell_length_c 15.860293
_cell_angle_alpha 90.000000
_cell_angle_beta 90.000000
_cell_angle_gamma 90.000000
_cell_volume 2485.367094
_symmetry_space_group_name_H-M "P M M N"
_symmetry_group_IT_number 59
_space_group.IT_coordinate_system_code '2'
_symmetry_cell_setting 'orthorhombic'
loop_
_space_group_symop_operation_xyz
x,y,z
1/2-x,1/2-y,z
1/2+x,-y,-z
-x,1/2+y,-z
-x,-y,-z
1/2+x,1/2+y,-z
1/2-x,y,z
x,1/2-y,z
loop_
_atom_site_type_symbol
_atom_site_label
_atom_site_fract_x
_atom_site_fract_y
_atom_site_fract_z
Si Si1 0.420831 0.049413 0.001139
Si Si2 0.921110 0.947220 0.498683
Si Si3 0.171369 0.049962 0.156504
Si Si4 0.670967 0.952456 0.154443
Si Si5 0.328170 0.551937 0.345493
Si Si6 0.329038 0.452703 0.654893
O O1 0.417439 0.250000 0.001195
O O2 0.380501 0.989975 0.917844
O O3 0.380344 0.989886 0.084419
O O4 0.500000 0.000000 0.000000
O O5 0.919651 0.750000 0.492138
O O6 0.880053 0.014546 0.417153
O O7 0.880186 0.994888 0.582879
O O8 0.000000 0.000000 0.500000
O O9 0.250000 0.990979 0.142113
O O10 0.172785 0.250000 0.152315
O O11 0.151250 0.001417 0.251278
O O12 0.750000 0.001334 0.136838
O O13 0.670108 0.750000 0.154037
O O14 0.653157 0.005083 0.249736
O O15 0.250000 0.487804 0.360751
O O16 0.325737 0.750000 0.347343
O O17 0.250000 0.501531 0.637349
O O18 0.330101 0.250000 0.654679
#
# Coordination Sequence:
#
# PCOD9449518 Si02
#       6
#     8   8   8   8   8   8
#     4  10  20  32  49  76 107 138 169 205 254 309
#     4  11  22  35  52  77 110 145 178 214 261 317
#     4   9  18  34  55  77 102 136 179 222 262 309
#     4   8  14  28  51  75  96 122 163 211 250 289
#     4  10  21  37  57  80 104 134 177 227 276 323
#     4   8  15  29  51  77 100 126 166 213 257 302
#
# _framework density 19.313040999999998
#
# number of rings (size 3 to 8) (size 9 to 14) (size 15 to 20)
#    0.000    2.667    0.000    3.000    0.000    5.667 
#    0.000    1.667    0.000    2.500    0.000    4.667 
#    0.000    0.000    0.000    0.000    0.000    0.000 
#
# Total GULP energy -267845.368020 kJ/mol
# GULP energy per Si atom -5580.111834 kJ/mol
# Density = 1.926908 g / cm^3
# Si number density = 19.313041 Si / 1000 Ang^3
#
#
#
# Elastic Constant Matrix: (Units=GPa)
#
#
# Indices 1 2 3 4 5 6 
#
# 1 164.4428 12.7853 158.1516 0.0000 0.0000 0.0000
# 2 12.7853 16.9355 15.8618 0.0000 0.0000 0.0000
# 3 158.1516 15.8618 206.7790 0.0000 0.0000 0.0000
# 4 0.0000 0.0000 0.0000 7.1474 0.0000 0.0000
# 5 0.0000 0.0000 0.0000 0.0000 -9.7892 0.0000
# 6 0.0000 0.0000 0.0000 0.0000 0.0000 25.8829
#
#
#
# Elastic Compliance Matrix: (Units=1/GPa)
#
#
# Indices 1 2 3 4 5 6 
#
# 1 0.023012 -0.000957 -0.017527 0.000000 0.000000 0.000000
# 2 -0.000957 0.063658 -0.004151 0.000000 0.000000 0.000000
# 3 -0.017527 -0.004151 0.018560 0.000000 0.000000 0.000000
# 4 0.000000 0.000000 0.000000 0.139910 0.000000 0.000000
# 5 0.000000 0.000000 0.000000 0.000000 -0.102153 0.000000
# 6 0.000000 0.000000 0.000000 0.000000 0.000000 0.038636
#
#
# Mechanical properties :
#
#
# Convention : Reuss Voigt Hill
#
# Bulk Modulus (GPa) = 16.67795 84.63944 50.65869
# Shear Modulus (GPa) = 20.25289 18.07213 19.16251
#
# Velocity S-wave (km/s) = 3.24182 3.06232 3.15335
# Velocity P-wave (km/s) = 4.76097 7.51158 6.28851
#
# Compressibility (1/GPa) = 0.05995940
#
# Stress axis : x y z
#
# Youngs Moduli (GPa) = 43.45580 15.70895 53.88027
#
# Poissons Ratio (x) = 0.01503 0.94435
# Poissons Ratio (y) = 0.04158 0.22367
# Poissons Ratio (z) = 0.76164 0.06521
#
# Static dielectric constant tensor:
#      x y z
#    x 1.631270 0.000000 0.000000 
#    y 0.000000 1.697400 0.000000 
#    z 0.000000 0.000000 1.667910 
# 
# From -- ./inp_files/20410.got.cif
#   From: 2010.05.17/outbox.cif.g08.bks.cpg/sg59_11_cif.got.tgz:20410.got - 2010.06.03 14:40:33.
