data_PCOD9449757
_publ_section_title
;
Structure prediction by ZEFSAII (Michael W. Deem and Ramdas Pophale) SiO2 
 PCOD9449757
Probable space group: P M M N
;
_chemical_formula_sum "Si O2"
_cell_formula_units_Z 64
_cell_length_a 14.495136
_cell_length_b 8.882867
_cell_length_c 28.959652
_cell_angle_alpha 90.000000
_cell_angle_beta 90.000000
_cell_angle_gamma 90.000000
_cell_volume 3728.797449
_symmetry_space_group_name_H-M "P M M N"
_symmetry_group_IT_number 59
_space_group.IT_coordinate_system_code '2'
_symmetry_cell_setting 'orthorhombic'
loop_
_space_group_symop_operation_xyz
x,y,z
1/2-x,1/2-y,z
1/2+x,-y,-z
-x,1/2+y,-z
-x,-y,-z
1/2+x,1/2+y,-z
1/2-x,y,z
x,1/2-y,z
loop_
_atom_site_type_symbol
_atom_site_label
_atom_site_fract_x
_atom_site_fract_y
_atom_site_fract_z
Si Si1 0.142684 0.569794 0.203728
Si Si2 0.971338 0.430465 0.886759
Si Si3 0.360424 0.426524 0.028592
Si Si4 0.357914 0.570419 0.570907
Si Si5 0.641781 0.570417 0.696963
Si Si6 0.357588 0.570281 0.929316
Si Si7 0.639665 0.926643 0.528843
Si Si8 0.970743 0.070557 0.613687
O O1 0.250000 0.538371 0.191766
O O2 0.134867 0.750000 0.211038
O O3 0.077517 0.526846 0.161238
O O4 0.121248 0.485617 0.251308
O O5 0.972809 0.250000 0.889825
O O6 0.912187 0.496332 0.929132
O O7 0.073398 0.496233 0.893005
O O8 0.250000 0.439071 0.035353
O O9 0.384580 0.250000 0.026029
O O10 0.382120 0.505590 0.979939
O O11 0.250000 0.538431 0.579973
O O12 0.370687 0.750000 0.570255
O O13 0.380254 0.503431 0.520300
O O14 0.426769 0.494798 0.606971
O O15 0.750000 0.534682 0.687855
O O16 0.630933 0.750000 0.693502
O O17 0.578195 0.489650 0.659632
O O18 0.250000 0.534176 0.920848
O O19 0.368085 0.750000 0.929615
O O20 0.750000 0.937375 0.536466
O O21 0.614840 0.750000 0.527278
O O22 0.587048 0.007258 0.570199
O O23 0.971747 0.250000 0.612850
#
# Coordination Sequence:
#
# PCOD9449757 Si02
#       8
#     8   8   8   8   8   8   8   8
#     4   9  19  36  56  79 107 136 165 201 252 312
#     4  11  21  33  53  78 105 137 172 211 256 308
#     4  10  20  33  50  74 105 139 175 214 255 303
#     4  10  21  37  55  75 103 139 178 219 261 305
#     4  10  21  37  57  81 108 136 168 210 258 306
#     4  10  21  36  52  71 100 138 178 219 260 302
#     4  10  20  34  52  76 108 142 177 217 258 304
#     4  12  23  34  53  78 106 140 176 214 257 309
#
# _framework density 17.163709999999998
#
# number of rings (size 3 to 8) (size 9 to 14) (size 15 to 20)
#    0.000    1.750    0.000    4.875    0.000    6.750 
#    0.000    1.250    0.000    0.750    0.000    3.500 
#    0.000    0.000    0.000    0.000    0.000    0.000 
#
# Total GULP energy -357690.779503 kJ/mol
# GULP energy per Si atom -5588.918430 kJ/mol
# Density = 1.712464 g / cm^3
# Si number density = 17.163710 Si / 1000 Ang^3
#
#
#
# Elastic Constant Matrix: (Units=GPa)
#
#
# Indices 1 2 3 4 5 6 
#
# 1 97.9885 67.1434 87.0143 0.0000 0.0000 0.0000
# 2 67.1434 105.5836 70.6828 0.0000 0.0000 0.0000
# 3 87.0143 70.6828 115.5584 0.0000 0.0000 0.0000
# 4 0.0000 0.0000 0.0000 30.3700 0.0000 0.0000
# 5 0.0000 0.0000 0.0000 0.0000 32.2100 0.0000
# 6 0.0000 0.0000 0.0000 0.0000 0.0000 29.3571
#
#
#
# Elastic Compliance Matrix: (Units=1/GPa)
#
#
# Indices 1 2 3 4 5 6 
#
# 1 0.034060 -0.007604 -0.020996 0.000000 0.000000 0.000000
# 2 -0.007604 0.017736 -0.005123 0.000000 0.000000 0.000000
# 3 -0.020996 -0.005123 0.027597 0.000000 0.000000 0.000000
# 4 0.000000 0.000000 0.000000 0.032927 0.000000 0.000000
# 5 0.000000 0.000000 0.000000 0.000000 0.031046 0.000000
# 6 0.000000 0.000000 0.000000 0.000000 0.000000 0.034063
#
#
# Mechanical properties :
#
#
# Convention : Reuss Voigt Hill
#
# Bulk Modulus (GPa) = 83.69828 85.42352 84.56090
# Shear Modulus (GPa) = 20.09178 24.67340 22.38259
#
# Velocity S-wave (km/s) = 3.42511 3.79559 3.61510
# Velocity P-wave (km/s) = 8.03196 8.31184 8.17310
#
# Compressibility (1/GPa) = 0.01194768
#
# Stress axis : x y z
#
# Youngs Moduli (GPa) = 29.35982 56.38157 36.23623
#
# Poissons Ratio (x) = 0.42873 0.76081
# Poissons Ratio (y) = 0.22326 0.18563
# Poissons Ratio (z) = 0.61643 0.28883
#
# Static dielectric constant tensor:
#      x y z
#    x 1.600490 0.000000 0.000000 
#    y 0.000000 1.569920 0.000000 
#    z 0.000000 0.000000 1.541550 
# 
# From -- ./inp_files/32232.got.cif
#   From: 2010.05.17/outbox.cif.g08.bks.cpg/sg59_17_cif.got.tgz:32232.got - 2010.06.03 14:40:33.
