data_PCOD9449133
_publ_section_title
;
Structure prediction by ZEFSAII (Michael W. Deem and Ramdas Pophale) SiO2 
 PCOD9449133
Probable space group: P M M N
;
_chemical_formula_sum "Si O2"
_cell_formula_units_Z 40
_cell_length_a 8.957379
_cell_length_b 15.606692
_cell_length_c 15.645934
_cell_angle_alpha 90.000000
_cell_angle_beta 90.000000
_cell_angle_gamma 90.000000
_cell_volume 2187.224207
_symmetry_space_group_name_H-M "P M M N"
_symmetry_group_IT_number 59
_space_group.IT_coordinate_system_code '2'
_symmetry_cell_setting 'orthorhombic'
loop_
_space_group_symop_operation_xyz
x,y,z
1/2-x,1/2-y,z
1/2+x,-y,-z
-x,1/2+y,-z
-x,-y,-z
1/2+x,1/2+y,-z
1/2-x,y,z
x,1/2-y,z
loop_
_atom_site_type_symbol
_atom_site_label
_atom_site_fract_x
_atom_site_fract_y
_atom_site_fract_z
Si Si1 0.928031 0.250000 0.460528
Si Si2 0.914085 0.652201 0.840344
Si Si3 0.929965 0.933664 0.272495
Si Si4 0.078007 0.098266 0.354255
Si Si5 0.428933 0.250000 0.646130
Si Si6 0.078055 0.997300 0.908830
O O1 0.750000 0.250000 0.453291
O O2 0.993131 0.163770 0.416246
O O3 0.982453 0.250000 0.557884
O O4 0.750000 0.616596 0.866524
O O5 0.920290 0.750000 0.866494
O O6 0.919825 0.644181 0.738273
O O7 0.049482 0.599111 0.877438
O O8 0.750000 0.946147 0.274378
O O9 0.962922 0.837590 0.303036
O O10 0.980164 0.949346 0.173855
O O11 0.003053 0.006160 0.333556
O O12 0.250000 0.086951 0.382534
O O13 0.250000 0.250000 0.629013
O O14 0.250000 0.019431 0.919570
O O15 0.000000 0.000000 0.000000
#
# Coordination Sequence:
#
# PCOD9449133 Si02
#       6
#     4   8   8   8   4   8
#     4  12  24  36  56  87 120 149 190 237 282 341
#     4   9  17  32  54  80 109 141 178 222 278 334
#     4   9  20  39  61  84 111 150 195 240 288 338
#     4  10  19  35  59  86 115 149 186 231 287 338
#     4  10  22  42  62  79 110 153 198 239 282 335
#     4  10  20  35  55  82 113 144 185 229 278 335
#
# _framework density 18.288018999999998
#
# number of rings (size 3 to 8) (size 9 to 14) (size 15 to 20)
#    0.000    2.200    1.000    2.100    0.000    3.600 
#    1.800    0.000    0.000    0.000    0.000    0.000 
#    0.000    0.000    0.000    0.000    0.000    0.000 
#
# Total GULP energy -222897.156599 kJ/mol
# GULP energy per Si atom -5572.428915 kJ/mol
# Density = 1.824639 g / cm^3
# Si number density = 18.288019 Si / 1000 Ang^3
#
#
#
# Elastic Constant Matrix: (Units=GPa)
#
#
# Indices 1 2 3 4 5 6 
#
# 1 71.8676 53.0689 55.0237 0.0000 0.0000 0.0000
# 2 53.0689 134.0288 65.9888 0.0000 0.0000 0.0000
# 3 55.0237 65.9888 106.3869 0.0000 0.0000 0.0000
# 4 0.0000 0.0000 0.0000 4.6415 0.0000 0.0000
# 5 0.0000 0.0000 0.0000 0.0000 29.0875 0.0000
# 6 0.0000 0.0000 0.0000 0.0000 0.0000 27.8423
#
#
#
# Elastic Compliance Matrix: (Units=1/GPa)
#
#
# Indices 1 2 3 4 5 6 
#
# 1 0.025280 -0.005143 -0.009885 0.000000 0.000000 0.000000
# 2 -0.005143 0.011788 -0.004652 0.000000 0.000000 0.000000
# 3 -0.009885 -0.004652 0.017398 0.000000 0.000000 0.000000
# 4 0.000000 0.000000 0.000000 0.215446 0.000000 0.000000
# 5 0.000000 0.000000 0.000000 0.000000 0.034379 0.000000
# 6 0.000000 0.000000 0.000000 0.000000 0.000000 0.035917
#
#
# Mechanical properties :
#
#
# Convention : Reuss Voigt Hill
#
# Bulk Modulus (GPa) = 66.19748 73.38292 69.79020
# Shear Modulus (GPa) = 13.00044 21.52772 17.26408
#
# Velocity S-wave (km/s) = 2.66911 3.43468 3.07581
# Velocity P-wave (km/s) = 6.76570 7.47949 7.13153
#
# Compressibility (1/GPa) = 0.01510632
#
# Stress axis : x y z
#
# Youngs Moduli (GPa) = 39.55627 84.83467 57.47936
#
# Poissons Ratio (x) = 0.43630 0.56819
# Poissons Ratio (y) = 0.20343 0.26737
# Poissons Ratio (z) = 0.39102 0.39462
#
# Static dielectric constant tensor:
#      x y z
#    x 1.666020 0.000000 0.000000 
#    y 0.000000 1.626820 0.000000 
#    z 0.000000 0.000000 1.635350 
# 
# From -- ./inp_files/19927.got.cif
#   From: 2010.05.17/outbox.cif.g08.bks.cpg/sg59_10_cif.got.tgz:19927.got - 2010.06.03 14:40:33.
