data_PCOD9449046
_publ_section_title
;
Structure prediction by ZEFSAII (Michael W. Deem and Ramdas Pophale) SiO2 
 PCOD9449046
Probable space group: P M M N
;
_chemical_formula_sum "Si O2"
_cell_formula_units_Z 64
_cell_length_a 19.443424
_cell_length_b 8.875709
_cell_length_c 21.188877
_cell_angle_alpha 90.000000
_cell_angle_beta 90.000000
_cell_angle_gamma 90.000000
_cell_volume 3656.652933
_symmetry_space_group_name_H-M "P M M N"
_symmetry_group_IT_number 59
_space_group.IT_coordinate_system_code '2'
_symmetry_cell_setting 'orthorhombic'
loop_
_space_group_symop_operation_xyz
x,y,z
1/2-x,1/2-y,z
1/2+x,-y,-z
-x,1/2+y,-z
-x,-y,-z
1/2+x,1/2+y,-z
1/2-x,y,z
x,1/2-y,z
loop_
_atom_site_type_symbol
_atom_site_label
_atom_site_fract_x
_atom_site_fract_y
_atom_site_fract_z
Si Si1 0.569276 0.068221 0.970932
Si Si2 0.333520 0.426133 0.550387
Si Si3 0.832948 0.928393 0.588057
Si Si4 0.331116 0.570488 0.681516
Si Si5 0.909843 0.930729 0.200873
Si Si6 0.566299 0.433384 0.826615
Si Si7 0.170210 0.568338 0.281385
Si Si8 0.829792 0.068431 0.082414
O O1 0.562785 0.250000 0.970526
O O2 0.578873 0.017807 0.898686
O O3 0.631725 0.028766 0.017433
O O4 0.500000 0.000000 0.000000
O O5 0.250000 0.432403 0.548691
O O6 0.352034 0.250000 0.557444
O O7 0.357808 0.480318 0.481217
O O8 0.354569 0.517579 0.612044
O O9 0.750000 0.947644 0.587691
O O10 0.846516 0.750000 0.592573
O O11 0.857114 0.010545 0.651098
O O12 0.250000 0.529276 0.688707
O O13 0.336041 0.750000 0.686744
O O14 0.374934 0.493435 0.736114
O O15 0.906984 0.750000 0.200979
O O16 0.989521 0.977517 0.194129
O O17 0.868849 0.993042 0.140617
O O18 0.568418 0.250000 0.826702
O O19 0.622969 0.484685 0.776318
O O20 0.250000 0.520277 0.273716
O O21 0.169636 0.750000 0.282389
O O22 0.750000 0.025114 0.081590
O O23 0.833547 0.250000 0.089786
#
# Coordination Sequence:
#
# PCOD9449046 Si02
#       8
#     8   8   8   8   8   8   8   8
#     4  10  19  35  56  75 100 132 168 208 251 301
#     4   8  14  26  45  69  97 131 168 202 245 301
#     4   8  14  26  45  70 101 132 162 202 249 298
#     4  10  20  32  47  71 103 132 164 212 258 295
#     4  11  21  34  52  71  98 137 174 207 246 298
#     4   9  19  34  52  75 101 130 167 207 246 295
#     4   9  17  30  50  75 101 129 163 205 251 299
#     4  10  21  35  53  79 106 131 164 210 259 301
#
# _framework density 17.502344000000001
#
# number of rings (size 3 to 8) (size 9 to 14) (size 15 to 20)
#    0.000    2.625    1.250    1.875    0.000    3.500 
#    0.000    6.875    0.000    0.750    0.000    1.750 
#    0.000    0.000    0.000    0.000    0.000    0.000 
#
# Total GULP energy -356718.674089 kJ/mol
# GULP energy per Si atom -5573.729283 kJ/mol
# Density = 1.746251 g / cm^3
# Si number density = 17.502344 Si / 1000 Ang^3
#
#
#
# Elastic Constant Matrix: (Units=GPa)
#
#
# Indices 1 2 3 4 5 6 
#
# 1 89.0624 25.0585 81.0086 0.0000 0.0000 0.0000
# 2 25.0585 13.4353 40.0358 0.0000 0.0000 0.0000
# 3 81.0086 40.0358 201.7085 0.0000 0.0000 0.0000
# 4 0.0000 0.0000 0.0000 29.4271 0.0000 0.0000
# 5 0.0000 0.0000 0.0000 0.0000 3.2512 0.0000
# 6 0.0000 0.0000 0.0000 0.0000 0.0000 14.5170
#
#
#
# Elastic Compliance Matrix: (Units=1/GPa)
#
#
# Indices 1 2 3 4 5 6 
#
# 1 0.023902 -0.039102 -0.001838 0.000000 0.000000 0.000000
# 2 -0.039102 0.246156 -0.033154 0.000000 0.000000 0.000000
# 3 -0.001838 -0.033154 0.012276 0.000000 0.000000 0.000000
# 4 0.000000 0.000000 0.000000 0.033982 0.000000 0.000000
# 5 0.000000 0.000000 0.000000 0.000000 0.307582 0.000000
# 6 0.000000 0.000000 0.000000 0.000000 0.000000 0.068885
#
#
# Mechanical properties :
#
#
# Convention : Reuss Voigt Hill
#
# Bulk Modulus (GPa) = 7.45459 66.26798 36.86129
# Shear Modulus (GPa) = 5.64534 19.97928 12.81231
#
# Velocity S-wave (km/s) = 1.79791 3.38230 2.70855
# Velocity P-wave (km/s) = 2.92889 7.29369 5.55771
#
# Compressibility (1/GPa) = 0.13414548
#
# Stress axis : x y z
#
# Youngs Moduli (GPa) = 41.83806 4.06247 81.45742
#
# Poissons Ratio (x) = 0.15885 0.14972
# Poissons Ratio (y) = 1.63596 2.70064
# Poissons Ratio (z) = 0.07690 0.13469
#
# Static dielectric constant tensor:
#      x y z
#    x 1.581480 0.000000 0.000000 
#    y 0.000000 1.591020 0.000000 
#    z 0.000000 0.000000 1.604910 
# 
# From -- ./inp_files/30707.got.cif
#   From: 2010.05.17/outbox.cif.g08.bks.cpg/sg59_16_cif.got.tgz:30707.got - 2010.06.03 14:40:33.
