data_PCOD9449910
_publ_section_title
;
Structure prediction by ZEFSAII (Michael W. Deem and Ramdas Pophale) SiO2 
 PCOD9449910
Probable space group: P M M N
;
_chemical_formula_sum "Si O2"
_cell_formula_units_Z 56
_cell_length_a 8.843234
_cell_length_b 19.946153
_cell_length_c 16.260788
_cell_angle_alpha 90.000000
_cell_angle_beta 90.000000
_cell_angle_gamma 90.000000
_cell_volume 2868.215978
_symmetry_space_group_name_H-M "P M M N"
_symmetry_group_IT_number 59
_space_group.IT_coordinate_system_code '2'
_symmetry_cell_setting 'orthorhombic'
loop_
_space_group_symop_operation_xyz
x,y,z
1/2-x,1/2-y,z
1/2+x,-y,-z
-x,1/2+y,-z
-x,-y,-z
1/2+x,1/2+y,-z
1/2-x,y,z
x,1/2-y,z
loop_
_atom_site_type_symbol
_atom_site_label
_atom_site_fract_x
_atom_site_fract_y
_atom_site_fract_z
Si Si1 0.069503 0.326527 0.170174
Si Si2 0.068707 0.541689 0.574501
Si Si3 0.427606 0.169917 0.689671
Si Si4 0.568460 0.326129 0.512629
Si Si5 0.568835 0.458007 0.241651
Si Si6 0.430846 0.584094 0.164334
Si Si7 0.930461 0.172922 0.990539
O O1 0.250000 0.333059 0.176575
O O2 0.027156 0.250000 0.193158
O O3 0.988726 0.383699 0.222413
O O4 0.018173 0.336151 0.075578
O O5 0.250000 0.534580 0.571617
O O6 0.030625 0.619286 0.555897
O O7 0.018847 0.521957 0.665873
O O8 0.000000 0.500000 0.500000
O O9 0.250000 0.153234 0.692812
O O10 0.445321 0.250000 0.702210
O O11 0.491642 0.155024 0.599040
O O12 0.513606 0.129720 0.759935
O O13 0.750000 0.327289 0.524378
O O14 0.523733 0.250000 0.491767
O O15 0.750000 0.459672 0.238504
O O16 0.501713 0.511164 0.177771
O O17 0.250000 0.579490 0.165477
O O18 0.476365 0.621108 0.080077
O O19 0.750000 0.165501 0.005725
O O20 0.954976 0.250000 0.962209
#
# Coordination Sequence:
#
# PCOD9449910 Si02
#       7
#     8   8   8   8   8   8   8
#     4  10  22  41  64  89 116 147 187 234 283 336
#     4  10  22  38  57  81 109 145 187 232 282 336
#     4  10  20  33  51  79 115 151 187 230 282 339
#     4   9  18  34  55  77 102 136 182 233 282 333
#     4  11  24  40  59  85 116 151 190 232 284 341
#     4  11  22  36  56  83 116 152 192 235 279 333
#     4   9  19  37  61  87 114 148 189 231 278 331
#
# _framework density 19.524332999999999
#
# number of rings (size 3 to 8) (size 9 to 14) (size 15 to 20)
#    0.000    2.000    0.000    3.000    0.000    8.571 
#    0.000    2.857    0.000    1.714    0.000    0.000 
#    0.000    0.000    0.000    0.000    0.000    0.000 
#
# Total GULP energy -312874.537835 kJ/mol
# GULP energy per Si atom -5587.045318 kJ/mol
# Density = 1.947989 g / cm^3
# Si number density = 19.524333 Si / 1000 Ang^3
#
#
#
# Elastic Constant Matrix: (Units=GPa)
#
#
# Indices 1 2 3 4 5 6 
#
# 1 34.1813 29.6011 15.4045 0.0000 0.0000 0.0000
# 2 29.6011 78.4747 37.3744 0.0000 0.0000 0.0000
# 3 15.4045 37.3744 51.3124 0.0000 0.0000 0.0000
# 4 0.0000 0.0000 0.0000 36.7792 0.0000 0.0000
# 5 0.0000 0.0000 0.0000 0.0000 24.8941 0.0000
# 6 0.0000 0.0000 0.0000 0.0000 0.0000 32.7459
#
#
#
# Elastic Compliance Matrix: (Units=1/GPa)
#
#
# Indices 1 2 3 4 5 6 
#
# 1 0.043545 -0.015617 -0.001698 0.000000 0.000000 0.000000
# 2 -0.015617 0.025112 -0.013603 0.000000 0.000000 0.000000
# 3 -0.001698 -0.013603 0.029906 0.000000 0.000000 0.000000
# 4 0.000000 0.000000 0.000000 0.027189 0.000000 0.000000
# 5 0.000000 0.000000 0.000000 0.000000 0.040170 0.000000
# 6 0.000000 0.000000 0.000000 0.000000 0.000000 0.030538
#
#
# Mechanical properties :
#
#
# Convention : Reuss Voigt Hill
#
# Bulk Modulus (GPa) = 27.22672 36.52538 31.87605
# Shear Modulus (GPa) = 18.48166 24.32307 21.40237
#
# Velocity S-wave (km/s) = 3.08002 3.53339 3.31447
# Velocity P-wave (km/s) = 5.15984 5.94935 5.56860
#
# Compressibility (1/GPa) = 0.03672863
#
# Stress axis : x y z
#
# Youngs Moduli (GPa) = 22.96459 39.82138 33.43819
#
# Poissons Ratio (x) = 0.62189 0.05677
# Poissons Ratio (y) = 0.35864 0.45485
# Poissons Ratio (z) = 0.03899 0.54167
#
# Static dielectric constant tensor:
#      x y z
#    x 1.660070 0.000000 0.000000 
#    y 0.000000 1.703990 0.000000 
#    z 0.000000 0.000000 1.650520 
# 
# From -- ./inp_files/21079.got.cif
#   From: 2010.05.17/outbox.cif.g08.bks.cpg/sg59_11_cif.got.tgz:21079.got - 2010.06.03 14:40:33.
