data_PCOD9449619
_publ_section_title
;
Structure prediction by ZEFSAII (Michael W. Deem and Ramdas Pophale) SiO2 
 PCOD9449619
Probable space group: P M M N
;
_chemical_formula_sum "Si O2"
_cell_formula_units_Z 48
_cell_length_a 9.372277
_cell_length_b 7.363924
_cell_length_c 32.628112
_cell_angle_alpha 90.000000
_cell_angle_beta 90.000000
_cell_angle_gamma 90.000000
_cell_volume 2251.885777
_symmetry_space_group_name_H-M "P M M N"
_symmetry_group_IT_number 59
_space_group.IT_coordinate_system_code '2'
_symmetry_cell_setting 'orthorhombic'
loop_
_space_group_symop_operation_xyz
x,y,z
1/2-x,1/2-y,z
1/2+x,-y,-z
-x,1/2+y,-z
-x,-y,-z
1/2+x,1/2+y,-z
1/2-x,y,z
x,1/2-y,z
loop_
_atom_site_type_symbol
_atom_site_label
_atom_site_fract_x
_atom_site_fract_y
_atom_site_fract_z
Si Si1 0.411397 0.467366 0.959294
Si Si2 0.913975 0.471578 0.701565
Si Si3 0.584437 0.972109 0.218325
Si Si4 0.912125 0.033057 0.541303
Si Si5 0.076057 0.038380 0.871281
Si Si6 0.414511 0.471905 0.620815
O O1 0.250000 0.535621 0.964761
O O2 0.403278 0.250000 0.954448
O O3 0.470283 0.537239 0.915466
O O4 0.500000 0.500000 0.000000
O O5 0.750000 0.529189 0.698483
O O6 0.914452 0.250000 0.701647
O O7 0.987742 0.529698 0.743847
O O8 0.005825 0.528244 0.662279
O O9 0.750000 0.024290 0.224499
O O10 0.583266 0.750000 0.217365
O O11 0.535408 0.036513 0.173223
O O12 0.750000 0.963030 0.538884
O O13 0.902452 0.250000 0.546043
O O14 0.998543 0.966351 0.580898
O O15 0.000000 0.000000 0.500000
O O16 0.250000 0.032006 0.872149
O O17 0.033265 0.250000 0.870405
O O18 0.250000 0.529577 0.619734
O O19 0.413929 0.250000 0.620555
#
# Coordination Sequence:
#
# PCOD9449619 Si02
#       6
#     8   8   8   8   8   8
#     4   9  17  29  44  62  85 113 145 181 220 261
#     4   9  15  21  30  48  76 106 134 167 208 253
#     4   8  12  19  32  48  67  96 133 166 198 244
#     4  10  20  33  49  69  93 121 153 189 228 268
#     4   7  11  21  36  52  72 101 135 169 206 249
#     4   9  16  26  40  57  79 110 146 180 215 257
#
# _framework density 21.315469
#
# number of rings (size 3 to 8) (size 9 to 14) (size 15 to 20)
#    0.000    3.333    0.000    3.500    0.000    5.333 
#    0.000    0.833    0.000    3.000    0.000    0.000 
#    0.000    1.333    0.000    7.000    0.000   13.167 
#
# Total GULP energy -267736.442621 kJ/mol
# GULP energy per Si atom -5577.842555 kJ/mol
# Density = 2.126695 g / cm^3
# Si number density = 21.315469 Si / 1000 Ang^3
#
#
#
# Elastic Constant Matrix: (Units=GPa)
#
#
# Indices 1 2 3 4 5 6 
#
# 1 157.9345 5.7618 133.7872 0.0000 0.0000 0.0000
# 2 5.7618 77.0206 7.1221 0.0000 0.0000 0.0000
# 3 133.7872 7.1221 274.1986 0.0000 0.0000 0.0000
# 4 0.0000 0.0000 0.0000 6.6593 0.0000 0.0000
# 5 0.0000 0.0000 0.0000 0.0000 39.0821 0.0000
# 6 0.0000 0.0000 0.0000 0.0000 0.0000 -1.5493
#
#
#
# Elastic Compliance Matrix: (Units=1/GPa)
#
#
# Indices 1 2 3 4 5 6 
#
# 1 0.010800 -0.000321 -0.005261 0.000000 0.000000 0.000000
# 2 -0.000321 0.013024 -0.000181 0.000000 0.000000 0.000000
# 3 -0.005261 -0.000181 0.006219 0.000000 0.000000 0.000000
# 4 0.000000 0.000000 0.000000 0.150167 0.000000 0.000000
# 5 0.000000 0.000000 0.000000 0.000000 0.025587 0.000000
# 6 0.000000 0.000000 0.000000 0.000000 0.000000 -0.645466
#
#
# Mechanical properties :
#
#
# Convention : Reuss Voigt Hill
#
# Bulk Modulus (GPa) = 54.01014 89.16621 71.58817
# Shear Modulus (GPa) = -11.84923 33.00392 10.57734
#
# Velocity S-wave (km/s) = -2.36031 3.93918 2.23004
# Velocity P-wave (km/s) = 4.23856 7.91278 6.34734
#
# Compressibility (1/GPa) = 0.01851504
#
# Stress axis : x y z
#
# Youngs Moduli (GPa) = 92.58887 76.77915 160.80133
#
# Poissons Ratio (x) = 0.02468 0.84604
# Poissons Ratio (y) = 0.02976 0.02918
# Poissons Ratio (z) = 0.48715 0.01393
#
# Static dielectric constant tensor:
#      x y z
#    x 1.728430 0.000000 0.000000 
#    y 0.000000 1.958440 0.000000 
#    z 0.000000 0.000000 1.771570 
# 
# From -- ./inp_files/32588.got.cif
#   From: 2010.05.17/outbox.cif.g08.bks.cpg/sg59_17_cif.got.tgz:32588.got - 2010.06.03 14:40:33.
