data_PCOD9449599
_publ_section_title
;
Structure prediction by ZEFSAII (Michael W. Deem and Ramdas Pophale) SiO2 
 PCOD9449599
Probable space group: P M M N
;
_chemical_formula_sum "Si O2"
_cell_formula_units_Z 48
_cell_length_a 15.368858
_cell_length_b 8.305008
_cell_length_c 18.814675
_cell_angle_alpha 90.000000
_cell_angle_beta 90.000000
_cell_angle_gamma 90.000000
_cell_volume 2401.476681
_symmetry_space_group_name_H-M "P M M N"
_symmetry_group_IT_number 59
_space_group.IT_coordinate_system_code '2'
_symmetry_cell_setting 'orthorhombic'
loop_
_space_group_symop_operation_xyz
x,y,z
1/2-x,1/2-y,z
1/2+x,-y,-z
-x,1/2+y,-z
-x,-y,-z
1/2+x,1/2+y,-z
1/2-x,y,z
x,1/2-y,z
loop_
_atom_site_type_symbol
_atom_site_label
_atom_site_fract_x
_atom_site_fract_y
_atom_site_fract_z
Si Si1 0.152234 0.946617 0.112031
Si Si2 0.533238 0.441591 0.327742
Si Si3 0.343652 0.944885 0.376515
Si Si4 0.475071 0.058781 0.824545
Si Si5 0.094587 0.555963 0.525907
Si Si6 0.150095 0.555994 0.948177
O O1 0.250000 0.999721 0.130915
O O2 0.153116 0.750000 0.113759
O O3 0.073146 0.003375 0.160625
O O4 0.133592 0.992712 0.030005
O O5 0.532925 0.250000 0.331405
O O6 0.433568 0.497837 0.341628
O O7 0.560458 0.493334 0.249523
O O8 0.595432 0.501445 0.392338
O O9 0.250000 0.996546 0.345600
O O10 0.346001 0.750000 0.373615
O O11 0.346259 0.996184 0.459887
O O12 0.480070 0.250000 0.818528
O O13 0.415976 0.014958 0.891643
O O14 0.100868 0.750000 0.527300
O O15 0.000000 0.500000 0.500000
O O16 0.250000 0.511295 0.931536
O O17 0.144128 0.750000 0.945665
#
# Coordination Sequence:
#
# PCOD9449599 Si02
#       6
#     8   8   8   8   8   8
#     4   8  16  32  53  76 101 132 172 214 257 309
#     4  10  20  33  48  69 101 136 169 204 245 300
#     4   9  17  31  52  75  96 121 159 207 257 307
#     4  11  21  32  51  78 107 139 173 212 259 308
#     4   8  15  29  48  67  88 119 158 197 236 282
#     4   9  18  35  57  76  97 130 172 217 264 313
#
# _framework density 19.987701000000001
#
# number of rings (size 3 to 8) (size 9 to 14) (size 15 to 20)
#    0.000    2.833    0.000    2.500    0.000    2.000 
#    0.000    3.333    0.000    6.500    0.000    0.000 
#    0.000    0.000    0.000    0.000    0.000    0.000 
#
# Total GULP energy -267404.228066 kJ/mol
# GULP energy per Si atom -5570.921418 kJ/mol
# Density = 1.994221 g / cm^3
# Si number density = 19.987701 Si / 1000 Ang^3
#
#
#
# Elastic Constant Matrix: (Units=GPa)
#
#
# Indices 1 2 3 4 5 6 
#
# 1 18.1951 0.0540 -4.9763 0.0000 0.0000 0.0000
# 2 0.0540 8.3533 0.7823 0.0000 0.0000 0.0000
# 3 -4.9763 0.7823 53.5491 0.0000 0.0000 0.0000
# 4 0.0000 0.0000 0.0000 21.2704 0.0000 0.0000
# 5 0.0000 0.0000 0.0000 0.0000 11.2811 0.0000
# 6 0.0000 0.0000 0.0000 0.0000 0.0000 17.8021
#
#
#
# Elastic Compliance Matrix: (Units=1/GPa)
#
#
# Indices 1 2 3 4 5 6 
#
# 1 0.056399 -0.000857 0.005254 0.000000 0.000000 0.000000
# 2 -0.000857 0.119890 -0.001831 0.000000 0.000000 0.000000
# 3 0.005254 -0.001831 0.019189 0.000000 0.000000 0.000000
# 4 0.000000 0.000000 0.000000 0.047014 0.000000 0.000000
# 5 0.000000 0.000000 0.000000 0.000000 0.088644 0.000000
# 6 0.000000 0.000000 0.000000 0.000000 0.000000 0.056173
#
#
# Mechanical properties :
#
#
# Convention : Reuss Voigt Hill
#
# Bulk Modulus (GPa) = 4.98476 7.97969 6.48222
# Shear Modulus (GPa) = 11.13466 15.68655 13.41061
#
# Velocity S-wave (km/s) = 2.36281 2.80449 2.59307
# Velocity P-wave (km/s) = 3.15327 3.80629 3.49506
#
# Compressibility (1/GPa) = 0.20061164
#
# Stress axis : x y z
#
# Youngs Moduli (GPa) = 17.73071 8.34095 52.11199
#
# Poissons Ratio (x) = 0.00714 -0.27378
# Poissons Ratio (y) = 0.01519 0.09542
# Poissons Ratio (z) = -0.09315 0.01527
#
# Static dielectric constant tensor:
#      x y z
#    x 1.709380 0.000000 0.000000 
#    y 0.000000 1.698650 0.000000 
#    z 0.000000 0.000000 1.733570 
# 
# From -- ./inp_files/25485.got.cif
#   From: 2010.05.17/outbox.cif.g08.bks.cpg/sg59_13_cif.got.tgz:25485.got - 2010.06.03 14:40:33.
