data_PCOD9449834
_publ_section_title
;
Structure prediction by ZEFSAII (Michael W. Deem and Ramdas Pophale) SiO2 
 PCOD9449834
Probable space group: P M M N
;
_chemical_formula_sum "Si O2"
_cell_formula_units_Z 56
_cell_length_a 14.553665
_cell_length_b 7.904465
_cell_length_c 22.217753
_cell_angle_alpha 90.000000
_cell_angle_beta 90.000000
_cell_angle_gamma 90.000000
_cell_volume 2555.906657
_symmetry_space_group_name_H-M "P M M N"
_symmetry_group_IT_number 59
_space_group.IT_coordinate_system_code '2'
_symmetry_cell_setting 'orthorhombic'
loop_
_space_group_symop_operation_xyz
x,y,z
1/2-x,1/2-y,z
1/2+x,-y,-z
-x,1/2+y,-z
-x,-y,-z
1/2+x,1/2+y,-z
1/2-x,y,z
x,1/2-y,z
loop_
_atom_site_type_symbol
_atom_site_label
_atom_site_fract_x
_atom_site_fract_y
_atom_site_fract_z
Si Si1 0.143180 0.954177 0.403366
Si Si2 0.965658 0.451469 0.844712
Si Si3 0.644374 0.045300 0.094602
Si Si4 0.142337 0.955452 0.039650
Si Si5 0.138509 0.441754 0.534204
Si Si6 0.459643 0.947399 0.286142
Si Si7 0.354759 0.945006 0.664632
O O1 0.250000 0.006418 0.399359
O O2 0.140663 0.750000 0.403368
O O3 0.090064 0.020819 0.344963
O O4 0.104020 0.007521 0.468325
O O5 0.948092 0.250000 0.843327
O O6 0.913513 0.521802 0.903298
O O7 0.938110 0.521636 0.779472
O O8 0.072998 0.479372 0.857064
O O9 0.750000 0.993887 0.104185
O O10 0.642291 0.250000 0.095114
O O11 0.614782 0.986383 0.027332
O O12 0.250000 0.994371 0.046808
O O13 0.134283 0.750000 0.038871
O O14 0.250000 0.449787 0.529072
O O15 0.110607 0.250000 0.547366
O O16 0.117650 0.546025 0.593990
O O17 0.433128 0.750000 0.284294
O O18 0.568265 0.959679 0.298057
O O19 0.250000 0.010621 0.669650
O O20 0.354951 0.750000 0.683630
#
# Coordination Sequence:
#
# PCOD9449834 Si02
#       7
#     8   8   8   8   8   8   8
#     4   9  18  34  54  75 102 134 168 207 249 299
#     4  10  20  33  51  76 104 134 170 211 252 295
#     4   9  18  33  53  76 102 134 170 207 252 304
#     4   8  15  30  53  79 104 131 166 208 253 301
#     4   9  17  31  54  81 104 128 162 208 261 306
#     4  10  22  36  50  74 105 137 172 207 250 301
#     4  10  21  37  56  76  99 131 172 214 254 300
#
# _framework density 21.910032000000001
#
# number of rings (size 3 to 8) (size 9 to 14) (size 15 to 20)
#    0.000    2.714    0.000    2.143    0.000    5.714 
#    0.000    5.714    0.000    1.286    0.000    2.000 
#    0.000    0.000    0.000    0.000    0.000    0.000 
#
# Total GULP energy -312543.876047 kJ/mol
# GULP energy per Si atom -5581.140644 kJ/mol
# Density = 2.186016 g / cm^3
# Si number density = 21.910032 Si / 1000 Ang^3
#
#
#
# Elastic Constant Matrix: (Units=GPa)
#
#
# Indices 1 2 3 4 5 6 
#
# 1 33.6578 -7.8274 11.7133 0.0000 0.0000 0.0000
# 2 -7.8274 22.1230 -0.6047 0.0000 0.0000 0.0000
# 3 11.7133 -0.6047 65.5171 0.0000 0.0000 0.0000
# 4 0.0000 0.0000 0.0000 13.9766 0.0000 0.0000
# 5 0.0000 0.0000 0.0000 0.0000 15.0549 0.0000
# 6 0.0000 0.0000 0.0000 0.0000 0.0000 15.3252
#
#
#
# Elastic Compliance Matrix: (Units=1/GPa)
#
#
# Indices 1 2 3 4 5 6 
#
# 1 0.034639 0.012089 -0.006081 0.000000 0.000000 0.000000
# 2 0.012089 0.049432 -0.001705 0.000000 0.000000 0.000000
# 3 -0.006081 -0.001705 0.016335 0.000000 0.000000 0.000000
# 4 0.000000 0.000000 0.000000 0.071548 0.000000 0.000000
# 5 0.000000 0.000000 0.000000 0.000000 0.066424 0.000000
# 6 0.000000 0.000000 0.000000 0.000000 0.000000 0.065252
#
#
# Mechanical properties :
#
#
# Convention : Reuss Voigt Hill
#
# Bulk Modulus (GPa) = 9.17333 14.20672 11.69003
# Shear Modulus (GPa) = 15.08929 16.73911 15.91420
#
# Velocity S-wave (km/s) = 2.62714 2.76704 2.69800
# Velocity P-wave (km/s) = 3.66038 4.08740 3.87977
#
# Compressibility (1/GPa) = 0.10901161
#
# Stress axis : x y z
#
# Youngs Moduli (GPa) = 28.86957 20.22961 61.21945
#
# Poissons Ratio (x) = -0.24456 0.37229
# Poissons Ratio (y) = -0.34901 0.10439
# Poissons Ratio (z) = 0.17556 0.03449
#
# Static dielectric constant tensor:
#      x y z
#    x 1.806180 0.000000 0.000000 
#    y 0.000000 1.813460 0.000000 
#    z 0.000000 0.000000 1.822720 
# 
# From -- ./inp_files/28989.got.cif
#   From: 2010.05.17/outbox.cif.g08.bks.cpg/sg59_15_cif.got.tgz:28989.got - 2010.06.03 14:40:33.
