data_PCOD9449963
_publ_section_title
;
Structure prediction by ZEFSAII (Michael W. Deem and Ramdas Pophale) SiO2 
 PCOD9449963
Probable space group: P M M N
;
_chemical_formula_sum "Si O2"
_cell_formula_units_Z 64
_cell_length_a 19.489700
_cell_length_b 7.665838
_cell_length_c 20.172069
_cell_angle_alpha 90.000000
_cell_angle_beta 90.000000
_cell_angle_gamma 90.000000
_cell_volume 3013.805606
_symmetry_space_group_name_H-M "P M M N"
_symmetry_group_IT_number 59
_space_group.IT_coordinate_system_code '2'
_symmetry_cell_setting 'orthorhombic'
loop_
_space_group_symop_operation_xyz
x,y,z
1/2-x,1/2-y,z
1/2+x,-y,-z
-x,1/2+y,-z
-x,-y,-z
1/2+x,1/2+y,-z
1/2-x,y,z
x,1/2-y,z
loop_
_atom_site_type_symbol
_atom_site_label
_atom_site_fract_x
_atom_site_fract_y
_atom_site_fract_z
Si Si1 0.895589 0.545158 0.597518
Si Si2 0.921896 0.551517 0.851822
Si Si3 0.828604 0.963257 0.969720
Si Si4 0.328019 0.547877 0.265561
Si Si5 0.557846 0.547838 0.219382
Si Si6 0.953513 0.538455 0.368975
Si Si7 0.828362 0.536716 0.460660
Si Si8 0.171664 0.463287 0.879432
O O1 0.880830 0.750000 0.602602
O O2 0.867865 0.463263 0.665170
O O3 0.856771 0.478976 0.532306
O O4 0.977337 0.520534 0.594380
O O5 0.942413 0.750000 0.867039
O O6 0.883362 0.475677 0.915764
O O7 0.867423 0.551546 0.791988
O O8 0.988860 0.458958 0.823651
O O9 0.750000 0.016703 0.954422
O O10 0.828757 0.750000 0.967350
O O11 0.844940 0.016134 0.045059
O O12 0.250000 0.486911 0.274332
O O13 0.327178 0.750000 0.245012
O O14 0.576078 0.750000 0.230820
O O15 0.545569 0.474023 0.292803
O O16 0.618815 0.470799 0.175265
O O17 0.955901 0.750000 0.369365
O O18 0.884148 0.483029 0.405974
O O19 0.750000 0.480230 0.449484
O O20 0.828162 0.750000 0.460760
O O21 0.250000 0.513539 0.865335
O O22 0.169316 0.250000 0.879618
#
# Coordination Sequence:
#
# PCOD9449963 Si02
#       8
#     8   8   8   8   8   8   8   8
#     4  11  21  35  57  81 107 143 181 220 263 317
#     4  11  21  33  52  77 107 144 182 218 261 319
#     4   8  15  29  49  74 104 137 178 226 268 308
#     4  11  23  37  54  78 109 142 176 219 269 317
#     4  10  20  33  52  79 110 141 177 222 268 315
#     4  10  20  35  55  78 110 147 179 220 271 319
#     4   9  19  35  55  81 109 138 180 230 271 311
#     4   8  15  30  52  77 104 137 180 227 270 314
#
# _framework density 21.235610000000001
#
# number of rings (size 3 to 8) (size 9 to 14) (size 15 to 20)
#    0.000    2.250    1.250    3.000    0.000    3.000 
#    0.000    3.125    0.000    3.000    0.000    5.250 
#    0.000    0.000    0.000    0.000    0.000    0.000 
#
# Total GULP energy -357440.323416 kJ/mol
# GULP energy per Si atom -5585.005053 kJ/mol
# Density = 2.118728 g / cm^3
# Si number density = 21.235610 Si / 1000 Ang^3
#
#
#
# Elastic Constant Matrix: (Units=GPa)
#
#
# Indices 1 2 3 4 5 6 
#
# 1 117.5572 -11.0834 32.0552 0.0000 0.0000 0.0000
# 2 -11.0834 40.0959 -4.0823 0.0000 0.0000 0.0000
# 3 32.0552 -4.0823 40.5930 0.0000 0.0000 0.0000
# 4 0.0000 0.0000 0.0000 -0.0429 0.0000 0.0000
# 5 0.0000 0.0000 0.0000 0.0000 76.0326 0.0000
# 6 0.0000 0.0000 0.0000 0.0000 0.0000 75.3663
#
#
#
# Elastic Compliance Matrix: (Units=1/GPa)
#
#
# Indices 1 2 3 4 5 6 
#
# 1 0.011027 0.002184 -0.008488 0.000000 0.000000 0.000000
# 2 0.002184 0.025631 0.000853 0.000000 0.000000 0.000000
# 3 -0.008488 0.000853 0.031423 0.000000 0.000000 0.000000
# 4 0.000000 0.000000 0.000000-23.301739 0.000000 0.000000
# 5 0.000000 0.000000 0.000000 0.000000 0.013152 0.000000
# 6 0.000000 0.000000 0.000000 0.000000 0.000000 0.013269
#
#
# Mechanical properties :
#
#
# Convention : Reuss Voigt Hill
#
# Bulk Modulus (GPa) = 17.48901 25.78057 21.63479
# Shear Modulus (GPa) = -0.21573 42.36163 21.07295
#
# Velocity S-wave (km/s) = -0.31907 4.47121 3.15356
# Velocity P-wave (km/s) = 2.84918 6.23075 4.84459
#
# Compressibility (1/GPa) = 0.05717877
#
# Stress axis : x y z
#
# Youngs Moduli (GPa) = 90.68739 39.01572 31.82344
#
# Poissons Ratio (x) = -0.08521 0.27012
# Poissons Ratio (y) = -0.19805 -0.02715
# Poissons Ratio (z) = 0.76976 -0.03328
#
# Static dielectric constant tensor:
#      x y z
#    x 1.738620 0.000000 0.000000 
#    y 0.000000 1.817500 0.000000 
#    z 0.000000 0.000000 1.744470 
# 
# From -- ./inp_files/28305.got.cif
#   From: 2010.05.17/outbox.cif.g08.bks.cpg/sg59_15_cif.got.tgz:28305.got - 2010.06.03 14:40:33.
