data_PCOD9449345
_publ_section_title
;
Structure prediction by ZEFSAII (Michael W. Deem and Ramdas Pophale) SiO2 
 PCOD9449345
Probable space group: P M M N
;
_chemical_formula_sum "Si O2"
_cell_formula_units_Z 40
_cell_length_a 27.155136
_cell_length_b 7.553151
_cell_length_c 9.884293
_cell_angle_alpha 90.000000
_cell_angle_beta 90.000000
_cell_angle_gamma 90.000000
_cell_volume 2027.336129
_symmetry_space_group_name_H-M "P M M N"
_symmetry_group_IT_number 59
_space_group.IT_coordinate_system_code '2'
_symmetry_cell_setting 'orthorhombic'
loop_
_space_group_symop_operation_xyz
x,y,z
1/2-x,1/2-y,z
1/2+x,-y,-z
-x,1/2+y,-z
-x,-y,-z
1/2+x,1/2+y,-z
1/2-x,y,z
x,1/2-y,z
loop_
_atom_site_type_symbol
_atom_site_label
_atom_site_fract_x
_atom_site_fract_y
_atom_site_fract_z
Si Si1 0.552999 0.954367 0.174831
Si Si2 0.750000 0.955527 0.347385
Si Si3 0.356865 0.463960 0.332475
Si Si4 0.750000 0.955666 0.676672
Si Si5 0.055029 0.959107 0.130830
Si Si6 0.857705 0.967805 0.355255
O O1 0.549089 0.750000 0.218726
O O2 0.497702 0.030652 0.183759
O O3 0.597146 0.030917 0.263762
O O4 0.565991 0.960768 0.016015
O O5 0.750000 0.750000 0.304328
O O6 0.750000 0.957236 0.512061
O O7 0.803358 0.029902 0.308067
O O8 0.353912 0.250000 0.334675
O O9 0.303125 0.531508 0.284097
O O10 0.401350 0.514263 0.235955
O O11 0.364808 0.519679 0.488052
O O12 0.750000 0.750000 0.720242
O O13 0.048430 0.750000 0.107095
O O14 0.856055 0.750000 0.351877
#
# Coordination Sequence:
#
# PCOD9449345 Si02
#       6
#     8   4   8   4   8   8
#     4   9  18  33  49  64  88 123 158 190 227 271
#     4   7  10  20  41  69  94 110 134 181 232 267
#     4   9  16  29  50  72  92 115 146 185 227 270
#     4   7  12  24  44  69  92 114 142 177 220 271
#     4  10  20  32  45  64  92 125 157 187 224 271
#     4   8  14  26  47  72  92 112 144 187 229 268
#
# _framework density 19.730325000000001
#
# number of rings (size 3 to 8) (size 9 to 14) (size 15 to 20)
#    0.000    3.400    0.000    3.000    0.000    1.600 
#    0.000    2.500    0.000    3.600    0.000    1.400 
#    0.000    0.000    0.000    0.000    0.000    0.000 
#
# Total GULP energy -222742.008882 kJ/mol
# GULP energy per Si atom -5568.550222 kJ/mol
# Density = 1.968542 g / cm^3
# Si number density = 19.730325 Si / 1000 Ang^3
#
#
#
# Elastic Constant Matrix: (Units=GPa)
#
#
# Indices 1 2 3 4 5 6 
#
# 1 212.3750 -0.6124 97.1262 0.0000 0.0000 0.0000
# 2 -0.6124 46.7784 -6.2087 0.0000 0.0000 0.0000
# 3 97.1262 -6.2087 61.9070 0.0000 0.0000 0.0000
# 4 0.0000 0.0000 0.0000 6.8103 0.0000 0.0000
# 5 0.0000 0.0000 0.0000 0.0000 -68.4524 0.0000
# 6 0.0000 0.0000 0.0000 0.0000 0.0000 11.7413
#
#
#
# Elastic Compliance Matrix: (Units=1/GPa)
#
#
# Indices 1 2 3 4 5 6 
#
# 1 0.017186 -0.003399 -0.027304 0.000000 0.000000 0.000000
# 2 -0.003399 0.022338 0.007573 0.000000 0.000000 0.000000
# 3 -0.027304 0.007573 0.059750 0.000000 0.000000 0.000000
# 4 0.000000 0.000000 0.000000 0.146837 0.000000 0.000000
# 5 0.000000 0.000000 0.000000 0.000000 -0.014609 0.000000
# 6 0.000000 0.000000 0.000000 0.000000 0.000000 0.085169
#
#
# Mechanical properties :
#
#
# Convention : Reuss Voigt Hill
#
# Bulk Modulus (GPa) = 18.86299 55.74117 37.30208
# Shear Modulus (GPa) = 13.13712 5.40354 9.27033
#
# Velocity S-wave (km/s) = 2.58318 1.65670 2.16996
# Velocity P-wave (km/s) = 4.29863 5.65441 5.02248
#
# Compressibility (1/GPa) = 0.05301386
#
# Stress axis : x y z
#
# Youngs Moduli (GPa) = 58.18794 44.76677 16.73654
#
# Poissons Ratio (x) = 0.15216 0.45697
# Poissons Ratio (y) = 0.19777 -0.12674
# Poissons Ratio (z) = 1.58874 -0.33901
#
# Static dielectric constant tensor:
#      x y z
#    x 1.746010 0.000000 0.000000 
#    y 0.000000 4.959320 0.000000 
#    z 0.000000 0.000000 1.636040 
# 
# From -- ./inp_files/12426.got.cif
#   From: 2010.05.17/outbox.cif.g08.bks.cpg/sg59_7_cif.got.tgz:12426.got - 2010.06.03 14:40:33.
