data_PCOD9449664
_publ_section_title
;
Structure prediction by ZEFSAII (Michael W. Deem and Ramdas Pophale) SiO2 
 PCOD9449664
Probable space group: P M M N
;
_chemical_formula_sum "Si O2"
_cell_formula_units_Z 64
_cell_length_a 20.244750
_cell_length_b 8.741845
_cell_length_c 18.601738
_cell_angle_alpha 90.000000
_cell_angle_beta 90.000000
_cell_angle_gamma 90.000000
_cell_volume 3292.069863
_symmetry_space_group_name_H-M "P M M N"
_symmetry_group_IT_number 59
_space_group.IT_coordinate_system_code '2'
_symmetry_cell_setting 'orthorhombic'
loop_
_space_group_symop_operation_xyz
x,y,z
1/2-x,1/2-y,z
1/2+x,-y,-z
-x,1/2+y,-z
-x,-y,-z
1/2+x,1/2+y,-z
1/2-x,y,z
x,1/2-y,z
loop_
_atom_site_type_symbol
_atom_site_label
_atom_site_fract_x
_atom_site_fract_y
_atom_site_fract_z
Si Si1 0.920013 0.427444 0.621649
Si Si2 0.824652 0.933109 0.505780
Si Si3 0.323598 0.934508 0.654537
Si Si4 0.986502 0.434038 0.122340
Si Si5 0.829353 0.921088 0.731652
Si Si6 0.910031 0.431460 0.992382
Si Si7 0.964470 0.435113 0.284424
Si Si8 0.672646 0.420587 0.871132
O O1 0.931833 0.250000 0.608233
O O2 0.884826 0.502538 0.552738
O O3 0.864740 0.455404 0.682896
O O4 0.986056 0.502482 0.654590
O O5 0.750000 0.977306 0.532668
O O6 0.827331 0.750000 0.507131
O O7 0.829520 0.993983 0.424725
O O8 0.250000 0.976149 0.682734
O O9 0.325029 0.750000 0.647935
O O10 0.388407 0.978794 0.699598
O O11 0.990410 0.250000 0.126888
O O12 0.922602 0.480524 0.073880
O O13 0.985178 0.489963 0.204263
O O14 0.042838 0.492998 0.067977
O O15 0.750000 0.927029 0.725112
O O16 0.850611 0.750000 0.710091
O O17 0.850414 0.955359 0.813473
O O18 0.923991 0.250000 0.992345
O O19 0.840514 0.456308 0.954182
O O20 0.968429 0.250000 0.285392
O O21 0.750000 0.411286 0.859457
O O22 0.644685 0.250000 0.855625
#
# Coordination Sequence:
#
# PCOD9449664 Si02
#       8
#     8   8   8   8   8   8   8   8
#     4  12  24  35  52  79 110 142 176 218 263 309
#     4  10  21  38  60  84 110 142 178 213 253 306
#     4   9  19  38  62  84 106 136 175 218 265 316
#     4   9  18  32  50  72  98 131 170 210 255 306
#     4  10  20  33  49  71 103 143 182 218 260 314
#     4   9  17  30  48  70  97 130 169 211 255 303
#     4  10  21  37  56  79 109 141 175 219 268 317
#     4   9  17  29  45  67  97 132 169 210 256 307
#
# _framework density 19.440657000000002
#
# number of rings (size 3 to 8) (size 9 to 14) (size 15 to 20)
#    0.000    2.250    0.000    3.000    0.000    7.000 
#    0.000    0.625    0.000    3.750    0.000    0.000 
#    0.000    7.000    0.000    0.000    0.000    0.000 
#
# Total GULP energy -356477.008949 kJ/mol
# GULP energy per Si atom -5569.953265 kJ/mol
# Density = 1.939641 g / cm^3
# Si number density = 19.440657 Si / 1000 Ang^3
#
#
#
# Elastic Constant Matrix: (Units=GPa)
#
#
# Indices 1 2 3 4 5 6 
#
# 1 81.2452 20.5857 35.4730 0.0000 0.0000 0.0000
# 2 20.5857 24.6708 12.3766 0.0000 0.0000 0.0000
# 3 35.4730 12.3766 60.6965 0.0000 0.0000 0.0000
# 4 0.0000 0.0000 0.0000 18.5201 0.0000 0.0000
# 5 0.0000 0.0000 0.0000 0.0000 32.4456 0.0000
# 6 0.0000 0.0000 0.0000 0.0000 0.0000 17.9410
#
#
#
# Elastic Compliance Matrix: (Units=1/GPa)
#
#
# Indices 1 2 3 4 5 6 
#
# 1 0.019061 -0.011492 -0.008797 0.000000 0.000000 0.000000
# 2 -0.011492 0.052081 -0.003904 0.000000 0.000000 0.000000
# 3 -0.008797 -0.003904 0.022412 0.000000 0.000000 0.000000
# 4 0.000000 0.000000 0.000000 0.053995 0.000000 0.000000
# 5 0.000000 0.000000 0.000000 0.000000 0.030821 0.000000
# 6 0.000000 0.000000 0.000000 0.000000 0.000000 0.055738
#
#
# Mechanical properties :
#
#
# Convention : Reuss Voigt Hill
#
# Bulk Modulus (GPa) = 22.13837 33.72034 27.92936
# Shear Modulus (GPa) = 16.80394 20.32650 18.56522
#
# Velocity S-wave (km/s) = 2.94321 3.23703 3.09361
# Velocity P-wave (km/s) = 4.79190 5.59947 5.21135
#
# Compressibility (1/GPa) = 0.04517044
#
# Stress axis : x y z
#
# Youngs Moduli (GPa) = 52.46347 19.20086 44.61817
#
# Poissons Ratio (x) = 0.22065 0.39249
# Poissons Ratio (y) = 0.60290 0.17417
# Poissons Ratio (z) = 0.46150 0.07495
#
# Static dielectric constant tensor:
#      x y z
#    x 1.768950 0.000000 0.000000 
#    y 0.000000 1.695290 0.000000 
#    z 0.000000 0.000000 1.702810 
# 
# From -- ./inp_files/28175.got.cif
#   From: 2010.05.17/outbox.cif.g08.bks.cpg/sg59_15_cif.got.tgz:28175.got - 2010.06.03 14:40:33.
