data_PCOD9449703
_publ_section_title
;
Structure prediction by ZEFSAII (Michael W. Deem and Ramdas Pophale) SiO2 
 PCOD9449703
Probable space group: P M M N
;
_chemical_formula_sum "Si O2"
_cell_formula_units_Z 48
_cell_length_a 9.269479
_cell_length_b 8.747475
_cell_length_c 32.298401
_cell_angle_alpha 90.000000
_cell_angle_beta 90.000000
_cell_angle_gamma 90.000000
_cell_volume 2618.900853
_symmetry_space_group_name_H-M "P M M N"
_symmetry_group_IT_number 59
_space_group.IT_coordinate_system_code '2'
_symmetry_cell_setting 'orthorhombic'
loop_
_space_group_symop_operation_xyz
x,y,z
1/2-x,1/2-y,z
1/2+x,-y,-z
-x,1/2+y,-z
-x,-y,-z
1/2+x,1/2+y,-z
1/2-x,y,z
x,1/2-y,z
loop_
_atom_site_type_symbol
_atom_site_label
_atom_site_fract_x
_atom_site_fract_y
_atom_site_fract_z
Si Si1 0.425562 0.572338 0.124894
Si Si2 0.917752 0.931897 0.961032
Si Si3 0.417467 0.563172 0.215751
Si Si4 0.081342 0.566575 0.539818
Si Si5 0.415620 0.063526 0.702420
Si Si6 0.418410 0.935003 0.380748
O O1 0.250000 0.565946 0.126128
O O2 0.466662 0.750000 0.121062
O O3 0.474295 0.486429 0.083734
O O4 0.470999 0.513446 0.170234
O O5 0.750000 0.980303 0.963465
O O6 0.923957 0.750000 0.962759
O O7 0.000000 0.000000 0.000000
O O8 0.250000 0.518077 0.221366
O O9 0.418645 0.750000 0.214730
O O10 0.512063 0.513060 0.254596
O O11 0.250000 0.521833 0.539317
O O12 0.073533 0.750000 0.538785
O O13 0.000000 0.500000 0.500000
O O14 0.004540 0.504934 0.580966
O O15 0.250000 0.013831 0.698781
O O16 0.416220 0.250000 0.703026
O O17 0.508685 0.017664 0.662563
O O18 0.250000 0.977786 0.382014
O O19 0.426341 0.750000 0.383377
#
# Coordination Sequence:
#
# PCOD9449703 Si02
#       6
#     8   8   8   8   8   8
#     4   8  14  26  45  67  92 124 161 202 248 296
#     4  10  20  33  50  72  97 127 164 205 250 301
#     4   8  13  23  41  64  89 121 163 206 246 291
#     4  11  24  40  58  81 108 138 173 213 258 308
#     4   9  16  26  43  70 103 135 166 205 253 299
#     4  10  20  34  54  80 108 139 177 218 257 299
#
# _framework density 18.328301
#
# number of rings (size 3 to 8) (size 9 to 14) (size 15 to 20)
#    0.000    2.667    0.000    3.500    0.000    7.333 
#    0.000    0.833    0.000    4.000    0.000    2.333 
#    0.000    0.000    0.000    0.000    0.000    0.000 
#
# Total GULP energy -267690.765274 kJ/mol
# GULP energy per Si atom -5576.890943 kJ/mol
# Density = 1.828658 g / cm^3
# Si number density = 18.328301 Si / 1000 Ang^3
#
#
#
# Elastic Constant Matrix: (Units=GPa)
#
#
# Indices 1 2 3 4 5 6 
#
# 1 124.4713 31.1169 102.0211 0.0000 0.0000 0.0000
# 2 31.1169 12.0095 39.0743 0.0000 0.0000 0.0000
# 3 102.0211 39.0743 220.6016 0.0000 0.0000 0.0000
# 4 0.0000 0.0000 0.0000 23.7868 0.0000 0.0000
# 5 0.0000 0.0000 0.0000 0.0000 35.2400 0.0000
# 6 0.0000 0.0000 0.0000 0.0000 0.0000 16.7420
#
#
#
# Elastic Compliance Matrix: (Units=1/GPa)
#
#
# Indices 1 2 3 4 5 6 
#
# 1 0.022810 -0.058484 -0.000190 0.000000 0.000000 0.000000
# 2 -0.058484 0.346473 -0.034323 0.000000 0.000000 0.000000
# 3 -0.000190 -0.034323 0.010700 0.000000 0.000000 0.000000
# 4 0.000000 0.000000 0.000000 0.042040 0.000000 0.000000
# 5 0.000000 0.000000 0.000000 0.000000 0.028377 0.000000
# 6 0.000000 0.000000 0.000000 0.000000 0.000000 0.059730
#
#
# Mechanical properties :
#
#
# Convention : Reuss Voigt Hill
#
# Bulk Modulus (GPa) = 5.15488 77.94523 41.55006
# Shear Modulus (GPa) = 6.57214 27.47843 17.02528
#
# Velocity S-wave (km/s) = 1.89567 3.87620 3.05110
# Velocity P-wave (km/s) = 2.75863 7.91535 5.92718
#
# Compressibility (1/GPa) = 0.19399099
#
# Stress axis : x y z
#
# Youngs Moduli (GPa) = 43.83996 2.88623 93.45496
#
# Poissons Ratio (x) = 0.16880 0.01776
# Poissons Ratio (y) = 2.56393 3.20761
# Poissons Ratio (z) = 0.00833 0.09906
#
# Static dielectric constant tensor:
#      x y z
#    x 1.620820 0.000000 0.000000 
#    y 0.000000 1.627040 0.000000 
#    z 0.000000 0.000000 1.628310 
# 
# From -- ./inp_files/32882.got.cif
#   From: 2010.05.17/outbox.cif.g08.bks.cpg/sg59_17_cif.got.tgz:32882.got - 2010.06.03 14:40:33.
