data_PCOD9449037
_publ_section_title
;
Structure prediction by ZEFSAII (Michael W. Deem and Ramdas Pophale) SiO2 
 PCOD9449037
Probable space group: P M M N
;
_chemical_formula_sum "Si O2"
_cell_formula_units_Z 48
_cell_length_a 10.019099
_cell_length_b 8.768311
_cell_length_c 30.356417
_cell_angle_alpha 90.000000
_cell_angle_beta 90.000000
_cell_angle_gamma 90.000000
_cell_volume 2666.828718
_symmetry_space_group_name_H-M "P M M N"
_symmetry_group_IT_number 59
_space_group.IT_coordinate_system_code '2'
_symmetry_cell_setting 'orthorhombic'
loop_
_space_group_symop_operation_xyz
x,y,z
1/2-x,1/2-y,z
1/2+x,-y,-z
-x,1/2+y,-z
-x,-y,-z
1/2+x,1/2+y,-z
1/2-x,y,z
x,1/2-y,z
loop_
_atom_site_type_symbol
_atom_site_label
_atom_site_fract_x
_atom_site_fract_y
_atom_site_fract_z
Si Si1 0.593206 0.568397 0.385669
Si Si2 0.092001 0.433314 0.460859
Si Si3 0.088481 0.576871 0.707197
Si Si4 0.250000 0.564881 0.052721
Si Si5 0.250000 0.932869 0.951625
Si Si6 0.511040 0.934674 0.105008
Si Si7 0.090590 0.068190 0.798476
O O1 0.750000 0.521963 0.393885
O O2 0.587164 0.750000 0.392233
O O3 0.486617 0.487789 0.417265
O O4 0.559345 0.525582 0.335275
O O5 0.250000 0.480381 0.462598
O O6 0.090579 0.250000 0.463501
O O7 0.000000 0.500000 0.500000
O O8 0.250000 0.578697 0.710124
O O9 0.042790 0.750000 0.699931
O O10 0.041756 0.512723 0.754103
O O11 0.250000 0.750000 0.050839
O O12 0.376942 0.518506 0.080803
O O13 0.250000 0.511556 0.002269
O O14 0.250000 0.750000 0.951970
O O15 0.125857 0.995174 0.924591
O O16 0.523009 0.750000 0.104670
O O17 0.522969 0.981655 0.155984
O O18 0.250000 0.041010 0.803549
O O19 0.073086 0.250000 0.793187
#
# Coordination Sequence:
#
# PCOD9449037 Si02
#       7
#     8   8   8   4   4   8   8
#     4  10  20  35  57  85 115 147 187 232 275 326
#     4  11  24  40  59  85 117 153 193 236 281 329
#     4   9  17  29  49  78 109 141 175 220 276 325
#     4   9  20  35  53  75 103 135 175 219 266 323
#     4  11  21  33  51  79 105 133 173 221 268 319
#     4  10  19  35  55  75 101 138 177 218 267 323
#     4   9  16  28  48  74 100 131 174 221 267 317
#
# _framework density 17.998905000000001
#
# number of rings (size 3 to 8) (size 9 to 14) (size 15 to 20)
#    0.000    2.167    0.833    2.750    0.000    7.000 
#    0.000    1.250    1.833    0.000    0.000    0.000 
#    0.000    0.000    0.000    0.000    0.000    0.000 
#
# Total GULP energy -267663.548913 kJ/mol
# GULP energy per Si atom -5576.323936 kJ/mol
# Density = 1.795794 g / cm^3
# Si number density = 17.998905 Si / 1000 Ang^3
#
#
#
# Elastic Constant Matrix: (Units=GPa)
#
#
# Indices 1 2 3 4 5 6 
#
# 1 123.0205 36.0287 72.0811 0.0000 0.0000 0.0000
# 2 36.0287 39.3463 35.9114 0.0000 0.0000 0.0000
# 3 72.0811 35.9114 156.2492 0.0000 0.0000 0.0000
# 4 0.0000 0.0000 0.0000 30.3404 0.0000 0.0000
# 5 0.0000 0.0000 0.0000 0.0000 -0.5025 0.0000
# 6 0.0000 0.0000 0.0000 0.0000 0.0000 22.3906
#
#
#
# Elastic Compliance Matrix: (Units=1/GPa)
#
#
# Indices 1 2 3 4 5 6 
#
# 1 0.012889 -0.008068 -0.004092 0.000000 0.000000 0.000000
# 2 -0.008068 0.037212 -0.004831 0.000000 0.000000 0.000000
# 3 -0.004092 -0.004831 0.009398 0.000000 0.000000 0.000000
# 4 0.000000 0.000000 0.000000 0.032959 0.000000 0.000000
# 5 0.000000 0.000000 0.000000 0.000000 -1.989914 0.000000
# 6 0.000000 0.000000 0.000000 0.000000 0.000000 0.044662
#
#
# Mechanical properties :
#
#
# Convention : Reuss Voigt Hill
#
# Bulk Modulus (GPa) = 39.18748 67.40648 53.29698
# Shear Modulus (GPa) = -2.76196 22.08535 9.66169
#
# Velocity S-wave (km/s) = -1.24010 3.50671 2.31939
# Velocity P-wave (km/s) = 4.44623 7.34354 6.07028
#
# Compressibility (1/GPa) = 0.02551835
#
# Stress axis : x y z
#
# Youngs Moduli (GPa) = 77.58604 26.87324 106.40672
#
# Poissons Ratio (x) = 0.21680 0.43539
# Poissons Ratio (y) = 0.62593 0.51403
# Poissons Ratio (z) = 0.31746 0.12982
#
# Static dielectric constant tensor:
#      x y z
#    x 1.575970 0.000000 0.000000 
#    y 0.000000 1.616170 0.000000 
#    z 0.000000 0.000000 1.615680 
# 
# From -- ./inp_files/32947.got.cif
#   From: 2010.05.17/outbox.cif.g08.bks.cpg/sg59_17_cif.got.tgz:32947.got - 2010.06.03 14:40:33.
