data_PCOD9449569
_publ_section_title
;
Structure prediction by ZEFSAII (Michael W. Deem and Ramdas Pophale) SiO2 
 PCOD9449569
Probable space group: P M M N
;
_chemical_formula_sum "Si O2"
_cell_formula_units_Z 40
_cell_length_a 14.265733
_cell_length_b 15.587415
_cell_length_c 7.184360
_cell_angle_alpha 90.000000
_cell_angle_beta 90.000000
_cell_angle_gamma 90.000000
_cell_volume 1597.556681
_symmetry_space_group_name_H-M "P M M N"
_symmetry_group_IT_number 59
_space_group.IT_coordinate_system_code '2'
_symmetry_cell_setting 'orthorhombic'
loop_
_space_group_symop_operation_xyz
x,y,z
1/2-x,1/2-y,z
1/2+x,-y,-z
-x,1/2+y,-z
-x,-y,-z
1/2+x,1/2+y,-z
1/2-x,y,z
x,1/2-y,z
loop_
_atom_site_type_symbol
_atom_site_label
_atom_site_fract_x
_atom_site_fract_y
_atom_site_fract_z
Si Si1 0.640170 0.650611 0.188240
Si Si2 0.991843 0.348440 0.124778
Si Si3 0.145699 0.032083 0.485826
Si Si4 0.363454 0.927327 0.153780
Si Si5 0.898824 0.156425 0.485024
O O1 0.750000 0.630848 0.157665
O O2 0.632406 0.750000 0.248626
O O3 0.584912 0.640922 0.996543
O O4 0.602770 0.588305 0.350282
O O5 0.960617 0.250000 0.082457
O O6 0.916081 0.413744 0.037907
O O7 0.988777 0.349395 0.349223
O O8 0.250000 0.068284 0.457672
O O9 0.108361 0.010276 0.278614
O O10 0.151618 0.933512 0.558836
O O11 0.250000 0.924827 0.139602
O O12 0.400741 0.851859 0.291643
O O13 0.857010 0.250000 0.443926
#
# Coordination Sequence:
#
# PCOD9449569 Si02
#       5
#     8   8   8   8   8
#     4   9  18  35  57  77 101 136 180 231 270 296
#     4  10  20  32  53  82 104 139 185 209 251 321
#     4   8  17  32  51  76 105 140 176 208 260 317
#     4   9  19  33  50  76 113 142 167 207 255 312
#     4   9  18  32  49  75 111 140 167 209 255 310
#
# _framework density 25.038236000000001
#
# number of rings (size 3 to 8) (size 9 to 14) (size 15 to 20)
#    1.200    1.800    0.000    0.600    0.000    6.000 
#    0.000    4.000    0.000    1.200    0.000    5.600 
#    0.000    0.000    0.000    0.000    0.000    0.000 
#
# Total GULP energy -222705.841529 kJ/mol
# GULP energy per Si atom -5567.646038 kJ/mol
# Density = 2.498125 g / cm^3
# Si number density = 25.038236 Si / 1000 Ang^3
#
#
#
# Elastic Constant Matrix: (Units=GPa)
#
#
# Indices 1 2 3 4 5 6 
#
# 1 65.5549 17.3362 26.7199 0.0000 0.0000 0.0000
# 2 17.3362 101.7523 33.9789 0.0000 0.0000 0.0000
# 3 26.7199 33.9789 131.0713 0.0000 0.0000 0.0000
# 4 0.0000 0.0000 0.0000 36.5060 0.0000 0.0000
# 5 0.0000 0.0000 0.0000 0.0000 -32.5384 0.0000
# 6 0.0000 0.0000 0.0000 0.0000 0.0000 12.4499
#
#
#
# Elastic Compliance Matrix: (Units=1/GPa)
#
#
# Indices 1 2 3 4 5 6 
#
# 1 0.016966 -0.001900 -0.002966 0.000000 0.000000 0.000000
# 2 -0.001900 0.010972 -0.002457 0.000000 0.000000 0.000000
# 3 -0.002966 -0.002457 0.008871 0.000000 0.000000 0.000000
# 4 0.000000 0.000000 0.000000 0.027393 0.000000 0.000000
# 5 0.000000 0.000000 0.000000 0.000000 -0.030733 0.000000
# 6 0.000000 0.000000 0.000000 0.000000 0.000000 0.080322
#
#
# Mechanical properties :
#
#
# Convention : Reuss Voigt Hill
#
# Bulk Modulus (GPa) = 45.12116 50.49426 47.80771
# Shear Modulus (GPa) = 36.81228 17.97308 27.39268
#
# Velocity S-wave (km/s) = 3.83853 2.68213 3.31121
# Velocity P-wave (km/s) = 6.14051 5.45916 5.80983
#
# Compressibility (1/GPa) = 0.02216255
#
# Stress axis : x y z
#
# Youngs Moduli (GPa) = 58.94200 91.14101 112.72633
#
# Poissons Ratio (x) = 0.17318 0.33435
# Poissons Ratio (y) = 0.11200 0.27697
# Poissons Ratio (z) = 0.17482 0.22394
#
# Static dielectric constant tensor:
#      x y z
#    x 2.020480 0.000000 0.000000 
#    y 0.000000 1.993580 0.000000 
#    z 0.000000 0.000000 1.992360 
# 
# From -- ./inp_files/8807.got.cif
#   From: 2010.05.17/outbox.cif.g08.bks.cpg/sg59_5_cif.got.tgz:8807.got - 2010.06.03 14:40:33.
