data_PCOD9449557
_publ_section_title
;
Structure prediction by ZEFSAII (Michael W. Deem and Ramdas Pophale) SiO2 
 PCOD9449557
Probable space group: P M M N
;
_chemical_formula_sum "Si O2"
_cell_formula_units_Z 48
_cell_length_a 7.469002
_cell_length_b 14.969293
_cell_length_c 20.388907
_cell_angle_alpha 90.000000
_cell_angle_beta 90.000000
_cell_angle_gamma 90.000000
_cell_volume 2279.595598
_symmetry_space_group_name_H-M "P M M N"
_symmetry_group_IT_number 59
_space_group.IT_coordinate_system_code '2'
_symmetry_cell_setting 'orthorhombic'
loop_
_space_group_symop_operation_xyz
x,y,z
1/2-x,1/2-y,z
1/2+x,-y,-z
-x,1/2+y,-z
-x,-y,-z
1/2+x,1/2+y,-z
1/2-x,y,z
x,1/2-y,z
loop_
_atom_site_type_symbol
_atom_site_label
_atom_site_fract_x
_atom_site_fract_y
_atom_site_fract_z
Si Si1 0.030293 0.750000 0.629832
Si Si2 0.031443 0.146883 0.926515
Si Si3 0.043923 0.495747 0.824525
Si Si4 0.462870 0.943840 0.434072
Si Si5 0.466483 0.353655 0.073595
Si Si6 0.957885 0.435460 0.311017
Si Si7 0.968841 0.250000 0.522770
O O1 0.250000 0.750000 0.629139
O O2 0.967660 0.840287 0.665208
O O3 0.976717 0.750000 0.553564
O O4 0.250000 0.143525 0.927035
O O5 0.981012 0.250000 0.916817
O O6 0.964285 0.082786 0.869251
O O7 0.975535 0.119206 0.000026
O O8 0.250000 0.468627 0.811920
O O9 0.961926 0.521370 0.754535
O O10 0.040368 0.582502 0.870791
O O11 0.250000 0.940024 0.425721
O O12 0.528275 0.842357 0.443960
O O13 0.500000 0.000000 0.500000
O O14 0.536114 0.996597 0.371717
O O15 0.250000 0.358641 0.076018
O O16 0.516029 0.250000 0.083045
O O17 0.750000 0.416839 0.295175
O O18 0.750000 0.250000 0.523407
#
# Coordination Sequence:
#
# PCOD9449557 Si02
#       7
#     4   8   8   8   8   8   4
#     4   9  16  32  54  72 104 143 164 193 259 328
#     4   8  15  31  52  73 101 139 177 216 266 314
#     4  10  20  32  52  79 105 136 175 216 260 313
#     4  11  21  37  59  81 106 138 178 218 257 309
#     4   9  18  32  51  74 103 139 176 215 263 315
#     4  10  21  36  53  78 109 141 173 209 260 316
#     4   9  18  34  58  78 100 139 172 203 261 318
#
# _framework density 21.056365
#
# number of rings (size 3 to 8) (size 9 to 14) (size 15 to 20)
#    0.000    2.500    1.667    2.000    1.167    1.000 
#    1.500    2.917    0.000    1.500    0.000    0.000 
#    0.000    0.000    0.000    0.000    0.000    0.000 
#
# Total GULP energy -268020.596293 kJ/mol
# GULP energy per Si atom -5583.762423 kJ/mol
# Density = 2.100844 g / cm^3
# Si number density = 21.056365 Si / 1000 Ang^3
#
#
#
# Elastic Constant Matrix: (Units=GPa)
#
#
# Indices 1 2 3 4 5 6 
#
# 1 59.5080 -11.7224 -9.8668 0.0000 0.0000 0.0000
# 2 -11.7224 122.5702 81.0149 0.0000 0.0000 0.0000
# 3 -9.8668 81.0149 173.2197 0.0000 0.0000 0.0000
# 4 0.0000 0.0000 0.0000 -99.7966 0.0000 0.0000
# 5 0.0000 0.0000 0.0000 0.0000 0.9180 0.0000
# 6 0.0000 0.0000 0.0000 0.0000 0.0000 10.4584
#
#
#
# Elastic Compliance Matrix: (Units=1/GPa)
#
#
# Indices 1 2 3 4 5 6 
#
# 1 0.017138 0.001439 0.000303 0.000000 0.000000 0.000000
# 2 0.001439 0.011930 -0.005498 0.000000 0.000000 0.000000
# 3 0.000303 -0.005498 0.008362 0.000000 0.000000 0.000000
# 4 0.000000 0.000000 0.000000 -0.010020 0.000000 0.000000
# 5 0.000000 0.000000 0.000000 0.000000 1.089384 0.000000
# 6 0.000000 0.000000 0.000000 0.000000 0.000000 0.095617
#
#
# Mechanical properties :
#
#
# Convention : Reuss Voigt Hill
#
# Bulk Modulus (GPa) = 33.42457 52.68328 43.05392
# Shear Modulus (GPa) = 4.06539 2.04077 3.05308
#
# Velocity S-wave (km/s) = 1.39101 0.98554 1.20545
# Velocity P-wave (km/s) = 4.29979 5.13512 4.73591
#
# Compressibility (1/GPa) = 0.02991811
#
# Stress axis : x y z
#
# Youngs Moduli (GPa) = 58.34941 83.82243 119.59463
#
# Poissons Ratio (x) = -0.12058 -0.03629
# Poissons Ratio (y) = -0.08394 0.65750
# Poissons Ratio (z) = -0.01770 0.46083
#
# Static dielectric constant tensor:
#      x y z
#    x 1.801610 0.000000 0.000000 
#    y 0.000000 1.738290 0.000000 
#    z 0.000000 0.000000 1.685170 
# 
# From -- ./inp_files/25559.got.cif
#   From: 2010.05.17/outbox.cif.g08.bks.cpg/sg59_13_cif.got.tgz:25559.got - 2010.06.03 14:40:33.
