data_PCOD9449359
_publ_section_title
;
Structure prediction by ZEFSAII (Michael W. Deem and Ramdas Pophale) SiO2 
 PCOD9449359
Probable space group: P M M N
;
_chemical_formula_sum "Si O2"
_cell_formula_units_Z 48
_cell_length_a 13.936309
_cell_length_b 8.701455
_cell_length_c 18.232044
_cell_angle_alpha 90.000000
_cell_angle_beta 90.000000
_cell_angle_gamma 90.000000
_cell_volume 2210.930067
_symmetry_space_group_name_H-M "P M M N"
_symmetry_group_IT_number 59
_space_group.IT_coordinate_system_code '2'
_symmetry_cell_setting 'orthorhombic'
loop_
_space_group_symop_operation_xyz
x,y,z
1/2-x,1/2-y,z
1/2+x,-y,-z
-x,1/2+y,-z
-x,-y,-z
1/2+x,1/2+y,-z
1/2-x,y,z
x,1/2-y,z
loop_
_atom_site_type_symbol
_atom_site_label
_atom_site_fract_x
_atom_site_fract_y
_atom_site_fract_z
Si Si1 0.354887 0.069806 0.213377
Si Si2 0.889524 0.574129 0.084750
Si Si3 0.062806 0.066278 0.756941
Si Si4 0.618676 0.422859 0.936387
Si Si5 0.143207 0.435363 0.454065
Si Si6 0.563361 0.065929 0.396129
O O1 0.250000 0.021179 0.243009
O O2 0.367262 0.250000 0.230385
O O3 0.450462 0.981416 0.237165
O O4 0.350799 0.041882 0.125843
O O5 0.854921 0.750000 0.080502
O O6 0.883130 0.515548 0.168330
O O7 0.003624 0.580530 0.069914
O O8 0.853009 0.472193 0.017938
O O9 0.068983 0.250000 0.755181
O O10 0.099390 0.994509 0.681731
O O11 0.649856 0.250000 0.918534
O O12 0.250000 0.486245 0.430426
O O13 0.143484 0.250000 0.454766
O O14 0.049245 0.481417 0.407257
O O15 0.121125 0.496222 0.535684
O O16 0.568043 0.250000 0.398855
#
# Coordination Sequence:
#
# PCOD9449359 Si02
#       6
#     8   8   8   8   8   8
#     4  10  20  32  46  66  96 135 175 216 265 317
#     4   8  15  27  43  64  89 119 157 199 244 295
#     4  10  20  33  50  73 102 136 172 212 259 312
#     4   9  16  26  43  65  88 118 158 203 248 297
#     4   9  19  37  59  81 108 144 182 218 261 317
#     4  10  20  34  55  84 114 142 177 222 269 320
#
# _framework density 21.710319999999999
#
# number of rings (size 3 to 8) (size 9 to 14) (size 15 to 20)
#    0.000    2.667    0.000    3.000    0.000    7.667 
#    0.000    1.667    0.000    1.000    0.000    7.000 
#    0.000    0.000    0.000    0.000    0.000    0.000 
#
# Total GULP energy -267811.268130 kJ/mol
# GULP energy per Si atom -5579.401419 kJ/mol
# Density = 2.166091 g / cm^3
# Si number density = 21.710320 Si / 1000 Ang^3
#
#
#
# Elastic Constant Matrix: (Units=GPa)
#
#
# Indices 1 2 3 4 5 6 
#
# 1 72.6260 -2.4187 -16.1273 0.0000 0.0000 0.0000
# 2 -2.4187 14.0832 0.9051 0.0000 0.0000 0.0000
# 3 -16.1273 0.9051 122.1174 0.0000 0.0000 0.0000
# 4 0.0000 0.0000 0.0000 29.3070 0.0000 0.0000
# 5 0.0000 0.0000 0.0000 0.0000 -41.8390 0.0000
# 6 0.0000 0.0000 0.0000 0.0000 0.0000 -59.6116
#
#
#
# Elastic Compliance Matrix: (Units=1/GPa)
#
#
# Indices 1 2 3 4 5 6 
#
# 1 0.014261 0.002329 0.001866 0.000000 0.000000 0.000000
# 2 0.002329 0.071421 -0.000222 0.000000 0.000000 0.000000
# 3 0.001866 -0.000222 0.008437 0.000000 0.000000 0.000000
# 4 0.000000 0.000000 0.000000 0.034122 0.000000 0.000000
# 5 0.000000 0.000000 0.000000 0.000000 -0.023901 0.000000
# 6 0.000000 0.000000 0.000000 0.000000 0.000000 -0.016775
#
#
# Mechanical properties :
#
#
# Convention : Reuss Voigt Hill
#
# Bulk Modulus (GPa) = 9.79754 19.28276 14.54015
# Shear Modulus (GPa) = 43.99890 0.66910 22.33400
#
# Velocity S-wave (km/s) = 4.50670 0.55576 3.21086
# Velocity P-wave (km/s) = 5.62166 3.05171 4.52306
#
# Compressibility (1/GPa) = 0.10206648
#
# Stress axis : x y z
#
# Youngs Moduli (GPa) = 70.12068 14.00146 118.52649
#
# Poissons Ratio (x) = -0.03261 -0.22118
# Poissons Ratio (y) = -0.16333 0.02628
# Poissons Ratio (z) = -0.13085 0.00310
#
# Static dielectric constant tensor:
#      x y z
#    x 1.832030 0.000000 0.000000 
#    y 0.000000 1.741780 0.000000 
#    z 0.000000 0.000000 1.804630 
# 
# From -- ./inp_files/27787.got.cif
#   From: 2010.05.17/outbox.cif.g08.bks.cpg/sg59_14_cif.got.tgz:27787.got - 2010.06.03 14:40:33.
