data_PCOD9449206
_publ_section_title
;
Structure prediction by ZEFSAII (Michael W. Deem and Ramdas Pophale) SiO2 
 PCOD9449206
Probable space group: P M M N
;
_chemical_formula_sum "Si O2"
_cell_formula_units_Z 64
_cell_length_a 14.718304
_cell_length_b 23.331097
_cell_length_c 9.890543
_cell_angle_alpha 90.000000
_cell_angle_beta 90.000000
_cell_angle_gamma 90.000000
_cell_volume 3396.354886
_symmetry_space_group_name_H-M "P M M N"
_symmetry_group_IT_number 59
_space_group.IT_coordinate_system_code '2'
_symmetry_cell_setting 'orthorhombic'
loop_
_space_group_symop_operation_xyz
x,y,z
1/2-x,1/2-y,z
1/2+x,-y,-z
-x,1/2+y,-z
-x,-y,-z
1/2+x,1/2+y,-z
1/2-x,y,z
x,1/2-y,z
loop_
_atom_site_type_symbol
_atom_site_label
_atom_site_fract_x
_atom_site_fract_y
_atom_site_fract_z
Si Si1 0.855320 0.881892 0.961671
Si Si2 0.974506 0.316313 0.706890
Si Si3 0.851189 0.083620 0.653270
Si Si4 0.035886 0.684033 0.968822
Si Si5 0.908558 0.489541 0.415182
Si Si6 0.639945 0.494233 0.891815
Si Si7 0.647879 0.890192 0.283869
Si Si8 0.639733 0.421416 0.156383
O O1 0.750000 0.867523 0.927812
O O2 0.931019 0.833708 0.940794
O O3 0.886558 0.939594 0.885525
O O4 0.855696 0.898121 0.121211
O O5 0.966793 0.250000 0.669828
O O6 0.908121 0.359403 0.629631
O O7 0.074779 0.341515 0.684454
O O8 0.952700 0.321561 0.868021
O O9 0.750000 0.100438 0.696336
O O10 0.847205 0.042170 0.525821
O O11 0.896281 0.046374 0.773608
O O12 0.052503 0.750000 0.932681
O O13 0.101146 0.639637 0.892228
O O14 0.874523 0.550275 0.357924
O O15 0.908751 0.446281 0.288808
O O16 0.000000 0.500000 0.500000
O O17 0.750000 0.495000 0.880211
O O18 0.618457 0.465334 0.034213
O O19 0.750000 0.872711 0.318927
O O20 0.750000 0.420505 0.174877
#
# Coordination Sequence:
#
# PCOD9449206 Si02
#       8
#     8   8   8   8   8   8   8   8
#     4   9  18  33  58  89 122 156 192 243 304 363
#     4  10  21  37  56  87 122 157 205 251 293 350
#     4  11  22  37  57  89 124 155 193 246 308 362
#     4  10  22  36  58  89 120 160 207 248 291 346
#     4  12  24  38  60  90 122 156 194 248 312 367
#     4   9  18  33  57  88 115 147 195 241 300 367
#     4  10  19  36  59  85 118 156 197 246 305 366
#     4  11  22  39  62  87 121 161 200 249 303 364
#
# _framework density 18.843730999999998
#
# number of rings (size 3 to 8) (size 9 to 14) (size 15 to 20)
#    0.000    1.750    3.750    1.125    1.750    1.500 
#    0.000    4.375    0.000    1.500    0.000    0.000 
#    0.000    0.000    0.000    0.000    0.000    0.000 
#
# Total GULP energy -357169.648506 kJ/mol
# GULP energy per Si atom -5580.775758 kJ/mol
# Density = 1.880084 g / cm^3
# Si number density = 18.843731 Si / 1000 Ang^3
#
#
#
# Elastic Constant Matrix: (Units=GPa)
#
#
# Indices 1 2 3 4 5 6 
#
# 1 77.6733 18.9802 21.0348 0.0000 0.0000 0.0000
# 2 18.9802 78.2298 19.8455 0.0000 0.0000 0.0000
# 3 21.0348 19.8455 56.5542 0.0000 0.0000 0.0000
# 4 0.0000 0.0000 0.0000 23.0072 0.0000 0.0000
# 5 0.0000 0.0000 0.0000 0.0000 20.0730 0.0000
# 6 0.0000 0.0000 0.0000 0.0000 0.0000 6.5128
#
#
#
# Elastic Compliance Matrix: (Units=1/GPa)
#
#
# Indices 1 2 3 4 5 6 
#
# 1 0.014714 -0.002395 -0.004632 0.000000 0.000000 0.000000
# 2 -0.002395 0.014422 -0.004170 0.000000 0.000000 0.000000
# 3 -0.004632 -0.004170 0.020868 0.000000 0.000000 0.000000
# 4 0.000000 0.000000 0.000000 0.043465 0.000000 0.000000
# 5 0.000000 0.000000 0.000000 0.000000 0.049818 0.000000
# 6 0.000000 0.000000 0.000000 0.000000 0.000000 0.153545
#
#
# Mechanical properties :
#
#
# Convention : Reuss Voigt Hill
#
# Bulk Modulus (GPa) = 36.21900 36.90871 36.56385
# Shear Modulus (GPa) = 15.22397 20.09172 17.65784
#
# Velocity S-wave (km/s) = 2.84545 3.26886 3.06448
# Velocity P-wave (km/s) = 5.48251 5.82035 5.65395
#
# Compressibility (1/GPa) = 0.02760982
#
# Stress axis : x y z
#
# Youngs Moduli (GPa) = 67.96183 69.33980 47.91927
#
# Poissons Ratio (x) = 0.16605 0.22198
# Poissons Ratio (y) = 0.16275 0.19982
# Poissons Ratio (z) = 0.31483 0.28915
#
# Static dielectric constant tensor:
#      x y z
#    x 1.691850 0.000000 0.000000 
#    y 0.000000 1.627050 0.000000 
#    z 0.000000 0.000000 1.664110 
# 
# From -- ./inp_files/9625.got.cif
#   From: 2010.05.17/outbox.cif.g08.bks.cpg/sg59_5_cif.got.tgz:9625.got - 2010.06.03 14:40:33.
