data_PCOD9449564
_publ_section_title
;
Structure prediction by ZEFSAII (Michael W. Deem and Ramdas Pophale) SiO2 
 PCOD9449564
Probable space group: P M M N
;
_chemical_formula_sum "Si O2"
_cell_formula_units_Z 64
_cell_length_a 7.690048
_cell_length_b 25.780398
_cell_length_c 14.487233
_cell_angle_alpha 90.000000
_cell_angle_beta 90.000000
_cell_angle_gamma 90.000000
_cell_volume 2872.130133
_symmetry_space_group_name_H-M "P M M N"
_symmetry_group_IT_number 59
_space_group.IT_coordinate_system_code '2'
_symmetry_cell_setting 'orthorhombic'
loop_
_space_group_symop_operation_xyz
x,y,z
1/2-x,1/2-y,z
1/2+x,-y,-z
-x,1/2+y,-z
-x,-y,-z
1/2+x,1/2+y,-z
1/2-x,y,z
x,1/2-y,z
loop_
_atom_site_type_symbol
_atom_site_label
_atom_site_fract_x
_atom_site_fract_y
_atom_site_fract_z
Si Si1 0.951513 0.306743 0.057376
Si Si2 0.547796 0.861936 0.113615
Si Si3 0.539845 0.874150 0.465501
Si Si4 0.039957 0.024237 0.643666
Si Si5 0.451362 0.587132 0.863615
Si Si6 0.951249 0.589587 0.653647
Si Si7 0.544328 0.191866 0.704424
Si Si8 0.961792 0.525893 0.139517
O O1 0.750000 0.304859 0.087580
O O2 0.028692 0.250000 0.076720
O O3 0.031185 0.359132 0.100594
O O4 0.956710 0.318858 0.948422
O O5 0.250000 0.025288 0.866568
O O6 0.534628 0.847278 0.220902
O O7 0.477382 0.920059 0.095761
O O8 0.750000 0.876432 0.468769
O O9 0.478568 0.926543 0.414071
O O10 0.479319 0.874391 0.571428
O O11 0.489230 0.827444 0.399057
O O12 0.250000 0.021187 0.637593
O O13 0.994916 0.030258 0.751744
O O14 0.963471 0.969051 0.614516
O O15 0.250000 0.586518 0.893297
O O16 0.455754 0.589308 0.752062
O O17 0.527383 0.530764 0.891828
O O18 0.750000 0.601943 0.672213
O O19 0.750000 0.191813 0.720346
O O20 0.476279 0.250000 0.718528
O O21 0.750000 0.638620 0.088708
#
# Coordination Sequence:
#
# PCOD9449564 Si02
#       8
#     8   8   8   8   8   8   8   8
#     4  10  22  40  60  82 107 140 188 237 279 329
#     4  11  21  36  59  85 113 144 179 224 281 343
#     4  10  20  35  54  78 111 150 188 227 274 328
#     4   9  16  31  52  76 112 152 184 218 263 326
#     4   9  19  38  59  77 109 153 187 227 281 332
#     4  10  20  32  52  84 115 141 181 233 278 325
#     4  11  24  39  55  79 112 148 190 238 279 327
#     4   8  15  30  53  80 110 143 179 216 263 328
#
# _framework density 22.283113
#
# number of rings (size 3 to 8) (size 9 to 14) (size 15 to 20)
#    0.000    2.250    1.250    2.625    0.000    5.250 
#    0.000    1.250    0.000    2.250    0.000    0.000 
#    0.000    0.000    0.000    0.000    0.000    0.000 
#
# Total GULP energy -357344.742359 kJ/mol
# GULP energy per Si atom -5583.511599 kJ/mol
# Density = 2.223240 g / cm^3
# Si number density = 22.283113 Si / 1000 Ang^3
#
#
#
# Elastic Constant Matrix: (Units=GPa)
#
#
# Indices 1 2 3 4 5 6 
#
# 1 48.3268 5.4805 1.6657 0.0000 0.0000 0.0000
# 2 5.4805 160.8184 32.3691 0.0000 0.0000 0.0000
# 3 1.6657 32.3691 44.5308 0.0000 0.0000 0.0000
# 4 0.0000 0.0000 0.0000 29.0687 0.0000 0.0000
# 5 0.0000 0.0000 0.0000 0.0000 18.6534 0.0000
# 6 0.0000 0.0000 0.0000 0.0000 0.0000 10.7674
#
#
#
# Elastic Compliance Matrix: (Units=1/GPa)
#
#
# Indices 1 2 3 4 5 6 
#
# 1 0.020776 -0.000646 -0.000307 0.000000 0.000000 0.000000
# 2 -0.000646 0.007304 -0.005285 0.000000 0.000000 0.000000
# 3 -0.000307 -0.005285 0.026310 0.000000 0.000000 0.000000
# 4 0.000000 0.000000 0.000000 0.034401 0.000000 0.000000
# 5 0.000000 0.000000 0.000000 0.000000 0.053610 0.000000
# 6 0.000000 0.000000 0.000000 0.000000 0.000000 0.092873
#
#
# Mechanical properties :
#
#
# Convention : Reuss Voigt Hill
#
# Bulk Modulus (GPa) = 23.85922 36.96739 30.41331
# Shear Modulus (GPa) = 19.10429 25.97528 22.53979
#
# Velocity S-wave (km/s) = 2.93122 3.41793 3.18389
# Velocity P-wave (km/s) = 4.71027 5.67470 5.21483
#
# Compressibility (1/GPa) = 0.04191251
#
# Stress axis : x y z
#
# Youngs Moduli (GPa) = 48.13167 136.91184 38.00908
#
# Poissons Ratio (x) = 0.08846 0.01169
# Poissons Ratio (y) = 0.03110 0.20088
# Poissons Ratio (z) = 0.01480 0.72358
#
# Static dielectric constant tensor:
#      x y z
#    x 1.813610 0.000000 0.000000 
#    y 0.000000 1.853560 0.000000 
#    z 0.000000 0.000000 1.833180 
# 
# From -- ./inp_files/21562.got.cif
#   From: 2010.05.17/outbox.cif.g08.bks.cpg/sg59_11_cif.got.tgz:21562.got - 2010.06.03 14:40:33.
