data_PCOD9449582
_publ_section_title
;
Structure prediction by ZEFSAII (Michael W. Deem and Ramdas Pophale) SiO2 
 PCOD9449582
Probable space group: P M M N
;
_chemical_formula_sum "Si O2"
_cell_formula_units_Z 48
_cell_length_a 14.844218
_cell_length_b 10.569613
_cell_length_c 15.607640
_cell_angle_alpha 90.000000
_cell_angle_beta 90.000000
_cell_angle_gamma 90.000000
_cell_volume 2448.801875
_symmetry_space_group_name_H-M "P M M N"
_symmetry_group_IT_number 59
_space_group.IT_coordinate_system_code '2'
_symmetry_cell_setting 'orthorhombic'
loop_
_space_group_symop_operation_xyz
x,y,z
1/2-x,1/2-y,z
1/2+x,-y,-z
-x,1/2+y,-z
-x,-y,-z
1/2+x,1/2+y,-z
1/2-x,y,z
x,1/2-y,z
loop_
_atom_site_type_symbol
_atom_site_label
_atom_site_fract_x
_atom_site_fract_y
_atom_site_fract_z
Si Si1 0.066972 0.103709 0.535882
Si Si2 0.645465 0.886159 0.642433
Si Si3 0.647455 0.596793 0.282643
Si Si4 0.639773 0.391330 0.761459
Si Si5 0.639442 0.896047 0.094328
Si Si6 0.640248 0.106067 0.958860
O O1 0.033936 0.250000 0.540577
O O2 0.141039 0.102869 0.460151
O O3 0.099426 0.063584 0.629421
O O4 0.000000 0.000000 0.500000
O O5 0.750000 0.881099 0.667311
O O6 0.602930 0.750000 0.664804
O O7 0.606990 0.004448 0.694420
O O8 0.750000 0.549273 0.287100
O O9 0.651125 0.750000 0.281285
O O10 0.608904 0.562839 0.189572
O O11 0.750000 0.387477 0.758853
O O12 0.607367 0.250000 0.739469
O O13 0.614868 0.418482 0.859933
O O14 0.750000 0.895294 0.096446
O O15 0.612205 0.750000 0.077951
O O16 0.610165 0.996323 0.023107
O O17 0.750000 0.105686 0.961019
O O18 0.612160 0.250000 0.981194
#
# Coordination Sequence:
#
# PCOD9449582 Si02
#       6
#     8   8   8   8   8   8
#     4  10  20  33  48  66  89 116 146 181 222 266
#     4   9  17  29  46  67  88 113 148 186 219 252
#     4   8  14  27  47  67  87 115 150 183 215 256
#     4   8  14  24  38  58  86 118 146 172 209 258
#     4   8  13  21  36  59  83 108 141 177 209 244
#     4   8  13  21  33  53  85 119 142 164 205 258
#
# _framework density 19.601423
#
# number of rings (size 3 to 8) (size 9 to 14) (size 15 to 20)
#    0.000    3.500    0.000    2.500    0.000    3.333 
#    0.000    4.167    0.000    2.500    0.000    1.167 
#    0.000    0.000    0.000    0.000    0.000    0.000 
#
# Total GULP energy -267326.952885 kJ/mol
# GULP energy per Si atom -5569.311518 kJ/mol
# Density = 1.955681 g / cm^3
# Si number density = 19.601423 Si / 1000 Ang^3
#
#
#
# Elastic Constant Matrix: (Units=GPa)
#
#
# Indices 1 2 3 4 5 6 
#
# 1 31.1832 25.3180 24.5872 0.0000 0.0000 0.0000
# 2 25.3180 108.7318 87.1683 0.0000 0.0000 0.0000
# 3 24.5872 87.1683 130.4525 0.0000 0.0000 0.0000
# 4 0.0000 0.0000 0.0000 28.9690 0.0000 0.0000
# 5 0.0000 0.0000 0.0000 0.0000 8.0561 0.0000
# 6 0.0000 0.0000 0.0000 0.0000 0.0000 7.9683
#
#
#
# Elastic Compliance Matrix: (Units=1/GPa)
#
#
# Indices 1 2 3 4 5 6 
#
# 1 0.040025 -0.007047 -0.002835 0.000000 0.000000 0.000000
# 2 -0.007047 0.021048 -0.012736 0.000000 0.000000 0.000000
# 3 -0.002835 -0.012736 0.016710 0.000000 0.000000 0.000000
# 4 0.000000 0.000000 0.000000 0.034520 0.000000 0.000000
# 5 0.000000 0.000000 0.000000 0.000000 0.124130 0.000000
# 6 0.000000 0.000000 0.000000 0.000000 0.000000 0.125497
#
#
# Mechanical properties :
#
#
# Convention : Reuss Voigt Hill
#
# Bulk Modulus (GPa) = 30.72445 60.50161 45.61303
# Shear Modulus (GPa) = 11.96127 17.88494 14.92311
#
# Velocity S-wave (km/s) = 2.47295 3.02392 2.76221
# Velocity P-wave (km/s) = 4.88494 6.56697 5.78739
#
# Compressibility (1/GPa) = 0.03254737
#
# Stress axis : x y z
#
# Youngs Moduli (GPa) = 24.98411 47.50990 59.84346
#
# Poissons Ratio (x) = 0.33481 0.16965
# Poissons Ratio (y) = 0.17607 0.76218
# Poissons Ratio (z) = 0.07083 0.60510
#
# Static dielectric constant tensor:
#      x y z
#    x 1.860600 0.000000 0.000000 
#    y 0.000000 1.692990 0.000000 
#    z 0.000000 0.000000 1.693800 
# 
# From -- ./inp_files/23170.got.cif
#   From: 2010.05.17/outbox.cif.g08.bks.cpg/sg59_12_cif.got.tgz:23170.got - 2010.06.03 14:40:33.
