data_PCOD9449572
_publ_section_title
;
Structure prediction by ZEFSAII (Michael W. Deem and Ramdas Pophale) SiO2 
 PCOD9449572
Probable space group: P M M N
;
_chemical_formula_sum "Si O2"
_cell_formula_units_Z 52
_cell_length_a 9.250879
_cell_length_b 14.472933
_cell_length_c 21.580889
_cell_angle_alpha 90.000000
_cell_angle_beta 90.000000
_cell_angle_gamma 90.000000
_cell_volume 2889.408081
_symmetry_space_group_name_H-M "P M M N"
_symmetry_group_IT_number 59
_space_group.IT_coordinate_system_code '2'
_symmetry_cell_setting 'orthorhombic'
loop_
_space_group_symop_operation_xyz
x,y,z
1/2-x,1/2-y,z
1/2+x,-y,-z
-x,1/2+y,-z
-x,-y,-z
1/2+x,1/2+y,-z
1/2-x,y,z
x,1/2-y,z
loop_
_atom_site_type_symbol
_atom_site_label
_atom_site_fract_x
_atom_site_fract_y
_atom_site_fract_z
Si Si1 0.078305 0.143288 0.501283
Si Si2 0.921566 0.020736 0.402608
Si Si3 0.082179 0.250000 0.014768
Si Si4 0.002733 0.250000 0.871848
Si Si5 0.417284 0.937288 0.292771
Si Si6 0.591118 0.457517 0.852688
Si Si7 0.914427 0.750000 0.270181
Si Si8 0.577957 0.436130 0.050407
O O1 0.250000 0.137468 0.487377
O O2 0.043094 0.250000 0.514588
O O3 0.051751 0.074183 0.558627
O O4 0.988140 0.102330 0.444062
O O5 0.750000 0.031706 0.394953
O O6 0.002762 0.007734 0.337962
O O7 0.250000 0.250000 0.033290
O O8 0.996565 0.162204 0.040732
O O9 0.077605 0.250000 0.939156
O O10 0.085669 0.250000 0.805569
O O11 0.919984 0.151865 0.868720
O O12 0.250000 0.925155 0.311265
O O13 0.418907 0.967143 0.221030
O O14 0.501797 0.840227 0.293051
O O15 0.750000 0.490043 0.873868
O O16 0.466119 0.514970 0.885529
O O17 0.750000 0.750000 0.292482
O O18 0.750000 0.432120 0.042217
O O19 0.500000 0.500000 0.000000
#
# Coordination Sequence:
#
# PCOD9449572 Si02
#       8
#     8   8   4   4   8   8   4   8
#     4   9  19  36  57  81 114 152 188 229 276 326
#     4  10  20  34  56  86 115 148 188 231 276 327
#     4  12  24  39  60  85 113 145 189 234 285 345
#     4  10  20  32  58  84 117 146 187 224 281 334
#     4  10  21  36  55  81 114 151 188 229 279 335
#     4  10  21  38  59  83 115 151 190 233 282 338
#     4  10  20  33  50  79 114 149 188 230 278 333
#     4  12  25  39  59  85 115 148 188 234 288 340
#
# _framework density 17.996766000000001
#
# number of rings (size 3 to 8) (size 9 to 14) (size 15 to 20)
#    0.000    1.692    1.538    3.231    1.077    6.462 
#    0.000    0.000    1.692    0.000    0.000    0.000 
#    0.000    0.000    0.000    0.000    0.000    0.000 
#
# Total GULP energy -290223.591689 kJ/mol
# GULP energy per Si atom -5581.222917 kJ/mol
# Density = 1.795580 g / cm^3
# Si number density = 17.996766 Si / 1000 Ang^3
#
#
#
# Elastic Constant Matrix: (Units=GPa)
#
#
# Indices 1 2 3 4 5 6 
#
# 1 132.3636 41.4759 32.6747 0.0000 0.0000 0.0000
# 2 41.4759 92.7735 14.2235 0.0000 0.0000 0.0000
# 3 32.6747 14.2235 52.0129 0.0000 0.0000 0.0000
# 4 0.0000 0.0000 0.0000 20.5406 0.0000 0.0000
# 5 0.0000 0.0000 0.0000 0.0000 20.6171 0.0000
# 6 0.0000 0.0000 0.0000 0.0000 0.0000 21.6157
#
#
#
# Elastic Compliance Matrix: (Units=1/GPa)
#
#
# Indices 1 2 3 4 5 6 
#
# 1 0.010008 -0.003664 -0.005285 0.000000 0.000000 0.000000
# 2 -0.003664 0.012592 -0.001142 0.000000 0.000000 0.000000
# 3 -0.005285 -0.001142 0.022858 0.000000 0.000000 0.000000
# 4 0.000000 0.000000 0.000000 0.048684 0.000000 0.000000
# 5 0.000000 0.000000 0.000000 0.000000 0.048504 0.000000
# 6 0.000000 0.000000 0.000000 0.000000 0.000000 0.046263
#
#
# Mechanical properties :
#
#
# Convention : Reuss Voigt Hill
#
# Bulk Modulus (GPa) = 39.56198 50.43311 44.99755
# Shear Modulus (GPa) = 22.98696 25.13974 24.06335
#
# Velocity S-wave (km/s) = 3.57779 3.74157 3.66059
# Velocity P-wave (km/s) = 6.25284 6.83740 6.55164
#
# Compressibility (1/GPa) = 0.02527679
#
# Stress axis : x y z
#
# Youngs Moduli (GPa) = 99.92405 79.41583 43.74794
#
# Poissons Ratio (x) = 0.29096 0.23120
# Poissons Ratio (y) = 0.36610 0.04995
# Poissons Ratio (z) = 0.52809 0.09068
#
# Static dielectric constant tensor:
#      x y z
#    x 1.609350 0.000000 0.000000 
#    y 0.000000 2.191520 0.000000 
#    z 0.000000 0.000000 1.628250 
# 
# From -- ./inp_files/28947.got.cif
#   From: 2010.05.17/outbox.cif.g08.bks.cpg/sg59_15_cif.got.tgz:28947.got - 2010.06.03 14:40:33.
