data_PCOD9449435
_publ_section_title
;
Structure prediction by ZEFSAII (Michael W. Deem and Ramdas Pophale) SiO2 
 PCOD9449435
Probable space group: P M M N
;
_chemical_formula_sum "Si O2"
_cell_formula_units_Z 64
_cell_length_a 7.499213
_cell_length_b 23.928187
_cell_length_c 17.141405
_cell_angle_alpha 90.000000
_cell_angle_beta 90.000000
_cell_angle_gamma 90.000000
_cell_volume 3075.897784
_symmetry_space_group_name_H-M "P M M N"
_symmetry_group_IT_number 59
_space_group.IT_coordinate_system_code '2'
_symmetry_cell_setting 'orthorhombic'
loop_
_space_group_symop_operation_xyz
x,y,z
1/2-x,1/2-y,z
1/2+x,-y,-z
-x,1/2+y,-z
-x,-y,-z
1/2+x,1/2+y,-z
1/2-x,y,z
x,1/2-y,z
loop_
_atom_site_type_symbol
_atom_site_label
_atom_site_fract_x
_atom_site_fract_y
_atom_site_fract_z
Si Si1 0.465125 0.687413 0.642175
Si Si2 0.040536 0.686490 0.376020
Si Si3 0.043510 0.922103 0.935289
Si Si4 0.532556 0.449407 0.898999
Si Si5 0.035432 0.609193 0.772184
Si Si6 0.039495 0.018750 0.362044
Si Si7 0.468743 0.590296 0.272423
Si Si8 0.949044 0.898471 0.513283
O O1 0.250000 0.682839 0.630590
O O2 0.518751 0.750000 0.626520
O O3 0.505437 0.666689 0.728768
O O4 0.556682 0.645054 0.584456
O O5 0.250000 0.693670 0.363062
O O6 0.969021 0.750000 0.389853
O O7 0.969336 0.650714 0.302793
O O8 0.027986 0.640979 0.446042
O O9 0.250000 0.904765 0.940370
O O10 0.961535 0.893681 0.859162
O O11 0.971419 0.916956 0.022974
O O12 0.034129 0.987589 0.911880
O O13 0.750000 0.451685 0.899833
O O14 0.477092 0.425362 0.815476
O O15 0.250000 0.603672 0.776519
O O16 0.978857 0.559746 0.713012
O O17 0.250000 0.012529 0.377310
O O18 0.964297 0.048611 0.440507
O O19 0.972644 0.958761 0.332429
O O20 0.250000 0.589501 0.273228
O O21 0.750000 0.913865 0.488211
#
# Coordination Sequence:
#
# PCOD9449435 Si02
#       8
#     8   8   8   8   8   8   8   8
#     4   9  17  29  45  63  86 122 159 183 214 265
#     4  10  21  36  52  67  85 117 160 196 224 262
#     4   9  16  25  41  68  96 118 145 181 220 263
#     4   9  16  27  45  66  90 121 149 177 219 268
#     4   9  16  26  41  64  95 122 146 183 220 258
#     4   9  17  30  47  68  93 120 147 176 223 279
#     4   9  17  31  50  68  90 120 153 187 222 268
#     4  10  20  32  48  70  93 114 143 189 236 274
#
# _framework density 20.806933000000001
#
# number of rings (size 3 to 8) (size 9 to 14) (size 15 to 20)
#    0.000    2.750    1.250    0.750    0.000    3.000 
#    0.000    1.250    0.000    0.750    0.000    5.250 
#    0.000    0.000    0.000    9.125    0.000   10.000 
#
# Total GULP energy -356503.253847 kJ/mol
# GULP energy per Si atom -5570.363341 kJ/mol
# Density = 2.075958 g / cm^3
# Si number density = 20.806933 Si / 1000 Ang^3
#
#
#
# Elastic Constant Matrix: (Units=GPa)
#
#
# Indices 1 2 3 4 5 6 
#
# 1 55.6078 8.4282 6.7091 0.0000 0.0000 0.0000
# 2 8.4282 72.1376 67.9116 0.0000 0.0000 0.0000
# 3 6.7091 67.9116 124.0990 0.0000 0.0000 0.0000
# 4 0.0000 0.0000 0.0000 16.3178 0.0000 0.0000
# 5 0.0000 0.0000 0.0000 0.0000 61.0032 0.0000
# 6 0.0000 0.0000 0.0000 0.0000 0.0000 6.5387
#
#
#
# Elastic Compliance Matrix: (Units=1/GPa)
#
#
# Indices 1 2 3 4 5 6 
#
# 1 0.018316 -0.002491 0.000373 0.000000 0.000000 0.000000
# 2 -0.002491 0.028932 -0.015698 0.000000 0.000000 0.000000
# 3 0.000373 -0.015698 0.016628 0.000000 0.000000 0.000000
# 4 0.000000 0.000000 0.000000 0.061283 0.000000 0.000000
# 5 0.000000 0.000000 0.000000 0.000000 0.016393 0.000000
# 6 0.000000 0.000000 0.000000 0.000000 0.000000 0.152936
#
#
# Mechanical properties :
#
#
# Convention : Reuss Voigt Hill
#
# Bulk Modulus (GPa) = 35.40589 46.43805 40.92197
# Shear Modulus (GPa) = 14.72609 28.02496 21.37552
#
# Velocity S-wave (km/s) = 2.66324 3.67400 3.20867
# Velocity P-wave (km/s) = 5.14883 6.35332 5.78253
#
# Compressibility (1/GPa) = 0.02824388
#
# Stress axis : x y z
#
# Youngs Moduli (GPa) = 54.59815 34.56425 60.13832
#
# Poissons Ratio (x) = 0.08610 -0.02243
# Poissons Ratio (y) = 0.13601 0.94404
# Poissons Ratio (z) = -0.02037 0.54258
#
# Static dielectric constant tensor:
#      x y z
#    x 1.910550 0.000000 0.000000 
#    y 0.000000 1.753160 0.000000 
#    z 0.000000 0.000000 1.794420 
# 
# From -- ./inp_files/26461.got.cif
#   From: 2010.05.17/outbox.cif.g08.bks.cpg/sg59_14_cif.got.tgz:26461.got - 2010.06.03 14:40:33.
