data_PCOD9449215
_publ_section_title
;
Structure prediction by ZEFSAII (Michael W. Deem and Ramdas Pophale) SiO2 
 PCOD9449215
Probable space group: P M M N
;
_chemical_formula_sum "Si O2"
_cell_formula_units_Z 40
_cell_length_a 16.805055
_cell_length_b 7.860933
_cell_length_c 14.072640
_cell_angle_alpha 90.000000
_cell_angle_beta 90.000000
_cell_angle_gamma 90.000000
_cell_volume 1859.043752
_symmetry_space_group_name_H-M "P M M N"
_symmetry_group_IT_number 59
_space_group.IT_coordinate_system_code '2'
_symmetry_cell_setting 'orthorhombic'
loop_
_space_group_symop_operation_xyz
x,y,z
1/2-x,1/2-y,z
1/2+x,-y,-z
-x,1/2+y,-z
-x,-y,-z
1/2+x,1/2+y,-z
1/2-x,y,z
x,1/2-y,z
loop_
_atom_site_type_symbol
_atom_site_label
_atom_site_fract_x
_atom_site_fract_y
_atom_site_fract_z
Si Si1 0.750000 0.449644 0.974029
Si Si2 0.927870 0.551428 0.260887
Si Si3 0.916787 0.444963 0.046416
Si Si4 0.250000 0.455305 0.242944
Si Si5 0.159216 0.042186 0.553599
Si Si6 0.090764 0.456030 0.357806
O O1 0.750000 0.250000 0.003013
O O2 0.750000 0.464469 0.860682
O O3 0.833436 0.527094 0.011736
O O4 0.910130 0.750000 0.244633
O O5 0.922276 0.462479 0.159742
O O6 0.869770 0.484106 0.343389
O O7 0.015286 0.533241 0.305702
O O8 0.910780 0.250000 0.017652
O O9 0.000000 0.500000 0.000000
O O10 0.250000 0.250000 0.232319
O O11 0.171160 0.500434 0.301476
O O12 0.250000 0.991990 0.534533
O O13 0.157106 0.250000 0.554236
O O14 0.102982 0.987841 0.466851
O O15 0.082786 0.250000 0.356450
#
# Coordination Sequence:
#
# PCOD9449215 Si02
#       6
#     4   8   8   4   8   8
#     4  10  24  42  61  84 118 156 193 248 311 358
#     4  11  23  36  58  89 121 157 197 243 296 353
#     4  11  24  44  65  89 121 159 202 252 306 363
#     4  10  20  34  59  88 110 146 199 244 291 350
#     4   9  18  35  58  85 119 157 200 243 285 344
#     4  10  19  36  60  85 116 156 200 246 291 346
#
# _framework density 21.516438000000001
#
# number of rings (size 3 to 8) (size 9 to 14) (size 15 to 20)
#    0.000    1.800    1.000    3.000    1.400    5.600 
#    0.000    1.000    0.000    2.400    0.000    0.000 
#    0.000    0.000    0.000    0.000    0.000    0.000 
#
# Total GULP energy -223488.608035 kJ/mol
# GULP energy per Si atom -5587.215201 kJ/mol
# Density = 2.146747 g / cm^3
# Si number density = 21.516438 Si / 1000 Ang^3
#
#
#
# Elastic Constant Matrix: (Units=GPa)
#
#
# Indices 1 2 3 4 5 6 
#
# 1 115.5795 11.4845 48.9810 0.0000 0.0000 0.0000
# 2 11.4845 18.5341 -10.7836 0.0000 0.0000 0.0000
# 3 48.9810 -10.7836 110.7941 0.0000 0.0000 0.0000
# 4 0.0000 0.0000 0.0000 21.6713 0.0000 0.0000
# 5 0.0000 0.0000 0.0000 0.0000 -723.8454 0.0000
# 6 0.0000 0.0000 0.0000 0.0000 0.0000 18.1897
#
#
#
# Elastic Compliance Matrix: (Units=1/GPa)
#
#
# Indices 1 2 3 4 5 6 
#
# 1 0.012687 -0.011793 -0.006757 0.000000 0.000000 0.000000
# 2 -0.011793 0.068155 0.011847 0.000000 0.000000 0.000000
# 3 -0.006757 0.011847 0.013166 0.000000 0.000000 0.000000
# 4 0.000000 0.000000 0.000000 0.046144 0.000000 0.000000
# 5 0.000000 0.000000 0.000000 0.000000 -0.001382 0.000000
# 6 0.000000 0.000000 0.000000 0.000000 0.000000 0.054976
#
#
# Mechanical properties :
#
#
# Convention : Reuss Voigt Hill
#
# Bulk Modulus (GPa) = 12.40652 38.25242 25.32947
# Shear Modulus (GPa) = 21.36577 -123.78184 -51.20803
#
# Velocity S-wave (km/s) = 3.15461 -7.59301 -4.88376
# Velocity P-wave (km/s) = 4.36432 7.68472 4.47257
#
# Compressibility (1/GPa) = 0.08060276
#
# Stress axis : x y z
#
# Youngs Moduli (GPa) = 78.81941 14.67251 75.95394
#
# Poissons Ratio (x) = 0.17303 0.51320
# Poissons Ratio (y) = 0.92950 -0.89982
# Poissons Ratio (z) = 0.53256 -0.17382
#
# Static dielectric constant tensor:
#      x y z
#    x 1.808440 0.000000 0.000000 
#    y 0.000000 1.807100 0.000000 
#    z 0.000000 0.000000 1.733440 
# 
# From -- ./inp_files/19987.got.cif
#   From: 2010.05.17/outbox.cif.g08.bks.cpg/sg59_10_cif.got.tgz:19987.got - 2010.06.03 14:40:33.
