data_PCOD9449361
_publ_section_title
;
Structure prediction by ZEFSAII (Michael W. Deem and Ramdas Pophale) SiO2 
 PCOD9449361
Probable space group: P M M N
;
_chemical_formula_sum "Si O2"
_cell_formula_units_Z 64
_cell_length_a 21.016782
_cell_length_b 7.633317
_cell_length_c 17.986185
_cell_angle_alpha 90.000000
_cell_angle_beta 90.000000
_cell_angle_gamma 90.000000
_cell_volume 2885.483358
_symmetry_space_group_name_H-M "P M M N"
_symmetry_group_IT_number 59
_space_group.IT_coordinate_system_code '2'
_symmetry_cell_setting 'orthorhombic'
loop_
_space_group_symop_operation_xyz
x,y,z
1/2-x,1/2-y,z
1/2+x,-y,-z
-x,1/2+y,-z
-x,-y,-z
1/2+x,1/2+y,-z
1/2-x,y,z
x,1/2-y,z
loop_
_atom_site_type_symbol
_atom_site_label
_atom_site_fract_x
_atom_site_fract_y
_atom_site_fract_z
Si Si1 0.822749 0.461283 0.715997
Si Si2 0.945849 0.958392 0.789139
Si Si3 0.982884 0.552065 0.353785
Si Si4 0.099122 0.965282 0.431049
Si Si5 0.679081 0.959901 0.121564
Si Si6 0.859297 0.953028 0.282962
Si Si7 0.963834 0.042915 0.076140
Si Si8 0.817308 0.040095 0.436847
O O1 0.750000 0.523176 0.723059
O O2 0.821340 0.250000 0.714124
O O3 0.869791 0.514286 0.783774
O O4 0.854640 0.518941 0.637293
O O5 0.956487 0.750000 0.780843
O O6 0.989894 0.022810 0.857238
O O7 0.970275 0.058132 0.716679
O O8 0.965266 0.750000 0.376153
O O9 0.922253 0.460179 0.317753
O O10 0.027759 0.469722 0.415660
O O11 0.097683 0.750000 0.430441
O O12 0.126734 0.021366 0.509913
O O13 0.750000 0.023695 0.095943
O O14 0.684662 0.750000 0.123516
O O15 0.667674 0.026379 0.206462
O O16 0.610971 0.991156 0.080998
O O17 0.874856 0.750000 0.265357
O O18 0.816196 0.960280 0.355246
O O19 0.962923 0.250000 0.084101
O O20 0.000000 0.000000 0.000000
O O21 0.750000 0.003895 0.475416
O O22 0.822293 0.250000 0.428414
#
# Coordination Sequence:
#
# PCOD9449361 Si02
#       8
#     8   8   8   8   8   8   8   8
#     4   9  17  31  54  80 106 145 195 239 281 336
#     4  10  20  34  54  83 115 143 177 226 280 329
#     4   9  17  32  55  77 100 139 185 229 278 339
#     4   8  15  29  49  72 100 138 187 237 284 335
#     4  10  21  39  64  91 120 155 193 236 287 342
#     4  10  20  34  54  79 109 144 186 235 288 342
#     4  11  24  41  64  92 121 154 189 227 277 338
#     4  10  20  32  46  67 100 143 188 237 291 342
#
# _framework density 22.179993
#
# number of rings (size 3 to 8) (size 9 to 14) (size 15 to 20)
#    0.000    2.375    1.250    2.250    0.000    5.750 
#    0.000    3.125    0.000    3.750    0.000    0.000 
#    0.000    0.000    0.000    0.000    0.000    0.000 
#
# Total GULP energy -356581.499269 kJ/mol
# GULP energy per Si atom -5571.585926 kJ/mol
# Density = 2.212951 g / cm^3
# Si number density = 22.179993 Si / 1000 Ang^3
#
#
#
# Elastic Constant Matrix: (Units=GPa)
#
#
# Indices 1 2 3 4 5 6 
#
# 1 182.0945 10.0993 52.3111 0.0000 0.0000 0.0000
# 2 10.0993 56.9131 0.6873 0.0000 0.0000 0.0000
# 3 52.3111 0.6873 84.7348 0.0000 0.0000 0.0000
# 4 0.0000 0.0000 0.0000 12.6932 0.0000 0.0000
# 5 0.0000 0.0000 0.0000 0.0000 15.4530 0.0000
# 6 0.0000 0.0000 0.0000 0.0000 0.0000 17.7268
#
#
#
# Elastic Compliance Matrix: (Units=1/GPa)
#
#
# Indices 1 2 3 4 5 6 
#
# 1 0.006750 -0.001148 -0.004158 0.000000 0.000000 0.000000
# 2 -0.001148 0.017767 0.000564 0.000000 0.000000 0.000000
# 3 -0.004158 0.000564 0.014364 0.000000 0.000000 0.000000
# 4 0.000000 0.000000 0.000000 0.078782 0.000000 0.000000
# 5 0.000000 0.000000 0.000000 0.000000 0.064712 0.000000
# 6 0.000000 0.000000 0.000000 0.000000 0.000000 0.056412
#
#
# Mechanical properties :
#
#
# Convention : Reuss Voigt Hill
#
# Bulk Modulus (GPa) = 34.01464 49.99311 42.00387
# Shear Modulus (GPa) = 19.37471 26.55092 22.96281
#
# Velocity S-wave (km/s) = 2.95875 3.46362 3.22109
# Velocity P-wave (km/s) = 5.20012 6.21162 5.72824
#
# Compressibility (1/GPa) = 0.02939911
#
# Stress axis : x y z
#
# Youngs Moduli (GPa) = 148.15525 56.28270 69.62015
#
# Poissons Ratio (x) = 0.06459 0.28945
# Poissons Ratio (y) = 0.17001 -0.03929
# Poissons Ratio (z) = 0.61597 -0.03176
#
# Static dielectric constant tensor:
#      x y z
#    x 1.979760 0.000000 0.000000 
#    y 0.000000 1.826130 0.000000 
#    z 0.000000 0.000000 1.252210 
# 
# From -- ./inp_files/28306.got.cif
#   From: 2010.05.17/outbox.cif.g08.bks.cpg/sg59_15_cif.got.tgz:28306.got - 2010.06.03 14:40:33.
