data_PCOD9449574
_publ_section_title
;
Structure prediction by ZEFSAII (Michael W. Deem and Ramdas Pophale) SiO2 
 PCOD9449574
Probable space group: P M M N
;
_chemical_formula_sum "Si O2"
_cell_formula_units_Z 56
_cell_length_a 7.523246
_cell_length_b 29.669704
_cell_length_c 14.051893
_cell_angle_alpha 90.000000
_cell_angle_beta 90.000000
_cell_angle_gamma 90.000000
_cell_volume 3136.557912
_symmetry_space_group_name_H-M "P M M N"
_symmetry_group_IT_number 59
_space_group.IT_coordinate_system_code '2'
_symmetry_cell_setting 'orthorhombic'
loop_
_space_group_symop_operation_xyz
x,y,z
1/2-x,1/2-y,z
1/2+x,-y,-z
-x,1/2+y,-z
-x,-y,-z
1/2+x,1/2+y,-z
1/2-x,y,z
x,1/2-y,z
loop_
_atom_site_type_symbol
_atom_site_label
_atom_site_fract_x
_atom_site_fract_y
_atom_site_fract_z
Si Si1 0.466340 0.699496 0.013830
Si Si2 0.467982 0.893049 0.925468
Si Si3 0.466743 0.799989 0.235891
Si Si4 0.956949 0.036660 0.216592
Si Si5 0.460965 0.893819 0.295540
Si Si6 0.965497 0.448706 0.889290
Si Si7 0.040291 0.481573 0.603940
O O1 0.250000 0.699378 0.012042
O O2 0.524367 0.750000 0.986477
O O3 0.514769 0.692151 0.124840
O O4 0.525621 0.657752 0.949316
O O5 0.250000 0.892891 0.924225
O O6 0.530611 0.917594 0.829332
O O7 0.521599 0.924566 0.014294
O O8 0.250000 0.798618 0.238571
O O9 0.528721 0.750000 0.263594
O O10 0.528766 0.842703 0.297274
O O11 0.750000 0.045554 0.237044
O O12 0.036693 0.013006 0.310788
O O13 0.967811 0.998604 0.134115
O O14 0.250000 0.890047 0.283620
O O15 0.527335 0.918396 0.199922
O O16 0.488600 0.929584 0.379290
O O17 0.750000 0.450390 0.888785
O O18 0.250000 0.482388 0.616902
O O19 0.000000 0.500000 0.500000
#
# Coordination Sequence:
#
# PCOD9449574 Si02
#       7
#     8   8   8   8   8   8   8
#     4   8  12  18  31  54  84 115 143 166 188 222
#     4   9  14  22  35  54  83 114 137 160 192 231
#     4   8  12  19  34  59  89 116 141 165 189 226
#     4   9  18  28  39  57  81 105 132 167 207 245
#     4   9  15  25  42  64  87 112 138 167 201 238
#     4   9  15  23  37  57  83 113 140 159 184 227
#     4  10  20  33  46  60  78 104 138 178 222 266
#
# _framework density 17.853967000000001
#
# number of rings (size 3 to 8) (size 9 to 14) (size 15 to 20)
#    0.000    3.143    1.429    1.714    0.000    0.571 
#    0.000    0.000    0.000    0.429    0.000    1.000 
#    0.000    8.000    0.000    0.000    0.000    0.000 
#
# Total GULP energy -311902.701104 kJ/mol
# GULP energy per Si atom -5569.691091 kJ/mol
# Density = 1.781333 g / cm^3
# Si number density = 17.853967 Si / 1000 Ang^3
#
#
#
# Elastic Constant Matrix: (Units=GPa)
#
#
# Indices 1 2 3 4 5 6 
#
# 1 40.1310 -1.9774 -1.2554 0.0000 0.0000 0.0000
# 2 -1.9774 176.2810 74.0347 0.0000 0.0000 0.0000
# 3 -1.2554 74.0347 64.7755 0.0000 0.0000 0.0000
# 4 0.0000 0.0000 0.0000 22.1503 0.0000 0.0000
# 5 0.0000 0.0000 0.0000 0.0000 -3.3092 0.0000
# 6 0.0000 0.0000 0.0000 0.0000 0.0000 8.7469
#
#
#
# Elastic Compliance Matrix: (Units=1/GPa)
#
#
# Indices 1 2 3 4 5 6 
#
# 1 0.024936 0.000148 0.000315 0.000000 0.000000 0.000000
# 2 0.000148 0.010910 -0.012467 0.000000 0.000000 0.000000
# 3 0.000315 -0.012467 0.029693 0.000000 0.000000 0.000000
# 4 0.000000 0.000000 0.000000 0.045146 0.000000 0.000000
# 5 0.000000 0.000000 0.000000 0.000000 -0.302192 0.000000
# 6 0.000000 0.000000 0.000000 0.000000 0.000000 0.114327
#
#
# Mechanical properties :
#
#
# Convention : Reuss Voigt Hill
#
# Bulk Modulus (GPa) = 24.07943 46.97681 35.52812
# Shear Modulus (GPa) = -127.13734 19.54331 -53.79701
#
# Velocity S-wave (km/s) = -8.44773 3.31209 -5.49519
# Velocity P-wave (km/s) = 9.03527 6.40277 4.50781
#
# Compressibility (1/GPa) = 0.04152922
#
# Stress axis : x y z
#
# Youngs Moduli (GPa) = 40.10347 91.65627 33.67782
#
# Poissons Ratio (x) = -0.01353 -0.01059
# Poissons Ratio (y) = -0.00592 0.41986
# Poissons Ratio (z) = -0.01261 1.14268
#
# Static dielectric constant tensor:
#      x y z
#    x 1.712540 0.000000 0.000000 
#    y 0.000000 1.651540 0.000000 
#    z 0.000000 0.000000 1.566390 
# 
# From -- ./inp_files/21740.got.cif
#   From: 2010.05.17/outbox.cif.g08.bks.cpg/sg59_11_cif.got.tgz:21740.got - 2010.06.03 14:40:33.
