data_PCOD9449949
_publ_section_title
;
Structure prediction by ZEFSAII (Michael W. Deem and Ramdas Pophale) SiO2 
 PCOD9449949
Probable space group: P M M N
;
_chemical_formula_sum "Si O2"
_cell_formula_units_Z 48
_cell_length_a 14.356224
_cell_length_b 7.632448
_cell_length_c 21.345584
_cell_angle_alpha 90.000000
_cell_angle_beta 90.000000
_cell_angle_gamma 90.000000
_cell_volume 2338.902518
_symmetry_space_group_name_H-M "P M M N"
_symmetry_group_IT_number 59
_space_group.IT_coordinate_system_code '2'
_symmetry_cell_setting 'orthorhombic'
loop_
_space_group_symop_operation_xyz
x,y,z
1/2-x,1/2-y,z
1/2+x,-y,-z
-x,1/2+y,-z
-x,-y,-z
1/2+x,1/2+y,-z
1/2-x,y,z
x,1/2-y,z
loop_
_atom_site_type_symbol
_atom_site_label
_atom_site_fract_x
_atom_site_fract_y
_atom_site_fract_z
Si Si1 0.439991 0.958799 0.652219
Si Si2 0.953100 0.542398 0.087766
Si Si3 0.394244 0.959271 0.518395
Si Si4 0.853113 0.455038 0.963100
Si Si5 0.643448 0.461832 0.217314
Si Si6 0.349046 0.962072 0.382861
O O1 0.424523 0.750000 0.651688
O O2 0.387620 0.027867 0.589476
O O3 0.400315 0.027255 0.717463
O O4 0.551608 0.984023 0.645630
O O5 0.955217 0.750000 0.075762
O O6 0.917199 0.511446 0.157294
O O7 0.057303 0.471556 0.074043
O O8 0.882687 0.466664 0.035985
O O9 0.377013 0.750000 0.521090
O O10 0.345721 0.024263 0.455385
O O11 0.500000 0.000000 0.500000
O O12 0.750000 0.531791 0.953280
O O13 0.847378 0.250000 0.946369
O O14 0.750000 0.522328 0.210268
O O15 0.644911 0.250000 0.219716
O O16 0.250000 0.015743 0.352778
O O17 0.351399 0.750000 0.383512
#
# Coordination Sequence:
#
# PCOD9449949 Si02
#       6
#     8   8   8   8   8   8
#     4   9  18  32  49  69  94 126 165 205 241 284
#     4  10  20  33  52  79 106 131 163 202 239 279
#     4   8  14  26  44  65  89 117 152 196 241 283
#     4   9  18  34  55  77 103 134 164 196 238 285
#     4  10  21  36  52  70  96 131 166 199 241 292
#     4   9  17  29  47  71  97 125 157 197 249 302
#
# _framework density 20.522445000000001
#
# number of rings (size 3 to 8) (size 9 to 14) (size 15 to 20)
#    0.000    2.833    0.000    1.000    0.000    5.000 
#    0.000    4.167    0.000    3.000    0.000    7.000 
#    0.000    0.000    0.000    0.000    0.000    0.000 
#
# Total GULP energy -267352.031849 kJ/mol
# GULP energy per Si atom -5569.833997 kJ/mol
# Density = 2.047573 g / cm^3
# Si number density = 20.522445 Si / 1000 Ang^3
#
#
#
# Elastic Constant Matrix: (Units=GPa)
#
#
# Indices 1 2 3 4 5 6 
#
# 1 132.5559 -1.3786 55.1583 0.0000 0.0000 0.0000
# 2 -1.3786 41.5915 -5.6923 0.0000 0.0000 0.0000
# 3 55.1583 -5.6923 131.6212 0.0000 0.0000 0.0000
# 4 0.0000 0.0000 0.0000 13.0694 0.0000 0.0000
# 5 0.0000 0.0000 0.0000 0.0000 16.3589 0.0000
# 6 0.0000 0.0000 0.0000 0.0000 0.0000 5.3384
#
#
#
# Elastic Compliance Matrix: (Units=1/GPa)
#
#
# Indices 1 2 3 4 5 6 
#
# 1 0.009139 -0.000223 -0.003840 0.000000 0.000000 0.000000
# 2 -0.000223 0.024192 0.001140 0.000000 0.000000 0.000000
# 3 -0.003840 0.001140 0.009256 0.000000 0.000000 0.000000
# 4 0.000000 0.000000 0.000000 0.076515 0.000000 0.000000
# 5 0.000000 0.000000 0.000000 0.000000 0.061129 0.000000
# 6 0.000000 0.000000 0.000000 0.000000 0.000000 0.187323
#
#
# Mechanical properties :
#
#
# Convention : Reuss Voigt Hill
#
# Bulk Modulus (GPa) = 27.21690 44.66037 35.93863
# Shear Modulus (GPa) = 12.96526 24.13209 18.54868
#
# Velocity S-wave (km/s) = 2.51621 3.43284 3.00963
# Velocity P-wave (km/s) = 4.66182 6.12548 5.44307
#
# Compressibility (1/GPa) = 0.03674188
#
# Stress axis : x y z
#
# Youngs Moduli (GPa) = 109.41634 41.33603 108.03899
#
# Poissons Ratio (x) = 0.00920 0.41483
# Poissons Ratio (y) = 0.02435 -0.12311
# Poissons Ratio (z) = 0.42012 -0.04710
#
# Static dielectric constant tensor:
#      x y z
#    x 1.764460 0.000000 0.000000 
#    y 0.000000 1.799390 0.000000 
#    z 0.000000 0.000000 1.716330 
# 
# From -- ./inp_files/30193.got.cif
#   From: 2010.05.17/outbox.cif.g08.bks.cpg/sg59_16_cif.got.tgz:30193.got - 2010.06.03 14:40:33.
