data_PCOD9449504
_publ_section_title
;
Structure prediction by ZEFSAII (Michael W. Deem and Ramdas Pophale) SiO2 
 PCOD9449504
Probable space group: P M M N
;
_chemical_formula_sum "Si O2"
_cell_formula_units_Z 64
_cell_length_a 20.709127
_cell_length_b 7.612383
_cell_length_c 19.279579
_cell_angle_alpha 90.000000
_cell_angle_beta 90.000000
_cell_angle_gamma 90.000000
_cell_volume 3039.344777
_symmetry_space_group_name_H-M "P M M N"
_symmetry_group_IT_number 59
_space_group.IT_coordinate_system_code '2'
_symmetry_cell_setting 'orthorhombic'
loop_
_space_group_symop_operation_xyz
x,y,z
1/2-x,1/2-y,z
1/2+x,-y,-z
-x,1/2+y,-z
-x,-y,-z
1/2+x,1/2+y,-z
1/2-x,y,z
x,1/2-y,z
loop_
_atom_site_type_symbol
_atom_site_label
_atom_site_fract_x
_atom_site_fract_y
_atom_site_fract_z
Si Si1 0.319399 0.540148 0.081767
Si Si2 0.538762 0.041645 0.930959
Si Si3 0.946008 0.549592 0.675953
Si Si4 0.040916 0.539430 0.791796
Si Si5 0.572209 0.960799 0.523806
Si Si6 0.323585 0.037280 0.588173
Si Si7 0.319936 0.958531 0.247781
Si Si8 0.177601 0.542565 0.749280
O O1 0.250000 0.469287 0.056287
O O2 0.318544 0.750000 0.066545
O O3 0.388738 0.466701 0.060287
O O4 0.319929 0.521146 0.165033
O O5 0.546252 0.250000 0.924084
O O6 0.499702 0.988094 0.861982
O O7 0.500000 0.000000 0.000000
O O8 0.967055 0.750000 0.661151
O O9 0.926725 0.468337 0.602332
O O10 0.880997 0.551284 0.720429
O O11 0.000803 0.468500 0.725397
O O12 0.044479 0.750000 0.783296
O O13 0.114711 0.472055 0.789728
O O14 0.582720 0.750000 0.526354
O O15 0.624556 0.027201 0.468154
O O16 0.500000 0.000000 0.500000
O O17 0.250000 0.984989 0.570268
O O18 0.325747 0.250000 0.589681
O O19 0.336213 0.976885 0.666940
O O20 0.250000 0.018969 0.274310
O O21 0.325769 0.750000 0.261493
O O22 0.250000 0.468418 0.762022
O O23 0.181538 0.750000 0.764734
#
# Coordination Sequence:
#
# PCOD9449504 Si02
#       8
#     8   8   8   8   8   8   8   8
#     4   8  15  31  55  79 103 135 174 210 245 293
#     4  11  22  37  59  84 111 143 176 215 264 315
#     4  10  20  32  49  74 105 138 174 218 269 318
#     4  10  20  35  54  78 108 137 172 219 266 318
#     4  10  21  35  50  72 102 139 178 220 269 320
#     4   9  18  33  52  74 103 140 181 223 268 320
#     4   9  17  31  51  75 102 131 170 215 252 298
#     4   9  18  34  57  81 104 136 179 224 268 314
#
# _framework density 21.057168999999998
#
# number of rings (size 3 to 8) (size 9 to 14) (size 15 to 20)
#    0.000    2.500    1.250    1.875    0.000    3.250 
#    0.000    1.875    0.000    6.750    0.000    0.000 
#    0.000    0.000    0.000    0.000    0.000    0.000 
#
# Total GULP energy -356802.539735 kJ/mol
# GULP energy per Si atom -5575.039683 kJ/mol
# Density = 2.100924 g / cm^3
# Si number density = 21.057169 Si / 1000 Ang^3
#
#
#
# Elastic Constant Matrix: (Units=GPa)
#
#
# Indices 1 2 3 4 5 6 
#
# 1 200.7457 5.0017 56.3391 0.0000 0.0000 0.0000
# 2 5.0017 42.1533 -4.1399 0.0000 0.0000 0.0000
# 3 56.3391 -4.1399 38.4436 0.0000 0.0000 0.0000
# 4 0.0000 0.0000 0.0000 16.0687 0.0000 0.0000
# 5 0.0000 0.0000 0.0000 0.0000 -98.3065 0.0000
# 6 0.0000 0.0000 0.0000 0.0000 0.0000 17.5169
#
#
#
# Elastic Compliance Matrix: (Units=1/GPa)
#
#
# Indices 1 2 3 4 5 6 
#
# 1 0.008677 -0.002303 -0.012965 0.000000 0.000000 0.000000
# 2 -0.002303 0.024588 0.006023 0.000000 0.000000 0.000000
# 3 -0.012965 0.006023 0.045660 0.000000 0.000000 0.000000
# 4 0.000000 0.000000 0.000000 0.062233 0.000000 0.000000
# 5 0.000000 0.000000 0.000000 0.000000 -0.010172 0.000000
# 6 0.000000 0.000000 0.000000 0.000000 0.000000 0.057088
#
#
# Mechanical properties :
#
#
# Convention : Reuss Voigt Hill
#
# Bulk Modulus (GPa) = 16.54653 43.97162 30.25907
# Shear Modulus (GPa) = 22.05478 1.99861 12.02670
#
# Velocity S-wave (km/s) = 3.23983 0.97529 2.39246
# Velocity P-wave (km/s) = 4.67657 4.71122 4.69393
#
# Compressibility (1/GPa) = 0.06043564
#
# Stress axis : x y z
#
# Youngs Moduli (GPa) = 115.24313 40.67078 21.90085
#
# Poissons Ratio (x) = 0.09366 0.28394
# Poissons Ratio (y) = 0.26539 -0.13190
# Poissons Ratio (z) = 1.49408 -0.24494
#
# Static dielectric constant tensor:
#      x y z
#    x 1.812720 0.000000 0.000000 
#    y 0.000000 1.788750 0.000000 
#    z 0.000000 0.000000 1.733730 
# 
# From -- ./inp_files/28269.got.cif
#   From: 2010.05.17/outbox.cif.g08.bks.cpg/sg59_15_cif.got.tgz:28269.got - 2010.06.03 14:40:33.
