data_PCOD9449099
_publ_section_title
;
Structure prediction by ZEFSAII (Michael W. Deem and Ramdas Pophale) SiO2 
 PCOD9449099
Probable space group: P M M N
;
_chemical_formula_sum "Si O2"
_cell_formula_units_Z 64
_cell_length_a 20.556698
_cell_length_b 8.629117
_cell_length_c 19.267145
_cell_angle_alpha 90.000000
_cell_angle_beta 90.000000
_cell_angle_gamma 90.000000
_cell_volume 3417.724715
_symmetry_space_group_name_H-M "P M M N"
_symmetry_group_IT_number 59
_space_group.IT_coordinate_system_code '2'
_symmetry_cell_setting 'orthorhombic'
loop_
_space_group_symop_operation_xyz
x,y,z
1/2-x,1/2-y,z
1/2+x,-y,-z
-x,1/2+y,-z
-x,-y,-z
1/2+x,1/2+y,-z
1/2-x,y,z
x,1/2-y,z
loop_
_atom_site_type_symbol
_atom_site_label
_atom_site_fract_x
_atom_site_fract_y
_atom_site_fract_z
Si Si1 0.324744 0.563379 0.923828
Si Si2 0.932374 0.566341 0.972583
Si Si3 0.823730 0.061338 0.237106
Si Si4 0.823172 0.927380 0.751010
Si Si5 0.441921 0.570711 0.179328
Si Si6 0.960742 0.062788 0.291562
Si Si7 0.180131 0.068429 0.415929
Si Si8 0.964241 0.938647 0.567522
O O1 0.250000 0.521986 0.940331
O O2 0.330154 0.750000 0.926243
O O3 0.336636 0.516998 0.843430
O O4 0.374754 0.493613 0.978195
O O5 0.933319 0.750000 0.974831
O O6 0.928354 0.510124 0.893655
O O7 0.000000 0.500000 0.000000
O O8 0.750000 0.009839 0.255808
O O9 0.822476 0.250000 0.238624
O O10 0.885352 0.011821 0.283467
O O11 0.750000 0.955403 0.777029
O O12 0.842276 0.750000 0.769837
O O13 0.820925 0.932848 0.667764
O O14 0.875839 0.046028 0.777706
O O15 0.456843 0.750000 0.168096
O O16 0.499008 0.494683 0.224890
O O17 0.961600 0.250000 0.291064
O O18 0.998297 0.012829 0.361751
O O19 0.250000 0.999740 0.438523
O O20 0.180703 0.250000 0.436824
O O21 0.110351 0.002754 0.436503
O O22 0.962846 0.750000 0.568501
O O23 0.000000 0.000000 0.500000
#
# Coordination Sequence:
#
# PCOD9449099 Si02
#       8
#     8   8   8   8   8   8   8   8
#     4   9  18  35  58  83 112 146 186 231 281 337
#     4  12  25  40  57  78 109 147 191 237 286 340
#     4   8  15  30  56  85 107 134 174 222 276 330
#     4   9  17  33  57  81 106 139 182 226 268 321
#     4  12  24  36  54  81 113 145 181 229 284 338
#     4  10  19  35  58  81 108 143 186 231 276 336
#     4   8  14  29  54  78 103 140 185 225 262 318
#     4  10  20  34  54  81 113 147 186 228 281 335
#
# _framework density 18.725908
#
# number of rings (size 3 to 8) (size 9 to 14) (size 15 to 20)
#    0.000    2.250    1.250    4.500    0.000    2.500 
#    0.000    0.625    0.000    2.250    0.000    0.000 
#    0.000    0.000    0.000    0.000    0.000    0.000 
#
# Total GULP energy -356861.886841 kJ/mol
# GULP energy per Si atom -5575.966982 kJ/mol
# Density = 1.868329 g / cm^3
# Si number density = 18.725908 Si / 1000 Ang^3
#
#
#
# Elastic Constant Matrix: (Units=GPa)
#
#
# Indices 1 2 3 4 5 6 
#
# 1 174.9643 28.8129 67.7757 0.0000 0.0000 0.0000
# 2 28.8129 25.8114 12.8618 0.0000 0.0000 0.0000
# 3 67.7757 12.8618 53.8049 0.0000 0.0000 0.0000
# 4 0.0000 0.0000 0.0000 21.5185 0.0000 0.0000
# 5 0.0000 0.0000 0.0000 0.0000 26.2223 0.0000
# 6 0.0000 0.0000 0.0000 0.0000 0.0000 21.1851
#
#
#
# Elastic Compliance Matrix: (Units=1/GPa)
#
#
# Indices 1 2 3 4 5 6 
#
# 1 0.012107 -0.006716 -0.013646 0.000000 0.000000 0.000000
# 2 -0.006716 0.047706 -0.002945 0.000000 0.000000 0.000000
# 3 -0.013646 -0.002945 0.036478 0.000000 0.000000 0.000000
# 4 0.000000 0.000000 0.000000 0.046472 0.000000 0.000000
# 5 0.000000 0.000000 0.000000 0.000000 0.038136 0.000000
# 6 0.000000 0.000000 0.000000 0.000000 0.000000 0.047203
#
#
# Mechanical properties :
#
#
# Convention : Reuss Voigt Hill
#
# Bulk Modulus (GPa) = 20.12875 52.60905 36.36890
# Shear Modulus (GPa) = 17.16595 23.46051 20.31323
#
# Velocity S-wave (km/s) = 3.03098 3.54338 3.29715
# Velocity P-wave (km/s) = 4.79808 6.70045 5.82742
#
# Compressibility (1/GPa) = 0.04968018
#
# Stress axis : x y z
#
# Youngs Moduli (GPa) = 82.59513 20.96155 27.41345
#
# Poissons Ratio (x) = 0.14077 0.37407
# Poissons Ratio (y) = 0.55467 0.08073
# Poissons Ratio (z) = 1.12707 0.06173
#
# Static dielectric constant tensor:
#      x y z
#    x 1.691040 0.000000 0.000000 
#    y 0.000000 1.632870 0.000000 
#    z 0.000000 0.000000 1.604490 
# 
# From -- ./inp_files/28206.got.cif
#   From: 2010.05.17/outbox.cif.g08.bks.cpg/sg59_15_cif.got.tgz:28206.got - 2010.06.03 14:40:33.
