data_PCOD9449102
_publ_section_title
;
Structure prediction by ZEFSAII (Michael W. Deem and Ramdas Pophale) SiO2 
 PCOD9449102
Probable space group: P M M N
;
_chemical_formula_sum "Si O2"
_cell_formula_units_Z 48
_cell_length_a 8.589827
_cell_length_b 16.101392
_cell_length_c 19.621386
_cell_angle_alpha 90.000000
_cell_angle_beta 90.000000
_cell_angle_gamma 90.000000
_cell_volume 2713.798025
_symmetry_space_group_name_H-M "P M M N"
_symmetry_group_IT_number 59
_space_group.IT_coordinate_system_code '2'
_symmetry_cell_setting 'orthorhombic'
loop_
_space_group_symop_operation_xyz
x,y,z
1/2-x,1/2-y,z
1/2+x,-y,-z
-x,1/2+y,-z
-x,-y,-z
1/2+x,1/2+y,-z
1/2-x,y,z
x,1/2-y,z
loop_
_atom_site_type_symbol
_atom_site_label
_atom_site_fract_x
_atom_site_fract_y
_atom_site_fract_z
Si Si1 0.062300 0.343170 0.577837
Si Si2 0.437773 0.843852 0.574778
Si Si3 0.927456 0.750000 0.043964
Si Si4 0.573233 0.750000 0.209384
Si Si5 0.062084 0.430178 0.949964
Si Si6 0.938496 0.498814 0.333166
Si Si7 0.065430 0.927439 0.202116
O O1 0.250000 0.343315 0.578553
O O2 0.010434 0.250000 0.599177
O O3 0.010145 0.419500 0.624521
O O4 0.006263 0.356899 0.500533
O O5 0.250000 0.847443 0.569556
O O6 0.480606 0.750000 0.596591
O O7 0.486771 0.916185 0.626308
O O8 0.750000 0.750000 0.017901
O O9 0.920243 0.750000 0.126630
O O10 0.998347 0.838932 0.026376
O O11 0.750000 0.750000 0.236213
O O12 0.490731 0.664000 0.226884
O O13 0.250000 0.427981 0.950262
O O14 0.007234 0.442777 0.872321
O O15 0.000000 0.500000 0.000000
O O16 0.750000 0.499849 0.329183
O O17 0.006629 0.507567 0.257923
O O18 0.250000 0.927929 0.196401
#
# Coordination Sequence:
#
# PCOD9449102 Si02
#       7
#     8   8   4   4   8   8   8
#     4   9  18  31  48  73 101 132 170 210 261 325
#     4   9  18  33  52  72  96 131 176 225 270 313
#     4   7  14  29  51  77 103 135 168 199 250 309
#     4   9  17  33  53  73 105 143 170 203 258 317
#     4  10  19  35  58  82 110 145 180 219 266 318
#     4  10  20  33  50  72 102 139 175 214 269 323
#     4  11  22  34  51  80 110 139 179 220 263 319
#
# _framework density 17.687387999999999
#
# number of rings (size 3 to 8) (size 9 to 14) (size 15 to 20)
#    0.000    2.500    0.000    3.750    1.167    1.333 
#    0.000    1.250    1.833    0.000    0.000    0.000 
#    0.000    0.000    0.000    0.000    0.000    0.000 
#
# Total GULP energy -267702.483512 kJ/mol
# GULP energy per Si atom -5577.135073 kJ/mol
# Density = 1.764713 g / cm^3
# Si number density = 17.687388 Si / 1000 Ang^3
#
#
#
# Elastic Constant Matrix: (Units=GPa)
#
#
# Indices 1 2 3 4 5 6 
#
# 1 42.7571 31.6052 24.1647 0.0000 0.0000 0.0000
# 2 31.6052 139.6230 82.9852 0.0000 0.0000 0.0000
# 3 24.1647 82.9852 90.9829 0.0000 0.0000 0.0000
# 4 0.0000 0.0000 0.0000 28.5907 0.0000 0.0000
# 5 0.0000 0.0000 0.0000 0.0000 25.7637 0.0000
# 6 0.0000 0.0000 0.0000 0.0000 0.0000 18.3375
#
#
#
# Elastic Compliance Matrix: (Units=1/GPa)
#
#
# Indices 1 2 3 4 5 6 
#
# 1 0.028647 -0.004286 -0.003699 0.000000 0.000000 0.000000
# 2 -0.004286 0.016283 -0.013713 0.000000 0.000000 0.000000
# 3 -0.003699 -0.013713 0.024481 0.000000 0.000000 0.000000
# 4 0.000000 0.000000 0.000000 0.034976 0.000000 0.000000
# 5 0.000000 0.000000 0.000000 0.000000 0.038814 0.000000
# 6 0.000000 0.000000 0.000000 0.000000 0.000000 0.054533
#
#
# Mechanical properties :
#
#
# Convention : Reuss Voigt Hill
#
# Bulk Modulus (GPa) = 38.44071 61.20813 49.82442
# Shear Modulus (GPa) = 20.01585 23.51226 21.76406
#
# Velocity S-wave (km/s) = 3.36764 3.64994 3.51163
# Velocity P-wave (km/s) = 6.07470 7.24178 6.68376
#
# Compressibility (1/GPa) = 0.02601409
#
# Stress axis : x y z
#
# Youngs Moduli (GPa) = 34.90817 61.41494 40.84748
#
# Poissons Ratio (x) = 0.26321 0.15111
# Poissons Ratio (y) = 0.14961 0.56015
# Poissons Ratio (z) = 0.12914 0.84219
#
# Static dielectric constant tensor:
#      x y z
#    x 1.590650 0.000000 0.000000 
#    y 0.000000 1.631960 0.000000 
#    z 0.000000 0.000000 1.577930 
# 
# From -- ./inp_files/25577.got.cif
#   From: 2010.05.17/outbox.cif.g08.bks.cpg/sg59_13_cif.got.tgz:25577.got - 2010.06.03 14:40:33.
