data_PCOD9449248
_publ_section_title
;
Structure prediction by ZEFSAII (Michael W. Deem and Ramdas Pophale) SiO2 
 PCOD9449248
Probable space group: P M M N
;
_chemical_formula_sum "Si O2"
_cell_formula_units_Z 48
_cell_length_a 21.210309
_cell_length_b 8.166598
_cell_length_c 14.497148
_cell_angle_alpha 90.000000
_cell_angle_beta 90.000000
_cell_angle_gamma 90.000000
_cell_volume 2511.138960
_symmetry_space_group_name_H-M "P M M N"
_symmetry_group_IT_number 59
_space_group.IT_coordinate_system_code '2'
_symmetry_cell_setting 'orthorhombic'
loop_
_space_group_symop_operation_xyz
x,y,z
1/2-x,1/2-y,z
1/2+x,-y,-z
-x,1/2+y,-z
-x,-y,-z
1/2+x,1/2+y,-z
1/2-x,y,z
x,1/2-y,z
loop_
_atom_site_type_symbol
_atom_site_label
_atom_site_fract_x
_atom_site_fract_y
_atom_site_fract_z
Si Si1 0.176782 0.949819 0.097856
Si Si2 0.250000 0.061273 0.385325
Si Si3 0.824031 0.052334 0.108943
Si Si4 0.000119 0.948060 0.393811
Si Si5 0.250000 0.937538 0.587392
Si Si6 0.623670 0.053938 0.712349
Si Si7 0.129921 0.055769 0.699505
O O1 0.250000 0.997573 0.112844
O O2 0.176221 0.750000 0.098060
O O3 0.135146 0.008075 0.183479
O O4 0.157763 0.000524 0.994647
O O5 0.250000 0.750000 0.556392
O O6 0.187032 0.981139 0.344609
O O7 0.250000 0.045111 0.495545
O O8 0.750000 0.008884 0.121906
O O9 0.827817 0.250000 0.113435
O O10 0.863842 0.979175 0.192004
O O11 0.001214 0.750000 0.391289
O O12 0.936078 0.001813 0.343255
O O13 0.062246 0.010145 0.340562
O O14 0.000000 0.000000 0.500000
O O15 0.250000 0.250000 0.357890
O O16 0.188469 0.971469 0.648453
O O17 0.616666 0.250000 0.718675
O O18 0.135494 0.250000 0.683870
#
# Coordination Sequence:
#
# PCOD9449248 Si02
#       7
#     8   4   8   8   4   8   8
#     4   8  14  28  55  85 109 138 182 233 270 310
#     4  12  24  36  53  84 117 140 173 232 290 330
#     4   9  17  31  54  84 112 143 185 224 267 328
#     4  10  23  39  57  80 109 147 188 227 275 335
#     4  12  24  38  57  80 103 140 193 234 268 330
#     4  10  19  37  61  82 106 147 194 228 267 327
#     4  11  22  37  55  82 116 145 176 228 288 327
#
# _framework density 19.114833000000001
#
# number of rings (size 3 to 8) (size 9 to 14) (size 15 to 20)
#    0.000    2.000    1.667    4.000    0.000    4.667 
#    0.000    1.667    0.000    0.000    0.000    0.000 
#    0.000    0.000    0.000    0.000    0.000    0.000 
#
# Total GULP energy -268001.701871 kJ/mol
# GULP energy per Si atom -5583.368789 kJ/mol
# Density = 1.907133 g / cm^3
# Si number density = 19.114833 Si / 1000 Ang^3
#
#
#
# Elastic Constant Matrix: (Units=GPa)
#
#
# Indices 1 2 3 4 5 6 
#
# 1 147.9905 9.5382 86.6772 0.0000 0.0000 0.0000
# 2 9.5382 14.7675 -0.3270 0.0000 0.0000 0.0000
# 3 86.6772 -0.3270 166.8486 0.0000 0.0000 0.0000
# 4 0.0000 0.0000 0.0000 18.9383 0.0000 0.0000
# 5 0.0000 0.0000 0.0000 0.0000 29.1314 0.0000
# 6 0.0000 0.0000 0.0000 0.0000 0.0000 -5.8674
#
#
#
# Elastic Compliance Matrix: (Units=1/GPa)
#
#
# Indices 1 2 3 4 5 6 
#
# 1 0.010354 -0.006807 -0.005392 0.000000 0.000000 0.000000
# 2 -0.006807 0.072194 0.003678 0.000000 0.000000 0.000000
# 3 -0.005392 0.003678 0.008802 0.000000 0.000000 0.000000
# 4 0.000000 0.000000 0.000000 0.052803 0.000000 0.000000
# 5 0.000000 0.000000 0.000000 0.000000 0.034327 0.000000
# 6 0.000000 0.000000 0.000000 0.000000 0.000000 -0.170433
#
#
# Mechanical properties :
#
#
# Convention : Reuss Voigt Hill
#
# Bulk Modulus (GPa) = 13.45763 57.93149 35.69456
# Shear Modulus (GPa) = 100.27970 24.02167 62.15068
#
# Velocity S-wave (km/s) = 7.25090 3.54885 5.70832
# Velocity P-wave (km/s) = 8.78388 6.86770 7.88422
#
# Compressibility (1/GPa) = 0.07430728
#
# Stress axis : x y z
#
# Youngs Moduli (GPa) = 96.57976 13.85149 113.61147
#
# Poissons Ratio (x) = 0.09429 0.61262
# Poissons Ratio (y) = 0.65742 -0.41783
# Poissons Ratio (z) = 0.52078 -0.05094
#
# Static dielectric constant tensor:
#      x y z
#    x 1.657410 0.000000 0.000000 
#    y 0.000000 1.766760 0.000000 
#    z 0.000000 0.000000 1.662850 
# 
# From -- ./inp_files/15951.got.cif
#   From: 2010.05.17/outbox.cif.g08.bks.cpg/sg59_8_cif.got.tgz:15951.got - 2010.06.03 14:40:33.
