data_PCOD9449006
_publ_section_title
;
Structure prediction by ZEFSAII (Michael W. Deem and Ramdas Pophale) SiO2 
 PCOD9449006
Probable space group: P M M N
;
_chemical_formula_sum "Si O2"
_cell_formula_units_Z 40
_cell_length_a 18.962605
_cell_length_b 10.477457
_cell_length_c 10.814077
_cell_angle_alpha 90.000000
_cell_angle_beta 90.000000
_cell_angle_gamma 90.000000
_cell_volume 2148.539504
_symmetry_space_group_name_H-M "P M M N"
_symmetry_group_IT_number 59
_space_group.IT_coordinate_system_code '2'
_symmetry_cell_setting 'orthorhombic'
loop_
_space_group_symop_operation_xyz
x,y,z
1/2-x,1/2-y,z
1/2+x,-y,-z
-x,1/2+y,-z
-x,-y,-z
1/2+x,1/2+y,-z
1/2-x,y,z
x,1/2-y,z
loop_
_atom_site_type_symbol
_atom_site_label
_atom_site_fract_x
_atom_site_fract_y
_atom_site_fract_z
Si Si1 0.326732 0.750000 0.156542
Si Si2 0.013850 0.599794 0.821327
Si Si3 0.333673 0.250000 0.908551
Si Si4 0.590188 0.750000 0.358772
Si Si5 0.924009 0.481968 0.438591
Si Si6 0.918253 0.250000 0.604626
Si Si7 0.112315 0.504812 0.043077
O O1 0.250000 0.750000 0.214771
O O2 0.385127 0.750000 0.261560
O O3 0.336830 0.879481 0.078661
O O4 0.000778 0.750000 0.821969
O O5 0.056931 0.563790 0.699270
O O6 0.938836 0.530648 0.841573
O O7 0.061436 0.560154 0.936996
O O8 0.250000 0.250000 0.879193
O O9 0.381117 0.250000 0.782415
O O10 0.352922 0.376493 0.987974
O O11 0.613212 0.618769 0.425018
O O12 0.503933 0.750000 0.372380
O O13 0.893076 0.371657 0.524218
O O14 0.000000 0.500000 0.500000
#
# Coordination Sequence:
#
# PCOD9449006 Si02
#       7
#     4   8   4   4   8   4   8
#     4  12  26  45  61  84 122 167 214 257 302 364
#     4  11  20  34  64  98 119 150 197 256 307 363
#     4  12  24  39  57  88 128 166 196 241 308 374
#     4  10  20  36  59  91 121 153 196 253 300 362
#     4  10  19  34  58  90 122 150 193 247 308 350
#     4  10  22  38  63  85 115 160 210 253 306 360
#     4  11  23  38  62  90 125 157 200 248 309 370
#
# _framework density 18.617298000000002
#
# number of rings (size 3 to 8) (size 9 to 14) (size 15 to 20)
#    0.000    1.200    5.000    3.000    2.800    0.000 
#    0.000    1.000    0.000    0.000    0.000    0.000 
#    0.000    0.000    0.000    0.000    0.000    0.000 
#
# Total GULP energy -223038.745961 kJ/mol
# GULP energy per Si atom -5575.968649 kJ/mol
# Density = 1.857492 g / cm^3
# Si number density = 18.617298 Si / 1000 Ang^3
#
#
#
# Elastic Constant Matrix: (Units=GPa)
#
#
# Indices 1 2 3 4 5 6 
#
# 1 30.8451 11.5328 -6.8542 0.0000 0.0000 0.0000
# 2 11.5328 160.6918 28.7893 0.0000 0.0000 0.0000
# 3 -6.8542 28.7893 58.5824 0.0000 0.0000 0.0000
# 4 0.0000 0.0000 0.0000 26.2245 0.0000 0.0000
# 5 0.0000 0.0000 0.0000 0.0000 0.5772 0.0000
# 6 0.0000 0.0000 0.0000 0.0000 0.0000 6.4099
#
#
#
# Elastic Compliance Matrix: (Units=1/GPa)
#
#
# Indices 1 2 3 4 5 6 
#
# 1 0.035053 -0.003564 0.005853 0.000000 0.000000 0.000000
# 2 -0.003564 0.007186 -0.003949 0.000000 0.000000 0.000000
# 3 0.005853 -0.003949 0.019695 0.000000 0.000000 0.000000
# 4 0.000000 0.000000 0.000000 0.038132 0.000000 0.000000
# 5 0.000000 0.000000 0.000000 0.000000 1.732369 0.000000
# 6 0.000000 0.000000 0.000000 0.000000 0.000000 0.156009
#
#
# Mechanical properties :
#
#
# Convention : Reuss Voigt Hill
#
# Bulk Modulus (GPa) = 17.06052 35.22835 26.14444
# Shear Modulus (GPa) = 2.48595 21.08575 11.78585
#
# Velocity S-wave (km/s) = 1.15680 3.36905 2.51880
# Velocity P-wave (km/s) = 3.31179 5.83930 4.74686
#
# Compressibility (1/GPa) = 0.05861484
#
# Stress axis : x y z
#
# Youngs Moduli (GPa) = 28.52790 139.15289 50.77365
#
# Poissons Ratio (x) = 0.49599 -0.29718
# Poissons Ratio (y) = 0.10168 0.20049
# Poissons Ratio (z) = -0.16697 0.54946
#
# Static dielectric constant tensor:
#      x y z
#    x 1.619940 0.000000 0.000000 
#    y 0.000000 1.696870 0.000000 
#    z 0.000000 0.000000 1.607090 
# 
# From -- ./inp_files/11182.got.cif
#   From: 2010.05.17/outbox.cif.g08.bks.cpg/sg59_6_cif.got.tgz:11182.got - 2010.06.03 14:40:33.
