data_PCOD9449346
_publ_section_title
;
Structure prediction by ZEFSAII (Michael W. Deem and Ramdas Pophale) SiO2 
 PCOD9449346
Probable space group: P M M N
;
_chemical_formula_sum "Si O2"
_cell_formula_units_Z 64
_cell_length_a 19.681903
_cell_length_b 8.517636
_cell_length_c 22.793151
_cell_angle_alpha 90.000000
_cell_angle_beta 90.000000
_cell_angle_gamma 90.000000
_cell_volume 3821.118721
_symmetry_space_group_name_H-M "P M M N"
_symmetry_group_IT_number 59
_space_group.IT_coordinate_system_code '2'
_symmetry_cell_setting 'orthorhombic'
loop_
_space_group_symop_operation_xyz
x,y,z
1/2-x,1/2-y,z
1/2+x,-y,-z
-x,1/2+y,-z
-x,-y,-z
1/2+x,1/2+y,-z
1/2-x,y,z
x,1/2-y,z
loop_
_atom_site_type_symbol
_atom_site_label
_atom_site_fract_x
_atom_site_fract_y
_atom_site_fract_z
Si Si1 0.902521 0.440427 0.472796
Si Si2 0.038841 0.936494 0.411971
Si Si3 0.964724 0.562230 0.301121
Si Si4 0.172390 0.436338 0.017495
Si Si5 0.325991 0.560973 0.641250
Si Si6 0.038030 0.562906 0.826140
Si Si7 0.173856 0.938248 0.886482
Si Si8 0.464570 0.565219 0.059104
O O1 0.912351 0.250000 0.470858
O O2 0.903548 0.489337 0.541412
O O3 0.841992 0.475477 0.427519
O O4 0.967914 0.524642 0.444564
O O5 0.047959 0.750000 0.406383
O O6 0.022365 0.998632 0.346948
O O7 0.962484 0.750000 0.304924
O O8 0.890269 0.501134 0.321639
O O9 0.981293 0.512131 0.235372
O O10 0.250000 0.478913 0.032801
O O11 0.163727 0.250000 0.025045
O O12 0.114895 0.526519 0.052845
O O13 0.163331 0.478607 0.948855
O O14 0.250000 0.505306 0.657341
O O15 0.326619 0.750000 0.647291
O O16 0.035159 0.750000 0.820485
O O17 0.115537 0.516323 0.841638
O O18 0.994879 0.512067 0.882601
O O19 0.250000 0.972727 0.865664
O O20 0.168772 0.750000 0.896620
O O21 0.476532 0.750000 0.061283
O O22 0.500000 0.500000 0.000000
#
# Coordination Sequence:
#
# PCOD9449346 Si02
#       8
#     8   8   8   8   8   8   8   8
#     4   8  13  23  41  63  85 112 147 188 230 273
#     4   8  14  25  41  61  85 112 146 189 236 277
#     4  10  20  32  45  64  92 127 164 202 244 295
#     4  10  20  34  54  79 104 129 160 200 248 304
#     4   9  17  29  45  66  94 128 164 199 236 282
#     4  11  22  35  51  72  99 133 172 215 258 306
#     4   9  18  32  49  68  92 125 163 203 248 299
#     4  12  23  36  55  78 105 135 167 210 262 312
#
# _framework density 16.749020999999999
#
# number of rings (size 3 to 8) (size 9 to 14) (size 15 to 20)
#    0.000    2.375    1.250    2.250    0.000    2.500 
#    0.000    1.250    0.000    0.000    0.000    0.875 
#    0.000    3.000    0.000    0.000    0.000    0.000 
#
# Total GULP energy -356412.876183 kJ/mol
# GULP energy per Si atom -5568.951190 kJ/mol
# Density = 1.671090 g / cm^3
# Si number density = 16.749021 Si / 1000 Ang^3
#
#
#
# Elastic Constant Matrix: (Units=GPa)
#
#
# Indices 1 2 3 4 5 6 
#
# 1 26.6516 3.8746 23.3426 0.0000 0.0000 0.0000
# 2 3.8746 10.9544 7.2451 0.0000 0.0000 0.0000
# 3 23.3426 7.2451 108.8739 0.0000 0.0000 0.0000
# 4 0.0000 0.0000 0.0000 21.1789 0.0000 0.0000
# 5 0.0000 0.0000 0.0000 0.0000 16.4149 0.0000
# 6 0.0000 0.0000 0.0000 0.0000 0.0000 18.3095
#
#
#
# Elastic Compliance Matrix: (Units=1/GPa)
#
#
# Indices 1 2 3 4 5 6 
#
# 1 0.047321 -0.010489 -0.009448 0.000000 0.000000 0.000000
# 2 -0.010489 0.097815 -0.004260 0.000000 0.000000 0.000000
# 3 -0.009448 -0.004260 0.011494 0.000000 0.000000 0.000000
# 4 0.000000 0.000000 0.000000 0.047217 0.000000 0.000000
# 5 0.000000 0.000000 0.000000 0.000000 0.060920 0.000000
# 6 0.000000 0.000000 0.000000 0.000000 0.000000 0.054616
#
#
# Mechanical properties :
#
#
# Convention : Reuss Voigt Hill
#
# Bulk Modulus (GPa) = 9.23908 23.93383 16.58646
# Shear Modulus (GPa) = 12.38064 18.64849 15.51457
#
# Velocity S-wave (km/s) = 2.72175 3.34040 3.04681
# Velocity P-wave (km/s) = 3.92497 5.40355 4.72249
#
# Compressibility (1/GPa) = 0.10823587
#
# Stress axis : x y z
#
# Youngs Moduli (GPa) = 21.13239 10.22336 87.00188
#
# Poissons Ratio (x) = 0.10723 0.82196
# Poissons Ratio (y) = 0.22166 0.37065
# Poissons Ratio (z) = 0.19965 0.04355
#
# Static dielectric constant tensor:
#      x y z
#    x 1.574010 0.000000 0.000000 
#    y 0.000000 1.574250 0.000000 
#    z 0.000000 0.000000 1.604610 
# 
# From -- ./inp_files/31024.got.cif
#   From: 2010.05.17/outbox.cif.g08.bks.cpg/sg59_16_cif.got.tgz:31024.got - 2010.06.03 14:40:33.
