data_PCOD9449542
_publ_section_title
;
Structure prediction by ZEFSAII (Michael W. Deem and Ramdas Pophale) SiO2 
 PCOD9449542
Probable space group: P M M N
;
_chemical_formula_sum "Si O2"
_cell_formula_units_Z 64
_cell_length_a 21.592451
_cell_length_b 8.332745
_cell_length_c 18.747440
_cell_angle_alpha 90.000000
_cell_angle_beta 90.000000
_cell_angle_gamma 90.000000
_cell_volume 3373.121671
_symmetry_space_group_name_H-M "P M M N"
_symmetry_group_IT_number 59
_space_group.IT_coordinate_system_code '2'
_symmetry_cell_setting 'orthorhombic'
loop_
_space_group_symop_operation_xyz
x,y,z
1/2-x,1/2-y,z
1/2+x,-y,-z
-x,1/2+y,-z
-x,-y,-z
1/2+x,1/2+y,-z
1/2-x,y,z
x,1/2-y,z
loop_
_atom_site_type_symbol
_atom_site_label
_atom_site_fract_x
_atom_site_fract_y
_atom_site_fract_z
Si Si1 0.181462 0.941967 0.896786
Si Si2 0.855517 0.940580 0.257674
Si Si3 0.995585 0.558674 0.217690
Si Si4 0.660332 0.066317 0.409215
Si Si5 0.820488 0.060598 0.570532
Si Si6 0.955195 0.056902 0.063288
Si Si7 0.531045 0.567064 0.429557
Si Si8 0.929764 0.934858 0.664729
O O1 0.250000 0.003904 0.919040
O O2 0.182491 0.750000 0.905639
O O3 0.117603 0.999391 0.935103
O O4 0.173091 0.978940 0.812451
O O5 0.851252 0.750000 0.248920
O O6 0.929305 0.982047 0.255776
O O7 0.824850 0.985891 0.333382
O O8 0.003767 0.750000 0.221526
O O9 0.984445 0.505897 0.136835
O O10 0.054434 0.470366 0.253086
O O11 0.680702 0.250000 0.406726
O O12 0.677920 0.000289 0.487897
O O13 0.586600 0.049890 0.411861
O O14 0.750000 0.049586 0.594968
O O15 0.838359 0.250000 0.567237
O O16 0.865327 0.972908 0.625885
O O17 0.953978 0.250000 0.063698
O O18 0.000000 0.000000 0.000000
O O19 0.500000 0.500000 0.500000
O O20 0.553644 0.750000 0.436554
O O21 0.477899 0.555607 0.371749
O O22 0.945295 0.750000 0.649234
#
# Coordination Sequence:
#
# PCOD9449542 Si02
#       8
#     8   8   8   8   8   8   8   8
#     4   9  19  36  57  81 113 155 197 231 270 330
#     4  10  20  32  50  78 113 147 182 227 275 329
#     4  10  20  35  56  83 115 145 179 222 273 332
#     4  11  21  33  52  75 105 142 184 233 282 337
#     4  10  23  41  56  71  98 141 190 237 288 343
#     4  10  20  36  60  90 123 154 189 230 279 335
#     4  12  22  33  50  76 105 136 176 227 282 334
#     4  12  23  35  56  81 106 137 176 228 281 333
#
# _framework density 18.973521999999999
#
# number of rings (size 3 to 8) (size 9 to 14) (size 15 to 20)
#    0.000    1.500    2.500    3.750    0.000    3.000 
#    0.000    1.250    0.000    0.750    0.000    1.750 
#    0.000    0.000    0.000    0.000    0.000    0.000 
#
# Total GULP energy -356844.326667 kJ/mol
# GULP energy per Si atom -5575.692604 kJ/mol
# Density = 1.893034 g / cm^3
# Si number density = 18.973522 Si / 1000 Ang^3
#
#
#
# Elastic Constant Matrix: (Units=GPa)
#
#
# Indices 1 2 3 4 5 6 
#
# 1 112.9568 22.0489 59.1679 0.0000 0.0000 0.0000
# 2 22.0489 53.9121 19.0530 0.0000 0.0000 0.0000
# 3 59.1679 19.0530 96.1905 0.0000 0.0000 0.0000
# 4 0.0000 0.0000 0.0000 26.9595 0.0000 0.0000
# 5 0.0000 0.0000 0.0000 0.0000 -5.3206 0.0000
# 6 0.0000 0.0000 0.0000 0.0000 0.0000 13.9802
#
#
#
# Elastic Compliance Matrix: (Units=1/GPa)
#
#
# Indices 1 2 3 4 5 6 
#
# 1 0.013435 -0.002768 -0.007716 0.000000 0.000000 0.000000
# 2 -0.002768 0.020515 -0.002361 0.000000 0.000000 0.000000
# 3 -0.007716 -0.002361 0.015610 0.000000 0.000000 0.000000
# 4 0.000000 0.000000 0.000000 0.037093 0.000000 0.000000
# 5 0.000000 0.000000 0.000000 0.000000 -0.187947 0.000000
# 6 0.000000 0.000000 0.000000 0.000000 0.000000 0.071529
#
#
# Mechanical properties :
#
#
# Convention : Reuss Voigt Hill
#
# Bulk Modulus (GPa) = 41.89254 51.51101 46.70178
# Shear Modulus (GPa) = 1288.63642 17.97647 653.30644
#
# Velocity S-wave (km/s) = 26.08928 3.08141 18.57614
# Velocity P-wave (km/s) = 30.49035 6.31411 22.01737
#
# Compressibility (1/GPa) = 0.02387060
#
# Stress axis : x y z
#
# Youngs Moduli (GPa) = 74.43393 48.74462 64.06280
#
# Poissons Ratio (x) = 0.13491 0.49429
# Poissons Ratio (y) = 0.20601 0.15126
# Poissons Ratio (z) = 0.57431 0.11509
#
# Static dielectric constant tensor:
#      x y z
#    x 1.702630 0.000000 0.000000 
#    y 0.000000 1.634560 0.000000 
#    z 0.000000 0.000000 1.657650 
# 
# From -- ./inp_files/28312.got.cif
#   From: 2010.05.17/outbox.cif.g08.bks.cpg/sg59_15_cif.got.tgz:28312.got - 2010.06.03 14:40:33.
