data_PCOD9449438
_publ_section_title
;
Structure prediction by ZEFSAII (Michael W. Deem and Ramdas Pophale) SiO2 
 PCOD9449438
Probable space group: P M M N
;
_chemical_formula_sum "Si O2"
_cell_formula_units_Z 64
_cell_length_a 8.898019
_cell_length_b 25.697416
_cell_length_c 16.049286
_cell_angle_alpha 90.000000
_cell_angle_beta 90.000000
_cell_angle_gamma 90.000000
_cell_volume 3669.767077
_symmetry_space_group_name_H-M "P M M N"
_symmetry_group_IT_number 59
_space_group.IT_coordinate_system_code '2'
_symmetry_cell_setting 'orthorhombic'
loop_
_space_group_symop_operation_xyz
x,y,z
1/2-x,1/2-y,z
1/2+x,-y,-z
-x,1/2+y,-z
-x,-y,-z
1/2+x,1/2+y,-z
1/2-x,y,z
x,1/2-y,z
loop_
_atom_site_type_symbol
_atom_site_label
_atom_site_fract_x
_atom_site_fract_y
_atom_site_fract_z
Si Si1 0.430698 0.982756 0.199240
Si Si2 0.069996 0.192339 0.600225
Si Si3 0.929629 0.847860 0.585344
Si Si4 0.068490 0.402912 0.136773
Si Si5 0.920202 0.095768 0.666761
Si Si6 0.569813 0.190225 0.244570
Si Si7 0.419712 0.553625 0.520300
Si Si8 0.429788 0.944169 0.022715
O O1 0.250000 0.988562 0.206545
O O2 0.485737 0.952522 0.280863
O O3 0.459491 0.943742 0.121592
O O4 0.482972 0.041714 0.179144
O O5 0.250000 0.191908 0.603703
O O6 0.013247 0.250000 0.618953
O O7 0.032594 0.178416 0.503745
O O8 0.010166 0.149172 0.663496
O O9 0.750000 0.846352 0.596438
O O10 0.010070 0.820179 0.662050
O O11 0.986120 0.907490 0.578321
O O12 0.250000 0.402134 0.136309
O O13 0.005041 0.353641 0.186411
O O14 0.006528 0.405041 0.042043
O O15 0.750000 0.105001 0.697074
O O16 0.911616 0.079785 0.570499
O O17 0.750000 0.184491 0.242520
O O18 0.532794 0.250000 0.220860
O O19 0.500000 0.500000 0.500000
O O20 0.250000 0.546594 0.552168
O O21 0.250000 0.944020 0.010555
O O22 0.500000 0.000000 0.000000
#
# Coordination Sequence:
#
# PCOD9449438 Si02
#       8
#     8   8   8   8   8   8   8   8
#     4   8  16  31  52  78 106 135 167 209 257 309
#     4   9  18  33  51  71  97 129 168 213 259 304
#     4  10  20  35  54  73  97 134 179 221 265 314
#     4  10  20  34  55  79 105 138 174 212 263 322
#     4   9  18  32  49  72 100 131 169 208 252 302
#     4  11  24  39  54  77 108 138 176 226 272 319
#     4  10  20  32  48  71 104 141 177 216 261 312
#     4   9  16  30  52  77 106 135 167 207 253 306
#
# _framework density 17.439798
#
# number of rings (size 3 to 8) (size 9 to 14) (size 15 to 20)
#    0.000    2.500    0.000    3.000    1.750    2.750 
#    0.000    3.750    0.000    0.750    0.000    1.750 
#    0.000    0.000    0.000    0.000    0.000    0.000 
#
# Total GULP energy -356464.964025 kJ/mol
# GULP energy per Si atom -5569.765063 kJ/mol
# Density = 1.740010 g / cm^3
# Si number density = 17.439798 Si / 1000 Ang^3
#
#
#
# Elastic Constant Matrix: (Units=GPa)
#
#
# Indices 1 2 3 4 5 6 
#
# 1 53.9652 40.3658 27.3858 0.0000 0.0000 0.0000
# 2 40.3658 124.4853 34.0222 0.0000 0.0000 0.0000
# 3 27.3858 34.0222 52.7851 0.0000 0.0000 0.0000
# 4 0.0000 0.0000 0.0000 21.5448 0.0000 0.0000
# 5 0.0000 0.0000 0.0000 0.0000 24.0163 0.0000
# 6 0.0000 0.0000 0.0000 0.0000 0.0000 27.7797
#
#
#
# Elastic Compliance Matrix: (Units=1/GPa)
#
#
# Indices 1 2 3 4 5 6 
#
# 1 0.028797 -0.006378 -0.010829 0.000000 0.000000 0.000000
# 2 -0.006378 0.011163 -0.003886 0.000000 0.000000 0.000000
# 3 -0.010829 -0.003886 0.027068 0.000000 0.000000 0.000000
# 4 0.000000 0.000000 0.000000 0.046415 0.000000 0.000000
# 5 0.000000 0.000000 0.000000 0.000000 0.041638 0.000000
# 6 0.000000 0.000000 0.000000 0.000000 0.000000 0.035997
#
#
# Mechanical properties :
#
#
# Convention : Reuss Voigt Hill
#
# Bulk Modulus (GPa) = 40.25609 48.30923 44.28266
# Shear Modulus (GPa) = 20.69996 23.29895 21.99946
#
# Velocity S-wave (km/s) = 3.44893 3.65905 3.55554
# Velocity P-wave (km/s) = 6.24445 6.75368 6.50405
#
# Compressibility (1/GPa) = 0.02484096
#
# Stress axis : x y z
#
# Youngs Moduli (GPa) = 34.72616 89.57905 36.94395
#
# Poissons Ratio (x) = 0.57133 0.40008
# Poissons Ratio (y) = 0.22148 0.14357
# Poissons Ratio (z) = 0.37606 0.34812
#
# Static dielectric constant tensor:
#      x y z
#    x 1.606320 0.000000 0.000000 
#    y 0.000000 1.596680 0.000000 
#    z 0.000000 0.000000 1.589540 
# 
# From -- ./inp_files/21421.got.cif
#   From: 2010.05.17/outbox.cif.g08.bks.cpg/sg59_11_cif.got.tgz:21421.got - 2010.06.03 14:40:33.
