data_PCOD9449987
_publ_section_title
;
Structure prediction by ZEFSAII (Michael W. Deem and Ramdas Pophale) SiO2 
 PCOD9449987
Probable space group: P M M N
;
_chemical_formula_sum "Si O2"
_cell_formula_units_Z 56
_cell_length_a 8.874089
_cell_length_b 23.617809
_cell_length_c 15.676423
_cell_angle_alpha 90.000000
_cell_angle_beta 90.000000
_cell_angle_gamma 90.000000
_cell_volume 3285.567241
_symmetry_space_group_name_H-M "P M M N"
_symmetry_group_IT_number 59
_space_group.IT_coordinate_system_code '2'
_symmetry_cell_setting 'orthorhombic'
loop_
_space_group_symop_operation_xyz
x,y,z
1/2-x,1/2-y,z
1/2+x,-y,-z
-x,1/2+y,-z
-x,-y,-z
1/2+x,1/2+y,-z
1/2-x,y,z
x,1/2-y,z
loop_
_atom_site_type_symbol
_atom_site_label
_atom_site_fract_x
_atom_site_fract_y
_atom_site_fract_z
Si Si1 0.567726 0.683380 0.313155
Si Si2 0.571443 0.111849 0.839579
Si Si3 0.572923 0.683207 0.011605
Si Si4 0.070077 0.502267 0.904927
Si Si5 0.571779 0.616887 0.837026
Si Si6 0.929017 0.183148 0.319205
Si Si7 0.423058 0.318617 0.495491
O O1 0.750000 0.679760 0.306698
O O2 0.528556 0.750000 0.301382
O O3 0.490722 0.645058 0.242393
O O4 0.525775 0.664920 0.409540
O O5 0.750000 0.104032 0.834477
O O6 0.528110 0.149646 0.921646
O O7 0.490183 0.051964 0.853750
O O8 0.750000 0.673675 0.033596
O O9 0.544259 0.750000 0.014988
O O10 0.549129 0.659162 0.917001
O O11 0.250000 0.500625 0.911739
O O12 0.015170 0.559483 0.859654
O O13 0.000000 0.500000 0.000000
O O14 0.750000 0.605286 0.830611
O O15 0.512338 0.646679 0.752029
O O16 0.750000 0.177922 0.309399
O O17 0.968753 0.250000 0.309515
O O18 0.978247 0.165044 0.414374
O O19 0.250000 0.337233 0.482912
O O20 0.421274 0.250000 0.497813
#
# Coordination Sequence:
#
# PCOD9449987 Si02
#       7
#     8   8   8   8   8   8   8
#     4   9  18  34  56  82 113 148 185 227 276 328
#     4  12  24  36  54  80 110 146 184 226 272 324
#     4  10  21  36  54  77 108 145 180 220 272 324
#     4  12  24  41  61  80 104 140 186 232 275 324
#     4  11  22  37  58  81 107 144 186 229 273 323
#     4  10  20  33  52  82 118 151 183 224 273 325
#     4   8  15  30  53  79 108 145 186 225 269 325
#
# _framework density 17.044242000000001
#
# number of rings (size 3 to 8) (size 9 to 14) (size 15 to 20)
#    0.000    1.714    1.429    5.143    0.000    4.857 
#    0.000    1.429    0.000    0.857    0.000    0.000 
#    0.000    0.000    0.000    0.000    0.000    0.000 
#
# Total GULP energy -312740.490041 kJ/mol
# GULP energy per Si atom -5584.651608 kJ/mol
# Density = 1.700545 g / cm^3
# Si number density = 17.044242 Si / 1000 Ang^3
#
#
#
# Elastic Constant Matrix: (Units=GPa)
#
#
# Indices 1 2 3 4 5 6 
#
# 1 92.2204 41.3237 54.1221 0.0000 0.0000 0.0000
# 2 41.3237 61.4283 26.8665 0.0000 0.0000 0.0000
# 3 54.1221 26.8665 108.2555 0.0000 0.0000 0.0000
# 4 0.0000 0.0000 0.0000 -4.2167 0.0000 0.0000
# 5 0.0000 0.0000 0.0000 0.0000 23.2958 0.0000
# 6 0.0000 0.0000 0.0000 0.0000 0.0000 25.7976
#
#
#
# Elastic Compliance Matrix: (Units=1/GPa)
#
#
# Indices 1 2 3 4 5 6 
#
# 1 0.019625 -0.009996 -0.007331 0.000000 0.000000 0.000000
# 2 -0.009996 0.023353 -0.000798 0.000000 0.000000 0.000000
# 3 -0.007331 -0.000798 0.013100 0.000000 0.000000 0.000000
# 4 0.000000 0.000000 0.000000 -0.237153 0.000000 0.000000
# 5 0.000000 0.000000 0.000000 0.000000 0.042926 0.000000
# 6 0.000000 0.000000 0.000000 0.000000 0.000000 0.038763
#
#
# Mechanical properties :
#
#
# Convention : Reuss Voigt Hill
#
# Bulk Modulus (GPa) = 50.43228 56.28098 53.35663
# Shear Modulus (GPa) = -88.45335 18.28147 -35.08594
#
# Velocity S-wave (km/s) = -7.21173 3.27859 -4.54202
# Velocity P-wave (km/s) = 6.30016 6.88654 1.96627
#
# Compressibility (1/GPa) = 0.01982857
#
# Stress axis : x y z
#
# Youngs Moduli (GPa) = 50.95578 42.82194 76.33319
#
# Poissons Ratio (x) = 0.42804 0.55958
# Poissons Ratio (y) = 0.50934 0.06093
# Poissons Ratio (z) = 0.37354 0.03418
#
# Static dielectric constant tensor:
#      x y z
#    x 1.578560 0.000000 0.000000 
#    y 0.000000 1.493180 0.000000 
#    z 0.000000 0.000000 1.567490 
# 
# From -- ./inp_files/21083.got.cif
#   From: 2010.05.17/outbox.cif.g08.bks.cpg/sg59_11_cif.got.tgz:21083.got - 2010.06.03 14:40:33.
