data_PCOD9449620
_publ_section_title
;
Structure prediction by ZEFSAII (Michael W. Deem and Ramdas Pophale) SiO2 
 PCOD9449620
Probable space group: P M M N
;
_chemical_formula_sum "Si O2"
_cell_formula_units_Z 40
_cell_length_a 9.422861
_cell_length_b 7.402738
_cell_length_c 27.263671
_cell_angle_alpha 90.000000
_cell_angle_beta 90.000000
_cell_angle_gamma 90.000000
_cell_volume 1901.776585
_symmetry_space_group_name_H-M "P M M N"
_symmetry_group_IT_number 59
_space_group.IT_coordinate_system_code '2'
_symmetry_cell_setting 'orthorhombic'
loop_
_space_group_symop_operation_xyz
x,y,z
1/2-x,1/2-y,z
1/2+x,-y,-z
-x,1/2+y,-z
-x,-y,-z
1/2+x,1/2+y,-z
1/2-x,y,z
x,1/2-y,z
loop_
_atom_site_type_symbol
_atom_site_label
_atom_site_fract_x
_atom_site_fract_y
_atom_site_fract_z
Si Si1 0.089376 0.466428 0.548384
Si Si2 0.585455 0.529022 0.238960
Si Si3 0.088875 0.466022 0.950948
Si Si4 0.422999 0.460243 0.653773
Si Si5 0.913252 0.029155 0.856524
O O1 0.250000 0.534041 0.541653
O O2 0.097267 0.250000 0.554056
O O3 0.031428 0.536102 0.600917
O O4 0.000000 0.500000 0.500000
O O5 0.750000 0.476694 0.231219
O O6 0.584724 0.750000 0.240219
O O7 0.537240 0.464607 0.292972
O O8 0.487857 0.472510 0.193984
O O9 0.250000 0.535730 0.954228
O O10 0.098339 0.250000 0.945524
O O11 0.004216 0.532397 0.903277
O O12 0.000000 0.500000 0.000000
O O13 0.250000 0.465244 0.652723
O O14 0.466598 0.250000 0.654793
O O15 0.750000 0.972051 0.859807
O O16 0.913708 0.250000 0.856804
#
# Coordination Sequence:
#
# PCOD9449620 Si02
#       5
#     8   8   8   8   8
#     4   9  17  29  44  63  88 117 149 184 221 263
#     4   8  12  20  36  56  78 106 139 174 215 262
#     4  10  20  33  49  69  93 122 155 188 222 262
#     4   7  11  21  37  56  79 108 140 174 214 260
#     4   9  16  25  38  59  88 117 143 176 219 264
#
# _framework density 21.032965999999998
#
# number of rings (size 3 to 8) (size 9 to 14) (size 15 to 20)
#    0.000    3.400    0.000    3.600    0.000    4.000 
#    0.000    1.000    0.000    3.600    0.000    1.400 
#    0.000    8.000    0.000    0.000    0.000    0.000 
#
# Total GULP energy -222998.196339 kJ/mol
# GULP energy per Si atom -5574.954908 kJ/mol
# Density = 2.098509 g / cm^3
# Si number density = 21.032966 Si / 1000 Ang^3
#
#
#
# Elastic Constant Matrix: (Units=GPa)
#
#
# Indices 1 2 3 4 5 6 
#
# 1 136.0194 5.5156 125.6444 0.0000 0.0000 0.0000
# 2 5.5156 69.9733 7.0665 0.0000 0.0000 0.0000
# 3 125.6444 7.0665 271.8871 0.0000 0.0000 0.0000
# 4 0.0000 0.0000 0.0000 11.7928 0.0000 0.0000
# 5 0.0000 0.0000 0.0000 0.0000 37.4791 0.0000
# 6 0.0000 0.0000 0.0000 0.0000 0.0000 2.9419
#
#
#
# Elastic Compliance Matrix: (Units=1/GPa)
#
#
# Indices 1 2 3 4 5 6 
#
# 1 0.012840 -0.000414 -0.005923 0.000000 0.000000 0.000000
# 2 -0.000414 0.014342 -0.000181 0.000000 0.000000 0.000000
# 3 -0.005923 -0.000181 0.006420 0.000000 0.000000 0.000000
# 4 0.000000 0.000000 0.000000 0.084798 0.000000 0.000000
# 5 0.000000 0.000000 0.000000 0.000000 0.026682 0.000000
# 6 0.000000 0.000000 0.000000 0.000000 0.000000 0.339912
#
#
# Mechanical properties :
#
#
# Convention : Reuss Voigt Hill
#
# Bulk Modulus (GPa) = 48.62576 83.81477 66.22026
# Shear Modulus (GPa) = 9.90327 33.08632 21.49479
#
# Velocity S-wave (km/s) = 2.17225 3.97050 3.20027
# Velocity P-wave (km/s) = 5.42776 7.80740 6.72369
#
# Compressibility (1/GPa) = 0.02056523
#
# Stress axis : x y z
#
# Youngs Moduli (GPa) = 77.88410 69.72474 155.77061
#
# Poissons Ratio (x) = 0.02886 0.92258
# Poissons Ratio (y) = 0.03224 0.02827
# Poissons Ratio (z) = 0.46128 0.01265
#
# Static dielectric constant tensor:
#      x y z
#    x 1.709230 0.000000 0.000000 
#    y 0.000000 1.883200 0.000000 
#    z 0.000000 0.000000 1.772520 
# 
# From -- ./inp_files/32373.got.cif
#   From: 2010.05.17/outbox.cif.g08.bks.cpg/sg59_17_cif.got.tgz:32373.got - 2010.06.03 14:40:33.
