data_PCOD9449005
_publ_section_title
;
Structure prediction by ZEFSAII (Michael W. Deem and Ramdas Pophale) SiO2 
 PCOD9449005
Probable space group: P M M N
;
_chemical_formula_sum "Si O2"
_cell_formula_units_Z 64
_cell_length_a 8.366597
_cell_length_b 29.706260
_cell_length_c 12.742480
_cell_angle_alpha 90.000000
_cell_angle_beta 90.000000
_cell_angle_gamma 90.000000
_cell_volume 3167.019876
_symmetry_space_group_name_H-M "P M M N"
_symmetry_group_IT_number 59
_space_group.IT_coordinate_system_code '2'
_symmetry_cell_setting 'orthorhombic'
loop_
_space_group_symop_operation_xyz
x,y,z
1/2-x,1/2-y,z
1/2+x,-y,-z
-x,1/2+y,-z
-x,-y,-z
1/2+x,1/2+y,-z
1/2-x,y,z
x,1/2-y,z
loop_
_atom_site_type_symbol
_atom_site_label
_atom_site_fract_x
_atom_site_fract_y
_atom_site_fract_z
Si Si1 0.938316 0.822610 0.859771
Si Si2 0.938379 0.449290 0.654870
Si Si3 0.554908 0.700366 0.624480
Si Si4 0.566865 0.044026 0.295606
Si Si5 0.064394 0.427855 0.086392
Si Si6 0.939806 0.201451 0.917527
Si Si7 0.062776 0.107481 0.463880
Si Si8 0.557131 0.397989 0.866247
O O1 0.750000 0.811080 0.869838
O O2 0.994338 0.807344 0.745436
O O3 0.952356 0.876415 0.872137
O O4 0.030238 0.801767 0.957732
O O5 0.750000 0.459764 0.663184
O O6 0.988505 0.421605 0.758206
O O7 0.033037 0.495897 0.652867
O O8 0.970468 0.419501 0.552955
O O9 0.750000 0.698873 0.625344
O O10 0.505126 0.750000 0.589262
O O11 0.502670 0.658185 0.555046
O O12 0.750000 0.057290 0.309588
O O13 0.525847 0.042389 0.172227
O O14 0.458749 0.080529 0.355047
O O15 0.250000 0.440376 0.086428
O O16 0.001123 0.425443 0.967961
O O17 0.750000 0.201606 0.897737
O O18 0.005028 0.250000 0.880285
O O19 0.003768 0.153858 0.873244
O O20 0.250000 0.108495 0.491220
O O21 0.750000 0.396461 0.871310
#
# Coordination Sequence:
#
# PCOD9449005 Si02
#       8
#     8   8   8   8   8   8   8   8
#     4   9  16  29  50  78 113 148 182 221 271 331
#     4  11  24  42  61  82 111 151 199 243 289 343
#     4   9  17  31  54  83 115 150 185 224 277 337
#     4  12  24  39  62  89 116 148 188 235 293 349
#     4  10  19  34  58  88 119 150 184 228 281 336
#     4   9  17  30  50  78 110 145 186 230 278 330
#     4  11  22  40  62  86 118 150 191 240 287 336
#     4   9  20  38  57  80 114 153 191 234 283 339
#
# _framework density 20.208271
#
# number of rings (size 3 to 8) (size 9 to 14) (size 15 to 20)
#    0.000    2.000    1.250    3.000    0.000    2.750 
#    0.000    0.625    0.000    3.000    0.000    0.000 
#    0.000    0.000    0.000    0.000    0.000    0.000 
#
# Total GULP energy -357395.759082 kJ/mol
# GULP energy per Si atom -5584.308736 kJ/mol
# Density = 2.016228 g / cm^3
# Si number density = 20.208271 Si / 1000 Ang^3
#
#
#
# Elastic Constant Matrix: (Units=GPa)
#
#
# Indices 1 2 3 4 5 6 
#
# 1 17.1727 1.3300 -3.8565 0.0000 0.0000 0.0000
# 2 1.3300 57.9519 7.6801 0.0000 0.0000 0.0000
# 3 -3.8565 7.6801 59.7716 0.0000 0.0000 0.0000
# 4 0.0000 0.0000 0.0000 42.1422 0.0000 0.0000
# 5 0.0000 0.0000 0.0000 0.0000 22.2729 0.0000
# 6 0.0000 0.0000 0.0000 0.0000 0.0000 -8.5094
#
#
#
# Elastic Compliance Matrix: (Units=1/GPa)
#
#
# Indices 1 2 3 4 5 6 
#
# 1 0.059293 -0.001900 0.004070 0.000000 0.000000 0.000000
# 2 -0.001900 0.017616 -0.002386 0.000000 0.000000 0.000000
# 3 0.004070 -0.002386 0.017300 0.000000 0.000000 0.000000
# 4 0.000000 0.000000 0.000000 0.023729 0.000000 0.000000
# 5 0.000000 0.000000 0.000000 0.000000 0.044898 0.000000
# 6 0.000000 0.000000 0.000000 0.000000 0.000000 -0.117517
#
#
# Mechanical properties :
#
#
# Convention : Reuss Voigt Hill
#
# Bulk Modulus (GPa) = 10.66377 16.13372 13.39874
# Shear Modulus (GPa) = 64.92708 19.83063 42.37886
#
# Velocity S-wave (km/s) = 5.67439 3.13599 4.58438
# Velocity P-wave (km/s) = 6.94406 4.59496 5.88785
#
# Compressibility (1/GPa) = 0.09377544
#
# Stress axis : x y z
#
# Youngs Moduli (GPa) = 16.86534 56.76813 57.80510
#
# Poissons Ratio (x) = 0.10787 -0.23526
# Poissons Ratio (y) = 0.03205 0.13793
# Poissons Ratio (z) = -0.06864 0.13545
#
# Static dielectric constant tensor:
#      x y z
#    x 1.691600 0.000000 0.000000 
#    y 0.000000 1.754070 0.000000 
#    z 0.000000 0.000000 1.682440 
# 
# From -- ./inp_files/15052.got.cif
#   From: 2010.05.17/outbox.cif.g08.bks.cpg/sg59_8_cif.got.tgz:15052.got - 2010.06.03 14:40:33.
