data_PCOD9449461
_publ_section_title
;
Structure prediction by ZEFSAII (Michael W. Deem and Ramdas Pophale) SiO2 
 PCOD9449461
Probable space group: P M M N
;
_chemical_formula_sum "Si O2"
_cell_formula_units_Z 48
_cell_length_a 10.434820
_cell_length_b 7.475545
_cell_length_c 30.009881
_cell_angle_alpha 90.000000
_cell_angle_beta 90.000000
_cell_angle_gamma 90.000000
_cell_volume 2340.949771
_symmetry_space_group_name_H-M "P M M N"
_symmetry_group_IT_number 59
_space_group.IT_coordinate_system_code '2'
_symmetry_cell_setting 'orthorhombic'
loop_
_space_group_symop_operation_xyz
x,y,z
1/2-x,1/2-y,z
1/2+x,-y,-z
-x,1/2+y,-z
-x,-y,-z
1/2+x,1/2+y,-z
1/2-x,y,z
x,1/2-y,z
loop_
_atom_site_type_symbol
_atom_site_label
_atom_site_fract_x
_atom_site_fract_y
_atom_site_fract_z
Si Si1 0.750000 0.467499 0.968505
Si Si2 0.603976 0.035233 0.462167
Si Si3 0.405593 0.544654 0.634772
Si Si4 0.392361 0.464423 0.197155
Si Si5 0.525924 0.035918 0.903657
Si Si6 0.750000 0.541707 0.072392
Si Si7 0.102362 0.530434 0.732570
O O1 0.750000 0.250000 0.969347
O O2 0.874484 0.529073 0.940916
O O3 0.750000 0.531261 0.018987
O O4 0.750000 0.972170 0.472006
O O5 0.612501 0.250000 0.457578
O O6 0.560976 0.964841 0.413353
O O7 0.500000 0.000000 0.500000
O O8 0.250000 0.548807 0.634765
O O9 0.452456 0.750000 0.634969
O O10 0.439494 0.468175 0.683081
O O11 0.250000 0.532710 0.207932
O O12 0.389757 0.250000 0.202273
O O13 0.422838 0.501776 0.145693
O O14 0.504463 0.530110 0.229604
O O15 0.520213 0.250000 0.909734
O O16 0.382964 0.962618 0.910032
O O17 0.750000 0.750000 0.086089
O O18 0.250000 0.476844 0.740784
O O19 0.102997 0.750000 0.731523
#
# Coordination Sequence:
#
# PCOD9449461 Si02
#       7
#     4   8   8   8   8   4   8
#     4  10  20  36  56  74  96 130 162 186 225 284
#     4   9  17  29  46  69  97 130 167 205 248 297
#     4   7  11  23  43  65  90 122 158 196 241 289
#     4  10  20  32  48  73 100 125 156 194 235 278
#     4  10  21  37  53  72 100 131 158 187 231 283
#     4  10  22  36  54  78 100 122 156 200 235 264
#     4   8  14  26  46  70  94 120 154 199 245 284
#
# _framework density 20.504497000000001
#
# number of rings (size 3 to 8) (size 9 to 14) (size 15 to 20)
#    0.000    3.000    0.833    2.500    1.167    1.667 
#    0.000    0.833    0.000    4.000    0.000    2.333 
#    0.000    0.000    0.000    0.000    0.000    0.000 
#
# Total GULP energy -267637.183386 kJ/mol
# GULP energy per Si atom -5575.774654 kJ/mol
# Density = 2.045783 g / cm^3
# Si number density = 20.504497 Si / 1000 Ang^3
#
#
#
# Elastic Constant Matrix: (Units=GPa)
#
#
# Indices 1 2 3 4 5 6 
#
# 1 131.3315 2.7757 51.0438 0.0000 0.0000 0.0000
# 2 2.7757 56.8983 -16.5430 0.0000 0.0000 0.0000
# 3 51.0438 -16.5430 88.3088 0.0000 0.0000 0.0000
# 4 0.0000 0.0000 0.0000 10.8921 0.0000 0.0000
# 5 0.0000 0.0000 0.0000 0.0000 41.7899 0.0000
# 6 0.0000 0.0000 0.0000 0.0000 0.0000 -5.0937
#
#
#
# Elastic Compliance Matrix: (Units=1/GPa)
#
#
# Indices 1 2 3 4 5 6 
#
# 1 0.010101 -0.002317 -0.006273 0.000000 0.000000 0.000000
# 2 -0.002317 0.019119 0.004921 0.000000 0.000000 0.000000
# 3 -0.006273 0.004921 0.015871 0.000000 0.000000 0.000000
# 4 0.000000 0.000000 0.000000 0.091809 0.000000 0.000000
# 5 0.000000 0.000000 0.000000 0.000000 0.023929 0.000000
# 6 0.000000 0.000000 0.000000 0.000000 0.000000 -0.196320
#
#
# Mechanical properties :
#
#
# Convention : Reuss Voigt Hill
#
# Bulk Modulus (GPa) = 26.48707 39.01018 32.74863
# Shear Modulus (GPa) = -321.16299 25.46848 -147.84726
#
# Velocity S-wave (km/s) = -12.52879 3.52816 -8.50067
# Velocity P-wave (km/s) = 14.01243 5.97191 8.96339
#
# Compressibility (1/GPa) = 0.03775427
#
# Stress axis : x y z
#
# Youngs Moduli (GPa) = 98.99793 52.30433 63.00661
#
# Poissons Ratio (x) = 0.12116 0.39522
# Poissons Ratio (y) = 0.22933 -0.31003
# Poissons Ratio (z) = 0.62098 -0.25737
#
# Static dielectric constant tensor:
#      x y z
#    x 1.721700 0.000000 0.000000 
#    y 0.000000 1.833030 0.000000 
#    z 0.000000 0.000000 1.723490 
# 
# From -- ./inp_files/33090.got.cif
#   From: 2010.05.17/outbox.cif.g08.bks.cpg/sg59_17_cif.got.tgz:33090.got - 2010.06.03 14:40:33.
