data_PCOD9449176
_publ_section_title
;
Structure prediction by ZEFSAII (Michael W. Deem and Ramdas Pophale) SiO2 
 PCOD9449176
Probable space group: P M M N
;
_chemical_formula_sum "Si O2"
_cell_formula_units_Z 48
_cell_length_a 8.324309
_cell_length_b 31.405035
_cell_length_c 9.729985
_cell_angle_alpha 90.000000
_cell_angle_beta 90.000000
_cell_angle_gamma 90.000000
_cell_volume 2543.663425
_symmetry_space_group_name_H-M "P M M N"
_symmetry_group_IT_number 59
_space_group.IT_coordinate_system_code '2'
_symmetry_cell_setting 'orthorhombic'
loop_
_space_group_symop_operation_xyz
x,y,z
1/2-x,1/2-y,z
1/2+x,-y,-z
-x,1/2+y,-z
-x,-y,-z
1/2+x,1/2+y,-z
1/2-x,y,z
x,1/2-y,z
loop_
_atom_site_type_symbol
_atom_site_label
_atom_site_fract_x
_atom_site_fract_y
_atom_site_fract_z
Si Si1 0.931800 0.102893 0.768929
Si Si2 0.064920 0.750000 0.992318
Si Si3 0.943945 0.047621 0.528302
Si Si4 0.056262 0.846604 0.966258
Si Si5 0.569955 0.321899 0.547110
Si Si6 0.426301 0.250000 0.719445
Si Si7 0.058593 0.380122 0.318375
O O1 0.750000 0.089799 0.810212
O O2 0.005133 0.064572 0.678194
O O3 0.919133 0.138893 0.652165
O O4 0.005634 0.127031 0.900422
O O5 0.250000 0.750000 0.944733
O O6 0.996543 0.797154 0.954345
O O7 0.054372 0.750000 0.158305
O O8 0.750000 0.049916 0.531967
O O9 0.002584 0.078885 0.406339
O O10 0.000000 0.000000 0.500000
O O11 0.250000 0.843016 0.983048
O O12 0.014608 0.873724 0.832034
O O13 0.750000 0.304217 0.530000
O O14 0.453531 0.289567 0.621129
O O15 0.503013 0.339795 0.405909
O O16 0.250000 0.250000 0.783135
O O17 0.250000 0.380481 0.310295
#
# Coordination Sequence:
#
# PCOD9449176 Si02
#       7
#     8   4   8   8   8   4   8
#     4   8  16  32  58  83 106 140 190 236 276 333
#     4  10  20  35  58  81 110 154 204 238 278 339
#     4  10  20  38  63  90 114 147 188 238 292 353
#     4  10  19  36  58  83 113 154 199 239 281 344
#     4  10  19  36  57  77 104 148 195 235 278 336
#     4  12  22  31  50  83 116 144 186 244 292 335
#     4  11  23  38  55  83 118 150 184 236 293 346
#
# _framework density 18.870421
#
# number of rings (size 3 to 8) (size 9 to 14) (size 15 to 20)
#    0.000    2.000    1.667    4.250    0.000    1.333 
#    0.000    5.000    0.000    0.000    0.000    0.000 
#    0.000    0.000    0.000    0.000    0.000    0.000 
#
# Total GULP energy -267357.610123 kJ/mol
# GULP energy per Si atom -5569.950211 kJ/mol
# Density = 1.882747 g / cm^3
# Si number density = 18.870421 Si / 1000 Ang^3
#
#
#
# Elastic Constant Matrix: (Units=GPa)
#
#
# Indices 1 2 3 4 5 6 
#
# 1 36.6958 6.6015 -3.9688 0.0000 0.0000 0.0000
# 2 6.6015 90.2878 37.4813 0.0000 0.0000 0.0000
# 3 -3.9688 37.4813 104.7467 0.0000 0.0000 0.0000
# 4 0.0000 0.0000 0.0000 29.0342 0.0000 0.0000
# 5 0.0000 0.0000 0.0000 0.0000 10.6782 0.0000
# 6 0.0000 0.0000 0.0000 0.0000 0.0000 15.6224
#
#
#
# Elastic Compliance Matrix: (Units=1/GPa)
#
#
# Indices 1 2 3 4 5 6 
#
# 1 0.028005 -0.002922 0.002107 0.000000 0.000000 0.000000
# 2 -0.002922 0.013313 -0.004874 0.000000 0.000000 0.000000
# 3 0.002107 -0.004874 0.011371 0.000000 0.000000 0.000000
# 4 0.000000 0.000000 0.000000 0.034442 0.000000 0.000000
# 5 0.000000 0.000000 0.000000 0.000000 0.093648 0.000000
# 6 0.000000 0.000000 0.000000 0.000000 0.000000 0.064011
#
#
# Mechanical properties :
#
#
# Convention : Reuss Voigt Hill
#
# Bulk Modulus (GPa) = 24.20804 34.66204 29.43504
# Shear Modulus (GPa) = 18.52271 23.84139 21.18205
#
# Velocity S-wave (km/s) = 3.13641 3.55833 3.35401
# Velocity P-wave (km/s) = 5.09632 5.94059 5.53458
#
# Compressibility (1/GPa) = 0.04130859
#
# Stress axis : x y z
#
# Youngs Moduli (GPa) = 35.70841 75.11525 87.94403
#
# Poissons Ratio (x) = 0.21950 -0.18527
# Poissons Ratio (y) = 0.10435 0.42868
# Poissons Ratio (z) = -0.07523 0.36614
#
# Static dielectric constant tensor:
#      x y z
#    x 1.672860 0.000000 0.000000 
#    y 0.000000 1.649070 0.000000 
#    z 0.000000 0.000000 1.630440 
# 
# From -- ./inp_files/6359.got.cif
#   From: 2010.05.17/outbox.cif.g08.bks.cpg/sg59_4_cif.got.tgz:6359.got - 2010.06.03 14:40:33.
