data_PCOD9449193
_publ_section_title
;
Structure prediction by ZEFSAII (Michael W. Deem and Ramdas Pophale) SiO2 
 PCOD9449193
Probable space group: P M M N
;
_chemical_formula_sum "Si O2"
_cell_formula_units_Z 40
_cell_length_a 29.708676
_cell_length_b 8.095182
_cell_length_c 8.522612
_cell_angle_alpha 90.000000
_cell_angle_beta 90.000000
_cell_angle_gamma 90.000000
_cell_volume 2049.663805
_symmetry_space_group_name_H-M "P M M N"
_symmetry_group_IT_number 59
_space_group.IT_coordinate_system_code '2'
_symmetry_cell_setting 'orthorhombic'
loop_
_space_group_symop_operation_xyz
x,y,z
1/2-x,1/2-y,z
1/2+x,-y,-z
-x,1/2+y,-z
-x,-y,-z
1/2+x,1/2+y,-z
1/2-x,y,z
x,1/2-y,z
loop_
_atom_site_type_symbol
_atom_site_label
_atom_site_fract_x
_atom_site_fract_y
_atom_site_fract_z
Si Si1 0.858651 0.068094 0.439467
Si Si2 0.801838 0.750000 0.058520
Si Si3 0.548272 0.938986 0.559062
Si Si4 0.140327 0.563828 0.938811
Si Si5 0.455961 0.944837 0.093297
Si Si6 0.802015 0.750000 0.442476
O O1 0.842793 0.250000 0.490744
O O2 0.858245 0.064557 0.250210
O O3 0.909839 0.041863 0.493715
O O4 0.828308 0.914797 0.494760
O O5 0.750000 0.750000 0.009391
O O6 0.827680 0.584385 0.006289
O O7 0.802546 0.750000 0.250553
O O8 0.554846 0.750000 0.509337
O O9 0.500000 0.000000 0.500000
O O10 0.548089 0.955985 0.746033
O O11 0.152967 0.750000 0.992169
O O12 0.089350 0.531708 0.993260
O O13 0.459680 0.750000 0.130767
O O14 0.500000 0.000000 0.000000
O O15 0.750000 0.750000 0.491280
#
# Coordination Sequence:
#
# PCOD9449193 Si02
#       6
#     8   4   8   8   8   4
#     4  10  19  36  58  84 115 151 191 237 285 338
#     4   9  18  32  57  85 115 151 189 235 288 335
#     4  12  24  38  57  83 114 152 192 237 286 345
#     4   9  20  35  56  83 115 149 188 234 284 337
#     4  11  23  38  57  83 113 151 191 234 284 342
#     4   9  18  34  55  87 119 151 191 237 290 341
#
# _framework density 19.515395999999999
#
# number of rings (size 3 to 8) (size 9 to 14) (size 15 to 20)
#    0.000    1.800    1.000    3.600    2.800    2.400 
#    0.000    4.000    0.000    2.400    0.000    2.800 
#    0.000    0.000    0.000    0.000    0.000    0.000 
#
# Total GULP energy -223418.521858 kJ/mol
# GULP energy per Si atom -5585.463046 kJ/mol
# Density = 1.947098 g / cm^3
# Si number density = 19.515396 Si / 1000 Ang^3
#
#
#
# Elastic Constant Matrix: (Units=GPa)
#
#
# Indices 1 2 3 4 5 6 
#
# 1 145.3248 94.7500 5.2152 0.0000 0.0000 0.0000
# 2 94.7500 166.7820 18.6994 0.0000 0.0000 0.0000
# 3 5.2152 18.6994 4.5912 0.0000 0.0000 0.0000
# 4 0.0000 0.0000 0.0000 19.7145 0.0000 0.0000
# 5 0.0000 0.0000 0.0000 0.0000 19.5249 0.0000
# 6 0.0000 0.0000 0.0000 0.0000 0.0000 31.5266
#
#
#
# Elastic Compliance Matrix: (Units=1/GPa)
#
#
# Indices 1 2 3 4 5 6 
#
# 1 0.012536 -0.010168 0.027176 0.000000 0.000000 0.000000
# 2 -0.010168 0.019283 -0.066988 0.000000 0.000000 0.000000
# 3 0.027176 -0.066988 0.459778 0.000000 0.000000 0.000000
# 4 0.000000 0.000000 0.000000 0.050724 0.000000 0.000000
# 5 0.000000 0.000000 0.000000 0.000000 0.051217 0.000000
# 6 0.000000 0.000000 0.000000 0.000000 0.000000 0.031719
#
#
# Mechanical properties :
#
#
# Convention : Reuss Voigt Hill
#
# Bulk Modulus (GPa) = 2.55340 61.55856 32.05598
# Shear Modulus (GPa) = 5.84274 27.35544 16.59909
#
# Velocity S-wave (km/s) = 1.73217 3.74804 2.91961
# Velocity P-wave (km/s) = 2.30473 7.09524 5.27514
#
# Compressibility (1/GPa) = 0.39163445
#
# Stress axis : x y z
#
# Youngs Moduli (GPa) = 79.77275 51.85841 2.17496
#
# Poissons Ratio (x) = 0.52732 -0.05911
# Poissons Ratio (y) = 0.81117 0.14570
# Poissons Ratio (z) = -2.16788 3.47391
#
# Static dielectric constant tensor:
#      x y z
#    x 1.646420 0.000000 0.000000 
#    y 0.000000 2.004070 0.000000 
#    z 0.000000 0.000000 1.669760 
# 
# From -- ./inp_files/12442.got.cif
#   From: 2010.05.17/outbox.cif.g08.bks.cpg/sg59_7_cif.got.tgz:12442.got - 2010.06.03 14:40:33.
