data_PCOD9449957
_publ_section_title
;
Structure prediction by ZEFSAII (Michael W. Deem and Ramdas Pophale) SiO2 
 PCOD9449957
Probable space group: P M M N
;
_chemical_formula_sum "Si O2"
_cell_formula_units_Z 48
_cell_length_a 20.495016
_cell_length_b 10.801428
_cell_length_c 11.117873
_cell_angle_alpha 90.000000
_cell_angle_beta 90.000000
_cell_angle_gamma 90.000000
_cell_volume 2461.224024
_symmetry_space_group_name_H-M "P M M N"
_symmetry_group_IT_number 59
_space_group.IT_coordinate_system_code '2'
_symmetry_cell_setting 'orthorhombic'
loop_
_space_group_symop_operation_xyz
x,y,z
1/2-x,1/2-y,z
1/2+x,-y,-z
-x,1/2+y,-z
-x,-y,-z
1/2+x,1/2+y,-z
1/2-x,y,z
x,1/2-y,z
loop_
_atom_site_type_symbol
_atom_site_label
_atom_site_fract_x
_atom_site_fract_y
_atom_site_fract_z
Si Si1 0.537192 0.882880 0.750229
Si Si2 0.546444 0.889537 0.279800
Si Si3 0.322183 0.104139 0.574988
Si Si4 0.586721 0.612889 0.004890
Si Si5 0.823093 0.534042 0.687954
Si Si6 0.173638 0.612197 0.079944
O O1 0.509729 0.750000 0.712299
O O2 0.535149 0.892452 0.895424
O O3 0.614183 0.886137 0.722322
O O4 0.503254 0.000714 0.691008
O O5 0.525892 0.750000 0.315684
O O6 0.616914 0.915114 0.338509
O O7 0.555830 0.890479 0.136144
O O8 0.250000 0.085518 0.629930
O O9 0.324816 0.250000 0.537151
O O10 0.326713 0.021327 0.455395
O O11 0.618977 0.750000 0.993999
O O12 0.634832 0.497978 0.984117
O O13 0.750000 0.585504 0.712774
O O14 0.829698 0.416757 0.776667
O O15 0.250000 0.607571 0.046967
O O16 0.148064 0.750000 0.054840
#
# Coordination Sequence:
#
# PCOD9449957 Si02
#       6
#     8   8   8   8   8   8
#     4  10  20  33  52  79 107 138 178 224 272 318
#     4  10  21  36  54  79 110 144 181 220 266 319
#     4   9  18  34  56  79 105 141 183 224 264 311
#     4   9  19  34  52  76 106 142 183 222 261 312
#     4   9  18  34  55  77 103 137 178 222 267 316
#     4   9  18  32  52  80 110 138 172 220 276 325
#
# _framework density 19.502490999999999
#
# number of rings (size 3 to 8) (size 9 to 14) (size 15 to 20)
#    0.000    2.667    0.000    1.000    0.000    6.667 
#    0.000    7.500    0.000    1.500    0.000    0.000 
#    0.000    0.000    0.000    0.000    0.000    0.000 
#
# Total GULP energy -267283.187760 kJ/mol
# GULP energy per Si atom -5568.399745 kJ/mol
# Density = 1.945810 g / cm^3
# Si number density = 19.502491 Si / 1000 Ang^3
#
#
#
# Elastic Constant Matrix: (Units=GPa)
#
#
# Indices 1 2 3 4 5 6 
#
# 1 66.4447 57.4636 13.1567 0.0000 0.0000 0.0000
# 2 57.4636 155.7963 3.0567 0.0000 0.0000 0.0000
# 3 13.1567 3.0567 20.5310 0.0000 0.0000 0.0000
# 4 0.0000 0.0000 0.0000 12.1261 0.0000 0.0000
# 5 0.0000 0.0000 0.0000 0.0000 14.0884 0.0000
# 6 0.0000 0.0000 0.0000 0.0000 0.0000 9.4758
#
#
#
# Elastic Compliance Matrix: (Units=1/GPa)
#
#
# Indices 1 2 3 4 5 6 
#
# 1 0.026191 -0.009358 -0.015390 0.000000 0.000000 0.000000
# 2 -0.009358 0.009781 0.004541 0.000000 0.000000 0.000000
# 3 -0.015390 0.004541 0.057893 0.000000 0.000000 0.000000
# 4 0.000000 0.000000 0.000000 0.082467 0.000000 0.000000
# 5 0.000000 0.000000 0.000000 0.000000 0.070980 0.000000
# 6 0.000000 0.000000 0.000000 0.000000 0.000000 0.105532
#
#
# Mechanical properties :
#
#
# Convention : Reuss Voigt Hill
#
# Bulk Modulus (GPa) = 18.70927 43.34734 31.02831
# Shear Modulus (GPa) = 12.16317 18.41106 15.28711
#
# Velocity S-wave (km/s) = 2.50005 3.07585 2.80278
# Velocity P-wave (km/s) = 4.23648 5.90672 5.13990
#
# Compressibility (1/GPa) = 0.05344945
#
# Stress axis : x y z
#
# Youngs Moduli (GPa) = 38.18118 102.23659 17.27319
#
# Poissons Ratio (x) = 0.95676 0.26584
# Poissons Ratio (y) = 0.35731 -0.07843
# Poissons Ratio (z) = 0.58762 -0.46423
#
# Static dielectric constant tensor:
#      x y z
#    x 1.695570 0.000000 0.000000 
#    y 0.000000 1.705830 0.000000 
#    z 0.000000 0.000000 1.698810 
# 
# From -- ./inp_files/18217.got.cif
#   From: 2010.05.17/outbox.cif.g08.bks.cpg/sg59_10_cif.got.tgz:18217.got - 2010.06.03 14:40:33.
