data_PCOD9449730
_publ_section_title
;
Structure prediction by ZEFSAII (Michael W. Deem and Ramdas Pophale) SiO2 
 PCOD9449730
Probable space group: P M M N
;
_chemical_formula_sum "Si O2"
_cell_formula_units_Z 48
_cell_length_a 7.902394
_cell_length_b 9.256861
_cell_length_c 31.869782
_cell_angle_alpha 90.000000
_cell_angle_beta 90.000000
_cell_angle_gamma 90.000000
_cell_volume 2331.317986
_symmetry_space_group_name_H-M "P M M N"
_symmetry_group_IT_number 59
_space_group.IT_coordinate_system_code '2'
_symmetry_cell_setting 'orthorhombic'
loop_
_space_group_symop_operation_xyz
x,y,z
1/2-x,1/2-y,z
1/2+x,-y,-z
-x,1/2+y,-z
-x,-y,-z
1/2+x,1/2+y,-z
1/2-x,y,z
x,1/2-y,z
loop_
_atom_site_type_symbol
_atom_site_label
_atom_site_fract_x
_atom_site_fract_y
_atom_site_fract_z
Si Si1 0.457038 0.916588 0.625052
Si Si2 0.957247 0.583432 0.290938
Si Si3 0.048707 0.585993 0.125538
Si Si4 0.547386 0.086235 0.208632
Si Si5 0.451944 0.585517 0.958070
Si Si6 0.545928 0.914971 0.457971
O O1 0.250000 0.916526 0.624844
O O2 0.511451 0.750000 0.624969
O O3 0.509939 0.999363 0.667158
O O4 0.513931 0.000267 0.583373
O O5 0.750000 0.583664 0.290634
O O6 0.011395 0.750000 0.291303
O O7 0.016017 0.501216 0.249127
O O8 0.250000 0.594586 0.129040
O O9 0.980085 0.750000 0.124384
O O10 0.985492 0.499187 0.165896
O O11 0.008357 0.501038 0.082987
O O12 0.750000 0.095803 0.213450
O O13 0.480378 0.250000 0.206807
O O14 0.250000 0.593905 0.956703
O O15 0.519535 0.750000 0.958466
O O16 0.500000 0.500000 0.000000
O O17 0.750000 0.909771 0.455509
O O18 0.483237 0.750000 0.459057
O O19 0.500000 0.000000 0.500000
#
# Coordination Sequence:
#
# PCOD9449730 Si02
#       6
#     8   8   8   8   8   8
#     4   9  16  27  45  70 100 133 170 214 262 312
#     4   9  16  27  46  73 104 136 171 214 263 313
#     4  11  24  40  58  82 112 147 187 227 268 318
#     4  10  20  34  54  81 110 140 177 220 266 317
#     4  11  24  41  62  89 118 148 185 227 271 321
#     4  10  20  33  50  73 101 134 173 216 263 317
#
# _framework density 20.589213999999998
#
# number of rings (size 3 to 8) (size 9 to 14) (size 15 to 20)
#    0.000    2.000    0.000    4.000    0.000   12.667 
#    0.000    0.000    0.000    1.000    0.000    0.000 
#    0.000    0.000    0.000    0.000    0.000    0.000 
#
# Total GULP energy -268278.808268 kJ/mol
# GULP energy per Si atom -5589.141839 kJ/mol
# Density = 2.054235 g / cm^3
# Si number density = 20.589214 Si / 1000 Ang^3
#
#
#
# Elastic Constant Matrix: (Units=GPa)
#
#
# Indices 1 2 3 4 5 6 
#
# 1 20.2334 7.0522 -3.8026 0.0000 0.0000 0.0000
# 2 7.0522 258.1997 148.7306 0.0000 0.0000 0.0000
# 3 -3.8026 148.7306 232.7396 0.0000 0.0000 0.0000
# 4 0.0000 0.0000 0.0000 44.6835 0.0000 0.0000
# 5 0.0000 0.0000 0.0000 0.0000 21.3969 0.0000
# 6 0.0000 0.0000 0.0000 0.0000 0.0000 16.9628
#
#
#
# Elastic Compliance Matrix: (Units=1/GPa)
#
#
# Indices 1 2 3 4 5 6 
#
# 1 0.050968 -0.002962 0.002726 0.000000 0.000000 0.000000
# 2 -0.002962 0.006301 -0.004075 0.000000 0.000000 0.000000
# 3 0.002726 -0.004075 0.006945 0.000000 0.000000 0.000000
# 4 0.000000 0.000000 0.000000 0.022380 0.000000 0.000000
# 5 0.000000 0.000000 0.000000 0.000000 0.046736 0.000000
# 6 0.000000 0.000000 0.000000 0.000000 0.000000 0.058953
#
#
# Mechanical properties :
#
#
# Convention : Reuss Voigt Hill
#
# Bulk Modulus (GPa) = 17.98846 90.57035 54.27940
# Shear Modulus (GPa) = 22.78564 40.55480 31.67022
#
# Velocity S-wave (km/s) = 3.33029 4.44296 3.92624
# Velocity P-wave (km/s) = 4.85217 8.39074 6.85376
#
# Compressibility (1/GPa) = 0.05559120
#
# Stress axis : x y z
#
# Youngs Moduli (GPa) = 19.62022 158.69699 143.97988
#
# Poissons Ratio (x) = 0.47009 -0.39244
# Poissons Ratio (y) = 0.05812 0.58675
# Poissons Ratio (z) = -0.05348 0.64672
#
# Static dielectric constant tensor:
#      x y z
#    x 1.764110 0.000000 0.000000 
#    y 0.000000 1.725360 0.000000 
#    z 0.000000 0.000000 1.651490 
# 
# From -- ./inp_files/32861.got.cif
#   From: 2010.05.17/outbox.cif.g08.bks.cpg/sg59_17_cif.got.tgz:32861.got - 2010.06.03 14:40:33.
