data_PCOD9449759
_publ_section_title
;
Structure prediction by ZEFSAII (Michael W. Deem and Ramdas Pophale) SiO2 
 PCOD9449759
Probable space group: P M M N
;
_chemical_formula_sum "Si O2"
_cell_formula_units_Z 56
_cell_length_a 21.936682
_cell_length_b 7.828966
_cell_length_c 17.485886
_cell_angle_alpha 90.000000
_cell_angle_beta 90.000000
_cell_angle_gamma 90.000000
_cell_volume 3003.052947
_symmetry_space_group_name_H-M "P M M N"
_symmetry_group_IT_number 59
_space_group.IT_coordinate_system_code '2'
_symmetry_cell_setting 'orthorhombic'
loop_
_space_group_symop_operation_xyz
x,y,z
1/2-x,1/2-y,z
1/2+x,-y,-z
-x,1/2+y,-z
-x,-y,-z
1/2+x,1/2+y,-z
1/2-x,y,z
x,1/2-y,z
loop_
_atom_site_type_symbol
_atom_site_label
_atom_site_fract_x
_atom_site_fract_y
_atom_site_fract_z
Si Si1 0.937639 0.454424 0.545344
Si Si2 0.524931 0.042245 0.878425
Si Si3 0.388136 0.549334 0.702486
Si Si4 0.318950 0.046444 0.552819
Si Si5 0.593855 0.453792 0.022892
Si Si6 0.976458 0.051639 0.705908
Si Si7 0.181301 0.959484 0.852860
O O1 0.937417 0.250000 0.548882
O O2 0.874885 0.506357 0.504268
O O3 0.000000 0.500000 0.500000
O O4 0.942798 0.524376 0.632104
O O5 0.524635 0.250000 0.876527
O O6 0.531009 0.978534 0.791537
O O7 0.462088 0.987905 0.918997
O O8 0.576014 0.981620 0.938954
O O9 0.402316 0.750000 0.709900
O O10 0.340194 0.526679 0.634469
O O11 0.451727 0.457642 0.686402
O O12 0.359901 0.485585 0.781749
O O13 0.250000 0.987059 0.532395
O O14 0.316638 0.250000 0.560163
O O15 0.599871 0.250000 0.015402
O O16 0.652827 0.518556 0.067217
O O17 0.958083 0.250000 0.711405
O O18 0.250000 0.016066 0.842214
O O19 0.180790 0.750000 0.852019
#
# Coordination Sequence:
#
# PCOD9449759 Si02
#       7
#     8   8   8   8   8   8   8
#     4  11  22  36  56  79 106 139 178 223 268 317
#     4   9  17  29  47  69  96 127 159 201 251 296
#     4  11  20  31  51  76 104 137 172 209 254 312
#     4  11  24  40  56  76 106 141 178 220 267 321
#     4   9  16  28  46  68  94 127 166 201 239 290
#     4  10  20  33  50  74 106 136 165 212 266 312
#     4   9  17  28  43  68 101 132 164 203 244 293
#
# _framework density 18.647689
#
# number of rings (size 3 to 8) (size 9 to 14) (size 15 to 20)
#    0.000    2.000    2.857    1.714    0.000    2.286 
#    0.000    0.000    0.000    2.143    0.000    4.000 
#    0.000    0.000    0.000    0.000    0.000    0.000 
#
# Total GULP energy -312273.016517 kJ/mol
# GULP energy per Si atom -5576.303866 kJ/mol
# Density = 1.860525 g / cm^3
# Si number density = 18.647689 Si / 1000 Ang^3
#
#
#
# Elastic Constant Matrix: (Units=GPa)
#
#
# Indices 1 2 3 4 5 6 
#
# 1 80.8482 -7.8236 43.6574 0.0000 0.0000 0.0000
# 2 -7.8236 25.7109 -3.9157 0.0000 0.0000 0.0000
# 3 43.6574 -3.9157 123.1681 0.0000 0.0000 0.0000
# 4 0.0000 0.0000 0.0000 12.3368 0.0000 0.0000
# 5 0.0000 0.0000 0.0000 0.0000 24.0855 0.0000
# 6 0.0000 0.0000 0.0000 0.0000 0.0000 16.0575
#
#
#
# Elastic Compliance Matrix: (Units=1/GPa)
#
#
# Indices 1 2 3 4 5 6 
#
# 1 0.015685 0.003945 -0.005434 0.000000 0.000000 0.000000
# 2 0.003945 0.040076 -0.000124 0.000000 0.000000 0.000000
# 3 -0.005434 -0.000124 0.010041 0.000000 0.000000 0.000000
# 4 0.000000 0.000000 0.000000 0.081058 0.000000 0.000000
# 5 0.000000 0.000000 0.000000 0.000000 0.041519 0.000000
# 6 0.000000 0.000000 0.000000 0.000000 0.000000 0.062276
#
#
# Mechanical properties :
#
#
# Convention : Reuss Voigt Hill
#
# Bulk Modulus (GPa) = 15.98078 32.61816 24.29947
# Shear Modulus (GPa) = 18.19903 23.68324 20.94113
#
# Velocity S-wave (km/s) = 3.12739 3.56762 3.35474
# Velocity P-wave (km/s) = 4.65072 5.87370 5.29762
#
# Compressibility (1/GPa) = 0.06257516
#
# Stress axis : x y z
#
# Youngs Moduli (GPa) = 63.75487 24.95288 99.58962
#
# Poissons Ratio (x) = -0.09844 0.54119
# Poissons Ratio (y) = -0.25153 0.01238
# Poissons Ratio (z) = 0.34646 0.00310
#
# Static dielectric constant tensor:
#      x y z
#    x 1.608490 0.000000 0.000000 
#    y 0.000000 1.669390 0.000000 
#    z 0.000000 0.000000 1.686710 
# 
# From -- ./inp_files/28065.got.cif
#   From: 2010.05.17/outbox.cif.g08.bks.cpg/sg59_15_cif.got.tgz:28065.got - 2010.06.03 14:40:33.
