data_PCOD9449789
_publ_section_title
;
Structure prediction by ZEFSAII (Michael W. Deem and Ramdas Pophale) SiO2 
 PCOD9449789
Probable space group: P M M N
;
_chemical_formula_sum "Si O2"
_cell_formula_units_Z 56
_cell_length_a 9.326971
_cell_length_b 15.586082
_cell_length_c 20.600479
_cell_angle_alpha 90.000000
_cell_angle_beta 90.000000
_cell_angle_gamma 90.000000
_cell_volume 2994.710890
_symmetry_space_group_name_H-M "P M M N"
_symmetry_group_IT_number 59
_space_group.IT_coordinate_system_code '2'
_symmetry_cell_setting 'orthorhombic'
loop_
_space_group_symop_operation_xyz
x,y,z
1/2-x,1/2-y,z
1/2+x,-y,-z
-x,1/2+y,-z
-x,-y,-z
1/2+x,1/2+y,-z
1/2-x,y,z
x,1/2-y,z
loop_
_atom_site_type_symbol
_atom_site_label
_atom_site_fract_x
_atom_site_fract_y
_atom_site_fract_z
Si Si1 0.577286 0.498926 0.568801
Si Si2 0.418653 0.597168 0.073665
Si Si3 0.920440 0.419201 0.066502
Si Si4 0.578691 0.351253 0.670659
Si Si5 0.410636 0.351995 0.799145
Si Si6 0.909787 0.352432 0.209062
Si Si7 0.921755 0.849482 0.665438
O O1 0.500000 0.500000 0.500000
O O2 0.750000 0.500126 0.560442
O O3 0.541743 0.414341 0.611423
O O4 0.535461 0.583449 0.610054
O O5 0.250000 0.603854 0.087491
O O6 0.472868 0.499496 0.067535
O O7 0.507491 0.633432 0.133534
O O8 0.444449 0.632589 0.000574
O O9 0.750000 0.444669 0.064232
O O10 0.945169 0.373702 0.134899
O O11 0.750000 0.357186 0.681448
O O12 0.546102 0.250000 0.658180
O O13 0.498201 0.381403 0.735984
O O14 0.250000 0.389040 0.801831
O O15 0.399587 0.250000 0.791234
O O16 0.750000 0.386464 0.222409
O O17 0.905684 0.250000 0.213316
O O18 0.016349 0.380453 0.265509
O O19 0.750000 0.849957 0.669192
O O20 0.966554 0.750000 0.653254
#
# Coordination Sequence:
#
# PCOD9449789 Si02
#       7
#     8   8   8   8   8   8   8
#     4  10  22  38  57  84 112 141 179 217 263 325
#     4  10  20  33  51  74 104 142 182 225 274 326
#     4   9  19  34  50  73 105 141 181 226 273 321
#     4   9  19  37  58  81 111 144 181 227 273 321
#     4  10  21  36  54  78 107 139 179 227 277 329
#     4   9  18  33  53  77 103 134 176 223 269 317
#     4   9  19  36  55  78 111 145 177 218 265 317
#
# _framework density 18.699634
#
# number of rings (size 3 to 8) (size 9 to 14) (size 15 to 20)
#    0.000    2.571    0.000    0.857    2.000    4.286 
#    0.000    1.429    0.000    1.714    0.000    0.000 
#    0.000    0.000    0.000    0.000    0.000    0.000 
#
# Total GULP energy -312063.950216 kJ/mol
# GULP energy per Si atom -5572.570540 kJ/mol
# Density = 1.865707 g / cm^3
# Si number density = 18.699634 Si / 1000 Ang^3
#
#
#
# Elastic Constant Matrix: (Units=GPa)
#
#
# Indices 1 2 3 4 5 6 
#
# 1 50.9101 32.6183 71.8426 0.0000 0.0000 0.0000
# 2 32.6183 59.7783 58.7963 0.0000 0.0000 0.0000
# 3 71.8426 58.7963 191.7081 0.0000 0.0000 0.0000
# 4 0.0000 0.0000 0.0000 58.1474 0.0000 0.0000
# 5 0.0000 0.0000 0.0000 0.0000 37.6423 0.0000
# 6 0.0000 0.0000 0.0000 0.0000 0.0000 16.4628
#
#
#
# Elastic Compliance Matrix: (Units=1/GPa)
#
#
# Indices 1 2 3 4 5 6 
#
# 1 0.046941 -0.011902 -0.013941 0.000000 0.000000 0.000000
# 2 -0.011902 0.026972 -0.003812 0.000000 0.000000 0.000000
# 3 -0.013941 -0.003812 0.011610 0.000000 0.000000 0.000000
# 4 0.000000 0.000000 0.000000 0.017198 0.000000 0.000000
# 5 0.000000 0.000000 0.000000 0.000000 0.026566 0.000000
# 6 0.000000 0.000000 0.000000 0.000000 0.000000 0.060743
#
#
# Mechanical properties :
#
#
# Convention : Reuss Voigt Hill
#
# Bulk Modulus (GPa) = 38.14830 69.87897 54.01364
# Shear Modulus (GPa) = 19.37410 31.72645 25.55028
#
# Velocity S-wave (km/s) = 3.22229 4.12349 3.70043
# Velocity P-wave (km/s) = 5.85569 7.75379 6.87060
#
# Compressibility (1/GPa) = 0.02621349
#
# Stress axis : x y z
#
# Youngs Moduli (GPa) = 21.30343 37.07530 86.13421
#
# Poissons Ratio (x) = 0.44125 1.20079
# Poissons Ratio (y) = 0.25354 0.32836
# Poissons Ratio (z) = 0.29699 0.14134
#
# Static dielectric constant tensor:
#      x y z
#    x 1.649140 0.000000 0.000000 
#    y 0.000000 1.674130 0.000000 
#    z 0.000000 0.000000 1.646870 
# 
# From -- ./inp_files/29022.got.cif
#   From: 2010.05.17/outbox.cif.g08.bks.cpg/sg59_15_cif.got.tgz:29022.got - 2010.06.03 14:40:33.
