data_PCOD9449838
_publ_section_title
;
Structure prediction by ZEFSAII (Michael W. Deem and Ramdas Pophale) SiO2 
 PCOD9449838
Probable space group: P M M N
;
_chemical_formula_sum "Si O2"
_cell_formula_units_Z 64
_cell_length_a 7.568376
_cell_length_b 22.382247
_cell_length_c 15.917427
_cell_angle_alpha 90.000000
_cell_angle_beta 90.000000
_cell_angle_gamma 90.000000
_cell_volume 2696.368536
_symmetry_space_group_name_H-M "P M M N"
_symmetry_group_IT_number 59
_space_group.IT_coordinate_system_code '2'
_symmetry_cell_setting 'orthorhombic'
loop_
_space_group_symop_operation_xyz
x,y,z
1/2-x,1/2-y,z
1/2+x,-y,-z
-x,1/2+y,-z
-x,-y,-z
1/2+x,1/2+y,-z
1/2-x,y,z
x,1/2-y,z
loop_
_atom_site_type_symbol
_atom_site_label
_atom_site_fract_x
_atom_site_fract_y
_atom_site_fract_z
Si Si1 0.965358 0.319590 0.256887
Si Si2 0.032778 0.315818 0.974156
Si Si3 0.448007 0.820984 0.561858
Si Si4 0.533522 0.011848 0.777884
Si Si5 0.046550 0.092092 0.107940
Si Si6 0.441554 0.994818 0.403424
Si Si7 0.455983 0.347811 0.792086
Si Si8 0.954705 0.862797 0.383889
O O1 0.750000 0.322237 0.256542
O O2 0.014973 0.250000 0.244819
O O3 0.025719 0.341381 0.349473
O O4 0.039158 0.360688 0.184210
O O5 0.250000 0.317772 0.975831
O O6 0.982339 0.250000 0.006955
O O7 0.969329 0.322706 0.878379
O O8 0.968480 0.371413 0.029832
O O9 0.250000 0.846709 0.554295
O O10 0.434358 0.750000 0.572531
O O11 0.538512 0.831905 0.473601
O O12 0.750000 0.010979 0.775075
O O13 0.471045 0.968603 0.852546
O O14 0.469363 0.988081 0.685815
O O15 0.476105 0.080070 0.792300
O O16 0.250000 0.078561 0.086342
O O17 0.250000 0.023920 0.402645
O O18 0.438109 0.923544 0.391286
O O19 0.500000 0.000000 0.500000
O O20 0.250000 0.331154 0.795057
O O21 0.519851 0.328675 0.699323
O O22 0.750000 0.879289 0.368509
#
# Coordination Sequence:
#
# PCOD9449838 Si02
#       8
#     8   8   8   8   8   8   8   8
#     4   9  19  35  52  73 105 142 177 218 269 324
#     4   9  18  34  57  83 109 139 177 222 273 326
#     4   9  19  35  52  73 104 142 180 217 269 331
#     4   9  20  36  52  77 112 143 176 224 276 319
#     4  10  20  34  55  82 109 140 179 222 269 324
#     4  10  20  34  51  73 105 143 180 222 269 319
#     4   9  19  36  56  78 106 141 182 223 265 323
#     4  10  20  33  51  76 104 135 177 226 269 313
#
# _framework density 23.735627999999998
#
# number of rings (size 3 to 8) (size 9 to 14) (size 15 to 20)
#    0.000    2.625    0.000    1.875    1.750    4.000 
#    0.000    3.125    0.000    1.125    0.000    0.000 
#    0.000    0.000    0.000    0.000    0.000    0.000 
#
# Total GULP energy -356872.814532 kJ/mol
# GULP energy per Si atom -5576.137727 kJ/mol
# Density = 2.368160 g / cm^3
# Si number density = 23.735628 Si / 1000 Ang^3
#
#
#
# Elastic Constant Matrix: (Units=GPa)
#
#
# Indices 1 2 3 4 5 6 
#
# 1 59.2418 -11.4950 -2.7362 0.0000 0.0000 0.0000
# 2 -11.4950 44.1666 -0.6445 0.0000 0.0000 0.0000
# 3 -2.7362 -0.6445 106.7697 0.0000 0.0000 0.0000
# 4 0.0000 0.0000 0.0000 39.1190 0.0000 0.0000
# 5 0.0000 0.0000 0.0000 0.0000 44.9167 0.0000
# 6 0.0000 0.0000 0.0000 0.0000 0.0000 9.0615
#
#
#
# Elastic Compliance Matrix: (Units=1/GPa)
#
#
# Indices 1 2 3 4 5 6 
#
# 1 0.017803 0.004640 0.000484 0.000000 0.000000 0.000000
# 2 0.004640 0.023853 0.000263 0.000000 0.000000 0.000000
# 3 0.000484 0.000263 0.009380 0.000000 0.000000 0.000000
# 4 0.000000 0.000000 0.000000 0.025563 0.000000 0.000000
# 5 0.000000 0.000000 0.000000 0.000000 0.022263 0.000000
# 6 0.000000 0.000000 0.000000 0.000000 0.000000 0.110357
#
#
# Mechanical properties :
#
#
# Convention : Reuss Voigt Hill
#
# Bulk Modulus (GPa) = 16.17832 20.04742 18.11287
# Shear Modulus (GPa) = 22.82611 33.62304 28.22457
#
# Velocity S-wave (km/s) = 3.10446 3.76781 3.45211
# Velocity P-wave (km/s) = 4.43634 5.23383 4.85150
#
# Compressibility (1/GPa) = 0.06181110
#
# Stress axis : x y z
#
# Youngs Moduli (GPa) = 56.17105 41.92323 106.61041
#
# Poissons Ratio (x) = -0.19454 -0.05163
# Poissons Ratio (y) = -0.26066 -0.02803
# Poissons Ratio (z) = -0.02720 -0.01102
#
# Static dielectric constant tensor:
#      x y z
#    x 1.894050 0.000000 0.000000 
#    y 0.000000 1.866530 0.000000 
#    z 0.000000 0.000000 1.964320 
# 
# From -- ./inp_files/21616.got.cif
#   From: 2010.05.17/outbox.cif.g08.bks.cpg/sg59_11_cif.got.tgz:21616.got - 2010.06.03 14:40:33.
