data_PCOD9449632
_publ_section_title
;
Structure prediction by ZEFSAII (Michael W. Deem and Ramdas Pophale) SiO2 
 PCOD9449632
Probable space group: P M M N
;
_chemical_formula_sum "Si O2"
_cell_formula_units_Z 48
_cell_length_a 14.554456
_cell_length_b 9.467510
_cell_length_c 16.038741
_cell_angle_alpha 90.000000
_cell_angle_beta 90.000000
_cell_angle_gamma 90.000000
_cell_volume 2210.049619
_symmetry_space_group_name_H-M "P M M N"
_symmetry_group_IT_number 59
_space_group.IT_coordinate_system_code '2'
_symmetry_cell_setting 'orthorhombic'
loop_
_space_group_symop_operation_xyz
x,y,z
1/2-x,1/2-y,z
1/2+x,-y,-z
-x,1/2+y,-z
-x,-y,-z
1/2+x,1/2+y,-z
1/2-x,y,z
x,1/2-y,z
loop_
_atom_site_type_symbol
_atom_site_label
_atom_site_fract_x
_atom_site_fract_y
_atom_site_fract_z
Si Si1 0.142098 0.420830 0.776971
Si Si2 0.857575 0.592128 0.723170
Si Si3 0.137480 0.413923 0.959241
Si Si4 0.383538 0.590319 0.440933
Si Si5 0.901356 0.910260 0.406396
Si Si6 0.137266 0.911473 0.121013
O O1 0.250000 0.457047 0.771258
O O2 0.135238 0.250000 0.780368
O O3 0.107317 0.467702 0.867833
O O4 0.099408 0.464209 0.688812
O O5 0.750000 0.608097 0.743952
O O6 0.897799 0.750000 0.717168
O O7 0.859865 0.509422 0.636442
O O8 0.895806 0.496831 0.797946
O O9 0.250000 0.413889 0.957283
O O10 0.110338 0.250000 0.971600
O O11 0.109102 0.510452 0.036324
O O12 0.348910 0.750000 0.432369
O O13 0.493737 0.601234 0.435410
O O14 0.356689 0.515480 0.527236
O O15 0.862155 0.750000 0.408162
O O16 0.250000 0.908712 0.121723
O O17 0.105714 0.750000 0.124475
#
# Coordination Sequence:
#
# PCOD9449632 Si02
#       6
#     8   8   8   8   8   8
#     4   8  14  26  47  73  96 120 155 196 230 264
#     4  10  20  33  50  71  93 120 157 199 239 281
#     4   8  13  23  41  65  92 121 152 185 222 266
#     4  10  20  33  49  69  95 126 158 196 240 284
#     4   9  18  33  51  70  94 127 164 195 229 280
#     4   9  16  26  42  66  96 125 150 182 228 279
#
# _framework density 21.718969999999999
#
# number of rings (size 3 to 8) (size 9 to 14) (size 15 to 20)
#    0.000    3.000    0.000    2.500    0.000    4.333 
#    0.000    2.500    0.000    2.000    0.000    0.000 
#    0.000    0.000    0.000    0.000    0.000    0.000 
#
# Total GULP energy -267824.795380 kJ/mol
# GULP energy per Si atom -5579.683237 kJ/mol
# Density = 2.166954 g / cm^3
# Si number density = 21.718970 Si / 1000 Ang^3
#
#
#
# Elastic Constant Matrix: (Units=GPa)
#
#
# Indices 1 2 3 4 5 6 
#
# 1 43.0938 6.4777 -0.2901 0.0000 0.0000 0.0000
# 2 6.4777 161.9832 116.4058 0.0000 0.0000 0.0000
# 3 -0.2901 116.4058 214.6340 0.0000 0.0000 0.0000
# 4 0.0000 0.0000 0.0000 19.8462 0.0000 0.0000
# 5 0.0000 0.0000 0.0000 0.0000 24.0086 0.0000
# 6 0.0000 0.0000 0.0000 0.0000 0.0000 1.2741
#
#
#
# Elastic Compliance Matrix: (Units=1/GPa)
#
#
# Indices 1 2 3 4 5 6 
#
# 1 0.023448 -0.001574 0.000885 0.000000 0.000000 0.000000
# 2 -0.001574 0.010222 -0.005546 0.000000 0.000000 0.000000
# 3 0.000885 -0.005546 0.007668 0.000000 0.000000 0.000000
# 4 0.000000 0.000000 0.000000 0.050387 0.000000 0.000000
# 5 0.000000 0.000000 0.000000 0.000000 0.041652 0.000000
# 6 0.000000 0.000000 0.000000 0.000000 0.000000 0.784862
#
#
# Mechanical properties :
#
#
# Convention : Reuss Voigt Hill
#
# Bulk Modulus (GPa) = 34.63959 73.87753 54.25856
# Shear Modulus (GPa) = 5.31728 28.83361 17.07544
#
# Velocity S-wave (km/s) = 1.56638 3.64755 2.80697
# Velocity P-wave (km/s) = 4.38805 7.19920 5.96169
#
# Compressibility (1/GPa) = 0.02886870
#
# Stress axis : x y z
#
# Youngs Moduli (GPa) = 42.64804 97.82936 130.41041
#
# Poissons Ratio (x) = 0.15397 -0.11545
# Poissons Ratio (y) = 0.06712 0.72325
# Poissons Ratio (z) = -0.03775 0.54255
#
# Static dielectric constant tensor:
#      x y z
#    x 1.866990 0.000000 0.000000 
#    y 0.000000 1.757840 0.000000 
#    z 0.000000 0.000000 1.771580 
# 
# From -- ./inp_files/14367.got.cif
#   From: 2010.05.17/outbox.cif.g08.bks.cpg/sg59_8_cif.got.tgz:14367.got - 2010.06.03 14:40:33.
