data_PCOD9449786
_publ_section_title
;
Structure prediction by ZEFSAII (Michael W. Deem and Ramdas Pophale) SiO2 
 PCOD9449786
Probable space group: P M M N
;
_chemical_formula_sum "Si O2"
_cell_formula_units_Z 64
_cell_length_a 18.293123
_cell_length_b 9.340511
_cell_length_c 21.320610
_cell_angle_alpha 90.000000
_cell_angle_beta 90.000000
_cell_angle_gamma 90.000000
_cell_volume 3642.991155
_symmetry_space_group_name_H-M "P M M N"
_symmetry_group_IT_number 59
_space_group.IT_coordinate_system_code '2'
_symmetry_cell_setting 'orthorhombic'
loop_
_space_group_symop_operation_xyz
x,y,z
1/2-x,1/2-y,z
1/2+x,-y,-z
-x,1/2+y,-z
-x,-y,-z
1/2+x,1/2+y,-z
1/2-x,y,z
x,1/2-y,z
loop_
_atom_site_type_symbol
_atom_site_label
_atom_site_fract_x
_atom_site_fract_y
_atom_site_fract_z
Si Si1 0.333476 0.924101 0.000000
Si Si2 0.660709 0.084886 0.500000
Si Si3 0.836796 0.080483 0.251074
Si Si4 0.422675 0.922464 0.123754
Si Si5 0.836796 0.080483 0.748925
Si Si6 0.839146 0.585132 0.624016
Si Si7 0.577325 0.077536 0.123753
Si Si8 0.339146 0.414868 0.624016
O O1 0.250000 0.974982 0.000000
O O2 0.331353 0.750000 0.000000
O O3 0.375946 0.966722 0.937131
O O4 0.375946 0.966722 0.062869
O O5 0.750000 0.084216 0.500000
O O6 0.637575 0.250000 0.500000
O O7 0.637087 0.002574 0.562757
O O8 0.637087 0.002575 0.437243
O O9 0.750000 0.056269 0.241507
O O10 0.846124 0.250000 0.263831
O O11 0.879552 0.044140 0.187766
O O12 0.861484 0.990655 0.311380
O O13 0.431944 0.750000 0.121220
O O14 0.379552 0.955860 0.187766
O O15 0.500000 1.000000 0.123025
O O16 0.750000 0.056269 0.758493
O O17 0.846124 0.250000 0.736169
O O18 0.861484 0.990655 0.688619
O O19 0.750000 0.583543 0.623581
O O20 0.862477 0.750000 0.621160
O O21 0.568055 0.250000 0.121220
O O22 0.250000 0.416457 0.623581
O O23 0.362477 0.250000 0.621160
#
# Coordination Sequence:
#
# PCOD9449786 Si02
#       8
#     8   8   8   8   8   8   8   8
#     4   9  17  32  55  79 100 127 166 206 242 285
#     4   9  15  23  37  59  90 127 162 197 240 291
#     4   9  17  30  47  67  92 125 166 206 243 288
#     4  10  20  33  51  74 100 130 163 202 246 292
#     4   9  17  30  47  67  92 125 166 206 243 288
#     4   9  16  25  39  62  92 124 158 200 249 294
#     4  10  20  33  51  74 100 130 163 202 246 292
#     4   9  16  25  39  62  92 124 158 200 249 294
#
# _framework density 17.567981
#
# number of rings (size 3 to 8) (size 9 to 14) (size 15 to 20)
#    0.000    2.750    0.000    2.250    0.000    8.500 
#    0.000    0.000    0.000    3.000    0.000    0.875 
#    0.000    0.000    0.000    0.000    0.000    0.000 
#
# Total GULP energy -356891.890740 kJ/mol
# GULP energy per Si atom -5576.435793 kJ/mol
# Density = 1.752800 g / cm^3
# Si number density = 17.567981 Si / 1000 Ang^3
#
#
#
# Elastic Constant Matrix: (Units=GPa)
#
#
# Indices 1 2 3 4 5 6 
#
# 1 65.2129 47.1937 72.9297 0.0000 0.0000 0.0000
# 2 47.1937 86.1695 102.2167 0.0000 0.0000 0.0000
# 3 72.9297 102.2167 218.6083 0.0000 0.0000 0.0000
# 4 0.0000 0.0000 0.0000 6.2579 0.0000 0.0000
# 5 0.0000 0.0000 0.0000 0.0000 -5.8550 0.0000
# 6 0.0000 0.0000 0.0000 0.0000 0.0000 21.1578
#
#
#
# Elastic Compliance Matrix: (Units=1/GPa)
#
#
# Indices 1 2 3 4 5 6 
#
# 1 0.027461 -0.009369 -0.004780 0.000000 0.000000 0.000000
# 2 -0.009369 0.029255 -0.010553 0.000000 0.000000 0.000000
# 3 -0.004780 -0.010553 0.011104 0.000000 0.000000 0.000000
# 4 0.000000 0.000000 0.000000 0.159797 0.000000 0.000000
# 5 0.000000 0.000000 0.000000 0.000000 -0.170794 0.000000
# 6 0.000000 0.000000 0.000000 0.000000 0.000000 0.047264
#
#
# Mechanical properties :
#
#
# Convention : Reuss Voigt Hill
#
# Bulk Modulus (GPa) = 54.30767 90.51898 72.41333
# Shear Modulus (GPa) = 31.32229 14.15553 22.73891
#
# Velocity S-wave (km/s) = 4.22704 2.84167 3.60159
# Velocity P-wave (km/s) = 7.40296 7.89959 7.65531
#
# Compressibility (1/GPa) = 0.01841361
#
# Stress axis : x y z
#
# Youngs Moduli (GPa) = 36.41562 34.18186 90.06024
#
# Poissons Ratio (x) = 0.32026 0.43051
# Poissons Ratio (y) = 0.34119 0.95045
# Poissons Ratio (z) = 0.17407 0.36074
#
# Static dielectric constant tensor:
#      x y z
#    x 1.568090 0.000000 0.000000 
#    y 0.000000 1.587880 0.000000 
#    z 0.000000 0.000000 1.583090 
# 
# From -- ./inp_files/30642.got.cif
#   From: 2010.05.17/outbox.cif.g08.bks.cpg/sg59_16_cif.got.tgz:30642.got - 2010.06.03 14:40:33.
