data_PCOD9449153
_publ_section_title
;
Structure prediction by ZEFSAII (Michael W. Deem and Ramdas Pophale) SiO2 
 PCOD9449153
Probable space group: P M M N
;
_chemical_formula_sum "Si O2"
_cell_formula_units_Z 48
_cell_length_a 14.528021
_cell_length_b 18.441827
_cell_length_c 9.459318
_cell_angle_alpha 90.000000
_cell_angle_beta 90.000000
_cell_angle_gamma 90.000000
_cell_volume 2534.371221
_symmetry_space_group_name_H-M "P M M N"
_symmetry_group_IT_number 59
_space_group.IT_coordinate_system_code '2'
_symmetry_cell_setting 'orthorhombic'
loop_
_space_group_symop_operation_xyz
x,y,z
1/2-x,1/2-y,z
1/2+x,-y,-z
-x,1/2+y,-z
-x,-y,-z
1/2+x,1/2+y,-z
1/2-x,y,z
x,1/2-y,z
loop_
_atom_site_type_symbol
_atom_site_label
_atom_site_fract_x
_atom_site_fract_y
_atom_site_fract_z
Si Si1 0.358002 0.664525 0.113679
Si Si2 0.946510 0.333960 0.580772
Si Si3 0.351210 0.119521 0.646036
Si Si4 0.421689 0.965636 0.599632
Si Si5 0.017363 0.573206 0.913147
Si Si6 0.355320 0.335523 0.974084
O O1 0.250000 0.649827 0.134611
O O2 0.368836 0.750000 0.081331
O O3 0.413245 0.650661 0.259033
O O4 0.400697 0.616518 0.990023
O O5 0.926122 0.250000 0.549293
O O6 0.896023 0.391111 0.478825
O O7 0.057327 0.346648 0.575366
O O8 0.250000 0.148078 0.603273
O O9 0.361849 0.135302 0.813385
O O10 0.353569 0.033096 0.620227
O O11 0.460157 0.945470 0.752884
O O12 0.500000 0.000000 0.500000
O O13 0.000000 0.500000 0.000000
O O14 0.927123 0.622544 0.929796
O O15 0.250000 0.345627 0.020843
O O16 0.375839 0.250000 0.970293
#
# Coordination Sequence:
#
# PCOD9449153 Si02
#       6
#     8   8   8   8   8   8
#     4  10  22  40  62  87 117 158 208 257 304 357
#     4  10  20  38  60  88 124 164 206 251 309 372
#     4  10  19  35  60  89 121 157 201 251 302 362
#     4  10  22  39  57  85 124 163 204 242 299 369
#     4  12  21  37  61  88 118 154 199 253 304 354
#     4  10  20  35  59  91 121 152 195 248 306 359
#
# _framework density 18.939606999999999
#
# number of rings (size 3 to 8) (size 9 to 14) (size 15 to 20)
#    0.000    1.667    3.333    2.000    0.000    4.333 
#    0.000    3.333    0.000    2.000    0.000    0.000 
#    0.000    0.000    0.000    0.000    0.000    0.000 
#
# Total GULP energy -267887.288683 kJ/mol
# GULP energy per Si atom -5580.985181 kJ/mol
# Density = 1.889650 g / cm^3
# Si number density = 18.939607 Si / 1000 Ang^3
#
#
#
# Elastic Constant Matrix: (Units=GPa)
#
#
# Indices 1 2 3 4 5 6 
#
# 1 91.0309 35.9754 17.9178 0.0000 0.0000 0.0000
# 2 35.9754 99.3409 48.2423 0.0000 0.0000 0.0000
# 3 17.9178 48.2423 85.2435 0.0000 0.0000 0.0000
# 4 0.0000 0.0000 0.0000 39.9086 0.0000 0.0000
# 5 0.0000 0.0000 0.0000 0.0000 -4.8835 0.0000
# 6 0.0000 0.0000 0.0000 0.0000 0.0000 26.4321
#
#
#
# Elastic Compliance Matrix: (Units=1/GPa)
#
#
# Indices 1 2 3 4 5 6 
#
# 1 0.012821 -0.004598 -0.000093 0.000000 0.000000 0.000000
# 2 -0.004598 0.015530 -0.007823 0.000000 0.000000 0.000000
# 3 -0.000093 -0.007823 0.016178 0.000000 0.000000 0.000000
# 4 0.000000 0.000000 0.000000 0.025057 0.000000 0.000000
# 5 0.000000 0.000000 0.000000 0.000000 -0.204772 0.000000
# 6 0.000000 0.000000 0.000000 0.000000 0.000000 0.037833
#
#
# Mechanical properties :
#
#
# Convention : Reuss Voigt Hill
#
# Bulk Modulus (GPa) = 51.27661 53.32071 52.29866
# Shear Modulus (GPa) = -75.95817 23.85676 -26.05070
#
# Velocity S-wave (km/s) = -6.33976 3.55297 -3.71275
# Velocity P-wave (km/s) = 5.14369 6.71160 3.04861
#
# Compressibility (1/GPa) = 0.01950207
#
# Stress axis : x y z
#
# Youngs Moduli (GPa) = 77.99950 64.39034 61.81333
#
# Poissons Ratio (x) = 0.29605 0.00573
# Poissons Ratio (y) = 0.35863 0.48355
# Poissons Ratio (z) = 0.00724 0.50371
#
# Static dielectric constant tensor:
#      x y z
#    x 1.687900 0.000000 0.000000 
#    y 0.000000 1.674930 0.000000 
#    z 0.000000 0.000000 1.618360 
# 
# From -- ./inp_files/8990.got.cif
#   From: 2010.05.17/outbox.cif.g08.bks.cpg/sg59_5_cif.got.tgz:8990.got - 2010.06.03 14:40:33.
