data_PCOD9449284
_publ_section_title
;
Structure prediction by ZEFSAII (Michael W. Deem and Ramdas Pophale) SiO2 
 PCOD9449284
Probable space group: P M M N
;
_chemical_formula_sum "Si O2"
_cell_formula_units_Z 64
_cell_length_a 7.421075
_cell_length_b 19.849133
_cell_length_c 21.266001
_cell_angle_alpha 90.000000
_cell_angle_beta 90.000000
_cell_angle_gamma 90.000000
_cell_volume 3132.522452
_symmetry_space_group_name_H-M "P M M N"
_symmetry_group_IT_number 59
_space_group.IT_coordinate_system_code '2'
_symmetry_cell_setting 'orthorhombic'
loop_
_space_group_symop_operation_xyz
x,y,z
1/2-x,1/2-y,z
1/2+x,-y,-z
-x,1/2+y,-z
-x,-y,-z
1/2+x,1/2+y,-z
1/2-x,y,z
x,1/2-y,z
loop_
_atom_site_type_symbol
_atom_site_label
_atom_site_fract_x
_atom_site_fract_y
_atom_site_fract_z
Si Si1 0.529925 0.080745 0.756140
Si Si2 0.536423 0.326541 0.868775
Si Si3 0.533944 0.672236 0.993801
Si Si4 0.969920 0.671640 0.856522
Si Si5 0.467064 0.911089 0.386102
Si Si6 0.037982 0.174399 0.494059
Si Si7 0.969949 0.935885 0.604378
Si Si8 0.030633 0.427110 0.252416
O O1 0.750000 0.081716 0.756560
O O2 0.465092 0.128285 0.812079
O O3 0.473916 0.101456 0.685675
O O4 0.476617 0.003055 0.765075
O O5 0.750000 0.321218 0.858894
O O6 0.462480 0.250000 0.868594
O O7 0.513856 0.357571 0.938518
O O8 0.750000 0.673480 0.991799
O O9 0.469460 0.750000 0.995926
O O10 0.473746 0.645385 0.925852
O O11 0.750000 0.670794 0.855559
O O12 0.022747 0.750000 0.850708
O O13 0.032462 0.626539 0.798673
O O14 0.250000 0.912622 0.385408
O O15 0.521861 0.855393 0.436070
O O16 0.527975 0.986541 0.405917
O O17 0.250000 0.179142 0.479520
O O18 0.962867 0.250000 0.488712
O O19 0.964191 0.117840 0.446472
O O20 0.750000 0.937082 0.602417
O O21 0.022817 0.915417 0.675270
O O22 0.250000 0.425578 0.252101
#
# Coordination Sequence:
#
# PCOD9449284 Si02
#       8
#     8   8   8   8   8   8   8   8
#     4   8  15  27  42  61  82 103 134 178 216 240
#     4   9  16  26  41  59  78 104 139 174 206 243
#     4   8  14  25  39  57  83 110 135 166 204 245
#     4   8  13  21  36  59  84 109 137 168 202 243
#     4   9  17  31  50  66  82 112 151 181 207 250
#     4  10  20  31  43  65  96 119 136 171 220 258
#     4   8  15  28  45  64  86 114 146 176 209 253
#     4   8  13  23  40  61  84 108 135 169 208 247
#
# _framework density 20.430817999999999
#
# number of rings (size 3 to 8) (size 9 to 14) (size 15 to 20)
#    0.000    3.500    0.000    2.625    0.000    1.250 
#    0.000    5.000    0.000    1.500    0.000    4.375 
#    0.000    2.000    0.000    0.000    0.000    0.000 
#
# Total GULP energy -356687.332898 kJ/mol
# GULP energy per Si atom -5573.239577 kJ/mol
# Density = 2.038432 g / cm^3
# Si number density = 20.430818 Si / 1000 Ang^3
#
#
#
# Elastic Constant Matrix: (Units=GPa)
#
#
# Indices 1 2 3 4 5 6 
#
# 1 62.9370 -1.8259 -7.5069 0.0000 0.0000 0.0000
# 2 -1.8259 59.7985 47.8986 0.0000 0.0000 0.0000
# 3 -7.5069 47.8986 88.7783 0.0000 0.0000 0.0000
# 4 0.0000 0.0000 0.0000 41.0414 0.0000 0.0000
# 5 0.0000 0.0000 0.0000 0.0000 13.5725 0.0000
# 6 0.0000 0.0000 0.0000 0.0000 0.0000 0.8927
#
#
#
# Elastic Compliance Matrix: (Units=1/GPa)
#
#
# Indices 1 2 3 4 5 6 
#
# 1 0.016088 -0.001054 0.001929 0.000000 0.000000 0.000000
# 2 -0.001054 0.029519 -0.016016 0.000000 0.000000 0.000000
# 3 0.001929 -0.016016 0.020068 0.000000 0.000000 0.000000
# 4 0.000000 0.000000 0.000000 0.024366 0.000000 0.000000
# 5 0.000000 0.000000 0.000000 0.000000 0.073678 0.000000
# 6 0.000000 0.000000 0.000000 0.000000 0.000000 1.120152
#
#
# Mechanical properties :
#
#
# Convention : Reuss Voigt Hill
#
# Bulk Modulus (GPa) = 28.25287 32.07171 30.16229
# Shear Modulus (GPa) = 3.77088 22.63119 13.20104
#
# Velocity S-wave (km/s) = 1.36003 3.33182 2.54467
# Velocity P-wave (km/s) = 4.04040 5.52568 4.84035
#
# Compressibility (1/GPa) = 0.03539463
#
# Stress axis : x y z
#
# Youngs Moduli (GPa) = 62.15651 33.87634 49.83053
#
# Poissons Ratio (x) = 0.03570 -0.09612
# Poissons Ratio (y) = 0.06551 0.79806
# Poissons Ratio (z) = -0.11990 0.54255
#
# Static dielectric constant tensor:
#      x y z
#    x 1.812700 0.000000 0.000000 
#    y 0.000000 1.700410 0.000000 
#    z 0.000000 0.000000 1.731250 
# 
# From -- ./inp_files/30169.got.cif
#   From: 2010.05.17/outbox.cif.g08.bks.cpg/sg59_16_cif.got.tgz:30169.got - 2010.06.03 14:40:33.
