data_PCOD9449184
_publ_section_title
;
Structure prediction by ZEFSAII (Michael W. Deem and Ramdas Pophale) SiO2 
 PCOD9449184
Probable space group: P M M N
;
_chemical_formula_sum "Si O2"
_cell_formula_units_Z 48
_cell_length_a 7.785283
_cell_length_b 32.439726
_cell_length_c 9.354752
_cell_angle_alpha 90.000000
_cell_angle_beta 90.000000
_cell_angle_gamma 90.000000
_cell_volume 2362.565512
_symmetry_space_group_name_H-M "P M M N"
_symmetry_group_IT_number 59
_space_group.IT_coordinate_system_code '2'
_symmetry_cell_setting 'orthorhombic'
loop_
_space_group_symop_operation_xyz
x,y,z
1/2-x,1/2-y,z
1/2+x,-y,-z
-x,1/2+y,-z
-x,-y,-z
1/2+x,1/2+y,-z
1/2-x,y,z
x,1/2-y,z
loop_
_atom_site_type_symbol
_atom_site_label
_atom_site_fract_x
_atom_site_fract_y
_atom_site_fract_z
Si Si1 0.953867 0.332281 0.660673
Si Si2 0.545978 0.999051 0.831529
Si Si3 0.046488 0.909184 0.835938
Si Si4 0.461142 0.830023 0.663682
Si Si5 0.457633 0.750000 0.840607
Si Si6 0.538732 0.088855 0.835067
Si Si7 0.048372 0.250000 0.826620
O O1 0.750000 0.339068 0.647063
O O2 0.020736 0.327117 0.499839
O O3 0.022044 0.372519 0.742814
O O4 0.977821 0.291170 0.752702
O O5 0.750000 0.997950 0.817184
O O6 0.479307 0.955321 0.776278
O O7 0.485133 0.043750 0.777028
O O8 0.500000 0.000000 0.000000
O O9 0.250000 0.902809 0.847398
O O10 0.980160 0.872419 0.737553
O O11 0.980363 0.907171 0.999515
O O12 0.250000 0.829599 0.662790
O O13 0.515801 0.790871 0.757337
O O14 0.250000 0.750000 0.838385
O O15 0.510977 0.750000 0.005087
O O16 0.750000 0.088946 0.837158
O O17 0.250000 0.250000 0.803608
#
# Coordination Sequence:
#
# PCOD9449184 Si02
#       7
#     8   8   8   8   4   8   4
#     4  10  19  36  59  79 100 135 174 211 254 304
#     4   9  16  28  46  71  99 132 171 213 255 298
#     4   9  16  29  47  73 104 133 166 211 256 299
#     4   9  18  32  56  83 103 127 171 218 255 298
#     4  10  19  36  58  78  98 128 169 212 250 298
#     4   8  15  28  50  74  98 128 169 213 250 287
#     4  12  25  38  52  78 108 134 165 208 256 306
#
# _framework density 20.316897000000001
#
# number of rings (size 3 to 8) (size 9 to 14) (size 15 to 20)
#    0.000    2.667    0.000    3.750    0.000    4.000 
#    0.000   11.667    0.000    0.000    0.000    0.000 
#    0.000    0.000    0.000    0.000    0.000    0.000 
#
# Total GULP energy -267708.301194 kJ/mol
# GULP energy per Si atom -5577.256275 kJ/mol
# Density = 2.027065 g / cm^3
# Si number density = 20.316897 Si / 1000 Ang^3
#
#
#
# Elastic Constant Matrix: (Units=GPa)
#
#
# Indices 1 2 3 4 5 6 
#
# 1 17.8651 -12.7538 -3.2083 0.0000 0.0000 0.0000
# 2 -12.7538 205.3674 92.7018 0.0000 0.0000 0.0000
# 3 -3.2083 92.7018 125.2546 0.0000 0.0000 0.0000
# 4 0.0000 0.0000 0.0000 8.3705 0.0000 0.0000
# 5 0.0000 0.0000 0.0000 0.0000 -1.1014 0.0000
# 6 0.0000 0.0000 0.0000 0.0000 0.0000 19.0546
#
#
#
# Elastic Compliance Matrix: (Units=1/GPa)
#
#
# Indices 1 2 3 4 5 6 
#
# 1 0.058840 0.004466 -0.001798 0.000000 0.000000 0.000000
# 2 0.004466 0.007651 -0.005548 0.000000 0.000000 0.000000
# 3 -0.001798 -0.005548 0.012044 0.000000 0.000000 0.000000
# 4 0.000000 0.000000 0.000000 0.119467 0.000000 0.000000
# 5 0.000000 0.000000 0.000000 0.000000 -0.907940 0.000000
# 6 0.000000 0.000000 0.000000 0.000000 0.000000 0.052481
#
#
# Mechanical properties :
#
#
# Convention : Reuss Voigt Hill
#
# Bulk Modulus (GPa) = 13.74111 55.77406 34.75758
# Shear Modulus (GPa) = -7.96892 23.38125 7.70617
#
# Velocity S-wave (km/s) = -1.98263 3.39607 1.94967
# Velocity P-wave (km/s) = 1.23975 6.54900 4.71308
#
# Compressibility (1/GPa) = 0.07277435
#
# Stress axis : x y z
#
# Youngs Moduli (GPa) = 16.99516 130.70014 83.02905
#
# Poissons Ratio (x) = -0.58367 0.14928
# Poissons Ratio (y) = -0.07590 0.46067
# Poissons Ratio (z) = 0.03056 0.72516
#
# Static dielectric constant tensor:
#      x y z
#    x 1.754210 0.000000 0.000000 
#    y 0.000000 1.694040 0.000000 
#    z 0.000000 0.000000 1.691520 
# 
# From -- ./inp_files/6442.got.cif
#   From: 2010.05.17/outbox.cif.g08.bks.cpg/sg59_4_cif.got.tgz:6442.got - 2010.06.03 14:40:33.
