data_PCOD9449986
_publ_section_title
;
Structure prediction by ZEFSAII (Michael W. Deem and Ramdas Pophale) SiO2 
 PCOD9449986
Probable space group: P M M N
;
_chemical_formula_sum "Si O2"
_cell_formula_units_Z 48
_cell_length_a 20.681364
_cell_length_b 9.733236
_cell_length_c 11.734771
_cell_angle_alpha 90.000000
_cell_angle_beta 90.000000
_cell_angle_gamma 90.000000
_cell_volume 2362.169464
_symmetry_space_group_name_H-M "P M M N"
_symmetry_group_IT_number 59
_space_group.IT_coordinate_system_code '2'
_symmetry_cell_setting 'orthorhombic'
loop_
_space_group_symop_operation_xyz
x,y,z
1/2-x,1/2-y,z
1/2+x,-y,-z
-x,1/2+y,-z
-x,-y,-z
1/2+x,1/2+y,-z
1/2-x,y,z
x,1/2-y,z
loop_
_atom_site_type_symbol
_atom_site_label
_atom_site_fract_x
_atom_site_fract_y
_atom_site_fract_z
Si Si1 0.623845 0.086185 0.219246
Si Si2 0.367090 0.095960 0.241473
Si Si3 0.675676 0.901101 0.400127
Si Si4 0.324677 0.599734 0.414010
Si Si5 0.499909 0.410896 0.382785
Si Si6 0.327950 0.091733 0.980035
O O1 0.634682 0.250000 0.215360
O O2 0.559140 0.061005 0.294451
O O3 0.674927 0.998676 0.291716
O O4 0.632053 0.015502 0.096658
O O5 0.344459 0.250000 0.277191
O O6 0.437090 0.075452 0.299956
O O7 0.326478 0.971393 0.292520
O O8 0.358931 0.091230 0.106139
O O9 0.750000 0.880790 0.432411
O O10 0.646386 0.750000 0.383040
O O11 0.644596 0.989793 0.500627
O O12 0.250000 0.615379 0.447745
O O13 0.355320 0.750000 0.418558
O O14 0.500000 0.500000 0.500000
O O15 0.503837 0.250000 0.415925
O O16 0.250000 0.061827 0.984551
O O17 0.333558 0.250000 0.936079
#
# Coordination Sequence:
#
# PCOD9449986 Si02
#       6
#     8   8   8   8   8   8
#     4  11  23  38  57  84 119 154 192 241 296 352
#     4  10  21  39  61  83 113 155 202 246 287 341
#     4  10  20  34  54  80 110 147 193 242 293 352
#     4  10  20  33  52  82 117 148 184 238 302 359
#     4  10  23  41  61  88 120 155 197 245 296 350
#     4  10  22  40  62  88 117 153 200 249 295 349
#
# _framework density 20.320304
#
# number of rings (size 3 to 8) (size 9 to 14) (size 15 to 20)
#    0.000    1.833    0.000    3.500    0.000   11.000 
#    0.000    0.000    0.000    0.000    0.000    0.000 
#    0.000    0.000    0.000    0.000    0.000    0.000 
#
# Total GULP energy -267358.865889 kJ/mol
# GULP energy per Si atom -5569.976373 kJ/mol
# Density = 2.027405 g / cm^3
# Si number density = 20.320304 Si / 1000 Ang^3
#
#
#
# Elastic Constant Matrix: (Units=GPa)
#
#
# Indices 1 2 3 4 5 6 
#
# 1 86.2839 44.4974 30.8076 0.0000 0.0000 0.0000
# 2 44.4974 157.9443 77.6699 0.0000 0.0000 0.0000
# 3 30.8076 77.6699 114.0299 0.0000 0.0000 0.0000
# 4 0.0000 0.0000 0.0000 42.4046 0.0000 0.0000
# 5 0.0000 0.0000 0.0000 0.0000 26.5306 0.0000
# 6 0.0000 0.0000 0.0000 0.0000 0.0000 2.5247
#
#
#
# Elastic Compliance Matrix: (Units=1/GPa)
#
#
# Indices 1 2 3 4 5 6 
#
# 1 0.013756 -0.003079 -0.001619 0.000000 0.000000 0.000000
# 2 -0.003079 0.010209 -0.006122 0.000000 0.000000 0.000000
# 3 -0.001619 -0.006122 0.013377 0.000000 0.000000 0.000000
# 4 0.000000 0.000000 0.000000 0.023582 0.000000 0.000000
# 5 0.000000 0.000000 0.000000 0.000000 0.037692 0.000000
# 6 0.000000 0.000000 0.000000 0.000000 0.000000 0.396079
#
#
# Mechanical properties :
#
#
# Convention : Reuss Voigt Hill
#
# Bulk Modulus (GPa) = 63.68830 73.80089 68.74460
# Shear Modulus (GPa) = 9.58643 27.97754 18.78199
#
# Velocity S-wave (km/s) = 2.17437 3.71459 3.04352
# Velocity P-wave (km/s) = 6.14118 7.40238 6.80108
#
# Compressibility (1/GPa) = 0.01570147
#
# Stress axis : x y z
#
# Youngs Moduli (GPa) = 72.69714 97.94887 74.75508
#
# Poissons Ratio (x) = 0.30160 0.12103
# Poissons Ratio (y) = 0.22385 0.45766
# Poissons Ratio (z) = 0.11770 0.59965
#
# Static dielectric constant tensor:
#      x y z
#    x 1.811570 0.000000 0.000000 
#    y 0.000000 1.633910 0.000000 
#    z 0.000000 0.000000 1.781020 
# 
# From -- ./inp_files/18618.got.cif
#   From: 2010.05.17/outbox.cif.g08.bks.cpg/sg59_10_cif.got.tgz:18618.got - 2010.06.03 14:40:33.
