data_PCOD9449011
_publ_section_title
;
Structure prediction by ZEFSAII (Michael W. Deem and Ramdas Pophale) SiO2 
 PCOD9449011
Probable space group: P M M N
;
_chemical_formula_sum "Si O2"
_cell_formula_units_Z 56
_cell_length_a 22.213886
_cell_length_b 9.016053
_cell_length_c 15.182711
_cell_angle_alpha 90.000000
_cell_angle_beta 90.000000
_cell_angle_gamma 90.000000
_cell_volume 3040.817249
_symmetry_space_group_name_H-M "P M M N"
_symmetry_group_IT_number 59
_space_group.IT_coordinate_system_code '2'
_symmetry_cell_setting 'orthorhombic'
loop_
_space_group_symop_operation_xyz
x,y,z
1/2-x,1/2-y,z
1/2+x,-y,-z
-x,1/2+y,-z
-x,-y,-z
1/2+x,1/2+y,-z
1/2-x,y,z
x,1/2-y,z
loop_
_atom_site_type_symbol
_atom_site_label
_atom_site_fract_x
_atom_site_fract_y
_atom_site_fract_z
Si Si1 0.059903 0.076358 0.965872
Si Si2 0.624115 0.430723 0.545673
Si Si3 0.374777 0.076056 0.148276
Si Si4 0.250000 0.916934 0.382999
Si Si5 0.679290 0.428744 0.362886
Si Si6 0.250000 0.916148 0.174327
Si Si7 0.459505 0.929410 0.296694
Si Si8 0.908335 0.928987 0.230205
O O1 0.046595 0.250000 0.952940
O O2 0.083324 0.022062 0.871396
O O3 0.104503 0.060432 0.047511
O O4 0.000000 0.000000 0.000000
O O5 0.622295 0.250000 0.547783
O O6 0.686676 0.484554 0.589664
O O7 0.635406 0.473622 0.444434
O O8 0.569234 0.477877 0.609146
O O9 0.373633 0.250000 0.170569
O O10 0.309710 0.004056 0.152417
O O11 0.419431 0.995853 0.217332
O O12 0.250000 0.750000 0.423781
O O13 0.250000 0.902928 0.279487
O O14 0.750000 0.471134 0.376754
O O15 0.678342 0.250000 0.357708
O O16 0.648902 0.498633 0.277080
O O17 0.250000 0.750000 0.136522
O O18 0.455054 0.750000 0.291639
O O19 0.529172 0.969005 0.280319
O O20 0.902296 0.750000 0.232815
#
# Coordination Sequence:
#
# PCOD9449011 Si02
#       8
#     8   8   8   4   8   4   8   8
#     4  10  21  38  61  84 110 148 187 230 287 345
#     4   9  16  30  55  85 111 143 188 233 274 333
#     4  11  22  35  54  85 121 150 184 239 296 339
#     4   9  14  25  53  82 103 140 190 225 263 323
#     4  10  21  38  60  82 109 149 197 241 279 326
#     4  11  21  35  57  82 113 158 198 231 281 349
#     4  10  19  34  59  87 115 149 189 228 279 352
#     4  10  22  39  58  83 114 147 187 235 285 342
#
# _framework density 18.416101000000001
#
# number of rings (size 3 to 8) (size 9 to 14) (size 15 to 20)
#    0.000    2.000    3.571    0.643    0.000    2.571 
#    1.286    0.714    0.000    0.000    0.000    0.000 
#    0.000    0.000    0.000    0.000    0.000    0.000 
#
# Total GULP energy -312075.417362 kJ/mol
# GULP energy per Si atom -5572.775310 kJ/mol
# Density = 1.837419 g / cm^3
# Si number density = 18.416101 Si / 1000 Ang^3
#
#
#
# Elastic Constant Matrix: (Units=GPa)
#
#
# Indices 1 2 3 4 5 6 
#
# 1 72.7891 35.1394 31.5254 0.0000 0.0000 0.0000
# 2 35.1394 -5.9031 45.8541 0.0000 0.0000 0.0000
# 3 31.5254 45.8541 102.9784 0.0000 0.0000 0.0000
# 4 0.0000 0.0000 0.0000 24.3415 0.0000 0.0000
# 5 0.0000 0.0000 0.0000 0.0000 41.7318 0.0000
# 6 0.0000 0.0000 0.0000 0.0000 0.0000 25.4988
#
#
#
# Elastic Compliance Matrix: (Units=1/GPa)
#
#
# Indices 1 2 3 4 5 6 
#
# 1 0.012491 0.010014 -0.008283 0.000000 0.000000 0.000000
# 2 0.010014 -0.029964 0.010276 0.000000 0.000000 0.000000
# 3 -0.008283 0.010276 0.007671 0.000000 0.000000 0.000000
# 4 0.000000 0.000000 0.000000 0.041082 0.000000 0.000000
# 5 0.000000 0.000000 0.000000 0.000000 0.023963 0.000000
# 6 0.000000 0.000000 0.000000 0.000000 0.000000 0.039218
#
#
# Mechanical properties :
#
#
# Convention : Reuss Voigt Hill
#
# Bulk Modulus (GPa) = 70.35582 43.87802 57.11692
# Shear Modulus (GPa) = 66.50460 22.13745 44.32102
#
# Velocity S-wave (km/s) = 6.01586 3.47085 4.91108
# Velocity P-wave (km/s) = 9.30271 6.31981 7.95237
#
# Compressibility (1/GPa) = 0.01421347
#
# Stress axis : x y z
#
# Youngs Moduli (GPa) = 80.05563 -33.37349 130.36654
#
# Poissons Ratio (x) = 0.33422 1.07986
# Poissons Ratio (y) = -0.80171 -1.33971
# Poissons Ratio (z) = 0.66312 0.34296
#
# Static dielectric constant tensor:
#      x y z
#    x 1.610970 0.000000 0.000000 
#    y 0.000000 1.635720 0.000000 
#    z 0.000000 0.000000 1.664040 
# 
# From -- ./inp_files/24366.got.cif
#   From: 2010.05.17/outbox.cif.g08.bks.cpg/sg59_13_cif.got.tgz:24366.got - 2010.06.03 14:40:33.
