data_PCOD9449230
_publ_section_title
;
Structure prediction by ZEFSAII (Michael W. Deem and Ramdas Pophale) SiO2 
 PCOD9449230
Probable space group: P M M N
;
_chemical_formula_sum "Si O2"
_cell_formula_units_Z 64
_cell_length_a 8.000529
_cell_length_b 32.064618
_cell_length_c 12.332600
_cell_angle_alpha 90.000000
_cell_angle_beta 90.000000
_cell_angle_gamma 90.000000
_cell_volume 3163.730051
_symmetry_space_group_name_H-M "P M M N"
_symmetry_group_IT_number 59
_space_group.IT_coordinate_system_code '2'
_symmetry_cell_setting 'orthorhombic'
loop_
_space_group_symop_operation_xyz
x,y,z
1/2-x,1/2-y,z
1/2+x,-y,-z
-x,1/2+y,-z
-x,-y,-z
1/2+x,1/2+y,-z
1/2-x,y,z
x,1/2-y,z
loop_
_atom_site_type_symbol
_atom_site_label
_atom_site_fract_x
_atom_site_fract_y
_atom_site_fract_z
Si Si1 0.450538 0.623832 0.125124
Si Si2 0.451781 0.952583 0.979465
Si Si3 0.949083 0.622948 0.374894
Si Si4 0.954470 0.204129 0.010508
Si Si5 0.551357 0.547210 0.522783
Si Si6 0.048720 0.583594 0.751845
Si Si7 0.547752 0.295618 0.489428
Si Si8 0.453956 0.820449 0.749223
O O1 0.250000 0.624089 0.112662
O O2 0.488443 0.624948 0.251985
O O3 0.512184 0.581342 0.067614
O O4 0.512563 0.664970 0.061154
O O5 0.250000 0.950739 0.979304
O O6 0.512464 0.938049 0.861293
O O7 0.500000 0.000000 0.000000
O O8 0.750000 0.619418 0.370496
O O9 0.016988 0.582365 0.439663
O O10 0.991468 0.664890 0.440929
O O11 0.750000 0.203186 0.009644
O O12 0.005815 0.250000 0.970755
O O13 0.006496 0.198819 0.136174
O O14 0.500000 0.500000 0.500000
O O15 0.750000 0.549089 0.515176
O O16 0.500526 0.560042 0.643494
O O17 0.250000 0.584704 0.756958
O O18 0.992196 0.631408 0.747359
O O19 0.750000 0.296385 0.489579
O O20 0.493924 0.250000 0.530754
O O21 0.492210 0.300316 0.364028
O O22 0.250000 0.818882 0.749336
#
# Coordination Sequence:
#
# PCOD9449230 Si02
#       8
#     8   8   8   8   8   8   8   8
#     4  10  21  38  58  83 115 151 192 239 284 334
#     4  10  22  38  58  86 117 151 190 235 288 343
#     4  11  25  42  58  81 115 156 195 238 291 347
#     4   9  16  29  54  87 117 144 180 229 281 331
#     4  11  25  42  61  86 115 150 196 243 295 350
#     4  10  19  36  62  88 118 151 185 234 293 345
#     4  10  20  35  60  91 117 148 192 236 282 341
#     4   9  15  29  55  87 119 145 176 227 286 334
#
# _framework density 20.229285999999998
#
# number of rings (size 3 to 8) (size 9 to 14) (size 15 to 20)
#    0.000    2.000    2.500    1.125    1.750    4.750 
#    0.000    1.250    0.000    0.750    0.000    0.000 
#    0.000    0.000    0.000    0.000    0.000    0.000 
#
# Total GULP energy -357366.609128 kJ/mol
# GULP energy per Si atom -5583.853268 kJ/mol
# Density = 2.018324 g / cm^3
# Si number density = 20.229286 Si / 1000 Ang^3
#
#
#
# Elastic Constant Matrix: (Units=GPa)
#
#
# Indices 1 2 3 4 5 6 
#
# 1 11.8135 7.1240 1.8614 0.0000 0.0000 0.0000
# 2 7.1240 197.7391 92.8033 0.0000 0.0000 0.0000
# 3 1.8614 92.8033 156.3339 0.0000 0.0000 0.0000
# 4 0.0000 0.0000 0.0000 52.3711 0.0000 0.0000
# 5 0.0000 0.0000 0.0000 0.0000 5.2730 0.0000
# 6 0.0000 0.0000 0.0000 0.0000 0.0000 20.9258
#
#
#
# Elastic Compliance Matrix: (Units=1/GPa)
#
#
# Indices 1 2 3 4 5 6 
#
# 1 0.086675 -0.003657 0.001139 0.000000 0.000000 0.000000
# 2 -0.003657 0.007165 -0.004209 0.000000 0.000000 0.000000
# 3 0.001139 -0.004209 0.008882 0.000000 0.000000 0.000000
# 4 0.000000 0.000000 0.000000 0.019094 0.000000 0.000000
# 5 0.000000 0.000000 0.000000 0.000000 0.189646 0.000000
# 6 0.000000 0.000000 0.000000 0.000000 0.000000 0.047788
#
#
# Mechanical properties :
#
#
# Convention : Reuss Voigt Hill
#
# Bulk Modulus (GPa) = 11.20252 63.27375 37.23814
# Shear Modulus (GPa) = 12.42359 33.32051 22.87205
#
# Velocity S-wave (km/s) = 2.48087 4.06290 3.36615
# Velocity P-wave (km/s) = 3.70892 7.30450 5.79275
#
# Compressibility (1/GPa) = 0.08926564
#
# Stress axis : x y z
#
# Youngs Moduli (GPa) = 11.53740 139.57652 112.58918
#
# Poissons Ratio (x) = 0.51046 -0.12824
# Poissons Ratio (y) = 0.04219 0.47394
# Poissons Ratio (z) = -0.01314 0.58754
#
# Static dielectric constant tensor:
#      x y z
#    x 1.722720 0.000000 0.000000 
#    y 0.000000 1.713810 0.000000 
#    z 0.000000 0.000000 1.690260 
# 
# From -- ./inp_files/14894.got.cif
#   From: 2010.05.17/outbox.cif.g08.bks.cpg/sg59_8_cif.got.tgz:14894.got - 2010.06.03 14:40:33.
