data_PCOD9449726
_publ_section_title
;
Structure prediction by ZEFSAII (Michael W. Deem and Ramdas Pophale) SiO2 
 PCOD9449726
Probable space group: P M M N
;
_chemical_formula_sum "Si O2"
_cell_formula_units_Z 40
_cell_length_a 9.380753
_cell_length_b 7.675374
_cell_length_c 26.752418
_cell_angle_alpha 90.000000
_cell_angle_beta 90.000000
_cell_angle_gamma 90.000000
_cell_volume 1926.195168
_symmetry_space_group_name_H-M "P M M N"
_symmetry_group_IT_number 59
_space_group.IT_coordinate_system_code '2'
_symmetry_cell_setting 'orthorhombic'
loop_
_space_group_symop_operation_xyz
x,y,z
1/2-x,1/2-y,z
1/2+x,-y,-z
-x,1/2+y,-z
-x,-y,-z
1/2+x,1/2+y,-z
1/2-x,y,z
x,1/2-y,z
loop_
_atom_site_type_symbol
_atom_site_label
_atom_site_fract_x
_atom_site_fract_y
_atom_site_fract_z
Si Si1 0.912569 0.542738 0.658406
Si Si2 0.087347 0.959479 0.950079
Si Si3 0.914429 0.536856 0.852739
Si Si4 0.413808 0.536573 0.754099
Si Si5 0.410660 0.543296 0.451163
O O1 0.750000 0.472164 0.660351
O O2 0.902396 0.750000 0.665715
O O3 0.970468 0.514874 0.602482
O O4 0.010699 0.476075 0.703099
O O5 0.250000 0.025460 0.952245
O O6 0.094882 0.750000 0.945932
O O7 0.001781 0.022251 0.901364
O O8 0.000000 0.000000 0.000000
O O9 0.750000 0.480518 0.853968
O O10 0.913560 0.750000 0.853160
O O11 0.994470 0.483180 0.802182
O O12 0.250000 0.480246 0.757551
O O13 0.412625 0.750000 0.753844
O O14 0.500000 0.500000 0.500000
O O15 0.250000 0.469556 0.455359
O O16 0.401059 0.750000 0.448677
#
# Coordination Sequence:
#
# PCOD9449726 Si02
#       5
#     8   8   8   8   8
#     4   9  17  30  48  70  97 128 160 196 242 295
#     4  10  20  33  50  73 101 133 170 212 257 304
#     4   9  16  27  45  69  97 129 164 203 249 299
#     4   9  16  26  43  69  98 125 157 200 246 292
#     4  10  21  36  54  76 102 133 169 208 250 296
#
# _framework density 20.766325999999999
#
# number of rings (size 3 to 8) (size 9 to 14) (size 15 to 20)
#    0.000    2.600    0.000    2.400    0.000    8.000 
#    0.000    2.000    0.000    1.200    0.000    2.800 
#    0.000    0.000    0.000    0.000    0.000    0.000 
#
# Total GULP energy -223327.201184 kJ/mol
# GULP energy per Si atom -5583.180030 kJ/mol
# Density = 2.071906 g / cm^3
# Si number density = 20.766326 Si / 1000 Ang^3
#
#
#
# Elastic Constant Matrix: (Units=GPa)
#
#
# Indices 1 2 3 4 5 6 
#
# 1 183.7394 6.0223 139.7094 0.0000 0.0000 0.0000
# 2 6.0223 36.3576 -0.3869 0.0000 0.0000 0.0000
# 3 139.7094 -0.3869 240.3991 0.0000 0.0000 0.0000
# 4 0.0000 0.0000 0.0000 18.4788 0.0000 0.0000
# 5 0.0000 0.0000 0.0000 0.0000 41.5629 0.0000
# 6 0.0000 0.0000 0.0000 0.0000 0.0000 7.8733
#
#
#
# Elastic Compliance Matrix: (Units=1/GPa)
#
#
# Indices 1 2 3 4 5 6 
#
# 1 0.009855 -0.001693 -0.005730 0.000000 0.000000 0.000000
# 2 -0.001693 0.027796 0.001029 0.000000 0.000000 0.000000
# 3 -0.005730 0.001029 0.007491 0.000000 0.000000 0.000000
# 4 0.000000 0.000000 0.000000 0.054116 0.000000 0.000000
# 5 0.000000 0.000000 0.000000 0.000000 0.024060 0.000000
# 6 0.000000 0.000000 0.000000 0.000000 0.000000 0.127011
#
#
# Mechanical properties :
#
#
# Convention : Reuss Voigt Hill
#
# Bulk Modulus (GPa) = 30.90870 83.46505 57.18688
# Shear Modulus (GPa) = 18.25463 34.59308 26.42385
#
# Velocity S-wave (km/s) = 2.96809 4.08588 3.57099
# Velocity P-wave (km/s) = 5.16357 7.90816 6.67838
#
# Compressibility (1/GPa) = 0.03235335
#
# Stress axis : x y z
#
# Youngs Moduli (GPa) = 101.47298 35.97642 133.48664
#
# Poissons Ratio (x) = 0.06092 0.76487
# Poissons Ratio (y) = 0.17183 -0.13733
# Poissons Ratio (z) = 0.58143 -0.03701
#
# Static dielectric constant tensor:
#      x y z
#    x 1.724300 0.000000 0.000000 
#    y 0.000000 1.788690 0.000000 
#    z 0.000000 0.000000 1.719680 
# 
# From -- ./inp_files/31146.got.cif
#   From: 2010.05.17/outbox.cif.g08.bks.cpg/sg59_16_cif.got.tgz:31146.got - 2010.06.03 14:40:33.
