data_PCOD9449975
_publ_section_title
;
Structure prediction by ZEFSAII (Michael W. Deem and Ramdas Pophale) SiO2 
 PCOD9449975
Probable space group: P M M N
;
_chemical_formula_sum "Si O2"
_cell_formula_units_Z 56
_cell_length_a 14.349655
_cell_length_b 8.211889
_cell_length_c 22.624873
_cell_angle_alpha 90.000000
_cell_angle_beta 90.000000
_cell_angle_gamma 90.000000
_cell_volume 2666.064672
_symmetry_space_group_name_H-M "P M M N"
_symmetry_group_IT_number 59
_space_group.IT_coordinate_system_code '2'
_symmetry_cell_setting 'orthorhombic'
loop_
_space_group_symop_operation_xyz
x,y,z
1/2-x,1/2-y,z
1/2+x,-y,-z
-x,1/2+y,-z
-x,-y,-z
1/2+x,1/2+y,-z
1/2-x,y,z
x,1/2-y,z
loop_
_atom_site_type_symbol
_atom_site_label
_atom_site_fract_x
_atom_site_fract_y
_atom_site_fract_z
Si Si1 0.550060 0.552905 0.087113
Si Si2 0.144155 0.446796 0.034875
Si Si3 0.648397 0.434438 0.651527
Si Si4 0.445686 0.439391 0.786675
Si Si5 0.859355 0.554694 0.335981
Si Si6 0.646453 0.562831 0.778332
Si Si7 0.991722 0.058978 0.433072
O O1 0.551714 0.750000 0.088567
O O2 0.442731 0.501797 0.075160
O O3 0.587997 0.491686 0.150398
O O4 0.612386 0.501059 0.031230
O O5 0.250000 0.502166 0.048725
O O6 0.145466 0.250000 0.036516
O O7 0.750000 0.446794 0.622996
O O8 0.638403 0.250000 0.675388
O O9 0.646291 0.553908 0.706974
O O10 0.569294 0.468487 0.605374
O O11 0.418419 0.250000 0.784491
O O12 0.412197 0.507600 0.723449
O O13 0.556962 0.457170 0.793223
O O14 0.750000 0.525777 0.328539
O O15 0.875055 0.750000 0.340427
O O16 0.897947 0.478155 0.396347
O O17 0.750000 0.507853 0.797565
O O18 0.634030 0.750000 0.797815
O O19 0.009450 0.250000 0.431588
O O20 0.000000 0.000000 0.500000
#
# Coordination Sequence:
#
# PCOD9449975 Si02
#       7
#     8   8   8   8   8   8   8
#     4   9  19  34  53  81 112 147 192 239 286 341
#     4   9  18  34  55  78 109 149 192 240 291 340
#     4  10  20  36  59  85 113 144 181 228 282 338
#     4  10  20  35  57  83 115 152 190 235 289 346
#     4  10  22  41  63  87 117 153 194 240 290 346
#     4  10  20  33  52  80 112 147 184 224 277 340
#     4  12  25  41  63  88 117 153 193 239 289 343
#
# _framework density 21.004740000000002
#
# number of rings (size 3 to 8) (size 9 to 14) (size 15 to 20)
#    0.000    2.000    1.429    2.143    0.000    4.571 
#    0.000    5.714    0.000    0.000    0.000    4.000 
#    0.000    0.000    0.000    0.000    0.000    0.000 
#
# Total GULP energy -312392.773354 kJ/mol
# GULP energy per Si atom -5578.442381 kJ/mol
# Density = 2.095693 g / cm^3
# Si number density = 21.004740 Si / 1000 Ang^3
#
#
#
# Elastic Constant Matrix: (Units=GPa)
#
#
# Indices 1 2 3 4 5 6 
#
# 1 66.3691 4.8092 20.1216 0.0000 0.0000 0.0000
# 2 4.8092 29.4783 1.8106 0.0000 0.0000 0.0000
# 3 20.1216 1.8106 123.6886 0.0000 0.0000 0.0000
# 4 0.0000 0.0000 0.0000 16.1742 0.0000 0.0000
# 5 0.0000 0.0000 0.0000 0.0000 0.4768 0.0000
# 6 0.0000 0.0000 0.0000 0.0000 0.0000 21.1607
#
#
#
# Elastic Compliance Matrix: (Units=1/GPa)
#
#
# Indices 1 2 3 4 5 6 
#
# 1 0.016025 -0.002456 -0.002571 0.000000 0.000000 0.000000
# 2 -0.002456 0.034330 -0.000103 0.000000 0.000000 0.000000
# 3 -0.002571 -0.000103 0.008505 0.000000 0.000000 0.000000
# 4 0.000000 0.000000 0.000000 0.061827 0.000000 0.000000
# 5 0.000000 0.000000 0.000000 0.000000 2.097262 0.000000
# 6 0.000000 0.000000 0.000000 0.000000 0.000000 0.047257
#
#
# Mechanical properties :
#
#
# Convention : Reuss Voigt Hill
#
# Bulk Modulus (GPa) = 20.57652 30.33541 25.45597
# Shear Modulus (GPa) = 2.18182 20.41533 11.29857
#
# Velocity S-wave (km/s) = 1.02029 3.12098 2.32180
# Velocity P-wave (km/s) = 3.34744 5.24031 4.39694
#
# Compressibility (1/GPa) = 0.04859907
#
# Stress axis : x y z
#
# Youngs Moduli (GPa) = 62.40371 29.12876 117.58395
#
# Poissons Ratio (x) = 0.07155 0.30230
# Poissons Ratio (y) = 0.15329 0.01210
# Poissons Ratio (z) = 0.16044 0.00300
#
# Static dielectric constant tensor:
#      x y z
#    x 1.768020 0.000000 0.000000 
#    y 0.000000 1.781590 0.000000 
#    z 0.000000 0.000000 1.737510 
# 
# From -- ./inp_files/30370.got.cif
#   From: 2010.05.17/outbox.cif.g08.bks.cpg/sg59_16_cif.got.tgz:30370.got - 2010.06.03 14:40:33.
