data_PCOD9449766
_publ_section_title
;
Structure prediction by ZEFSAII (Michael W. Deem and Ramdas Pophale) SiO2 
 PCOD9449766
Probable space group: P M M N
;
_chemical_formula_sum "Si O2"
_cell_formula_units_Z 48
_cell_length_a 8.296974
_cell_length_b 14.482561
_cell_length_c 17.168787
_cell_angle_alpha 90.000000
_cell_angle_beta 90.000000
_cell_angle_gamma 90.000000
_cell_volume 2063.026033
_symmetry_space_group_name_H-M "P M M N"
_symmetry_group_IT_number 59
_space_group.IT_coordinate_system_code '2'
_symmetry_cell_setting 'orthorhombic'
loop_
_space_group_symop_operation_xyz
x,y,z
1/2-x,1/2-y,z
1/2+x,-y,-z
-x,1/2+y,-z
-x,-y,-z
1/2+x,1/2+y,-z
1/2-x,y,z
x,1/2-y,z
loop_
_atom_site_type_symbol
_atom_site_label
_atom_site_fract_x
_atom_site_fract_y
_atom_site_fract_z
Si Si1 0.250000 0.363579 0.715046
Si Si2 0.066205 0.137438 0.148636
Si Si3 0.750000 0.637411 0.103600
Si Si4 0.424672 0.853966 0.361215
Si Si5 0.932534 0.138850 0.313399
Si Si6 0.572822 0.362639 0.985489
Si Si7 0.061402 0.101792 0.482442
O O1 0.250000 0.250000 0.706085
O O2 0.250000 0.386359 0.805723
O O3 0.415212 0.397897 0.675281
O O4 0.250000 0.109224 0.133683
O O5 0.065453 0.250000 0.150606
O O6 0.008477 0.103931 0.232898
O O7 0.955799 0.111882 0.075686
O O8 0.750000 0.750000 0.098463
O O9 0.584472 0.606699 0.062293
O O10 0.250000 0.899569 0.348427
O O11 0.415394 0.750000 0.328345
O O12 0.458099 0.845018 0.453141
O O13 0.750000 0.104721 0.322220
O O14 0.926080 0.250000 0.305773
O O15 0.028199 0.121170 0.392516
O O16 0.750000 0.394086 0.958693
O O17 0.573503 0.250000 0.981625
O O18 0.250000 0.115412 0.498580
O O19 0.000000 0.000000 0.500000
#
# Coordination Sequence:
#
# PCOD9449766 Si02
#       7
#     4   8   4   8   8   8   8
#     4   9  18  32  50  73 101 137 176 217 262 307
#     4   9  15  25  41  63  94 134 173 207 247 301
#     4   9  16  26  40  63  97 131 169 211 252 307
#     4  10  20  36  57  79 105 139 179 220 265 317
#     4  10  20  33  50  75 105 139 180 217 255 312
#     4   9  15  23  37  59  92 134 169 202 252 305
#     4  12  24  38  55  76 104 138 174 222 268 317
#
# _framework density 23.266791000000001
#
# number of rings (size 3 to 8) (size 9 to 14) (size 15 to 20)
#    0.000    2.167    1.667    3.000    0.000    5.667 
#    0.000    3.333    0.000    0.000    0.000    0.000 
#    0.000    1.333    0.667    0.000    0.000    0.000 
#
# Total GULP energy -268236.956850 kJ/mol
# GULP energy per Si atom -5588.269934 kJ/mol
# Density = 2.321383 g / cm^3
# Si number density = 23.266791 Si / 1000 Ang^3
#
#
#
# Elastic Constant Matrix: (Units=GPa)
#
#
# Indices 1 2 3 4 5 6 
#
# 1 224.3464 8.3368 81.3883 0.0000 0.0000 0.0000
# 2 8.3368 50.4720 3.3320 0.0000 0.0000 0.0000
# 3 81.3883 3.3320 131.5353 0.0000 0.0000 0.0000
# 4 0.0000 0.0000 0.0000 -10.9026 0.0000 0.0000
# 5 0.0000 0.0000 0.0000 0.0000 5.3564 0.0000
# 6 0.0000 0.0000 0.0000 0.0000 0.0000 8.9552
#
#
#
# Elastic Compliance Matrix: (Units=1/GPa)
#
#
# Indices 1 2 3 4 5 6 
#
# 1 0.005773 -0.000719 -0.003554 0.000000 0.000000 0.000000
# 2 -0.000719 0.019936 -0.000060 0.000000 0.000000 0.000000
# 3 -0.003554 -0.000060 0.009803 0.000000 0.000000 0.000000
# 4 0.000000 0.000000 0.000000 -0.091721 0.000000 0.000000
# 5 0.000000 0.000000 0.000000 0.000000 0.186693 0.000000
# 6 0.000000 0.000000 0.000000 0.000000 0.000000 0.111667
#
#
# Mechanical properties :
#
#
# Convention : Reuss Voigt Hill
#
# Bulk Modulus (GPa) = 37.24977 65.82977 51.53977
# Shear Modulus (GPa) = 19.24803 21.56823 20.40813
#
# Velocity S-wave (km/s) = 2.87936 3.04796 2.96486
# Velocity P-wave (km/s) = 5.20566 6.38292 5.82411
#
# Compressibility (1/GPa) = 0.02684580
#
# Stress axis : x y z
#
# Youngs Moduli (GPa) = 173.20536 50.16131 102.00734
#
# Poissons Ratio (x) = 0.03607 0.36255
# Poissons Ratio (y) = 0.12454 0.00613
# Poissons Ratio (z) = 0.61560 0.00302
#
# Static dielectric constant tensor:
#      x y z
#    x 1.860070 0.000000 0.000000 
#    y 0.000000 1.861500 0.000000 
#    z 0.000000 0.000000 1.849110 
# 
# From -- ./inp_files/20514.got.cif
#   From: 2010.05.17/outbox.cif.g08.bks.cpg/sg59_11_cif.got.tgz:20514.got - 2010.06.03 14:40:33.
