data_PCOD9449245
_publ_section_title
;
Structure prediction by ZEFSAII (Michael W. Deem and Ramdas Pophale) SiO2 
 PCOD9449245
Probable space group: P M M N
;
_chemical_formula_sum "Si O2"
_cell_formula_units_Z 64
_cell_length_a 20.002105
_cell_length_b 18.189354
_cell_length_c 10.046958
_cell_angle_alpha 90.000000
_cell_angle_beta 90.000000
_cell_angle_gamma 90.000000
_cell_volume 3655.338198
_symmetry_space_group_name_H-M "P M M N"
_symmetry_group_IT_number 59
_space_group.IT_coordinate_system_code '2'
_symmetry_cell_setting 'orthorhombic'
loop_
_space_group_symop_operation_xyz
x,y,z
1/2-x,1/2-y,z
1/2+x,-y,-z
-x,1/2+y,-z
-x,-y,-z
1/2+x,1/2+y,-z
1/2-x,y,z
x,1/2-y,z
loop_
_atom_site_type_symbol
_atom_site_label
_atom_site_fract_x
_atom_site_fract_y
_atom_site_fract_z
Si Si1 0.442175 0.662787 0.254002
Si Si2 0.041636 0.164665 0.260541
Si Si3 0.828186 0.446747 0.839768
Si Si4 0.539379 0.423696 0.476147
Si Si5 0.826209 0.590271 0.652492
Si Si6 0.327800 0.456764 0.905436
Si Si7 0.438881 0.163865 0.956504
Si Si8 0.326224 0.503233 0.599284
O O1 0.429269 0.750000 0.266218
O O2 0.378033 0.617816 0.201234
O O3 0.463657 0.627233 0.394029
O O4 0.502764 0.652197 0.150319
O O5 0.026923 0.250000 0.282257
O O6 0.117817 0.146631 0.301910
O O7 0.994814 0.115396 0.351661
O O8 0.034627 0.147736 0.104701
O O9 0.750000 0.424895 0.835149
O O10 0.836504 0.515209 0.737430
O O11 0.843032 0.479961 0.986047
O O12 0.500000 0.500000 0.500000
O O13 0.616399 0.441355 0.444782
O O14 0.750000 0.614827 0.675700
O O15 0.833908 0.567141 0.498196
O O16 0.250000 0.436279 0.927528
O O17 0.376781 0.388927 0.928941
O O18 0.334609 0.483544 0.753739
O O19 0.419472 0.250000 0.953205
O O20 0.250000 0.530002 0.578004
#
# Coordination Sequence:
#
# PCOD9449245 Si02
#       8
#     8   8   8   8   8   8   8   8
#     4  11  24  40  57  84 118 151 190 237 292 348
#     4  11  23  38  56  83 116 152 192 234 286 346
#     4  10  20  37  61  86 111 143 190 241 282 334
#     4  12  22  38  61  87 112 153 193 239 290 341
#     4  10  19  37  59  85 116 144 187 237 282 339
#     4  10  21  37  59  88 116 148 191 236 283 342
#     4  10  23  39  56  82 119 156 190 235 286 342
#     4  10  21  37  59  86 115 145 190 242 287 337
#
# _framework density 17.50864
#
# number of rings (size 3 to 8) (size 9 to 14) (size 15 to 20)
#    0.000    1.500    3.750    1.125    1.750    1.250 
#    0.000    1.250    0.000    3.375    0.000    0.000 
#    0.000    0.000    0.000    0.000    0.000    0.000 
#
# Total GULP energy -357388.027169 kJ/mol
# GULP energy per Si atom -5584.187925 kJ/mol
# Density = 1.746879 g / cm^3
# Si number density = 17.508640 Si / 1000 Ang^3
#
#
#
# Elastic Constant Matrix: (Units=GPa)
#
#
# Indices 1 2 3 4 5 6 
#
# 1 77.8302 45.7213 38.6957 0.0000 0.0000 0.0000
# 2 45.7213 66.6944 46.0844 0.0000 0.0000 0.0000
# 3 38.6957 46.0844 114.4993 0.0000 0.0000 0.0000
# 4 0.0000 0.0000 0.0000 24.9076 0.0000 0.0000
# 5 0.0000 0.0000 0.0000 0.0000 27.4073 0.0000
# 6 0.0000 0.0000 0.0000 0.0000 0.0000 23.1659
#
#
#
# Elastic Compliance Matrix: (Units=1/GPa)
#
#
# Indices 1 2 3 4 5 6 
#
# 1 0.021798 -0.013649 -0.001873 0.000000 0.000000 0.000000
# 2 -0.013649 0.029316 -0.007187 0.000000 0.000000 0.000000
# 3 -0.001873 -0.007187 0.012259 0.000000 0.000000 0.000000
# 4 0.000000 0.000000 0.000000 0.040148 0.000000 0.000000
# 5 0.000000 0.000000 0.000000 0.000000 0.036487 0.000000
# 6 0.000000 0.000000 0.000000 0.000000 0.000000 0.043167
#
#
# Mechanical properties :
#
#
# Convention : Reuss Voigt Hill
#
# Bulk Modulus (GPa) = 55.69189 57.78075 56.73632
# Shear Modulus (GPa) = 21.31486 23.66432 22.48959
#
# Velocity S-wave (km/s) = 3.49290 3.68037 3.58786
# Velocity P-wave (km/s) = 6.93862 7.15074 7.04548
#
# Compressibility (1/GPa) = 0.01795594
#
# Stress axis : x y z
#
# Youngs Moduli (GPa) = 45.87622 34.11068 81.57052
#
# Poissons Ratio (x) = 0.46557 0.15280
# Poissons Ratio (y) = 0.62615 0.58623
# Poissons Ratio (z) = 0.08594 0.24515
#
# Static dielectric constant tensor:
#      x y z
#    x 1.588190 0.000000 0.000000 
#    y 0.000000 1.561930 0.000000 
#    z 0.000000 0.000000 1.604600 
# 
# From -- ./inp_files/11639.got.cif
#   From: 2010.05.17/outbox.cif.g08.bks.cpg/sg59_6_cif.got.tgz:11639.got - 2010.06.03 14:40:33.
