data_PCOD9449954
_publ_section_title
;
Structure prediction by ZEFSAII (Michael W. Deem and Ramdas Pophale) SiO2 
 PCOD9449954
Probable space group: P M M N
;
_chemical_formula_sum "Si O2"
_cell_formula_units_Z 40
_cell_length_a 11.094527
_cell_length_b 18.208861
_cell_length_c 10.263865
_cell_angle_alpha 90.000000
_cell_angle_beta 90.000000
_cell_angle_gamma 90.000000
_cell_volume 2073.492664
_symmetry_space_group_name_H-M "P M M N"
_symmetry_group_IT_number 59
_space_group.IT_coordinate_system_code '2'
_symmetry_cell_setting 'orthorhombic'
loop_
_space_group_symop_operation_xyz
x,y,z
1/2-x,1/2-y,z
1/2+x,-y,-z
-x,1/2+y,-z
-x,-y,-z
1/2+x,1/2+y,-z
1/2-x,y,z
x,1/2-y,z
loop_
_atom_site_type_symbol
_atom_site_label
_atom_site_fract_x
_atom_site_fract_y
_atom_site_fract_z
Si Si1 0.383906 0.336303 0.422398
Si Si2 0.894829 0.832234 0.143305
Si Si3 0.119727 0.926044 0.510495
Si Si4 0.509834 0.522721 0.276133
Si Si5 0.611516 0.602032 0.866314
O O1 0.250000 0.362781 0.465938
O O2 0.388914 0.250000 0.448812
O O3 0.501256 0.375291 0.480635
O O4 0.391146 0.351246 0.267121
O O5 0.750000 0.833444 0.158519
O O6 0.936639 0.750000 0.177981
O O7 0.949464 0.898738 0.225184
O O8 0.921987 0.850383 0.991926
O O9 0.250000 0.889228 0.516315
O O10 0.103426 0.968562 0.374309
O O11 0.106182 0.982312 0.630850
O O12 0.472871 0.467734 0.160996
O O13 0.750000 0.577510 0.886306
#
# Coordination Sequence:
#
# PCOD9449954 Si02
#       5
#     8   8   8   8   8
#     4   9  18  33  54  80 110 143 179 222 269 315
#     4  10  20  33  52  79 107 134 169 216 267 318
#     4  10  21  35  53  78 108 144 185 224 263 313
#     4  10  20  34  53  75 106 140 177 219 265 315
#     4   9  17  32  55  79 102 133 176 220 261 312
#
# _framework density 19.291122000000001
#
# number of rings (size 3 to 8) (size 9 to 14) (size 15 to 20)
#    0.000    2.400    0.000    2.400    0.000    9.200 
#    0.000    2.000    0.000    3.000    0.000    0.000 
#    0.000    0.000    0.000    0.000    0.000    0.000 
#
# Total GULP energy -223115.122362 kJ/mol
# GULP energy per Si atom -5577.878059 kJ/mol
# Density = 1.924721 g / cm^3
# Si number density = 19.291122 Si / 1000 Ang^3
#
#
#
# Elastic Constant Matrix: (Units=GPa)
#
#
# Indices 1 2 3 4 5 6 
#
# 1 110.3828 41.9349 14.7362 0.0000 0.0000 0.0000
# 2 41.9349 109.9123 6.2633 0.0000 0.0000 0.0000
# 3 14.7362 6.2633 36.1851 0.0000 0.0000 0.0000
# 4 0.0000 0.0000 0.0000 15.8062 0.0000 0.0000
# 5 0.0000 0.0000 0.0000 0.0000 5.7145 0.0000
# 6 0.0000 0.0000 0.0000 0.0000 0.0000 25.8098
#
#
#
# Elastic Compliance Matrix: (Units=1/GPa)
#
#
# Indices 1 2 3 4 5 6 
#
# 1 0.011095 -0.004015 -0.003823 0.000000 0.000000 0.000000
# 2 -0.004015 0.010642 -0.000207 0.000000 0.000000 0.000000
# 3 -0.003823 -0.000207 0.029229 0.000000 0.000000 0.000000
# 4 0.000000 0.000000 0.000000 0.063266 0.000000 0.000000
# 5 0.000000 0.000000 0.000000 0.000000 0.174995 0.000000
# 6 0.000000 0.000000 0.000000 0.000000 0.000000 0.038745
#
#
# Mechanical properties :
#
#
# Convention : Reuss Voigt Hill
#
# Bulk Modulus (GPa) = 28.67418 42.48321 35.57869
# Shear Modulus (GPa) = 14.05727 22.36915 18.21321
#
# Velocity S-wave (km/s) = 2.70236 3.40892 3.07599
# Velocity P-wave (km/s) = 4.96318 6.12897 5.57662
#
# Compressibility (1/GPa) = 0.03487458
#
# Stress axis : x y z
#
# Youngs Moduli (GPa) = 90.12873 93.96815 34.21312
#
# Poissons Ratio (x) = 0.37731 0.13081
# Poissons Ratio (y) = 0.36189 0.00707
# Poissons Ratio (z) = 0.34460 0.01943
#
# Static dielectric constant tensor:
#      x y z
#    x 1.670740 0.000000 0.000000 
#    y 0.000000 1.691140 0.000000 
#    z 0.000000 0.000000 1.694570 
# 
# From -- ./inp_files/7133.got.cif
#   From: 2010.05.17/outbox.cif.g08.bks.cpg/sg59_4_cif.got.tgz:7133.got - 2010.06.03 14:40:33.
