data_PCOD9449674
_publ_section_title
;
Structure prediction by ZEFSAII (Michael W. Deem and Ramdas Pophale) SiO2 
 PCOD9449674
Probable space group: P M M N
;
_chemical_formula_sum "Si O2"
_cell_formula_units_Z 64
_cell_length_a 8.858821
_cell_length_b 23.847475
_cell_length_c 19.611718
_cell_angle_alpha 90.000000
_cell_angle_beta 90.000000
_cell_angle_gamma 90.000000
_cell_volume 4143.181592
_symmetry_space_group_name_H-M "P M M N"
_symmetry_group_IT_number 59
_space_group.IT_coordinate_system_code '2'
_symmetry_cell_setting 'orthorhombic'
loop_
_space_group_symop_operation_xyz
x,y,z
1/2-x,1/2-y,z
1/2+x,-y,-z
-x,1/2+y,-z
-x,-y,-z
1/2+x,1/2+y,-z
1/2-x,y,z
x,1/2-y,z
loop_
_atom_site_type_symbol
_atom_site_label
_atom_site_fract_x
_atom_site_fract_y
_atom_site_fract_z
Si Si1 0.931019 0.127883 0.251895
Si Si2 0.432231 0.314943 0.118574
Si Si3 0.931500 0.314952 0.396441
Si Si4 0.568736 0.913367 0.980044
Si Si5 0.570068 0.981111 0.392616
Si Si6 0.070090 0.414822 0.473441
Si Si7 0.931279 0.025660 0.897727
Si Si8 0.068731 0.496806 0.252605
O O1 0.750000 0.122814 0.248125
O O2 0.969462 0.160231 0.321825
O O3 0.992627 0.161860 0.187239
O O4 0.003951 0.066325 0.252656
O O5 0.250000 0.319337 0.125913
O O6 0.470563 0.250000 0.107338
O O7 0.477149 0.355866 0.056530
O O8 0.750000 0.318617 0.403741
O O9 0.975605 0.250000 0.401097
O O10 0.009157 0.354559 0.451917
O O11 0.750000 0.913913 0.985485
O O12 0.499982 0.927222 0.053447
O O13 0.524723 0.965378 0.930579
O O14 0.750000 0.985712 0.384825
O O15 0.536362 0.933796 0.449165
O O16 0.508087 0.039012 0.424853
O O17 0.494029 0.973063 0.319647
O O18 0.250000 0.418138 0.463711
O O19 0.750000 0.029049 0.900869
O O20 0.976726 0.025473 0.818784
O O21 0.250000 0.493959 0.254966
#
# Coordination Sequence:
#
# PCOD9449674 Si02
#       8
#     8   8   8   8   8   8   8   8
#     4  11  21  32  47  69  99 133 168 200 234 278
#     4  10  20  34  50  68  95 131 167 202 237 278
#     4  10  21  35  49  68  98 133 168 205 241 280
#     4   9  17  31  47  67  93 123 160 198 237 282
#     4  10  20  33  49  72  99 126 160 200 244 291
#     4  10  20  33  50  71  96 128 165 203 241 285
#     4   9  18  31  47  68  95 122 155 197 239 284
#     4  11  20  32  50  73  99 128 162 197 241 292
#
# _framework density 15.447067000000001
#
# number of rings (size 3 to 8) (size 9 to 14) (size 15 to 20)
#    0.000    2.000    2.500    1.875    0.000    4.500 
#    0.000    0.000    0.000    0.000    0.000    0.875 
#    0.000    3.000    0.000    0.000    0.000    0.000 
#
# Total GULP energy -357112.854897 kJ/mol
# GULP energy per Si atom -5579.888358 kJ/mol
# Density = 1.541191 g / cm^3
# Si number density = 15.447067 Si / 1000 Ang^3
#
#
#
# Elastic Constant Matrix: (Units=GPa)
#
#
# Indices 1 2 3 4 5 6 
#
# 1 32.3101 34.6701 48.2159 0.0000 0.0000 0.0000
# 2 34.6701 91.5192 69.9172 0.0000 0.0000 0.0000
# 3 48.2159 69.9172 146.3663 0.0000 0.0000 0.0000
# 4 0.0000 0.0000 0.0000 19.3427 0.0000 0.0000
# 5 0.0000 0.0000 0.0000 0.0000 29.1923 0.0000
# 6 0.0000 0.0000 0.0000 0.0000 0.0000 21.0281
#
#
#
# Elastic Compliance Matrix: (Units=1/GPa)
#
#
# Indices 1 2 3 4 5 6 
#
# 1 0.070940 -0.014205 -0.016583 0.000000 0.000000 0.000000
# 2 -0.014205 0.020050 -0.004898 0.000000 0.000000 0.000000
# 3 -0.016583 -0.004898 0.014635 0.000000 0.000000 0.000000
# 4 0.000000 0.000000 0.000000 0.051699 0.000000 0.000000
# 5 0.000000 0.000000 0.000000 0.000000 0.034256 0.000000
# 6 0.000000 0.000000 0.000000 0.000000 0.000000 0.047555
#
#
# Mechanical properties :
#
#
# Convention : Reuss Voigt Hill
#
# Bulk Modulus (GPa) = 29.19582 63.97801 46.58692
# Shear Modulus (GPa) = 15.53158 21.73878 18.63518
#
# Velocity S-wave (km/s) = 3.17436 3.75548 3.47708
# Velocity P-wave (km/s) = 5.69008 7.76610 6.80769
#
# Compressibility (1/GPa) = 0.03425147
#
# Stress axis : x y z
#
# Youngs Moduli (GPa) = 14.09649 49.87550 68.32985
#
# Poissons Ratio (x) = 0.70847 1.13314
# Poissons Ratio (y) = 0.20024 0.33470
# Poissons Ratio (z) = 0.23377 0.24430
#
# Static dielectric constant tensor:
#      x y z
#    x 1.518490 0.000000 0.000000 
#    y 0.000000 1.494010 0.000000 
#    z 0.000000 0.000000 1.515520 
# 
# From -- ./inp_files/26545.got.cif
#   From: 2010.05.17/outbox.cif.g08.bks.cpg/sg59_14_cif.got.tgz:26545.got - 2010.06.03 14:40:33.
