data_PCOD9449057
_publ_section_title
;
Structure prediction by ZEFSAII (Michael W. Deem and Ramdas Pophale) SiO2 
 PCOD9449057
Probable space group: P M M N
;
_chemical_formula_sum "Si O2"
_cell_formula_units_Z 48
_cell_length_a 10.538795
_cell_length_b 15.072566
_cell_length_c 14.578922
_cell_angle_alpha 90.000000
_cell_angle_beta 90.000000
_cell_angle_gamma 90.000000
_cell_volume 2315.813404
_symmetry_space_group_name_H-M "P M M N"
_symmetry_group_IT_number 59
_space_group.IT_coordinate_system_code '2'
_symmetry_cell_setting 'orthorhombic'
loop_
_space_group_symop_operation_xyz
x,y,z
1/2-x,1/2-y,z
1/2+x,-y,-z
-x,1/2+y,-z
-x,-y,-z
1/2+x,1/2+y,-z
1/2-x,y,z
x,1/2-y,z
loop_
_atom_site_type_symbol
_atom_site_label
_atom_site_fract_x
_atom_site_fract_y
_atom_site_fract_z
Si Si1 0.511030 0.648270 0.840642
Si Si2 0.750000 0.108517 0.068488
Si Si3 0.601800 0.358101 0.548116
Si Si4 0.250000 0.082811 0.843836
Si Si5 0.250000 0.355805 0.049820
Si Si6 0.898205 0.141311 0.344391
Si Si7 0.000450 0.857658 0.259283
Si Si8 0.250000 0.642324 0.142033
O O1 0.548009 0.750000 0.821237
O O2 0.381030 0.651779 0.898356
O O3 0.623873 0.607374 0.900564
O O4 0.479406 0.607405 0.741406
O O5 0.750000 0.017049 0.122385
O O6 0.750000 0.101602 0.959160
O O7 0.750000 0.382851 0.559809
O O8 0.599578 0.250000 0.548406
O O9 0.559740 0.386236 0.446276
O O10 0.522190 0.387449 0.635854
O O11 0.374428 0.105513 0.786415
O O12 0.250000 0.132440 0.941302
O O13 0.250000 0.250000 0.061712
O O14 0.750000 0.116680 0.332253
O O15 0.899911 0.250000 0.342012
O O16 0.992028 0.750000 0.259176
O O17 0.124488 0.880808 0.199435
O O18 0.250000 0.750000 0.130006
#
# Coordination Sequence:
#
# PCOD9449057 Si02
#       8
#     8   4   8   4   4   8   8   4
#     4  10  19  35  58  84 108 137 173 216 269 319
#     4  12  24  36  53  76 104 140 187 232 253 312
#     4   8  13  25  50  85 112 129 162 215 266 311
#     4  12  26  38  49  72 108 152 183 218 271 314
#     4  10  22  38  55  76 108 142 177 220 273 324
#     4   8  13  24  49  85 114 131 158 207 266 316
#     4  10  19  35  56  79 107 139 178 220 266 317
#     4  10  20  34  57  82 100 128 179 232 267 312
#
# _framework density 20.727059000000001
#
# number of rings (size 3 to 8) (size 9 to 14) (size 15 to 20)
#    0.000    2.333    1.667    3.500    0.000    5.333 
#    0.000    0.833    0.000    5.000    0.000    0.000 
#    0.000    0.000    0.000    0.000    0.000    0.000 
#
# Total GULP energy -267940.463326 kJ/mol
# GULP energy per Si atom -5582.092986 kJ/mol
# Density = 2.067988 g / cm^3
# Si number density = 20.727059 Si / 1000 Ang^3
#
#
#
# Elastic Constant Matrix: (Units=GPa)
#
#
# Indices 1 2 3 4 5 6 
#
# 1 141.2093 11.0022 89.1035 0.0000 0.0000 0.0000
# 2 11.0022 25.4794 9.5487 0.0000 0.0000 0.0000
# 3 89.1035 9.5487 191.5288 0.0000 0.0000 0.0000
# 4 0.0000 0.0000 0.0000 -1.7341 0.0000 0.0000
# 5 0.0000 0.0000 0.0000 0.0000 23.8810 0.0000
# 6 0.0000 0.0000 0.0000 0.0000 0.0000 -2.4248
#
#
#
# Elastic Compliance Matrix: (Units=1/GPa)
#
#
# Indices 1 2 3 4 5 6 
#
# 1 0.010200 -0.002676 -0.004612 0.000000 0.000000 0.000000
# 2 -0.002676 0.040697 -0.000784 0.000000 0.000000 0.000000
# 3 -0.004612 -0.000784 0.007406 0.000000 0.000000 0.000000
# 4 0.000000 0.000000 0.000000 -0.576672 0.000000 0.000000
# 5 0.000000 0.000000 0.000000 0.000000 0.041874 0.000000
# 6 0.000000 0.000000 0.000000 0.000000 0.000000 -0.412408
#
#
# Mechanical properties :
#
#
# Convention : Reuss Voigt Hill
#
# Bulk Modulus (GPa) = 23.71990 64.16958 43.94474
# Shear Modulus (GPa) = -5.82272 20.51530 7.34629
#
# Velocity S-wave (km/s) = -1.67790 3.14950 1.88467
# Velocity P-wave (km/s) = 2.77759 6.65224 5.09742
#
# Compressibility (1/GPa) = 0.04215869
#
# Stress axis : x y z
#
# Youngs Moduli (GPa) = 98.03527 24.57201 135.02836
#
# Poissons Ratio (x) = 0.06576 0.62276
# Poissons Ratio (y) = 0.26236 0.10585
# Poissons Ratio (z) = 0.45214 0.01926
#
# Static dielectric constant tensor:
#      x y z
#    x 1.716350 0.000000 0.000000 
#    y 0.000000 4.905940 0.000000 
#    z 0.000000 0.000000 1.747660 
# 
# From -- ./inp_files/20636.got.cif
#   From: 2010.05.17/outbox.cif.g08.bks.cpg/sg59_11_cif.got.tgz:20636.got - 2010.06.03 14:40:33.
