data_PCOD9449865
_publ_section_title
;
Structure prediction by ZEFSAII (Michael W. Deem and Ramdas Pophale) SiO2 
 PCOD9449865
Probable space group: P M M N
;
_chemical_formula_sum "Si O2"
_cell_formula_units_Z 64
_cell_length_a 8.791266
_cell_length_b 19.461715
_cell_length_c 21.277199
_cell_angle_alpha 90.000000
_cell_angle_beta 90.000000
_cell_angle_gamma 90.000000
_cell_volume 3640.382221
_symmetry_space_group_name_H-M "P M M N"
_symmetry_group_IT_number 59
_space_group.IT_coordinate_system_code '2'
_symmetry_cell_setting 'orthorhombic'
loop_
_space_group_symop_operation_xyz
x,y,z
1/2-x,1/2-y,z
1/2+x,-y,-z
-x,1/2+y,-z
-x,-y,-z
1/2+x,1/2+y,-z
1/2-x,y,z
x,1/2-y,z
loop_
_atom_site_type_symbol
_atom_site_label
_atom_site_fract_x
_atom_site_fract_y
_atom_site_fract_z
Si Si1 0.932990 0.076239 0.997379
Si Si2 0.435099 0.828763 0.887235
Si Si3 0.433532 0.169897 0.888289
Si Si4 0.067393 0.420544 0.364522
Si Si5 0.932440 0.923051 0.497325
Si Si6 0.066885 0.670445 0.745466
Si Si7 0.932312 0.830499 0.256579
Si Si8 0.068373 0.918902 0.368042
O O1 0.750000 0.072966 0.997198
O O2 0.989622 0.118616 0.936968
O O3 0.984108 0.119331 0.058816
O O4 0.000000 0.000000 0.000000
O O5 0.250000 0.828186 0.887421
O O6 0.483691 0.750000 0.899721
O O7 0.482593 0.848344 0.816502
O O8 0.250000 0.165058 0.893403
O O9 0.474701 0.250000 0.900586
O O10 0.474197 0.153708 0.815795
O O11 0.250000 0.418337 0.360034
O O12 0.025888 0.392808 0.434294
O O13 0.021698 0.500900 0.360911
O O14 0.997826 0.377639 0.308240
O O15 0.750000 0.926286 0.493568
O O16 0.997516 0.891494 0.433407
O O17 0.000000 0.000000 0.500000
O O18 0.250000 0.667071 0.744151
O O19 0.023109 0.750000 0.735153
O O20 0.750000 0.839187 0.261926
O O21 0.966175 0.750000 0.267073
O O22 0.013161 0.876666 0.308165
O O23 0.250000 0.917027 0.373386
#
# Coordination Sequence:
#
# PCOD9449865 Si02
#       8
#     8   8   8   8   8   8   8   8
#     4  11  22  35  53  78 108 139 172 214 261 307
#     4   8  16  33  54  73  95 128 170 209 246 296
#     4   9  19  37  58  78 103 136 174 215 259 312
#     4   9  19  33  49  73 103 132 164 204 252 305
#     4   9  17  31  50  72 100 135 173 212 255 306
#     4   9  18  33  53  75  97 125 166 211 249 292
#     4   9  19  36  56  77 103 137 174 211 257 314
#     4  10  20  33  51  77 105 133 171 217 258 302
#
# _framework density 17.580570999999999
#
# number of rings (size 3 to 8) (size 9 to 14) (size 15 to 20)
#    0.000    2.750    0.000    3.750    0.000    5.750 
#    0.000    6.875    0.000    2.250    0.000    0.000 
#    0.000    0.000    0.000    0.000    0.000    0.000 
#
# Total GULP energy -356765.979487 kJ/mol
# GULP energy per Si atom -5574.468429 kJ/mol
# Density = 1.754056 g / cm^3
# Si number density = 17.580571 Si / 1000 Ang^3
#
#
#
# Elastic Constant Matrix: (Units=GPa)
#
#
# Indices 1 2 3 4 5 6 
#
# 1 32.6602 38.6564 53.5425 0.0000 0.0000 0.0000
# 2 38.6564 89.8055 107.3555 0.0000 0.0000 0.0000
# 3 53.5425 107.3555 189.3547 0.0000 0.0000 0.0000
# 4 0.0000 0.0000 0.0000 38.3244 0.0000 0.0000
# 5 0.0000 0.0000 0.0000 0.0000 33.6460 0.0000
# 6 0.0000 0.0000 0.0000 0.0000 0.0000 27.9201
#
#
#
# Elastic Compliance Matrix: (Units=1/GPa)
#
#
# Indices 1 2 3 4 5 6 
#
# 1 0.066051 -0.018944 -0.007936 0.000000 0.000000 0.000000
# 2 -0.018944 0.039988 -0.017315 0.000000 0.000000 0.000000
# 3 -0.007936 -0.017315 0.017342 0.000000 0.000000 0.000000
# 4 0.000000 0.000000 0.000000 0.026093 0.000000 0.000000
# 5 0.000000 0.000000 0.000000 0.000000 0.029721 0.000000
# 6 0.000000 0.000000 0.000000 0.000000 0.000000 0.035816
#
#
# Mechanical properties :
#
#
# Convention : Reuss Voigt Hill
#
# Bulk Modulus (GPa) = 28.57909 78.99213 53.78561
# Shear Modulus (GPa) = 15.86972 27.46250 21.66611
#
# Velocity S-wave (km/s) = 3.00773 3.95662 3.51435
# Velocity P-wave (km/s) = 5.32478 8.11802 6.86496
#
# Compressibility (1/GPa) = 0.03499061
#
# Stress axis : x y z
#
# Youngs Moduli (GPa) = 15.13977 25.00758 57.66416
#
# Poissons Ratio (x) = 0.47375 0.45764
# Poissons Ratio (y) = 0.28681 0.99843
# Poissons Ratio (z) = 0.12015 0.43300
#
# Static dielectric constant tensor:
#      x y z
#    x 1.594080 0.000000 0.000000 
#    y 0.000000 1.582250 0.000000 
#    z 0.000000 0.000000 1.610840 
# 
# From -- ./inp_files/29411.got.cif
#   From: 2010.05.17/outbox.cif.g08.bks.cpg/sg59_15_cif.got.tgz:29411.got - 2010.06.03 14:40:33.
