data_PCOD9449872
_publ_section_title
;
Structure prediction by ZEFSAII (Michael W. Deem and Ramdas Pophale) SiO2 
 PCOD9449872
Probable space group: P M M N
;
_chemical_formula_sum "Si O2"
_cell_formula_units_Z 64
_cell_length_a 7.774149
_cell_length_b 14.235954
_cell_length_c 28.387636
_cell_angle_alpha 90.000000
_cell_angle_beta 90.000000
_cell_angle_gamma 90.000000
_cell_volume 3141.728589
_symmetry_space_group_name_H-M "P M M N"
_symmetry_group_IT_number 59
_space_group.IT_coordinate_system_code '2'
_symmetry_cell_setting 'orthorhombic'
loop_
_space_group_symop_operation_xyz
x,y,z
1/2-x,1/2-y,z
1/2+x,-y,-z
-x,1/2+y,-z
-x,-y,-z
1/2+x,1/2+y,-z
1/2-x,y,z
x,1/2-y,z
loop_
_atom_site_type_symbol
_atom_site_label
_atom_site_fract_x
_atom_site_fract_y
_atom_site_fract_z
Si Si1 0.044984 0.644512 0.365302
Si Si2 0.041708 0.357644 0.370640
Si Si3 0.044294 0.393067 0.011556
Si Si4 0.454812 0.066539 0.113292
Si Si5 0.546825 0.355952 0.213686
Si Si6 0.041560 0.148911 0.908693
Si Si7 0.455588 0.996727 0.445454
Si Si8 0.944948 0.495514 0.289703
O O1 0.250000 0.650875 0.371623
O O2 0.974643 0.750000 0.362740
O O3 0.976795 0.585676 0.410594
O O4 0.019539 0.584982 0.317385
O O5 0.250000 0.366436 0.364532
O O6 0.995139 0.250000 0.369338
O O7 0.994598 0.406908 0.419571
O O8 0.953060 0.415133 0.329444
O O9 0.250000 0.377049 0.013253
O O10 0.979609 0.383326 0.065057
O O11 0.981946 0.346480 0.963397
O O12 0.000000 0.500000 0.000000
O O13 0.250000 0.078984 0.114461
O O14 0.529188 0.114266 0.159569
O O15 0.486985 0.953302 0.110985
O O16 0.750000 0.351703 0.225406
O O17 0.476597 0.250000 0.221862
O O18 0.472323 0.441384 0.245268
O O19 0.250000 0.146265 0.908356
O O20 0.989600 0.250000 0.886427
O O21 0.250000 0.989922 0.443218
O O22 0.500000 0.000000 0.500000
O O23 0.750000 0.521325 0.277152
#
# Coordination Sequence:
#
# PCOD9449872 Si02
#       8
#     8   8   8   8   8   8   8   8
#     4   9  19  37  58  78 105 142 179 215 259 310
#     4   9  18  33  52  73 100 135 171 207 251 303
#     4   8  15  28  46  69  97 129 166 208 250 293
#     4  10  20  33  51  77 107 135 168 214 260 304
#     4  10  22  39  56  75 103 137 168 203 255 317
#     4   9  17  31  52  74 100 139 178 209 250 304
#     4   9  18  31  47  72 106 141 175 211 252 298
#     4  10  20  35  56  81 105 128 164 215 261 303
#
# _framework density 20.370951000000002
#
# number of rings (size 3 to 8) (size 9 to 14) (size 15 to 20)
#    0.000    2.750    0.000    1.875    0.000    6.000 
#    0.000    1.875    0.000    0.750    0.000    0.000 
#    0.000    0.000    0.000    0.000    0.000    0.000 
#
# Total GULP energy -356303.647479 kJ/mol
# GULP energy per Si atom -5567.244492 kJ/mol
# Density = 2.032459 g / cm^3
# Si number density = 20.370951 Si / 1000 Ang^3
#
#
#
# Elastic Constant Matrix: (Units=GPa)
#
#
# Indices 1 2 3 4 5 6 
#
# 1 24.4446 3.6980 -6.4611 0.0000 0.0000 0.0000
# 2 3.6980 111.7792 12.1314 0.0000 0.0000 0.0000
# 3 -6.4611 12.1314 84.9458 0.0000 0.0000 0.0000
# 4 0.0000 0.0000 0.0000 11.6992 0.0000 0.0000
# 5 0.0000 0.0000 0.0000 0.0000 22.4466 0.0000
# 6 0.0000 0.0000 0.0000 0.0000 0.0000 13.9726
#
#
#
# Elastic Compliance Matrix: (Units=1/GPa)
#
#
# Indices 1 2 3 4 5 6 
#
# 1 0.042089 -0.001767 0.003454 0.000000 0.000000 0.000000
# 2 -0.001767 0.009161 -0.001443 0.000000 0.000000 0.000000
# 3 0.003454 -0.001443 0.012241 0.000000 0.000000 0.000000
# 4 0.000000 0.000000 0.000000 0.085476 0.000000 0.000000
# 5 0.000000 0.000000 0.000000 0.000000 0.044550 0.000000
# 6 0.000000 0.000000 0.000000 0.000000 0.000000 0.071569
#
#
# Mechanical properties :
#
#
# Convention : Reuss Voigt Hill
#
# Bulk Modulus (GPa) = 15.63018 26.65622 21.14320
# Shear Modulus (GPa) = 17.48712 23.74377 20.61544
#
# Velocity S-wave (km/s) = 2.93308 3.41775 3.18465
# Velocity P-wave (km/s) = 4.37722 5.35616 4.89125
#
# Compressibility (1/GPa) = 0.06397880
#
# Stress axis : x y z
#
# Youngs Moduli (GPa) = 23.75910 109.15529 81.69299
#
# Poissons Ratio (x) = 0.19291 -0.28215
# Poissons Ratio (y) = 0.04199 0.11786
# Poissons Ratio (z) = -0.08206 0.15749
#
# Static dielectric constant tensor:
#      x y z
#    x 1.752440 0.000000 0.000000 
#    y 0.000000 1.755760 0.000000 
#    z 0.000000 0.000000 1.736420 
# 
# From -- ./inp_files/31627.got.cif
#   From: 2010.05.17/outbox.cif.g08.bks.cpg/sg59_16_cif.got.tgz:31627.got - 2010.06.03 14:40:33.
