data_PCOD9449516
_publ_section_title
;
Structure prediction by ZEFSAII (Michael W. Deem and Ramdas Pophale) SiO2 
 PCOD9449516
Probable space group: P M M N
;
_chemical_formula_sum "Si O2"
_cell_formula_units_Z 48
_cell_length_a 24.088594
_cell_length_b 7.464478
_cell_length_c 11.562809
_cell_angle_alpha 90.000000
_cell_angle_beta 90.000000
_cell_angle_gamma 90.000000
_cell_volume 2079.094579
_symmetry_space_group_name_H-M "P M M N"
_symmetry_group_IT_number 59
_space_group.IT_coordinate_system_code '2'
_symmetry_cell_setting 'orthorhombic'
loop_
_space_group_symop_operation_xyz
x,y,z
1/2-x,1/2-y,z
1/2+x,-y,-z
-x,1/2+y,-z
-x,-y,-z
1/2+x,1/2+y,-z
1/2-x,y,z
x,1/2-y,z
loop_
_atom_site_type_symbol
_atom_site_label
_atom_site_fract_x
_atom_site_fract_y
_atom_site_fract_z
Si Si1 0.620319 0.040652 0.065880
Si Si2 0.409099 0.537460 0.311070
Si Si3 0.686418 0.965365 0.300544
Si Si4 0.419723 0.541473 0.562715
Si Si5 0.520534 0.465865 0.207096
Si Si6 0.186635 0.969986 0.156094
O O1 0.611708 0.250000 0.039547
O O2 0.560294 0.966000 0.104686
O O3 0.658862 0.026798 0.179962
O O4 0.654061 0.966202 0.958075
O O5 0.403440 0.750000 0.327421
O O6 0.427310 0.461744 0.435417
O O7 0.456077 0.509864 0.214048
O O8 0.350367 0.471478 0.264552
O O9 0.750000 0.026278 0.311219
O O10 0.685991 0.750000 0.300831
O O11 0.644781 0.029040 0.400600
O O12 0.435808 0.750000 0.557767
O O13 0.453499 0.464182 0.671367
O O14 0.525688 0.250000 0.206540
O O15 0.250000 0.029062 0.157943
O O16 0.187421 0.750000 0.154337
#
# Coordination Sequence:
#
# PCOD9449516 Si02
#       6
#     8   8   8   8   8   8
#     4   9  18  34  55  76  99 132 172 208 249 303
#     4  10  20  33  52  78 103 132 171 209 249 300
#     4  10  20  32  49  76 105 131 166 215 264 304
#     4   9  19  34  51  73 102 137 175 210 248 301
#     4   9  18  32  50  74 102 132 168 210 255 301
#     4   9  18  33  53  76 102 133 170 211 249 290
#
# _framework density 23.086974000000001
#
# number of rings (size 3 to 8) (size 9 to 14) (size 15 to 20)
#    0.000    2.667    0.000    2.500    0.000    6.667 
#    0.000    2.500    0.000    1.500    0.000    0.000 
#    0.000    0.000    0.000    0.000    0.000    0.000 
#
# Total GULP energy -268059.324454 kJ/mol
# GULP energy per Si atom -5584.569259 kJ/mol
# Density = 2.303443 g / cm^3
# Si number density = 23.086974 Si / 1000 Ang^3
#
#
#
# Elastic Constant Matrix: (Units=GPa)
#
#
# Indices 1 2 3 4 5 6 
#
# 1 96.7755 -10.8355 24.1646 0.0000 0.0000 0.0000
# 2 -10.8355 71.8479 10.5570 0.0000 0.0000 0.0000
# 3 24.1646 10.5570 32.9850 0.0000 0.0000 0.0000
# 4 0.0000 0.0000 0.0000 1.8113 0.0000 0.0000
# 5 0.0000 0.0000 0.0000 0.0000 17.9181 0.0000
# 6 0.0000 0.0000 0.0000 0.0000 0.0000 11.4640
#
#
#
# Elastic Compliance Matrix: (Units=1/GPa)
#
#
# Indices 1 2 3 4 5 6 
#
# 1 0.013507 0.003663 -0.011067 0.000000 0.000000 0.000000
# 2 0.003663 0.015599 -0.007676 0.000000 0.000000 0.000000
# 3 -0.011067 -0.007676 0.040881 0.000000 0.000000 0.000000
# 4 0.000000 0.000000 0.000000 0.552082 0.000000 0.000000
# 5 0.000000 0.000000 0.000000 0.000000 0.055809 0.000000
# 6 0.000000 0.000000 0.000000 0.000000 0.000000 0.087230
#
#
# Mechanical properties :
#
#
# Convention : Reuss Voigt Hill
#
# Bulk Modulus (GPa) = 25.10899 27.70896 26.40898
# Shear Modulus (GPa) = 6.18396 18.08684 12.13540
#
# Velocity S-wave (km/s) = 1.63840 2.80200 2.29517
# Velocity P-wave (km/s) = 3.80507 4.74303 4.29971
#
# Compressibility (1/GPa) = 0.03982637
#
# Stress axis : x y z
#
# Youngs Moduli (GPa) = 74.03651 64.10823 24.46096
#
# Poissons Ratio (x) = -0.23484 0.27072
# Poissons Ratio (y) = -0.27121 0.18776
# Poissons Ratio (z) = 0.81939 0.49210
#
# Static dielectric constant tensor:
#      x y z
#    x 1.853260 0.000000 0.000000 
#    y 0.000000 1.852280 0.000000 
#    z 0.000000 0.000000 1.872830 
# 
# From -- ./inp_files/14301.got.cif
#   From: 2010.05.17/outbox.cif.g08.bks.cpg/sg59_8_cif.got.tgz:14301.got - 2010.06.03 14:40:33.
