data_PCOD9449381
_publ_section_title
;
Structure prediction by ZEFSAII (Michael W. Deem and Ramdas Pophale) SiO2 
 PCOD9449381
Probable space group: P M M N
;
_chemical_formula_sum "Si O2"
_cell_formula_units_Z 64
_cell_length_a 19.874192
_cell_length_b 7.876733
_cell_length_c 22.971253
_cell_angle_alpha 90.000000
_cell_angle_beta 90.000000
_cell_angle_gamma 90.000000
_cell_volume 3596.005030
_symmetry_space_group_name_H-M "P M M N"
_symmetry_group_IT_number 59
_space_group.IT_coordinate_system_code '2'
_symmetry_cell_setting 'orthorhombic'
loop_
_space_group_symop_operation_xyz
x,y,z
1/2-x,1/2-y,z
1/2+x,-y,-z
-x,1/2+y,-z
-x,-y,-z
1/2+x,1/2+y,-z
1/2-x,y,z
x,1/2-y,z
loop_
_atom_site_type_symbol
_atom_site_label
_atom_site_fract_x
_atom_site_fract_y
_atom_site_fract_z
Si Si1 0.035823 0.948460 0.173101
Si Si2 0.174390 0.051252 0.124901
Si Si3 0.889545 0.552571 0.519374
Si Si4 0.537546 0.454122 0.698400
Si Si5 0.824525 0.544307 0.634365
Si Si6 0.461895 0.451605 0.940593
Si Si7 0.972340 0.957849 0.417394
Si Si8 0.674793 0.047852 0.007858
O O1 0.016969 0.750000 0.176338
O O2 0.025107 0.024086 0.237106
O O3 0.996432 0.024320 0.117638
O O4 0.114739 0.960240 0.158203
O O5 0.250000 0.986579 0.136384
O O6 0.172204 0.250000 0.139851
O O7 0.162527 0.032705 0.055606
O O8 0.871285 0.750000 0.512316
O O9 0.839490 0.480136 0.568202
O O10 0.907235 0.486045 0.454724
O O11 0.961850 0.535022 0.551395
O O12 0.534519 0.250000 0.701277
O O13 0.612441 0.495079 0.674596
O O14 0.483076 0.506975 0.649651
O O15 0.750000 0.489252 0.653574
O O16 0.824791 0.750000 0.632411
O O17 0.467158 0.250000 0.937207
O O18 0.384460 0.500761 0.948733
O O19 0.500000 0.500000 0.000000
O O20 0.976329 0.750000 0.421518
O O21 0.750000 0.997990 0.026838
O O22 0.673417 0.250000 0.999040
#
# Coordination Sequence:
#
# PCOD9449381 Si02
#       8
#     8   8   8   8   8   8   8   8
#     4  10  21  34  47  65  91 124 158 193 238 285
#     4  10  20  32  47  67  90 119 155 192 229 276
#     4   8  13  22  38  59  80 105 136 172 214 252
#     4   9  18  31  44  60  84 116 153 187 220 265
#     4   9  17  28  41  60  89 121 150 181 217 258
#     4  11  21  33  51  73  96 123 156 198 246 291
#     4   8  13  23  40  59  78 102 136 177 215 250
#     4  10  20  34  52  73  96 120 147 185 237 293
#
# _framework density 17.797529000000001
#
# number of rings (size 3 to 8) (size 9 to 14) (size 15 to 20)
#    0.000    2.625    1.250    1.125    0.000    3.250 
#    0.000    2.500    0.000    0.000    0.000    0.875 
#    0.000    5.000    0.000    2.500    0.000    3.875 
#
# Total GULP energy -356350.896092 kJ/mol
# GULP energy per Si atom -5567.982751 kJ/mol
# Density = 1.775702 g / cm^3
# Si number density = 17.797529 Si / 1000 Ang^3
#
#
#
# Elastic Constant Matrix: (Units=GPa)
#
#
# Indices 1 2 3 4 5 6 
#
# 1 45.3885 0.3468 47.4324 0.0000 0.0000 0.0000
# 2 0.3468 25.0745 6.2039 0.0000 0.0000 0.0000
# 3 47.4324 6.2039 133.0580 0.0000 0.0000 0.0000
# 4 0.0000 0.0000 0.0000 9.5556 0.0000 0.0000
# 5 0.0000 0.0000 0.0000 0.0000 16.8558 0.0000
# 6 0.0000 0.0000 0.0000 0.0000 0.0000 16.4895
#
#
#
# Elastic Compliance Matrix: (Units=1/GPa)
#
#
# Indices 1 2 3 4 5 6 
#
# 1 0.035286 0.002655 -0.012703 0.000000 0.000000 0.000000
# 2 0.002655 0.040546 -0.002837 0.000000 0.000000 0.000000
# 3 -0.012703 -0.002837 0.012176 0.000000 0.000000 0.000000
# 4 0.000000 0.000000 0.000000 0.104651 0.000000 0.000000
# 5 0.000000 0.000000 0.000000 0.000000 0.059327 0.000000
# 6 0.000000 0.000000 0.000000 0.000000 0.000000 0.060645
#
#
# Mechanical properties :
#
#
# Convention : Reuss Voigt Hill
#
# Bulk Modulus (GPa) = 16.06706 34.60970 25.33838
# Shear Modulus (GPa) = 13.92190 18.54937 16.23564
#
# Velocity S-wave (km/s) = 2.79989 3.23188 3.02361
# Velocity P-wave (km/s) = 4.41585 5.78060 5.14369
#
# Compressibility (1/GPa) = 0.06223914
#
# Stress axis : x y z
#
# Youngs Moduli (GPa) = 28.33960 24.66319 82.12876
#
# Poissons Ratio (x) = -0.06547 1.04325
# Poissons Ratio (y) = -0.07523 0.23299
# Poissons Ratio (z) = 0.35999 0.06997
#
# Static dielectric constant tensor:
#      x y z
#    x 1.608000 0.000000 0.000000 
#    y 0.000000 1.447020 0.000000 
#    z 0.000000 0.000000 1.665940 
# 
# From -- ./inp_files/30988.got.cif
#   From: 2010.05.17/outbox.cif.g08.bks.cpg/sg59_16_cif.got.tgz:30988.got - 2010.06.03 14:40:33.
