data_PCOD9449196
_publ_section_title
;
Structure prediction by ZEFSAII (Michael W. Deem and Ramdas Pophale) SiO2 
 PCOD9449196
Probable space group: P M M N
;
_chemical_formula_sum "Si O2"
_cell_formula_units_Z 48
_cell_length_a 9.913811
_cell_length_b 7.847735
_cell_length_c 30.206622
_cell_angle_alpha 90.000000
_cell_angle_beta 90.000000
_cell_angle_gamma 90.000000
_cell_volume 2350.104237
_symmetry_space_group_name_H-M "P M M N"
_symmetry_group_IT_number 59
_space_group.IT_coordinate_system_code '2'
_symmetry_cell_setting 'orthorhombic'
loop_
_space_group_symop_operation_xyz
x,y,z
1/2-x,1/2-y,z
1/2+x,-y,-z
-x,1/2+y,-z
-x,-y,-z
1/2+x,1/2+y,-z
1/2-x,y,z
x,1/2-y,z
loop_
_atom_site_type_symbol
_atom_site_label
_atom_site_fract_x
_atom_site_fract_y
_atom_site_fract_z
Si Si1 0.250000 0.540895 0.954747
Si Si2 0.910513 0.050340 0.202495
Si Si3 0.095713 0.048527 0.378506
Si Si4 0.986181 0.048092 0.108357
Si Si5 0.096732 0.051527 0.698309
Si Si6 0.750000 0.045131 0.943624
Si Si7 0.406792 0.544240 0.541987
O O1 0.250000 0.750000 0.956207
O O2 0.375898 0.480995 0.925908
O O3 0.250000 0.484043 0.005496
O O4 0.750000 0.039159 0.193820
O O5 0.945233 0.250000 0.208075
O O6 0.979680 0.978806 0.158300
O O7 0.935927 0.965776 0.249711
O O8 0.250000 0.979409 0.379311
O O9 0.107483 0.250000 0.387298
O O10 0.991987 0.979390 0.415602
O O11 0.018491 0.027921 0.332061
O O12 0.958185 0.250000 0.113565
O O13 0.123933 0.020079 0.083634
O O14 0.250000 0.979809 0.691600
O O15 0.101969 0.250000 0.686934
O O16 0.750000 0.250000 0.944278
O O17 0.500000 0.500000 0.500000
O O18 0.250000 0.482969 0.539608
O O19 0.398652 0.750000 0.544759
#
# Coordination Sequence:
#
# PCOD9449196 Si02
#       7
#     4   8   8   8   8   4   8
#     4   9  18  35  59  81 105 137 183 231 270 319
#     4   9  17  33  59  84 103 134 183 232 274 322
#     4  10  21  38  59  83 112 149 194 238 277 326
#     4  10  19  36  59  80 104 140 184 227 269 324
#     4  10  21  36  56  83 113 143 177 224 282 339
#     4  11  23  35  49  79 117 147 173 217 276 329
#     4  10  21  37  59  87 118 154 195 239 286 332
#
# _framework density 20.424626
#
# number of rings (size 3 to 8) (size 9 to 14) (size 15 to 20)
#    0.000    2.167    0.833    2.250    0.000    4.333 
#    1.500    1.250    0.000    0.000    0.000    0.000 
#    0.000    0.000    0.000    0.000    0.000    0.000 
#
# Total GULP energy -267755.721914 kJ/mol
# GULP energy per Si atom -5578.244207 kJ/mol
# Density = 2.037814 g / cm^3
# Si number density = 20.424626 Si / 1000 Ang^3
#
#
#
# Elastic Constant Matrix: (Units=GPa)
#
#
# Indices 1 2 3 4 5 6 
#
# 1 176.5081 -1.8169 92.3718 0.0000 0.0000 0.0000
# 2 -1.8169 21.3212 -2.0035 0.0000 0.0000 0.0000
# 3 92.3718 -2.0035 145.8459 0.0000 0.0000 0.0000
# 4 0.0000 0.0000 0.0000 20.2300 0.0000 0.0000
# 5 0.0000 0.0000 0.0000 0.0000 0.8159 0.0000
# 6 0.0000 0.0000 0.0000 0.0000 0.0000 23.1269
#
#
#
# Elastic Compliance Matrix: (Units=1/GPa)
#
#
# Indices 1 2 3 4 5 6 
#
# 1 0.008475 0.000218 -0.005365 0.000000 0.000000 0.000000
# 2 0.000218 0.046968 0.000507 0.000000 0.000000 0.000000
# 3 -0.005365 0.000507 0.010261 0.000000 0.000000 0.000000
# 4 0.000000 0.000000 0.000000 0.049432 0.000000 0.000000
# 5 0.000000 0.000000 0.000000 0.000000 1.225630 0.000000
# 6 0.000000 0.000000 0.000000 0.000000 0.000000 0.043240
#
#
# Mechanical properties :
#
#
# Convention : Reuss Voigt Hill
#
# Bulk Modulus (GPa) = 17.72255 57.86424 37.79339
# Shear Modulus (GPa) = 3.54084 25.84281 14.69182
#
# Velocity S-wave (km/s) = 1.31810 3.56093 2.68492
# Velocity P-wave (km/s) = 3.31849 6.73046 5.30620
#
# Compressibility (1/GPa) = 0.05642528
#
# Stress axis : x y z
#
# Youngs Moduli (GPa) = 117.99013 21.29109 97.45307
#
# Poissons Ratio (x) = -0.00464 0.52282
# Poissons Ratio (y) = -0.02573 -0.04942
# Poissons Ratio (z) = 0.63300 -0.01080
#
# Static dielectric constant tensor:
#      x y z
#    x 1.687110 0.000000 0.000000 
#    y 0.000000 1.770800 0.000000 
#    z 0.000000 0.000000 1.721460 
# 
# From -- ./inp_files/32935.got.cif
#   From: 2010.05.17/outbox.cif.g08.bks.cpg/sg59_17_cif.got.tgz:32935.got - 2010.06.03 14:40:33.
