data_PCOD9449439
_publ_section_title
;
Structure prediction by ZEFSAII (Michael W. Deem and Ramdas Pophale) SiO2 
 PCOD9449439
Probable space group: P M M N
;
_chemical_formula_sum "Si O2"
_cell_formula_units_Z 56
_cell_length_a 8.950012
_cell_length_b 14.752780
_cell_length_c 21.272648
_cell_angle_alpha 90.000000
_cell_angle_beta 90.000000
_cell_angle_gamma 90.000000
_cell_volume 2808.788495
_symmetry_space_group_name_H-M "P M M N"
_symmetry_group_IT_number 59
_space_group.IT_coordinate_system_code '2'
_symmetry_cell_setting 'orthorhombic'
loop_
_space_group_symop_operation_xyz
x,y,z
1/2-x,1/2-y,z
1/2+x,-y,-z
-x,1/2+y,-z
-x,-y,-z
1/2+x,1/2+y,-z
1/2-x,y,z
x,1/2-y,z
loop_
_atom_site_type_symbol
_atom_site_label
_atom_site_fract_x
_atom_site_fract_y
_atom_site_fract_z
Si Si1 0.928873 0.541195 0.407088
Si Si2 0.580843 0.604450 0.154141
Si Si3 0.915942 0.098281 0.101492
Si Si4 0.929957 0.355560 0.475234
Si Si5 0.928095 0.461847 0.724838
Si Si6 0.421919 0.146612 0.980318
Si Si7 0.068433 0.848920 0.765946
O O1 0.750000 0.548888 0.402746
O O2 0.963583 0.435091 0.424283
O O3 0.990595 0.605661 0.462347
O O4 0.005732 0.567073 0.341891
O O5 0.750000 0.639357 0.165126
O O6 0.593012 0.500505 0.131997
O O7 0.488455 0.600751 0.218090
O O8 0.514083 0.646550 0.090368
O O9 0.750000 0.133008 0.087437
O O10 0.979093 0.153196 0.160539
O O11 0.001617 0.093445 0.036362
O O12 0.750000 0.357258 0.483921
O O13 0.970884 0.250000 0.461475
O O14 0.750000 0.462668 0.724876
O O15 0.990992 0.564012 0.736035
O O16 0.250000 0.115960 0.973691
O O17 0.423025 0.250000 0.002713
O O18 0.250000 0.861559 0.764631
O O19 0.036502 0.750000 0.737362
#
# Coordination Sequence:
#
# PCOD9449439 Si02
#       7
#     8   8   8   8   8   8   8
#     4  10  20  36  59  86 117 153 188 221 265 321
#     4   9  19  36  52  67  94 132 172 211 256 316
#     4   9  17  30  49  70  93 126 165 205 256 320
#     4   9  19  37  61  89 119 149 183 224 266 309
#     4  11  22  35  53  77 105 139 180 224 266 307
#     4  10  20  32  48  71  96 122 158 211 269 317
#     4   9  18  33  51  72 102 139 176 215 265 326
#
# _framework density 19.937422999999999
#
# number of rings (size 3 to 8) (size 9 to 14) (size 15 to 20)
#    0.000    2.429    0.000    3.429    0.000    5.429 
#    0.000    2.143    0.000    2.571    0.000    0.000 
#    0.000    0.000    0.000    0.000    0.000    0.000 
#
# Total GULP energy -312007.808535 kJ/mol
# GULP energy per Si atom -5571.568010 kJ/mol
# Density = 1.989204 g / cm^3
# Si number density = 19.937423 Si / 1000 Ang^3
#
#
#
# Elastic Constant Matrix: (Units=GPa)
#
#
# Indices 1 2 3 4 5 6 
#
# 1 49.8417 -3.9162 40.4842 0.0000 0.0000 0.0000
# 2 -3.9162 39.2694 -15.2072 0.0000 0.0000 0.0000
# 3 40.4842 -15.2072 109.0295 0.0000 0.0000 0.0000
# 4 0.0000 0.0000 0.0000 11.6816 0.0000 0.0000
# 5 0.0000 0.0000 0.0000 0.0000 32.1734 0.0000
# 6 0.0000 0.0000 0.0000 0.0000 0.0000 12.7944
#
#
#
# Elastic Compliance Matrix: (Units=1/GPa)
#
#
# Indices 1 2 3 4 5 6 
#
# 1 0.028795 -0.001341 -0.010879 0.000000 0.000000 0.000000
# 2 -0.001341 0.026982 0.004261 0.000000 0.000000 0.000000
# 3 -0.010879 0.004261 0.013806 0.000000 0.000000 0.000000
# 4 0.000000 0.000000 0.000000 0.085605 0.000000 0.000000
# 5 0.000000 0.000000 0.000000 0.000000 0.031082 0.000000
# 6 0.000000 0.000000 0.000000 0.000000 0.000000 0.078159
#
#
# Mechanical properties :
#
#
# Convention : Reuss Voigt Hill
#
# Bulk Modulus (GPa) = 18.63441 26.76248 22.69844
# Shear Modulus (GPa) = 16.76540 23.11519 19.94030
#
# Velocity S-wave (km/s) = 2.90298 3.40867 3.16594
# Velocity P-wave (km/s) = 4.53906 5.38000 4.97733
#
# Compressibility (1/GPa) = 0.05366417
#
# Stress axis : x y z
#
# Youngs Moduli (GPa) = 34.72874 37.06228 72.43382
#
# Poissons Ratio (x) = 0.04971 0.78800
# Poissons Ratio (y) = 0.04658 -0.30867
# Poissons Ratio (z) = 0.37781 -0.15794
#
# Static dielectric constant tensor:
#      x y z
#    x 1.682710 0.000000 0.000000 
#    y 0.000000 1.763470 0.000000 
#    z 0.000000 0.000000 1.724760 
# 
# From -- ./inp_files/29307.got.cif
#   From: 2010.05.17/outbox.cif.g08.bks.cpg/sg59_15_cif.got.tgz:29307.got - 2010.06.03 14:40:33.
