data_PCOD9449349
_publ_section_title
;
Structure prediction by ZEFSAII (Michael W. Deem and Ramdas Pophale) SiO2 
 PCOD9449349
Probable space group: P M M N
;
_chemical_formula_sum "Si O2"
_cell_formula_units_Z 48
_cell_length_a 9.410463
_cell_length_b 7.355267
_cell_length_c 32.512069
_cell_angle_alpha 90.000000
_cell_angle_beta 90.000000
_cell_angle_gamma 90.000000
_cell_volume 2250.370582
_symmetry_space_group_name_H-M "P M M N"
_symmetry_group_IT_number 59
_space_group.IT_coordinate_system_code '2'
_symmetry_cell_setting 'orthorhombic'
loop_
_space_group_symop_operation_xyz
x,y,z
1/2-x,1/2-y,z
1/2+x,-y,-z
-x,1/2+y,-z
-x,-y,-z
1/2+x,1/2+y,-z
1/2-x,y,z
x,1/2-y,z
loop_
_atom_site_type_symbol
_atom_site_label
_atom_site_fract_x
_atom_site_fract_y
_atom_site_fract_z
Si Si1 0.414880 0.972616 0.119718
Si Si2 0.910248 0.967219 0.040993
Si Si3 0.914865 0.027738 0.700728
Si Si4 0.088778 0.967160 0.458771
Si Si5 0.422829 0.961731 0.209472
Si Si6 0.913469 0.972164 0.379524
O O1 0.250000 0.025010 0.113954
O O2 0.416199 0.750000 0.120638
O O3 0.508986 0.034703 0.081603
O O4 0.465673 0.035746 0.164913
O O5 0.750000 0.037669 0.037167
O O6 0.901690 0.750000 0.045685
O O7 0.000000 0.000000 0.000000
O O8 0.750000 0.974873 0.694509
O O9 0.915527 0.250000 0.701828
O O10 0.964712 0.963746 0.745936
O O11 0.011582 0.970984 0.662793
O O12 0.250000 0.037410 0.461593
O O13 0.098508 0.750000 0.454020
O O14 0.003965 0.034106 0.418836
O O15 0.000000 0.000000 0.500000
O O16 0.250000 0.967374 0.209368
O O17 0.465507 0.750000 0.209539
O O18 0.750000 0.029471 0.382160
O O19 0.913972 0.750000 0.379746
#
# Coordination Sequence:
#
# PCOD9449349 Si02
#       6
#     8   8   8   8   8   8
#     4   8  13  23  39  57  79 109 142 175 214 258
#     4  10  20  32  46  65  88 115 148 184 222 264
#     4   8  12  19  32  50  74 105 140 174 207 249
#     4  10  20  33  49  68  90 118 151 186 225 267
#     4   7  10  17  31  51  74 103 138 171 205 250
#     4   9  16  25  37  55  81 112 144 178 217 259
#
# _framework density 21.329820000000002
#
# number of rings (size 3 to 8) (size 9 to 14) (size 15 to 20)
#    0.000    3.333    0.000    3.500    0.000    4.000 
#    0.000    0.833    0.000    5.000    0.000    0.000 
#    0.000    1.333    0.000    7.667    0.000   11.667 
#
# Total GULP energy -267779.325688 kJ/mol
# GULP energy per Si atom -5578.735952 kJ/mol
# Density = 2.128127 g / cm^3
# Si number density = 21.329820 Si / 1000 Ang^3
#
#
#
# Elastic Constant Matrix: (Units=GPa)
#
#
# Indices 1 2 3 4 5 6 
#
# 1 162.8263 6.5313 138.3484 0.0000 0.0000 0.0000
# 2 6.5313 78.7658 7.1991 0.0000 0.0000 0.0000
# 3 138.3484 7.1991 268.8983 0.0000 0.0000 0.0000
# 4 0.0000 0.0000 0.0000 5.0379 0.0000 0.0000
# 5 0.0000 0.0000 0.0000 0.0000 37.6612 0.0000
# 6 0.0000 0.0000 0.0000 0.0000 0.0000 -2.5912
#
#
#
# Elastic Compliance Matrix: (Units=1/GPa)
#
#
# Indices 1 2 3 4 5 6 
#
# 1 0.010924 -0.000393 -0.005610 0.000000 0.000000 0.000000
# 2 -0.000393 0.012741 -0.000139 0.000000 0.000000 0.000000
# 3 -0.005610 -0.000139 0.006609 0.000000 0.000000 0.000000
# 4 0.000000 0.000000 0.000000 0.198494 0.000000 0.000000
# 5 0.000000 0.000000 0.000000 0.000000 0.026553 0.000000
# 6 0.000000 0.000000 0.000000 0.000000 0.000000 -0.385920
#
#
# Mechanical properties :
#
#
# Convention : Reuss Voigt Hill
#
# Bulk Modulus (GPa) = 55.58549 90.51642 73.05095
# Shear Modulus (GPa) = -44.51609 31.91569 -6.30020
#
# Velocity S-wave (km/s) = -4.57336 3.87239 -1.72050
# Velocity P-wave (km/s) = 1.33078 7.90712 5.51142
#
# Compressibility (1/GPa) = 0.01799031
#
# Stress axis : x y z
#
# Youngs Moduli (GPa) = 91.54412 78.48579 151.31321
#
# Poissons Ratio (x) = 0.03085 0.84883
# Poissons Ratio (y) = 0.03598 0.02101
# Poissons Ratio (z) = 0.51354 0.01090
#
# Static dielectric constant tensor:
#      x y z
#    x 1.720740 0.000000 0.000000 
#    y 0.000000 1.953470 0.000000 
#    z 0.000000 0.000000 1.763000 
# 
# From -- ./inp_files/33131.got.cif
#   From: 2010.05.17/outbox.cif.g08.bks.cpg/sg59_17_cif.got.tgz:33131.got - 2010.06.03 14:40:33.
