data_PCOD9449105
_publ_section_title
;
Structure prediction by ZEFSAII (Michael W. Deem and Ramdas Pophale) SiO2 
 PCOD9449105
Probable space group: P M M N
;
_chemical_formula_sum "Si O2"
_cell_formula_units_Z 64
_cell_length_a 26.196849
_cell_length_b 7.879023
_cell_length_c 14.987990
_cell_angle_alpha 90.000000
_cell_angle_beta 90.000000
_cell_angle_gamma 90.000000
_cell_volume 3093.604706
_symmetry_space_group_name_H-M "P M M N"
_symmetry_group_IT_number 59
_space_group.IT_coordinate_system_code '2'
_symmetry_cell_setting 'orthorhombic'
loop_
_space_group_symop_operation_xyz
x,y,z
1/2-x,1/2-y,z
1/2+x,-y,-z
-x,1/2+y,-z
-x,-y,-z
1/2+x,1/2+y,-z
1/2-x,y,z
x,1/2-y,z
loop_
_atom_site_type_symbol
_atom_site_label
_atom_site_fract_x
_atom_site_fract_y
_atom_site_fract_z
Si Si1 0.900018 0.041884 0.093614
Si Si2 0.691220 0.547438 0.418913
Si Si3 0.503818 0.455213 0.210362
Si Si4 0.808036 0.045372 0.217642
Si Si5 0.192374 0.957278 0.235372
Si Si6 0.516622 0.557333 0.597416
Si Si7 0.899436 0.454745 0.889345
Si Si8 0.368960 0.551360 0.408379
O O1 0.900211 0.250000 0.092985
O O2 0.848918 0.986861 0.145111
O O3 0.949364 0.985240 0.149491
O O4 0.901912 0.984638 0.991284
O O5 0.750000 0.487614 0.430698
O O6 0.690539 0.750000 0.428718
O O7 0.675898 0.502695 0.318020
O O8 0.655249 0.471533 0.494443
O O9 0.506910 0.250000 0.213665
O O10 0.504784 0.525029 0.311712
O O11 0.449981 0.498002 0.165022
O O12 0.750000 0.982363 0.203746
O O13 0.806595 0.250000 0.213458
O O14 0.250000 0.017092 0.220807
O O15 0.193525 0.750000 0.232906
O O16 0.151011 0.014677 0.162745
O O17 0.171068 0.004978 0.332869
O O18 0.500000 0.500000 0.500000
O O19 0.499462 0.750000 0.601743
O O20 0.577754 0.543698 0.601921
O O21 0.897018 0.250000 0.891546
O O22 0.380035 0.750000 0.393227
#
# Coordination Sequence:
#
# PCOD9449105 Si02
#       8
#     8   8   8   8   8   8   8   8
#     4   9  19  34  56  84 111 144 186 232 282 336
#     4  10  21  36  54  80 113 147 186 232 279 333
#     4  10  21  38  57  79 113 150 183 226 281 338
#     4   9  18  34  56  82 112 147 187 232 284 340
#     4   9  18  32  53  83 114 145 184 231 284 337
#     4  11  24  39  57  83 115 151 189 233 288 343
#     4  10  19  35  58  83 111 144 187 237 282 328
#     4  11  21  36  58  81 112 149 188 235 284 342
#
# _framework density 20.687837999999999
#
# number of rings (size 3 to 8) (size 9 to 14) (size 15 to 20)
#    0.000    2.125    1.250    1.875    1.750    2.250 
#    0.000    3.750    0.000    1.125    0.000    0.000 
#    0.000    0.000    0.000    0.000    0.000    0.000 
#
# Total GULP energy -357440.052409 kJ/mol
# GULP energy per Si atom -5585.000819 kJ/mol
# Density = 2.064075 g / cm^3
# Si number density = 20.687838 Si / 1000 Ang^3
#
#
#
# Elastic Constant Matrix: (Units=GPa)
#
#
# Indices 1 2 3 4 5 6 
#
# 1 122.4510 1.3461 92.2917 0.0000 0.0000 0.0000
# 2 1.3461 19.4706 9.0561 0.0000 0.0000 0.0000
# 3 92.2917 9.0561 192.6528 0.0000 0.0000 0.0000
# 4 0.0000 0.0000 0.0000 8.8076 0.0000 0.0000
# 5 0.0000 0.0000 0.0000 0.0000 -138.7914 0.0000
# 6 0.0000 0.0000 0.0000 0.0000 0.0000 14.7423
#
#
#
# Elastic Compliance Matrix: (Units=1/GPa)
#
#
# Indices 1 2 3 4 5 6 
#
# 1 0.012859 0.002020 -0.006255 0.000000 0.000000 0.000000
# 2 0.002020 0.052825 -0.003451 0.000000 0.000000 0.000000
# 3 -0.006255 -0.003451 0.008349 0.000000 0.000000 0.000000
# 4 0.000000 0.000000 0.000000 0.113538 0.000000 0.000000
# 5 0.000000 0.000000 0.000000 0.000000 -0.007205 0.000000
# 6 0.000000 0.000000 0.000000 0.000000 0.000000 0.067832
#
#
# Mechanical properties :
#
#
# Convention : Reuss Voigt Hill
#
# Bulk Modulus (GPa) = 17.04688 59.99580 38.52134
# Shear Modulus (GPa) = 17.66013 -7.58959 5.03527
#
# Velocity S-wave (km/s) = 2.92489 -1.91744 1.56180
# Velocity P-wave (km/s) = 4.43448 4.91542 4.68113
#
# Compressibility (1/GPa) = 0.05866176
#
# Stress axis : x y z
#
# Youngs Moduli (GPa) = 77.76785 18.93042 119.76848
#
# Poissons Ratio (x) = -0.03825 0.74916
# Poissons Ratio (y) = -0.15712 0.41332
# Poissons Ratio (z) = 0.48644 0.06533
#
# Static dielectric constant tensor:
#      x y z
#    x 1.709550 0.000000 0.000000 
#    y 0.000000 1.750940 0.000000 
#    z 0.000000 0.000000 1.737780 
# 
# From -- ./inp_files/24693.got.cif
#   From: 2010.05.17/outbox.cif.g08.bks.cpg/sg59_13_cif.got.tgz:24693.got - 2010.06.03 14:40:33.
