data_PCOD9449427
_publ_section_title
;
Structure prediction by ZEFSAII (Michael W. Deem and Ramdas Pophale) SiO2 
 PCOD9449427
Probable space group: P M M N
;
_chemical_formula_sum "Si O2"
_cell_formula_units_Z 64
_cell_length_a 19.421645
_cell_length_b 9.068465
_cell_length_c 21.909042
_cell_angle_alpha 90.000000
_cell_angle_beta 90.000000
_cell_angle_gamma 90.000000
_cell_volume 3858.719241
_symmetry_space_group_name_H-M "P M M N"
_symmetry_group_IT_number 59
_space_group.IT_coordinate_system_code '2'
_symmetry_cell_setting 'orthorhombic'
loop_
_space_group_symop_operation_xyz
x,y,z
1/2-x,1/2-y,z
1/2+x,-y,-z
-x,1/2+y,-z
-x,-y,-z
1/2+x,1/2+y,-z
1/2-x,y,z
x,1/2-y,z
loop_
_atom_site_type_symbol
_atom_site_label
_atom_site_fract_x
_atom_site_fract_y
_atom_site_fract_z
Si Si1 0.093794 0.075037 0.355867
Si Si2 0.169271 0.074362 0.598210
Si Si3 0.523595 0.918269 0.192173
Si Si4 0.823680 0.070447 0.893600
Si Si5 0.527130 0.428812 0.938418
Si Si6 0.562255 0.425175 0.311591
Si Si7 0.169067 0.925760 0.467754
Si Si8 0.364939 0.581721 0.237768
O O1 0.101348 0.250000 0.362718
O O2 0.013465 0.043209 0.340609
O O3 0.121243 0.993112 0.415483
O O4 0.136729 0.016925 0.297592
O O5 0.250000 0.045886 0.611787
O O6 0.159598 0.250000 0.593806
O O7 0.119815 0.006930 0.649132
O O8 0.153982 0.999435 0.533017
O O9 0.550124 0.750000 0.193776
O O10 0.517264 0.969122 0.121997
O O11 0.444390 0.912397 0.215376
O O12 0.561396 0.018178 0.241758
O O13 0.750000 0.024926 0.920317
O O14 0.825921 0.250000 0.892732
O O15 0.826836 0.025781 0.822491
O O16 0.893730 0.023349 0.926243
O O17 0.525889 0.250000 0.941873
O O18 0.500000 0.500000 0.000000
O O19 0.572335 0.250000 0.313491
O O20 0.250000 0.955226 0.453793
O O21 0.159963 0.750000 0.471581
O O22 0.343260 0.750000 0.251812
#
# Coordination Sequence:
#
# PCOD9449427 Si02
#       8
#     8   8   8   8   8   8   8   8
#     4  10  20  32  47  71 102 132 161 195 240 290
#     4  10  21  37  56  75  95 123 159 201 254 307
#     4   8  15  29  47  68  95 124 155 193 237 283
#     4   8  14  26  45  68  93 123 162 203 237 275
#     4   9  17  29  48  73  99 130 165 200 240 285
#     4  10  20  33  52  77 101 127 160 200 243 287
#     4  10  21  36  52  69  92 126 167 207 245 290
#     4   8  14  26  44  65  90 121 156 193 232 276
#
# _framework density 16.585813999999999
#
# number of rings (size 3 to 8) (size 9 to 14) (size 15 to 20)
#    0.000    2.875    0.000    3.000    0.000    4.500 
#    0.000    3.125    0.000    1.875    0.000    3.500 
#    0.000    0.000    0.000    0.000    0.000    0.000 
#
# Total GULP energy -356581.151355 kJ/mol
# GULP energy per Si atom -5571.580490 kJ/mol
# Density = 1.654806 g / cm^3
# Si number density = 16.585814 Si / 1000 Ang^3
#
#
#
# Elastic Constant Matrix: (Units=GPa)
#
#
# Indices 1 2 3 4 5 6 
#
# 1 71.2666 43.1105 70.7984 0.0000 0.0000 0.0000
# 2 43.1105 57.6984 61.5452 0.0000 0.0000 0.0000
# 3 70.7984 61.5452 144.8199 0.0000 0.0000 0.0000
# 4 0.0000 0.0000 0.0000 33.2528 0.0000 0.0000
# 5 0.0000 0.0000 0.0000 0.0000 15.5373 0.0000
# 6 0.0000 0.0000 0.0000 0.0000 0.0000 17.1194
#
#
#
# Elastic Compliance Matrix: (Units=1/GPa)
#
#
# Indices 1 2 3 4 5 6 
#
# 1 0.031971 -0.013199 -0.010020 0.000000 0.000000 0.000000
# 2 -0.013199 0.037152 -0.009336 0.000000 0.000000 0.000000
# 3 -0.010020 -0.009336 0.015771 0.000000 0.000000 0.000000
# 4 0.000000 0.000000 0.000000 0.030073 0.000000 0.000000
# 5 0.000000 0.000000 0.000000 0.000000 0.064361 0.000000
# 6 0.000000 0.000000 0.000000 0.000000 0.000000 0.058413
#
#
# Mechanical properties :
#
#
# Convention : Reuss Voigt Hill
#
# Bulk Modulus (GPa) = 50.54826 69.41034 59.97930
# Shear Modulus (GPa) = 16.15788 19.73729 17.94758
#
# Velocity S-wave (km/s) = 3.12460 3.45339 3.29310
# Velocity P-wave (km/s) = 6.60004 7.60535 7.12046
#
# Compressibility (1/GPa) = 0.01978307
#
# Stress axis : x y z
#
# Youngs Moduli (GPa) = 31.27867 26.91639 63.40635
#
# Poissons Ratio (x) = 0.35528 0.63534
# Poissons Ratio (y) = 0.41286 0.59196
# Poissons Ratio (z) = 0.31342 0.25129
#
# Static dielectric constant tensor:
#      x y z
#    x 1.571750 0.000000 0.000000 
#    y 0.000000 1.552540 0.000000 
#    z 0.000000 0.000000 1.541870 
# 
# From -- ./inp_files/30646.got.cif
#   From: 2010.05.17/outbox.cif.g08.bks.cpg/sg59_16_cif.got.tgz:30646.got - 2010.06.03 14:40:33.
