data_PCOD9449747
_publ_section_title
;
Structure prediction by ZEFSAII (Michael W. Deem and Ramdas Pophale) SiO2 
 PCOD9449747
Probable space group: P M M N
;
_chemical_formula_sum "Si O2"
_cell_formula_units_Z 56
_cell_length_a 14.013724
_cell_length_b 9.042805
_cell_length_c 24.346261
_cell_angle_alpha 90.000000
_cell_angle_beta 90.000000
_cell_angle_gamma 90.000000
_cell_volume 3085.240325
_symmetry_space_group_name_H-M "P M M N"
_symmetry_group_IT_number 59
_space_group.IT_coordinate_system_code '2'
_symmetry_cell_setting 'orthorhombic'
loop_
_space_group_symop_operation_xyz
x,y,z
1/2-x,1/2-y,z
1/2+x,-y,-z
-x,1/2+y,-z
-x,-y,-z
1/2+x,1/2+y,-z
1/2-x,y,z
x,1/2-y,z
loop_
_atom_site_type_symbol
_atom_site_label
_atom_site_fract_x
_atom_site_fract_y
_atom_site_fract_z
Si Si1 0.462800 0.073018 0.307534
Si Si2 0.360523 0.428264 0.644148
Si Si3 0.359208 0.427881 0.970522
Si Si4 0.865371 0.080789 0.590064
Si Si5 0.036308 0.427966 0.083887
Si Si6 0.366422 0.419730 0.520118
Si Si7 0.359797 0.069728 0.195164
O O1 0.467753 0.250000 0.308342
O O2 0.411377 0.025050 0.251393
O O3 0.567418 0.003766 0.314225
O O4 0.403595 0.016123 0.359955
O O5 0.250000 0.470226 0.652072
O O6 0.365922 0.250000 0.647182
O O7 0.390994 0.469735 0.581719
O O8 0.250000 0.474765 0.962558
O O9 0.363605 0.250000 0.965347
O O10 0.434345 0.500838 0.929282
O O11 0.395290 0.464773 0.032183
O O12 0.750000 0.077263 0.590690
O O13 0.896923 0.250000 0.597267
O O14 0.897050 0.019787 0.530718
O O15 0.026862 0.250000 0.085164
O O16 0.083297 0.477414 0.140873
O O17 0.250000 0.417848 0.519773
O O18 0.397453 0.250000 0.511992
O O19 0.250000 0.020029 0.193902
O O20 0.358383 0.250000 0.194500
#
# Coordination Sequence:
#
# PCOD9449747 Si02
#       7
#     8   8   8   8   8   8   8
#     4  11  22  34  52  76 100 130 169 212 254 298
#     4   9  19  37  57  74  96 128 165 208 258 309
#     4   9  17  30  50  78 111 142 170 206 255 305
#     4  10  20  33  50  74 104 134 163 201 252 308
#     4   9  17  31  53  78 103 136 178 217 251 292
#     4   8  15  30  52  74  95 123 161 204 251 304
#     4   9  18  34  55  77 101 132 172 213 250 292
#
# _framework density 18.150936000000002
#
# number of rings (size 3 to 8) (size 9 to 14) (size 15 to 20)
#    0.000    2.714    0.000    2.571    0.000    4.857 
#    0.000    3.571    0.000    7.286    0.000    0.000 
#    0.000    0.000    0.000    0.000    0.000    0.000 
#
# Total GULP energy -312536.219549 kJ/mol
# GULP energy per Si atom -5581.003921 kJ/mol
# Density = 1.810962 g / cm^3
# Si number density = 18.150936 Si / 1000 Ang^3
#
#
#
# Elastic Constant Matrix: (Units=GPa)
#
#
# Indices 1 2 3 4 5 6 
#
# 1 147.0036 36.3656 85.3656 0.0000 0.0000 0.0000
# 2 36.3656 26.3815 37.1214 0.0000 0.0000 0.0000
# 3 85.3656 37.1214 139.6345 0.0000 0.0000 0.0000
# 4 0.0000 0.0000 0.0000 21.5053 0.0000 0.0000
# 5 0.0000 0.0000 0.0000 0.0000 27.9725 0.0000
# 6 0.0000 0.0000 0.0000 0.0000 0.0000 30.1605
#
#
#
# Elastic Compliance Matrix: (Units=1/GPa)
#
#
# Indices 1 2 3 4 5 6 
#
# 1 0.011977 -0.009916 -0.004686 0.000000 0.000000 0.000000
# 2 -0.009916 0.068768 -0.012220 0.000000 0.000000 0.000000
# 3 -0.004686 -0.012220 0.013275 0.000000 0.000000 0.000000
# 4 0.000000 0.000000 0.000000 0.046500 0.000000 0.000000
# 5 0.000000 0.000000 0.000000 0.000000 0.035749 0.000000
# 6 0.000000 0.000000 0.000000 0.000000 0.000000 0.033156
#
#
# Mechanical properties :
#
#
# Convention : Reuss Voigt Hill
#
# Bulk Modulus (GPa) = 24.76669 70.08053 47.42361
# Shear Modulus (GPa) = 18.08144 26.20544 22.14344
#
# Velocity S-wave (km/s) = 3.15964 3.80380 3.49658
# Velocity P-wave (km/s) = 5.19477 7.61482 6.51809
#
# Compressibility (1/GPa) = 0.04037681
#
# Stress axis : x y z
#
# Youngs Moduli (GPa) = 83.49628 14.54164 75.33053
#
# Poissons Ratio (x) = 0.14419 0.35299
# Poissons Ratio (y) = 0.82792 0.92052
# Poissons Ratio (z) = 0.39125 0.17770
#
# Static dielectric constant tensor:
#      x y z
#    x 1.649220 0.000000 0.000000 
#    y 0.000000 1.607570 0.000000 
#    z 0.000000 0.000000 1.599320 
# 
# From -- ./inp_files/30394.got.cif
#   From: 2010.05.17/outbox.cif.g08.bks.cpg/sg59_16_cif.got.tgz:30394.got - 2010.06.03 14:40:33.
