data_PCOD9449032
_publ_section_title
;
Structure prediction by ZEFSAII (Michael W. Deem and Ramdas Pophale) SiO2 
 PCOD9449032
Probable space group: P M M N
;
_chemical_formula_sum "Si O2"
_cell_formula_units_Z 64
_cell_length_a 12.845367
_cell_length_b 33.500168
_cell_length_c 8.286254
_cell_angle_alpha 90.000000
_cell_angle_beta 90.000000
_cell_angle_gamma 90.000000
_cell_volume 3565.757000
_symmetry_space_group_name_H-M "P M M N"
_symmetry_group_IT_number 59
_space_group.IT_coordinate_system_code '2'
_symmetry_cell_setting 'orthorhombic'
loop_
_space_group_symop_operation_xyz
x,y,z
1/2-x,1/2-y,z
1/2+x,-y,-z
-x,1/2+y,-z
-x,-y,-z
1/2+x,1/2+y,-z
1/2-x,y,z
x,1/2-y,z
loop_
_atom_site_type_symbol
_atom_site_label
_atom_site_fract_x
_atom_site_fract_y
_atom_site_fract_z
Si Si1 0.974230 0.410130 0.469083
Si Si2 0.129447 0.044696 0.675897
Si Si3 0.129409 0.863374 0.249322
Si Si4 0.127549 0.335190 0.428943
Si Si5 0.519610 0.588267 0.032349
Si Si6 0.034855 0.202888 0.744769
Si Si7 0.873224 0.835153 0.926983
Si Si8 0.870815 0.455646 0.183621
O O1 0.046789 0.445966 0.535545
O O2 0.055440 0.374206 0.442281
O O3 0.896635 0.393535 0.605118
O O4 0.906229 0.423954 0.318825
O O5 0.250000 0.052914 0.631638
O O6 0.092349 0.073421 0.821904
O O7 0.123307 0.999588 0.739736
O O8 0.250000 0.858321 0.225168
O O9 0.073061 0.884079 0.099034
O O10 0.071750 0.821608 0.279597
O O11 0.250000 0.345378 0.429601
O O12 0.103429 0.309025 0.587778
O O13 0.103361 0.317146 0.250829
O O14 0.586817 0.618871 0.926002
O O15 0.459560 0.551567 0.950479
O O16 0.022140 0.250000 0.752613
O O17 0.081079 0.186698 0.914905
O O18 0.750000 0.835095 0.947090
O O19 0.750000 0.449538 0.131668
#
# Coordination Sequence:
#
# PCOD9449032 Si02
#       8
#     8   8   8   8   8   8   8   8
#     4  10  19  35  54  75 107 139 181 230 268 320
#     4  10  21  34  51  76 108 144 181 225 283 333
#     4   9  19  35  57  79  99 139 185 220 264 317
#     4  10  20  35  57  82 108 142 181 219 267 325
#     4  10  19  35  54  75 107 139 181 230 268 320
#     4  10  22  37  56  83 115 143 172 217 272 330
#     4  10  20  35  57  82 108 142 181 219 267 325
#     4  11  21  33  51  77 107 143 182 228 280 325
#
# _framework density 17.948502999999999
#
# number of rings (size 3 to 8) (size 9 to 14) (size 15 to 20)
#    0.000    2.000    1.250    3.375    0.000    1.750 
#    0.000    1.250    0.000    6.000    0.000    3.500 
#    0.000    0.000    0.000    0.000    0.000    0.000 
#
# Total GULP energy -356642.070276 kJ/mol
# GULP energy per Si atom -5572.532348 kJ/mol
# Density = 1.790765 g / cm^3
# Si number density = 17.948503 Si / 1000 Ang^3
#
#
#
# Elastic Constant Matrix: (Units=GPa)
#
#
# Indices 1 2 3 4 5 6 
#
# 1 60.8876 20.9825 0.0584 0.0000 0.0000 0.0000
# 2 20.9825 59.2800 -1.8520 0.0000 0.0000 0.0000
# 3 0.0584 -1.8520 51.5618 0.0000 0.0000 0.0000
# 4 0.0000 0.0000 0.0000 12.5324 0.0000 0.0000
# 5 0.0000 0.0000 0.0000 0.0000 18.7016 0.0000
# 6 0.0000 0.0000 0.0000 0.0000 0.0000 11.2587
#
#
#
# Elastic Compliance Matrix: (Units=1/GPa)
#
#
# Indices 1 2 3 4 5 6 
#
# 1 0.018709 -0.006630 -0.000259 0.000000 0.000000 0.000000
# 2 -0.006630 0.019238 0.000698 0.000000 0.000000 0.000000
# 3 -0.000259 0.000698 0.019420 0.000000 0.000000 0.000000
# 4 0.000000 0.000000 0.000000 0.079793 0.000000 0.000000
# 5 0.000000 0.000000 0.000000 0.000000 0.053471 0.000000
# 6 0.000000 0.000000 0.000000 0.000000 0.000000 0.088820
#
#
# Mechanical properties :
#
#
# Convention : Reuss Voigt Hill
#
# Bulk Modulus (GPa) = 22.23012 23.34525 22.78768
# Shear Modulus (GPa) = 16.29579 18.66790 17.48185
#
# Velocity S-wave (km/s) = 3.01644 3.22853 3.12428
# Velocity P-wave (km/s) = 4.95422 5.18969 5.07332
#
# Compressibility (1/GPa) = 0.04498402
#
# Stress axis : x y z
#
# Youngs Moduli (GPa) = 53.45077 51.98117 51.49444
#
# Poissons Ratio (x) = 0.34465 0.01335
# Poissons Ratio (y) = 0.35439 -0.03597
# Poissons Ratio (z) = 0.01386 -0.03631
#
# Static dielectric constant tensor:
#      x y z
#    x 1.589200 0.000000 0.000000 
#    y 0.000000 1.603430 0.000000 
#    z 0.000000 0.000000 1.666050 
# 
# From -- ./inp_files/8027.got.cif
#   From: 2010.05.17/outbox.cif.g08.bks.cpg/sg59_5_cif.got.tgz:8027.got - 2010.06.03 14:40:33.
