data_PCOD9449811
_publ_section_title
;
Structure prediction by ZEFSAII (Michael W. Deem and Ramdas Pophale) SiO2 
 PCOD9449811
Probable space group: P M M N
;
_chemical_formula_sum "Si O2"
_cell_formula_units_Z 56
_cell_length_a 18.499490
_cell_length_b 8.663756
_cell_length_c 20.097654
_cell_angle_alpha 90.000000
_cell_angle_beta 90.000000
_cell_angle_gamma 90.000000
_cell_volume 3221.152851
_symmetry_space_group_name_H-M "P M M N"
_symmetry_group_IT_number 59
_space_group.IT_coordinate_system_code '2'
_symmetry_cell_setting 'orthorhombic'
loop_
_space_group_symop_operation_xyz
x,y,z
1/2-x,1/2-y,z
1/2+x,-y,-z
-x,1/2+y,-z
-x,-y,-z
1/2+x,1/2+y,-z
1/2-x,y,z
x,1/2-y,z
loop_
_atom_site_type_symbol
_atom_site_label
_atom_site_fract_x
_atom_site_fract_y
_atom_site_fract_z
Si Si1 0.168655 0.562100 0.660397
Si Si2 0.335301 0.928428 0.507541
Si Si3 0.958480 0.568462 0.563416
Si Si4 0.332326 0.937716 0.064028
Si Si5 0.515960 0.062889 0.293365
Si Si6 0.032984 0.934743 0.156875
Si Si7 0.937441 0.064776 0.047965
O O1 0.250000 0.509580 0.677916
O O2 0.170592 0.750000 0.659717
O O3 0.152178 0.517452 0.583679
O O4 0.100913 0.516590 0.705473
O O5 0.250000 0.931109 0.497807
O O6 0.359921 0.750000 0.503357
O O7 0.376358 0.026927 0.453153
O O8 0.970496 0.750000 0.563514
O O9 0.984133 0.511769 0.635335
O O10 0.000000 0.500000 0.500000
O O11 0.250000 0.992045 0.074893
O O12 0.330926 0.750000 0.066792
O O13 0.393731 0.986794 0.117739
O O14 0.363792 0.978691 0.990693
O O15 0.512657 0.250000 0.289603
O O16 0.472843 0.993213 0.231874
O O17 0.032122 0.750000 0.154040
O O18 0.961884 0.997763 0.118451
O O19 0.940534 0.250000 0.050774
O O20 0.000000 0.000000 0.000000
#
# Coordination Sequence:
#
# PCOD9449811 Si02
#       7
#     8   8   8   8   8   8   8
#     4   8  14  28  50  71  91 120 162 209 256 309
#     4   9  17  32  53  74  97 126 165 215 268 320
#     4  11  21  33  51  75 102 132 173 223 273 324
#     4   8  15  30  53  79 102 128 168 210 242 281
#     4  10  20  34  51  72 100 137 175 213 260 313
#     4  10  20  33  51  75 104 138 171 210 256 302
#     4   9  16  29  52  77 101 129 162 202 244 291
#
# _framework density 17.385079999999999
#
# number of rings (size 3 to 8) (size 9 to 14) (size 15 to 20)
#    0.000    2.714    1.429    3.000    0.000    1.429 
#    0.000    1.429    0.000   22.714    0.000    0.000 
#    0.000    0.000    0.000    0.000    0.000    0.000 
#
# Total GULP energy -311750.691593 kJ/mol
# GULP energy per Si atom -5566.976636 kJ/mol
# Density = 1.734551 g / cm^3
# Si number density = 17.385080 Si / 1000 Ang^3
#
#
#
# Elastic Constant Matrix: (Units=GPa)
#
#
# Indices 1 2 3 4 5 6 
#
# 1 110.8098 18.0941 54.3341 0.0000 0.0000 0.0000
# 2 18.0941 24.1287 26.3912 0.0000 0.0000 0.0000
# 3 54.3341 26.3912 109.0466 0.0000 0.0000 0.0000
# 4 0.0000 0.0000 0.0000 27.4735 0.0000 0.0000
# 5 0.0000 0.0000 0.0000 0.0000 23.1702 0.0000
# 6 0.0000 0.0000 0.0000 0.0000 0.0000 21.0689
#
#
#
# Elastic Compliance Matrix: (Units=1/GPa)
#
#
# Indices 1 2 3 4 5 6 
#
# 1 0.012142 -0.003384 -0.005231 0.000000 0.000000 0.000000
# 2 -0.003384 0.057308 -0.012184 0.000000 0.000000 0.000000
# 3 -0.005231 -0.012184 0.014725 0.000000 0.000000 0.000000
# 4 0.000000 0.000000 0.000000 0.036399 0.000000 0.000000
# 5 0.000000 0.000000 0.000000 0.000000 0.043159 0.000000
# 6 0.000000 0.000000 0.000000 0.000000 0.000000 0.047463
#
#
# Mechanical properties :
#
#
# Convention : Reuss Voigt Hill
#
# Bulk Modulus (GPa) = 23.48589 49.06932 36.27760
# Shear Modulus (GPa) = 18.72760 24.02023 21.37392
#
# Velocity S-wave (km/s) = 3.28567 3.72110 3.51014
# Velocity P-wave (km/s) = 5.28514 6.83727 6.11069
#
# Compressibility (1/GPa) = 0.04257876
#
# Stress axis : x y z
#
# Youngs Moduli (GPa) = 82.35907 17.44961 67.90965
#
# Poissons Ratio (x) = 0.05904 0.35523
# Poissons Ratio (y) = 0.27868 0.82738
# Poissons Ratio (z) = 0.43082 0.21260
#
# Static dielectric constant tensor:
#      x y z
#    x 1.643520 0.000000 0.000000 
#    y 0.000000 1.608530 0.000000 
#    z 0.000000 0.000000 1.583970 
# 
# From -- ./inp_files/30620.got.cif
#   From: 2010.05.17/outbox.cif.g08.bks.cpg/sg59_16_cif.got.tgz:30620.got - 2010.06.03 14:40:33.
