data_PCOD9449890
_publ_section_title
;
Structure prediction by ZEFSAII (Michael W. Deem and Ramdas Pophale) SiO2 
 PCOD9449890
Probable space group: P M M N
;
_chemical_formula_sum "Si O2"
_cell_formula_units_Z 64
_cell_length_a 7.761552
_cell_length_b 25.950952
_cell_length_c 12.713481
_cell_angle_alpha 90.000000
_cell_angle_beta 90.000000
_cell_angle_gamma 90.000000
_cell_volume 2560.745064
_symmetry_space_group_name_H-M "P M M N"
_symmetry_group_IT_number 59
_space_group.IT_coordinate_system_code '2'
_symmetry_cell_setting 'orthorhombic'
loop_
_space_group_symop_operation_xyz
x,y,z
1/2-x,1/2-y,z
1/2+x,-y,-z
-x,1/2+y,-z
-x,-y,-z
1/2+x,1/2+y,-z
1/2-x,y,z
x,1/2-y,z
loop_
_atom_site_type_symbol
_atom_site_label
_atom_site_fract_x
_atom_site_fract_y
_atom_site_fract_z
Si Si1 0.946597 0.551226 0.376244
Si Si2 0.956063 0.920773 0.922689
Si Si3 0.458017 0.339228 0.564618
Si Si4 0.958505 0.806430 0.203207
Si Si5 0.546009 0.168167 0.339636
Si Si6 0.050791 0.194911 0.115697
Si Si7 0.955550 0.052783 0.306234
Si Si8 0.445341 0.581916 0.151300
O O1 0.750000 0.547767 0.413556
O O2 0.027516 0.601661 0.429051
O O3 0.028117 0.494557 0.374008
O O4 0.943099 0.565248 0.251245
O O5 0.750000 0.919064 0.919816
O O6 0.023776 0.861446 0.911165
O O7 0.013335 0.951420 0.819108
O O8 0.011279 0.939944 0.037042
O O9 0.250000 0.341142 0.564564
O O10 0.507513 0.312612 0.673832
O O11 0.515958 0.313114 0.457451
O O12 0.750000 0.809469 0.196435
O O13 0.011727 0.750000 0.165921
O O14 0.032203 0.856097 0.145407
O O15 0.750000 0.169205 0.317516
O O16 0.455078 0.194989 0.242580
O O17 0.479465 0.109031 0.337178
O O18 0.250000 0.194276 0.079373
O O19 0.974474 0.250000 0.080899
O O20 0.750000 0.052385 0.321934
O O21 0.250000 0.568817 0.178456
#
# Coordination Sequence:
#
# PCOD9449890 Si02
#       8
#     8   8   8   8   8   8   8   8
#     4   9  19  37  57  75 100 137 178 216 255 304
#     4  10  20  35  55  78 104 136 174 213 256 310
#     4   9  18  33  53  77 104 137 175 211 250 302
#     4   9  19  37  58  77 101 137 178 216 254 301
#     4  10  20  33  51  78 109 137 166 208 262 310
#     4   9  19  36  56  76  99 132 175 216 250 294
#     4   9  19  36  55  76 104 136 172 216 262 306
#     4  11  22  35  53  79 109 137 168 212 263 310
#
# _framework density 24.992728
#
# number of rings (size 3 to 8) (size 9 to 14) (size 15 to 20)
#    0.000    2.500    0.000    2.625    0.000    6.000 
#    0.000    2.500    0.000    0.000    0.000    0.000 
#    0.000    0.000    0.000    0.000    0.000    0.000 
#
# Total GULP energy -357720.284843 kJ/mol
# GULP energy per Si atom -5589.379451 kJ/mol
# Density = 2.493584 g / cm^3
# Si number density = 24.992728 Si / 1000 Ang^3
#
#
#
# Elastic Constant Matrix: (Units=GPa)
#
#
# Indices 1 2 3 4 5 6 
#
# 1 53.5763 5.3676 -6.4218 0.0000 0.0000 0.0000
# 2 5.3676 97.3898 -8.3822 0.0000 0.0000 0.0000
# 3 -6.4218 -8.3822 126.3398 0.0000 0.0000 0.0000
# 4 0.0000 0.0000 0.0000 -9.1402 0.0000 0.0000
# 5 0.0000 0.0000 0.0000 0.0000 18.8340 0.0000
# 6 0.0000 0.0000 0.0000 0.0000 0.0000 8.2550
#
#
#
# Elastic Compliance Matrix: (Units=1/GPa)
#
#
# Indices 1 2 3 4 5 6 
#
# 1 0.018869 -0.000963 0.000895 0.000000 0.000000 0.000000
# 2 -0.000963 0.010376 0.000639 0.000000 0.000000 0.000000
# 3 0.000895 0.000639 0.008003 0.000000 0.000000 0.000000
# 4 0.000000 0.000000 0.000000 -0.109406 0.000000 0.000000
# 5 0.000000 0.000000 0.000000 0.000000 0.053096 0.000000
# 6 0.000000 0.000000 0.000000 0.000000 0.000000 0.121139
#
#
# Mechanical properties :
#
#
# Convention : Reuss Voigt Hill
#
# Bulk Modulus (GPa) = 26.04741 28.71479 27.38110
# Shear Modulus (GPa) = 43.96394 22.70590 33.33492
#
# Velocity S-wave (km/s) = 4.19868 3.01740 3.65606
# Velocity P-wave (km/s) = 5.82665 4.86352 5.36673
#
# Compressibility (1/GPa) = 0.03839153
#
# Stress axis : x y z
#
# Youngs Moduli (GPa) = 52.99772 96.37514 124.95170
#
# Poissons Ratio (x) = 0.09280 -0.11186
# Poissons Ratio (y) = 0.05103 -0.07990
# Poissons Ratio (z) = -0.04744 -0.06163
#
# Static dielectric constant tensor:
#      x y z
#    x 1.907850 0.000000 0.000000 
#    y 0.000000 2.035270 0.000000 
#    z 0.000000 0.000000 1.955140 
# 
# From -- ./inp_files/15053.got.cif
#   From: 2010.05.17/outbox.cif.g08.bks.cpg/sg59_8_cif.got.tgz:15053.got - 2010.06.03 14:40:33.
