data_PCOD9449162
_publ_section_title
;
Structure prediction by ZEFSAII (Michael W. Deem and Ramdas Pophale) SiO2 
 PCOD9449162
Probable space group: P M M N
;
_chemical_formula_sum "Si O2"
_cell_formula_units_Z 64
_cell_length_a 8.659637
_cell_length_b 31.623172
_cell_length_c 12.246037
_cell_angle_alpha 90.000000
_cell_angle_beta 90.000000
_cell_angle_gamma 90.000000
_cell_volume 3353.518333
_symmetry_space_group_name_H-M "P M M N"
_symmetry_group_IT_number 59
_space_group.IT_coordinate_system_code '2'
_symmetry_cell_setting 'orthorhombic'
loop_
_space_group_symop_operation_xyz
x,y,z
1/2-x,1/2-y,z
1/2+x,-y,-z
-x,1/2+y,-z
-x,-y,-z
1/2+x,1/2+y,-z
1/2-x,y,z
x,1/2-y,z
loop_
_atom_site_type_symbol
_atom_site_label
_atom_site_fract_x
_atom_site_fract_y
_atom_site_fract_z
Si Si1 0.931719 0.180370 0.750264
Si Si2 0.567023 0.546746 0.484644
Si Si3 0.438229 0.796727 0.492717
Si Si4 0.936854 0.876748 0.875931
Si Si5 0.568583 0.079071 0.740628
Si Si6 0.935677 0.703600 0.017402
Si Si7 0.064409 0.621688 0.631819
Si Si8 0.064498 0.454534 0.967137
O O1 0.750000 0.190979 0.759805
O O2 0.987730 0.197284 0.633221
O O3 0.946677 0.129688 0.747394
O O4 0.015584 0.197190 0.857263
O O5 0.500000 0.500000 0.500000
O O6 0.750000 0.545795 0.498280
O O7 0.521655 0.562487 0.364213
O O8 0.496287 0.580327 0.569469
O O9 0.250000 0.797997 0.491621
O O10 0.485142 0.750000 0.531813
O O11 0.488826 0.836168 0.566425
O O12 0.750000 0.875527 0.868658
O O13 0.005643 0.877341 0.755390
O O14 0.990727 0.835496 0.943717
O O15 0.978803 0.918631 0.944397
O O16 0.750000 0.069101 0.727849
O O17 0.503818 0.059098 0.850969
O O18 0.750000 0.702933 0.012755
O O19 0.989577 0.750000 0.979879
O O20 0.250000 0.621035 0.629784
O O21 0.250000 0.455797 0.960736
O O22 0.000000 0.500000 0.000000
#
# Coordination Sequence:
#
# PCOD9449162 Si02
#       8
#     8   8   8   8   8   8   8   8
#     4  10  19  35  61  90 124 159 198 248 302 361
#     4  12  26  44  67  93 125 163 204 251 306 367
#     4   9  18  35  59  88 122 159 199 248 304 359
#     4  10  23  42  60  84 120 164 207 251 306 366
#     4  11  22  40  66  96 127 159 202 253 306 364
#     4  10  21  38  60  87 122 161 203 253 306 362
#     4  11  23  41  63  90 123 162 208 257 307 362
#     4  11  24  42  64  90 123 163 206 254 307 365
#
# _framework density 19.084433000000001
#
# number of rings (size 3 to 8) (size 9 to 14) (size 15 to 20)
#    0.000    1.500    2.500    2.625    1.750    3.250 
#    0.000    0.000    0.000    1.875    0.000    0.000 
#    0.000    0.000    0.000    0.000    0.000    0.000 
#
# Total GULP energy -357696.518345 kJ/mol
# GULP energy per Si atom -5589.008099 kJ/mol
# Density = 1.904100 g / cm^3
# Si number density = 19.084433 Si / 1000 Ang^3
#
#
#
# Elastic Constant Matrix: (Units=GPa)
#
#
# Indices 1 2 3 4 5 6 
#
# 1 38.4392 42.0388 28.5071 0.0000 0.0000 0.0000
# 2 42.0388 169.7337 82.4988 0.0000 0.0000 0.0000
# 3 28.5071 82.4988 143.8919 0.0000 0.0000 0.0000
# 4 0.0000 0.0000 0.0000 42.1830 0.0000 0.0000
# 5 0.0000 0.0000 0.0000 0.0000 36.9728 0.0000
# 6 0.0000 0.0000 0.0000 0.0000 0.0000 -8.8746
#
#
#
# Elastic Compliance Matrix: (Units=1/GPa)
#
#
# Indices 1 2 3 4 5 6 
#
# 1 0.036497 -0.007660 -0.002839 0.000000 0.000000 0.000000
# 2 -0.007660 0.009775 -0.004087 0.000000 0.000000 0.000000
# 3 -0.002839 -0.004087 0.009855 0.000000 0.000000 0.000000
# 4 0.000000 0.000000 0.000000 0.023706 0.000000 0.000000
# 5 0.000000 0.000000 0.000000 0.000000 0.027047 0.000000
# 6 0.000000 0.000000 0.000000 0.000000 0.000000 -0.112681
#
#
# Mechanical properties :
#
#
# Convention : Reuss Voigt Hill
#
# Bulk Modulus (GPa) = 37.09674 73.12825 55.11250
# Shear Modulus (GPa) = 154.52570 27.32424 90.92497
#
# Velocity S-wave (km/s) = 9.00807 3.78796 6.90992
# Velocity P-wave (km/s) = 11.29930 7.58505 9.62307
#
# Compressibility (1/GPa) = 0.02695655
#
# Stress axis : x y z
#
# Youngs Moduli (GPa) = 27.39918 102.30030 101.46734
#
# Poissons Ratio (x) = 0.78357 0.28808
# Poissons Ratio (y) = 0.20986 0.41470
# Poissons Ratio (z) = 0.07779 0.41810
#
# Static dielectric constant tensor:
#      x y z
#    x 1.651470 0.000000 0.000000 
#    y 0.000000 1.664300 0.000000 
#    z 0.000000 0.000000 1.618220 
# 
# From -- ./inp_files/14935.got.cif
#   From: 2010.05.17/outbox.cif.g08.bks.cpg/sg59_8_cif.got.tgz:14935.got - 2010.06.03 14:40:33.
