data_PCOD9449942
_publ_section_title
;
Structure prediction by ZEFSAII (Michael W. Deem and Ramdas Pophale) SiO2 
 PCOD9449942
Probable space group: P M M N
;
_chemical_formula_sum "Si O2"
_cell_formula_units_Z 56
_cell_length_a 9.191625
_cell_length_b 14.646308
_cell_length_c 21.376139
_cell_angle_alpha 90.000000
_cell_angle_beta 90.000000
_cell_angle_gamma 90.000000
_cell_volume 2877.727886
_symmetry_space_group_name_H-M "P M M N"
_symmetry_group_IT_number 59
_space_group.IT_coordinate_system_code '2'
_symmetry_cell_setting 'orthorhombic'
loop_
_space_group_symop_operation_xyz
x,y,z
1/2-x,1/2-y,z
1/2+x,-y,-z
-x,1/2+y,-z
-x,-y,-z
1/2+x,1/2+y,-z
1/2-x,y,z
x,1/2-y,z
loop_
_atom_site_type_symbol
_atom_site_label
_atom_site_fract_x
_atom_site_fract_y
_atom_site_fract_z
Si Si1 0.074867 0.642423 0.169169
Si Si2 0.076824 0.481172 0.726042
Si Si3 0.576736 0.466784 0.595463
Si Si4 0.080040 0.915325 0.030651
Si Si5 0.584586 0.859827 0.783788
Si Si6 0.092271 0.646623 0.897983
Si Si7 0.576596 0.856413 0.514108
O O1 0.250000 0.627834 0.174031
O O2 0.048700 0.750000 0.179330
O O3 0.027898 0.617743 0.097970
O O4 0.991204 0.581418 0.219311
O O5 0.250000 0.474295 0.724999
O O6 0.006276 0.453585 0.660262
O O7 0.025194 0.584641 0.740638
O O8 0.750000 0.454974 0.602766
O O9 0.513968 0.396671 0.544022
O O10 0.550872 0.570173 0.569555
O O11 0.250000 0.936169 0.038441
O O12 0.067245 0.848116 0.971743
O O13 0.000000 0.000000 0.000000
O O14 0.750000 0.889099 0.771756
O O15 0.580232 0.750000 0.775716
O O16 0.537289 0.888490 0.854676
O O17 0.250000 0.599591 0.887618
O O18 0.107030 0.750000 0.875680
O O19 0.750000 0.861072 0.500071
O O20 0.541862 0.750000 0.527602
#
# Coordination Sequence:
#
# PCOD9449942 Si02
#       7
#     8   8   8   8   8   8   8
#     4  10  22  41  62  83 112 154 204 253 299 352
#     4  12  25  40  59  84 118 158 199 245 295 347
#     4  10  21  38  61  90 122 157 197 237 281 337
#     4  10  20  33  52  78 106 139 181 233 294 354
#     4  10  21  37  57  82 113 150 194 244 298 358
#     4   9  17  31  51  74 101 133 172 222 282 345
#     4   9  19  38  64  93 124 155 188 231 282 334
#
# _framework density 19.459796999999998
#
# number of rings (size 3 to 8) (size 9 to 14) (size 15 to 20)
#    0.000    2.000    0.000    3.429    0.000    8.286 
#    0.000    1.429    0.000    2.571    0.000    0.000 
#    0.000    0.000    0.000    0.000    0.000    0.000 
#
# Total GULP energy -312201.366085 kJ/mol
# GULP energy per Si atom -5575.024394 kJ/mol
# Density = 1.941551 g / cm^3
# Si number density = 19.459797 Si / 1000 Ang^3
#
#
#
# Elastic Constant Matrix: (Units=GPa)
#
#
# Indices 1 2 3 4 5 6 
#
# 1 66.0056 25.8479 31.2066 0.0000 0.0000 0.0000
# 2 25.8479 78.9906 -0.3743 0.0000 0.0000 0.0000
# 3 31.2066 -0.3743 67.0968 0.0000 0.0000 0.0000
# 4 0.0000 0.0000 0.0000 14.1004 0.0000 0.0000
# 5 0.0000 0.0000 0.0000 0.0000 27.0351 0.0000
# 6 0.0000 0.0000 0.0000 0.0000 0.0000 25.3269
#
#
#
# Elastic Compliance Matrix: (Units=1/GPa)
#
#
# Indices 1 2 3 4 5 6 
#
# 1 0.023300 -0.007676 -0.010880 0.000000 0.000000 0.000000
# 2 -0.007676 0.015189 0.003655 0.000000 0.000000 0.000000
# 3 -0.010880 0.003655 0.019984 0.000000 0.000000 0.000000
# 4 0.000000 0.000000 0.000000 0.070920 0.000000 0.000000
# 5 0.000000 0.000000 0.000000 0.000000 0.036989 0.000000
# 6 0.000000 0.000000 0.000000 0.000000 0.000000 0.039484
#
#
# Mechanical properties :
#
#
# Convention : Reuss Voigt Hill
#
# Bulk Modulus (GPa) = 34.87767 36.16147 35.51957
# Shear Modulus (GPa) = 20.38952 23.65334 22.02143
#
# Velocity S-wave (km/s) = 3.24045 3.49018 3.36763
# Velocity P-wave (km/s) = 5.65354 5.90464 5.78046
#
# Compressibility (1/GPa) = 0.02867164
#
# Stress axis : x y z
#
# Youngs Moduli (GPa) = 42.91875 65.83787 50.03934
#
# Poissons Ratio (x) = 0.50537 0.54440
# Poissons Ratio (y) = 0.32944 -0.18288
# Poissons Ratio (z) = 0.46694 -0.24062
#
# Static dielectric constant tensor:
#      x y z
#    x 1.683160 0.000000 0.000000 
#    y 0.000000 1.642280 0.000000 
#    z 0.000000 0.000000 1.712660 
# 
# From -- ./inp_files/29006.got.cif
#   From: 2010.05.17/outbox.cif.g08.bks.cpg/sg59_15_cif.got.tgz:29006.got - 2010.06.03 14:40:33.
