data_PCOD9449049
_publ_section_title
;
Structure prediction by ZEFSAII (Michael W. Deem and Ramdas Pophale) SiO2 
 PCOD9449049
Probable space group: P M M N
;
_chemical_formula_sum "Si O2"
_cell_formula_units_Z 48
_cell_length_a 30.745107
_cell_length_b 9.054223
_cell_length_c 9.665346
_cell_angle_alpha 90.000000
_cell_angle_beta 90.000000
_cell_angle_gamma 90.000000
_cell_volume 2690.571893
_symmetry_space_group_name_H-M "P M M N"
_symmetry_group_IT_number 59
_space_group.IT_coordinate_system_code '2'
_symmetry_cell_setting 'orthorhombic'
loop_
_space_group_symop_operation_xyz
x,y,z
1/2-x,1/2-y,z
1/2+x,-y,-z
-x,1/2+y,-z
-x,-y,-z
1/2+x,1/2+y,-z
1/2-x,y,z
x,1/2-y,z
loop_
_atom_site_type_symbol
_atom_site_label
_atom_site_fract_x
_atom_site_fract_y
_atom_site_fract_z
Si Si1 0.150446 0.428922 0.534439
Si Si2 0.378493 0.573394 0.806714
Si Si3 0.954142 0.074757 0.969534
Si Si4 0.750000 0.078533 0.813573
Si Si5 0.677923 0.916175 0.977840
Si Si6 0.750000 0.927511 0.517456
Si Si7 0.397813 0.084101 0.248654
O O1 0.149047 0.250000 0.549542
O O2 0.122646 0.509046 0.652755
O O3 0.202052 0.473370 0.540080
O O4 0.127910 0.464896 0.386528
O O5 0.371794 0.750000 0.806804
O O6 0.420779 0.543286 0.902776
O O7 0.339703 0.485412 0.881952
O O8 0.958892 0.250000 0.961655
O O9 0.933962 0.016217 0.824759
O O10 0.000000 0.000000 0.000000
O O11 0.750000 0.250000 0.778711
O O12 0.750000 0.982341 0.675136
O O13 0.709804 0.030242 0.906363
O O14 0.695813 0.750000 0.996309
O O15 0.638389 0.904805 0.870549
O O16 0.750000 0.750000 0.514110
O O17 0.415180 0.250000 0.274733
#
# Coordination Sequence:
#
# PCOD9449049 Si02
#       7
#     8   8   8   4   8   4   8
#     4  10  20  36  58  83 114 155 197 233 275 335
#     4  10  22  38  55  82 117 146 180 233 290 338
#     4  10  21  38  61  86 112 143 183 233 288 347
#     4  12  22  31  50  81 112 142 186 240 284 325
#     4  10  19  35  56  76 104 146 189 230 275 327
#     4  10  20  37  56  79 112 152 200 236 268 321
#     4   9  18  34  58  83 108 143 188 231 274 330
#
# _framework density 17.840071999999999
#
# number of rings (size 3 to 8) (size 9 to 14) (size 15 to 20)
#    0.000    2.000    1.667    2.250    0.000    4.667 
#    0.000    3.333    0.000    0.000    0.000    0.000 
#    0.000    0.000    0.000    0.000    0.000    0.000 
#
# Total GULP energy -267413.996826 kJ/mol
# GULP energy per Si atom -5571.124934 kJ/mol
# Density = 1.779947 g / cm^3
# Si number density = 17.840072 Si / 1000 Ang^3
#
#
#
# Elastic Constant Matrix: (Units=GPa)
#
#
# Indices 1 2 3 4 5 6 
#
# 1 70.4061 34.0671 26.2037 0.0000 0.0000 0.0000
# 2 34.0671 29.2029 34.3231 0.0000 0.0000 0.0000
# 3 26.2037 34.3231 103.7626 0.0000 0.0000 0.0000
# 4 0.0000 0.0000 0.0000 28.2560 0.0000 0.0000
# 5 0.0000 0.0000 0.0000 0.0000 31.3298 0.0000
# 6 0.0000 0.0000 0.0000 0.0000 0.0000 23.7744
#
#
#
# Elastic Compliance Matrix: (Units=1/GPa)
#
#
# Indices 1 2 3 4 5 6 
#
# 1 0.036172 -0.051471 0.007891 0.000000 0.000000 0.000000
# 2 -0.051471 0.129267 -0.029761 0.000000 0.000000 0.000000
# 3 0.007891 -0.029761 0.017489 0.000000 0.000000 0.000000
# 4 0.000000 0.000000 0.000000 0.035391 0.000000 0.000000
# 5 0.000000 0.000000 0.000000 0.000000 0.031918 0.000000
# 6 0.000000 0.000000 0.000000 0.000000 0.000000 0.042062
#
#
# Mechanical properties :
#
#
# Convention : Reuss Voigt Hill
#
# Bulk Modulus (GPa) = 27.58985 43.61772 35.60378
# Shear Modulus (GPa) = 11.08490 23.92388 17.50439
#
# Velocity S-wave (km/s) = 2.49539 3.66597 3.13578
# Velocity P-wave (km/s) = 4.87866 6.51317 5.75425
#
# Compressibility (1/GPa) = 0.03624522
#
# Stress axis : x y z
#
# Youngs Moduli (GPa) = 27.64601 7.73591 57.17831
#
# Poissons Ratio (x) = 0.39818 -0.45122
# Poissons Ratio (y) = 1.42298 1.70170
# Poissons Ratio (z) = -0.21817 0.23023
#
# Static dielectric constant tensor:
#      x y z
#    x 1.615320 0.000000 0.000000 
#    y 0.000000 1.609470 0.000000 
#    z 0.000000 0.000000 1.585850 
# 
# From -- ./inp_files/6358.got.cif
#   From: 2010.05.17/outbox.cif.g08.bks.cpg/sg59_4_cif.got.tgz:6358.got - 2010.06.03 14:40:33.
