data_PCOD9449471
_publ_section_title
;
Structure prediction by ZEFSAII (Michael W. Deem and Ramdas Pophale) SiO2 
 PCOD9449471
Probable space group: P M M N
;
_chemical_formula_sum "Si O2"
_cell_formula_units_Z 64
_cell_length_a 9.010819
_cell_length_b 19.152986
_cell_length_c 21.960651
_cell_angle_alpha 90.000000
_cell_angle_beta 90.000000
_cell_angle_gamma 90.000000
_cell_volume 3790.058972
_symmetry_space_group_name_H-M "P M M N"
_symmetry_group_IT_number 59
_space_group.IT_coordinate_system_code '2'
_symmetry_cell_setting 'orthorhombic'
loop_
_space_group_symop_operation_xyz
x,y,z
1/2-x,1/2-y,z
1/2+x,-y,-z
-x,1/2+y,-z
-x,-y,-z
1/2+x,1/2+y,-z
1/2-x,y,z
x,1/2-y,z
loop_
_atom_site_type_symbol
_atom_site_label
_atom_site_fract_x
_atom_site_fract_y
_atom_site_fract_z
Si Si1 0.426782 0.332469 0.604788
Si Si2 0.581019 0.976375 0.189457
Si Si3 0.081304 0.640008 0.773767
Si Si4 0.072570 0.332264 0.464013
Si Si5 0.926132 0.827437 0.894947
Si Si6 0.426083 0.944842 0.309747
Si Si7 0.927976 0.089360 0.353198
Si Si8 0.571071 0.030351 0.060838
O O1 0.250000 0.344255 0.612704
O O2 0.454129 0.250000 0.613576
O O3 0.463318 0.349411 0.534307
O O4 0.516282 0.380133 0.650941
O O5 0.750000 0.949351 0.191759
O O6 0.481253 0.939406 0.239807
O O7 0.586322 0.057453 0.210463
O O8 0.529982 0.982431 0.119579
O O9 0.250000 0.666570 0.780879
O O10 0.035587 0.641510 0.703302
O O11 0.973833 0.671473 0.823949
O O12 0.250000 0.341346 0.456334
O O13 0.039853 0.250000 0.454889
O O14 0.986301 0.378725 0.415680
O O15 0.750000 0.838579 0.900139
O O16 0.962208 0.750000 0.919308
O O17 0.011514 0.891562 0.926095
O O18 0.250000 0.950786 0.311555
O O19 0.498065 0.015023 0.338267
O O20 0.750000 0.081154 0.353296
O O21 0.750000 0.031639 0.058024
O O22 0.500000 0.000000 0.000000
#
# Coordination Sequence:
#
# PCOD9449471 Si02
#       8
#     8   8   8   8   8   8   8   8
#     4   9  19  37  57  73  94 128 166 206 259 319
#     4   8  16  32  51  73 101 130 160 195 239 292
#     4   8  16  30  46  66  94 129 166 201 240 289
#     4   9  19  35  52  70  94 126 166 211 257 307
#     4  10  20  32  48  73 104 137 174 214 251 291
#     4  11  21  32  52  79 103 129 163 210 258 295
#     4  10  20  33  49  71 101 136 171 206 249 303
#     4  10  20  34  55  80 106 139 174 208 249 298
#
# _framework density 16.886281
#
# number of rings (size 3 to 8) (size 9 to 14) (size 15 to 20)
#    0.000    2.625    0.000    4.500    0.000    8.500 
#    0.000    3.750    0.000    0.750    0.000    5.250 
#    0.000    0.000    0.000    0.000    0.000    0.000 
#
# Total GULP energy -356769.517134 kJ/mol
# GULP energy per Si atom -5574.523705 kJ/mol
# Density = 1.684785 g / cm^3
# Si number density = 16.886281 Si / 1000 Ang^3
#
#
#
# Elastic Constant Matrix: (Units=GPa)
#
#
# Indices 1 2 3 4 5 6 
#
# 1 76.2999 48.3306 71.1610 0.0000 0.0000 0.0000
# 2 48.3306 59.1321 63.5443 0.0000 0.0000 0.0000
# 3 71.1610 63.5443 142.6651 0.0000 0.0000 0.0000
# 4 0.0000 0.0000 0.0000 11.9634 0.0000 0.0000
# 5 0.0000 0.0000 0.0000 0.0000 28.5674 0.0000
# 6 0.0000 0.0000 0.0000 0.0000 0.0000 22.3757
#
#
#
# Elastic Compliance Matrix: (Units=1/GPa)
#
#
# Indices 1 2 3 4 5 6 
#
# 1 0.031418 -0.016953 -0.008120 0.000000 0.000000 0.000000
# 2 -0.016953 0.041584 -0.010066 0.000000 0.000000 0.000000
# 3 -0.008120 -0.010066 0.015543 0.000000 0.000000 0.000000
# 4 0.000000 0.000000 0.000000 0.083589 0.000000 0.000000
# 5 0.000000 0.000000 0.000000 0.000000 0.035005 0.000000
# 6 0.000000 0.000000 0.000000 0.000000 0.000000 0.044691
#
#
# Mechanical properties :
#
#
# Convention : Reuss Voigt Hill
#
# Bulk Modulus (GPa) = 54.74199 71.57434 63.15817
# Shear Modulus (GPa) = 15.23471 18.91869 17.07670
#
# Velocity S-wave (km/s) = 3.00691 3.35081 3.18351
# Velocity P-wave (km/s) = 6.67411 7.57949 7.14116
#
# Compressibility (1/GPa) = 0.01826751
#
# Stress axis : x y z
#
# Youngs Moduli (GPa) = 31.82906 24.04744 64.33604
#
# Poissons Ratio (x) = 0.40767 0.52243
# Poissons Ratio (y) = 0.53959 0.64762
# Poissons Ratio (z) = 0.25846 0.24207
#
# Static dielectric constant tensor:
#      x y z
#    x 1.562400 0.000000 0.000000 
#    y 0.000000 1.562180 0.000000 
#    z 0.000000 0.000000 1.579420 
# 
# From -- ./inp_files/29443.got.cif
#   From: 2010.05.17/outbox.cif.g08.bks.cpg/sg59_15_cif.got.tgz:29443.got - 2010.06.03 14:40:33.
