data_PCOD9449981
_publ_section_title
;
Structure prediction by ZEFSAII (Michael W. Deem and Ramdas Pophale) SiO2 
 PCOD9449981
Probable space group: P M M N
;
_chemical_formula_sum "Si O2"
_cell_formula_units_Z 64
_cell_length_a 8.987933
_cell_length_b 20.725659
_cell_length_c 19.954210
_cell_angle_alpha 90.000000
_cell_angle_beta 90.000000
_cell_angle_gamma 90.000000
_cell_volume 3717.086890
_symmetry_space_group_name_H-M "P M M N"
_symmetry_group_IT_number 59
_space_group.IT_coordinate_system_code '2'
_symmetry_cell_setting 'orthorhombic'
loop_
_space_group_symop_operation_xyz
x,y,z
1/2-x,1/2-y,z
1/2+x,-y,-z
-x,1/2+y,-z
-x,-y,-z
1/2+x,1/2+y,-z
1/2-x,y,z
x,1/2-y,z
loop_
_atom_site_type_symbol
_atom_site_label
_atom_site_fract_x
_atom_site_fract_y
_atom_site_fract_z
Si Si1 0.423934 0.981197 0.825826
Si Si2 0.925023 0.363658 0.686501
Si Si3 0.575738 0.636965 0.174623
Si Si4 0.071929 0.676479 0.461758
Si Si5 0.072821 0.059611 0.040046
Si Si6 0.074987 0.481576 0.312534
Si Si7 0.571633 0.559622 0.539809
Si Si8 0.425930 0.676062 0.038460
O O1 0.250000 0.966746 0.835081
O O2 0.442003 0.059056 0.831280
O O3 0.479751 0.962737 0.751973
O O4 0.519719 0.948173 0.883634
O O5 0.750000 0.349952 0.697699
O O6 0.971028 0.332302 0.616357
O O7 0.941398 0.441077 0.677846
O O8 0.015724 0.343992 0.752215
O O9 0.750000 0.652070 0.167876
O O10 0.483616 0.667684 0.114382
O O11 0.250000 0.663916 0.464876
O O12 0.044417 0.750000 0.482341
O O13 0.987961 0.624869 0.506895
O O14 0.250000 0.055973 0.034367
O O15 0.013007 0.125071 0.006968
O O16 0.000000 0.000000 0.000000
O O17 0.250000 0.469785 0.299338
O O18 0.032145 0.447593 0.381802
O O19 0.500000 0.500000 0.500000
O O20 0.750000 0.555452 0.534717
O O21 0.250000 0.661961 0.035973
O O22 0.449954 0.750000 0.017386
#
# Coordination Sequence:
#
# PCOD9449981 Si02
#       8
#     8   8   8   8   8   8   8   8
#     4  10  20  34  55  85 115 144 181 229 279 328
#     4   9  17  32  51  74 109 149 188 226 270 328
#     4  10  20  33  52  80 113 148 186 229 274 325
#     4  10  21  37  55  78 111 150 190 230 278 333
#     4  12  23  37  60  86 114 148 186 231 277 327
#     4   9  18  33  53  79 110 144 181 228 280 331
#     4  11  21  35  57  83 112 144 186 232 280 331
#     4  11  24  40  58  81 112 151 191 230 276 330
#
# _framework density 17.217784999999999
#
# number of rings (size 3 to 8) (size 9 to 14) (size 15 to 20)
#    0.000    1.750    2.500    2.625    0.000    4.250 
#    0.000    1.250    0.000    0.750    0.000    3.500 
#    0.000    0.000    0.000    0.000    0.000    0.000 
#
# Total GULP energy -357508.816079 kJ/mol
# GULP energy per Si atom -5586.075251 kJ/mol
# Density = 1.717860 g / cm^3
# Si number density = 17.217785 Si / 1000 Ang^3
#
#
#
# Elastic Constant Matrix: (Units=GPa)
#
#
# Indices 1 2 3 4 5 6 
#
# 1 103.7216 61.0402 65.2948 0.0000 0.0000 0.0000
# 2 61.0402 71.9555 55.2231 0.0000 0.0000 0.0000
# 3 65.2948 55.2231 112.8752 0.0000 0.0000 0.0000
# 4 0.0000 0.0000 0.0000 18.0696 0.0000 0.0000
# 5 0.0000 0.0000 0.0000 0.0000 35.1997 0.0000
# 6 0.0000 0.0000 0.0000 0.0000 0.0000 23.2060
#
#
#
# Elastic Compliance Matrix: (Units=1/GPa)
#
#
# Indices 1 2 3 4 5 6 
#
# 1 0.021226 -0.013743 -0.005555 0.000000 0.000000 0.000000
# 2 -0.013743 0.031151 -0.007290 0.000000 0.000000 0.000000
# 3 -0.005555 -0.007290 0.015639 0.000000 0.000000 0.000000
# 4 0.000000 0.000000 0.000000 0.055342 0.000000 0.000000
# 5 0.000000 0.000000 0.000000 0.000000 0.028409 0.000000
# 6 0.000000 0.000000 0.000000 0.000000 0.000000 0.043092
#
#
# Mechanical properties :
#
#
# Convention : Reuss Voigt Hill
#
# Bulk Modulus (GPa) = 67.38681 72.40760 69.89721
# Shear Modulus (GPa) = 19.76429 22.42801 21.09615
#
# Velocity S-wave (km/s) = 3.39174 3.61308 3.50416
# Velocity P-wave (km/s) = 7.38657 7.71693 7.55356
#
# Compressibility (1/GPa) = 0.01483970
#
# Stress axis : x y z
#
# Youngs Moduli (GPa) = 47.11268 32.10217 63.94083
#
# Poissons Ratio (x) = 0.44117 0.35519
# Poissons Ratio (y) = 0.64745 0.46615
# Poissons Ratio (z) = 0.26171 0.23404
#
# Static dielectric constant tensor:
#      x y z
#    x 1.576130 0.000000 0.000000 
#    y 0.000000 1.566140 0.000000 
#    z 0.000000 0.000000 1.571580 
# 
# From -- ./inp_files/26308.got.cif
#   From: 2010.05.17/outbox.cif.g08.bks.cpg/sg59_14_cif.got.tgz:26308.got - 2010.06.03 14:40:33.
