data_PCOD9449026
_publ_section_title
;
Structure prediction by ZEFSAII (Michael W. Deem and Ramdas Pophale) SiO2 
 PCOD9449026
Probable space group: P M M N
;
_chemical_formula_sum "Si O2"
_cell_formula_units_Z 64
_cell_length_a 18.157178
_cell_length_b 14.906490
_cell_length_c 11.429076
_cell_angle_alpha 90.000000
_cell_angle_beta 90.000000
_cell_angle_gamma 90.000000
_cell_volume 3093.391336
_symmetry_space_group_name_H-M "P M M N"
_symmetry_group_IT_number 59
_space_group.IT_coordinate_system_code '2'
_symmetry_cell_setting 'orthorhombic'
loop_
_space_group_symop_operation_xyz
x,y,z
1/2-x,1/2-y,z
1/2+x,-y,-z
-x,1/2+y,-z
-x,-y,-z
1/2+x,1/2+y,-z
1/2-x,y,z
x,1/2-y,z
loop_
_atom_site_type_symbol
_atom_site_label
_atom_site_fract_x
_atom_site_fract_y
_atom_site_fract_z
Si Si1 0.412532 0.966416 0.632765
Si Si2 0.161888 0.642655 0.430473
Si Si3 0.660793 0.651641 0.349519
Si Si4 0.446924 0.851945 0.040532
Si Si5 0.924899 0.848218 0.863025
Si Si6 0.333647 0.585324 0.872052
Si Si7 0.432884 0.523751 0.262247
Si Si8 0.166542 0.123630 0.912615
O O1 0.388909 0.894072 0.536306
O O2 0.380009 0.924084 0.752782
O O3 0.371614 0.060078 0.599482
O O4 0.496623 0.996720 0.657693
O O5 0.250000 0.625252 0.448058
O O6 0.153422 0.750000 0.415130
O O7 0.127868 0.586186 0.323144
O O8 0.750000 0.644428 0.350257
O O9 0.641083 0.750000 0.398906
O O10 0.634411 0.649604 0.213599
O O11 0.462237 0.750000 0.078791
O O12 0.457088 0.921131 0.146017
O O13 0.500370 0.873819 0.931563
O O14 0.368152 0.858068 0.977057
O O15 0.933460 0.750000 0.807481
O O16 0.902110 0.927735 0.778533
O O17 0.870653 0.842096 0.972104
O O18 0.250000 0.611616 0.843951
O O19 0.334523 0.483542 0.918486
O O20 0.250000 0.153391 0.909008
#
# Coordination Sequence:
#
# PCOD9449026 Si02
#       8
#     8   8   8   8   8   8   8   8
#     4  11  22  41  69  93 125 167 219 282 337 384
#     4  11  27  50  72  95 126 171 225 278 336 401
#     4   9  17  30  53  89 127 160 203 258 315 378
#     4  11  22  37  60  95 137 179 217 261 325 393
#     4  11  22  36  58  89 128 170 208 258 319 383
#     4  10  19  34  60  93 131 174 219 269 325 382
#     4  12  24  42  67  94 131 175 217 274 328 399
#     4   9  17  30  51  81 119 164 206 246 302 377
#
# _framework density 20.689267000000001
#
# number of rings (size 3 to 8) (size 9 to 14) (size 15 to 20)
#    0.000    1.500    2.500    4.875    0.000    5.000 
#    0.000    0.625    0.000    0.750    0.000    0.000 
#    0.000    0.000    0.000    0.000    0.000    0.000 
#
# Total GULP energy -356984.766792 kJ/mol
# GULP energy per Si atom -5577.886981 kJ/mol
# Density = 2.064218 g / cm^3
# Si number density = 20.689267 Si / 1000 Ang^3
#
#
#
# Elastic Constant Matrix: (Units=GPa)
#
#
# Indices 1 2 3 4 5 6 
#
# 1 48.6890 12.6260 11.6555 0.0000 0.0000 0.0000
# 2 12.6260 119.1383 49.7515 0.0000 0.0000 0.0000
# 3 11.6555 49.7515 37.4099 0.0000 0.0000 0.0000
# 4 0.0000 0.0000 0.0000 -14.3622 0.0000 0.0000
# 5 0.0000 0.0000 0.0000 0.0000 18.3703 0.0000
# 6 0.0000 0.0000 0.0000 0.0000 0.0000 28.7498
#
#
#
# Elastic Compliance Matrix: (Units=1/GPa)
#
#
# Indices 1 2 3 4 5 6 
#
# 1 0.022271 0.001209 -0.008546 0.000000 0.000000 0.000000
# 2 0.001209 0.018943 -0.025569 0.000000 0.000000 0.000000
# 3 -0.008546 -0.025569 0.063397 0.000000 0.000000 0.000000
# 4 0.000000 0.000000 0.000000 -0.069627 0.000000 0.000000
# 5 0.000000 0.000000 0.000000 0.000000 0.054436 0.000000
# 6 0.000000 0.000000 0.000000 0.000000 0.000000 0.034783
#
#
# Mechanical properties :
#
#
# Convention : Reuss Voigt Hill
#
# Bulk Modulus (GPa) = 25.77396 39.25588 32.51492
# Shear Modulus (GPa) = 24.63686 15.29852 19.96769
#
# Velocity S-wave (km/s) = 3.45455 2.72222 3.11001
# Velocity P-wave (km/s) = 5.32884 5.37549 5.35221
#
# Compressibility (1/GPa) = 0.03879885
#
# Stress axis : x y z
#
# Youngs Moduli (GPa) = 44.90161 52.79030 15.77352
#
# Poissons Ratio (x) = -0.06380 0.13480
# Poissons Ratio (y) = -0.05427 0.40331
# Poissons Ratio (z) = 0.38373 1.34978
#
# Static dielectric constant tensor:
#      x y z
#    x 1.810500 0.000000 0.000000 
#    y 0.000000 1.783980 0.000000 
#    z 0.000000 0.000000 1.759860 
# 
# From -- ./inp_files/17822.got.cif
#   From: 2010.05.17/outbox.cif.g08.bks.cpg/sg59_9_cif.got.tgz:17822.got - 2010.06.03 14:40:33.
