data_PCOD9449360
_publ_section_title
;
Structure prediction by ZEFSAII (Michael W. Deem and Ramdas Pophale) SiO2 
 PCOD9449360
Probable space group: P M M N
;
_chemical_formula_sum "Si O2"
_cell_formula_units_Z 64
_cell_length_a 20.475350
_cell_length_b 8.333954
_cell_length_c 20.626551
_cell_angle_alpha 90.000000
_cell_angle_beta 90.000000
_cell_angle_gamma 90.000000
_cell_volume 3519.727555
_symmetry_space_group_name_H-M "P M M N"
_symmetry_group_IT_number 59
_space_group.IT_coordinate_system_code '2'
_symmetry_cell_setting 'orthorhombic'
loop_
_space_group_symop_operation_xyz
x,y,z
1/2-x,1/2-y,z
1/2+x,-y,-z
-x,1/2+y,-z
-x,-y,-z
1/2+x,1/2+y,-z
1/2-x,y,z
x,1/2-y,z
loop_
_atom_site_type_symbol
_atom_site_label
_atom_site_fract_x
_atom_site_fract_y
_atom_site_fract_z
Si Si1 0.034641 0.444215 0.342642
Si Si2 0.942722 0.556313 0.803484
Si Si3 0.081986 0.940672 0.852477
Si Si4 0.675880 0.558381 0.034969
Si Si5 0.072224 0.056150 0.478704
Si Si6 0.322949 0.055624 0.741354
Si Si7 0.609103 0.943709 0.386046
Si Si8 0.823873 0.441635 0.889627
O O1 0.034705 0.250000 0.341623
O O2 0.054869 0.500859 0.271290
O O3 0.079082 0.497467 0.404069
O O4 0.961151 0.499316 0.359252
O O5 0.945657 0.750000 0.801885
O O6 0.878024 0.506713 0.841061
O O7 0.008200 0.499078 0.840687
O O8 0.079191 0.750000 0.860166
O O9 0.121917 0.009140 0.913009
O O10 0.123436 0.982979 0.788605
O O11 0.750000 0.503998 0.053224
O O12 0.677109 0.750000 0.031566
O O13 0.661371 0.491812 0.963556
O O14 0.073945 0.250000 0.477843
O O15 0.116639 0.001337 0.539248
O O16 0.000000 0.000000 0.500000
O O17 0.250000 0.007451 0.760645
O O18 0.326846 0.250000 0.745828
O O19 0.338174 0.007548 0.667353
O O20 0.608343 0.750000 0.386971
O O21 0.750000 0.500028 0.875178
O O22 0.823870 0.250000 0.886143
#
# Coordination Sequence:
#
# PCOD9449360 Si02
#       8
#     8   8   8   8   8   8   8   8
#     4   9  16  29  47  70 101 131 164 209 256 303
#     4  10  21  35  53  78 108 140 170 209 261 310
#     4  11  22  35  52  77 107 138 175 216 255 300
#     4  10  21  38  59  80 105 139 175 211 254 304
#     4   8  14  24  42  66  92 124 162 207 254 298
#     4  10  20  32  46  67 100 142 181 217 261 312
#     4   9  16  27  44  67  95 129 171 215 258 303
#     4  10  22  40  61  83 103 128 167 211 256 310
#
# _framework density 18.183225
#
# number of rings (size 3 to 8) (size 9 to 14) (size 15 to 20)
#    0.000    2.375    1.250    1.500    0.000    5.250 
#    0.000    0.000    0.000    0.750    0.000    3.500 
#    0.000    0.000    0.000    0.000    0.000    0.000 
#
# Total GULP energy -356697.582232 kJ/mol
# GULP energy per Si atom -5573.399722 kJ/mol
# Density = 1.814184 g / cm^3
# Si number density = 18.183225 Si / 1000 Ang^3
#
#
#
# Elastic Constant Matrix: (Units=GPa)
#
#
# Indices 1 2 3 4 5 6 
#
# 1 77.8953 2.8447 63.8874 0.0000 0.0000 0.0000
# 2 2.8447 3.5470 7.3556 0.0000 0.0000 0.0000
# 3 63.8874 7.3556 130.6156 0.0000 0.0000 0.0000
# 4 0.0000 0.0000 0.0000 20.1537 0.0000 0.0000
# 5 0.0000 0.0000 0.0000 0.0000 12.4308 0.0000
# 6 0.0000 0.0000 0.0000 0.0000 0.0000 19.8325
#
#
#
# Elastic Compliance Matrix: (Units=1/GPa)
#
#
# Indices 1 2 3 4 5 6 
#
# 1 0.021521 0.005174 -0.010818 0.000000 0.000000 0.000000
# 2 0.005174 0.320446 -0.020577 0.000000 0.000000 0.000000
# 3 -0.010818 -0.020577 0.014106 0.000000 0.000000 0.000000
# 4 0.000000 0.000000 0.000000 0.049619 0.000000 0.000000
# 5 0.000000 0.000000 0.000000 0.000000 0.080446 0.000000
# 6 0.000000 0.000000 0.000000 0.000000 0.000000 0.050422
#
#
# Mechanical properties :
#
#
# Convention : Reuss Voigt Hill
#
# Bulk Modulus (GPa) = 3.29346 40.02592 21.65969
# Shear Modulus (GPa) = 7.24415 19.68141 13.46278
#
# Velocity S-wave (km/s) = 1.99815 3.29354 2.72397
# Velocity P-wave (km/s) = 2.67183 6.04347 4.67238
#
# Compressibility (1/GPa) = 0.30363212
#
# Stress axis : x y z
#
# Youngs Moduli (GPa) = 46.46534 3.12065 70.89073
#
# Poissons Ratio (x) = -0.01615 0.76690
# Poissons Ratio (y) = -0.24041 1.45870
# Poissons Ratio (z) = 0.50266 0.06421
#
# Static dielectric constant tensor:
#      x y z
#    x 1.605100 0.000000 0.000000 
#    y 0.000000 1.684310 0.000000 
#    z 0.000000 0.000000 1.655450 
# 
# From -- ./inp_files/30757.got.cif
#   From: 2010.05.17/outbox.cif.g08.bks.cpg/sg59_16_cif.got.tgz:30757.got - 2010.06.03 14:40:33.
