data_PCOD9449544
_publ_section_title
;
Structure prediction by ZEFSAII (Michael W. Deem and Ramdas Pophale) SiO2 
 PCOD9449544
Probable space group: P M M N
;
_chemical_formula_sum "Si O2"
_cell_formula_units_Z 48
_cell_length_a 7.541308
_cell_length_b 19.076484
_cell_length_c 15.268719
_cell_angle_alpha 90.000000
_cell_angle_beta 90.000000
_cell_angle_gamma 90.000000
_cell_volume 2196.582977
_symmetry_space_group_name_H-M "P M M N"
_symmetry_group_IT_number 59
_space_group.IT_coordinate_system_code '2'
_symmetry_cell_setting 'orthorhombic'
loop_
_space_group_symop_operation_xyz
x,y,z
1/2-x,1/2-y,z
1/2+x,-y,-z
-x,1/2+y,-z
-x,-y,-z
1/2+x,1/2+y,-z
1/2-x,y,z
x,1/2-y,z
loop_
_atom_site_type_symbol
_atom_site_label
_atom_site_fract_x
_atom_site_fract_y
_atom_site_fract_z
Si Si1 0.963161 0.750000 0.772580
Si Si2 0.538991 0.250000 0.432501
Si Si3 0.046941 0.976902 0.154305
Si Si4 0.041238 0.672353 0.096094
Si Si5 0.965660 0.103489 0.499590
Si Si6 0.044888 0.003958 0.649046
Si Si7 0.534346 0.627522 0.900417
O O1 0.750000 0.750000 0.778310
O O2 0.024684 0.820159 0.822956
O O3 0.011141 0.750000 0.671279
O O4 0.750000 0.250000 0.446424
O O5 0.469951 0.319752 0.477062
O O6 0.250000 0.972509 0.122149
O O7 0.965662 0.900107 0.136506
O O8 0.047114 0.990975 0.258043
O O9 0.969526 0.047402 0.110699
O O10 0.250000 0.674615 0.119468
O O11 0.967796 0.750000 0.118422
O O12 0.022468 0.660729 0.992088
O O13 0.750000 0.100514 0.500861
O O14 0.030082 0.074300 0.591919
O O15 0.025330 0.053778 0.419354
O O16 0.250000 0.987841 0.667171
O O17 0.750000 0.625490 0.898445
#
# Coordination Sequence:
#
# PCOD9449544 Si02
#       7
#     4   4   8   8   8   8   8
#     4  10  20  32  50  79 112 139 168 215 274 325
#     4  10  20  34  54  81 106 137 178 217 262 317
#     4  10  21  36  55  79 107 142 183 223 265 318
#     4  10  21  37  55  77 106 142 182 224 269 315
#     4   9  19  36  56  78 108 141 175 218 268 319
#     4  10  20  35  56  81 107 140 180 220 264 316
#     4  10  20  35  55  79 108 142 178 219 271 323
#
# _framework density 21.852121
#
# number of rings (size 3 to 8) (size 9 to 14) (size 15 to 20)
#    0.000    2.167    0.833    2.000    0.000    3.333 
#    1.500    0.000    0.000    0.000    0.000    0.000 
#    0.000    0.000    0.000    0.000    0.000    0.000 
#
# Total GULP energy -268022.495003 kJ/mol
# GULP energy per Si atom -5583.801979 kJ/mol
# Density = 2.180239 g / cm^3
# Si number density = 21.852121 Si / 1000 Ang^3
#
#
#
# Elastic Constant Matrix: (Units=GPa)
#
#
# Indices 1 2 3 4 5 6 
#
# 1 56.2245 9.7641 -10.6911 0.0000 0.0000 0.0000
# 2 9.7641 154.5840 4.5335 0.0000 0.0000 0.0000
# 3 -10.6911 4.5335 20.2186 0.0000 0.0000 0.0000
# 4 0.0000 0.0000 0.0000 20.7471 0.0000 0.0000
# 5 0.0000 0.0000 0.0000 0.0000 22.4752 0.0000
# 6 0.0000 0.0000 0.0000 0.0000 0.0000 18.5300
#
#
#
# Elastic Compliance Matrix: (Units=1/GPa)
#
#
# Indices 1 2 3 4 5 6 
#
# 1 0.020158 -0.001596 0.011017 0.000000 0.000000 0.000000
# 2 -0.001596 0.006638 -0.002333 0.000000 0.000000 0.000000
# 3 0.011017 -0.002333 0.055808 0.000000 0.000000 0.000000
# 4 0.000000 0.000000 0.000000 0.048199 0.000000 0.000000
# 5 0.000000 0.000000 0.000000 0.000000 0.044494 0.000000
# 6 0.000000 0.000000 0.000000 0.000000 0.000000 0.053967
#
#
# Mechanical properties :
#
#
# Convention : Reuss Voigt Hill
#
# Bulk Modulus (GPa) = 10.33269 26.47113 18.40191
# Shear Modulus (GPa) = 20.21446 27.51183 23.86315
#
# Velocity S-wave (km/s) = 3.04478 3.55209 3.30817
# Velocity P-wave (km/s) = 4.13517 5.38174 4.79910
#
# Compressibility (1/GPa) = 0.09678018
#
# Stress axis : x y z
#
# Youngs Moduli (GPa) = 49.60825 150.64293 17.91860
#
# Poissons Ratio (x) = 0.24048 -0.19741
# Poissons Ratio (y) = 0.07919 0.04180
# Poissons Ratio (z) = -0.54653 0.35138
#
# Static dielectric constant tensor:
#      x y z
#    x 1.828140 0.000000 0.000000 
#    y 0.000000 1.848550 0.000000 
#    z 0.000000 0.000000 1.722640 
# 
# From -- ./inp_files/20557.got.cif
#   From: 2010.05.17/outbox.cif.g08.bks.cpg/sg59_11_cif.got.tgz:20557.got - 2010.06.03 14:40:33.
