data_PCOD9449403
_publ_section_title
;
Structure prediction by ZEFSAII (Michael W. Deem and Ramdas Pophale) SiO2 
 PCOD9449403
Probable space group: P M M N
;
_chemical_formula_sum "Si O2"
_cell_formula_units_Z 64
_cell_length_a 7.878791
_cell_length_b 18.285304
_cell_length_c 23.658850
_cell_angle_alpha 90.000000
_cell_angle_beta 90.000000
_cell_angle_gamma 90.000000
_cell_volume 3408.437980
_symmetry_space_group_name_H-M "P M M N"
_symmetry_group_IT_number 59
_space_group.IT_coordinate_system_code '2'
_symmetry_cell_setting 'orthorhombic'
loop_
_space_group_symop_operation_xyz
x,y,z
1/2-x,1/2-y,z
1/2+x,-y,-z
-x,1/2+y,-z
-x,-y,-z
1/2+x,1/2+y,-z
1/2-x,y,z
x,1/2-y,z
loop_
_atom_site_type_symbol
_atom_site_label
_atom_site_fract_x
_atom_site_fract_y
_atom_site_fract_z
Si Si1 0.545666 0.170034 0.956413
Si Si2 0.047825 0.433113 0.458715
Si Si3 0.544178 0.121760 0.079588
Si Si4 0.048239 0.465686 0.637436
Si Si5 0.452170 0.989031 0.758464
Si Si6 0.457946 0.166627 0.556785
Si Si7 0.546236 0.965382 0.120004
Si Si8 0.048918 0.329902 0.203769
O O1 0.750000 0.171360 0.959555
O O2 0.484843 0.250000 0.938589
O O3 0.499154 0.107245 0.912863
O O4 0.484109 0.153321 0.020071
O O5 0.250000 0.428840 0.453155
O O6 0.990328 0.362299 0.494273
O O7 0.000000 0.500000 0.500000
O O8 0.977407 0.460360 0.399096
O O9 0.750000 0.125210 0.080302
O O10 0.484104 0.160898 0.136619
O O11 0.489598 0.037300 0.085772
O O12 0.250000 0.454302 0.641779
O O13 0.977192 0.478939 0.700053
O O14 0.983496 0.394824 0.602274
O O15 0.250000 0.001596 0.757344
O O16 0.476835 0.901920 0.766060
O O17 0.520017 0.026078 0.815961
O O18 0.250000 0.165714 0.557629
O O19 0.511881 0.250000 0.567657
O O20 0.750000 0.969750 0.123017
O O21 0.250000 0.330937 0.213042
O O22 0.982025 0.250000 0.221510
#
# Coordination Sequence:
#
# PCOD9449403 Si02
#       8
#     8   8   8   8   8   8   8   8
#     4  10  20  32  47  69  96 126 158 192 238 296
#     4   9  16  27  46  70  96 126 156 186 226 276
#     4   9  18  33  52  71  92 121 156 193 240 299
#     4   9  17  31  51  72  94 122 161 203 235 274
#     4   9  19  35  52  70  94 127 165 199 237 288
#     4   8  14  26  46  72  98 123 153 191 233 271
#     4   9  18  32  49  69  92 121 159 200 241 286
#     4  10  20  32  48  73  99 121 153 198 243 287
#
# _framework density 18.776928999999999
#
# number of rings (size 3 to 8) (size 9 to 14) (size 15 to 20)
#    0.000    2.875    0.000    3.000    0.000    4.750 
#    0.000    1.250    0.000   13.875    0.000    0.000 
#    0.000    0.000    0.000    0.000    0.000    0.000 
#
# Total GULP energy -356541.969847 kJ/mol
# GULP energy per Si atom -5570.968279 kJ/mol
# Density = 1.873419 g / cm^3
# Si number density = 18.776929 Si / 1000 Ang^3
#
#
#
# Elastic Constant Matrix: (Units=GPa)
#
#
# Indices 1 2 3 4 5 6 
#
# 1 13.9759 0.0023 0.9091 0.0000 0.0000 0.0000
# 2 0.0023 116.2009 45.5872 0.0000 0.0000 0.0000
# 3 0.9091 45.5872 70.2831 0.0000 0.0000 0.0000
# 4 0.0000 0.0000 0.0000 16.4178 0.0000 0.0000
# 5 0.0000 0.0000 0.0000 0.0000 16.0263 0.0000
# 6 0.0000 0.0000 0.0000 0.0000 0.0000 19.1490
#
#
#
# Elastic Compliance Matrix: (Units=1/GPa)
#
#
# Indices 1 2 3 4 5 6 
#
# 1 0.071633 0.000486 -0.001242 0.000000 0.000000 0.000000
# 2 0.000486 0.011546 -0.007496 0.000000 0.000000 0.000000
# 3 -0.001242 -0.007496 0.019106 0.000000 0.000000 0.000000
# 4 0.000000 0.000000 0.000000 0.060910 0.000000 0.000000
# 5 0.000000 0.000000 0.000000 0.000000 0.062397 0.000000
# 6 0.000000 0.000000 0.000000 0.000000 0.000000 0.052222
#
#
# Mechanical properties :
#
#
# Convention : Reuss Voigt Hill
#
# Bulk Modulus (GPa) = 11.65743 32.60633 22.13188
# Shear Modulus (GPa) = 15.48415 20.58271 18.03343
#
# Velocity S-wave (km/s) = 2.87476 3.31444 3.10240
# Velocity P-wave (km/s) = 4.15221 5.66128 4.96442
#
# Compressibility (1/GPa) = 0.08578220
#
# Stress axis : x y z
#
# Youngs Moduli (GPa) = 13.96011 86.60737 52.33964
#
# Poissons Ratio (x) = -0.04206 0.06498
# Poissons Ratio (y) = -0.00678 0.39231
# Poissons Ratio (z) = 0.01733 0.64917
#
# Static dielectric constant tensor:
#      x y z
#    x 1.672170 0.000000 0.000000 
#    y 0.000000 1.661450 0.000000 
#    z 0.000000 0.000000 1.660700 
# 
# From -- ./inp_files/31761.got.cif
#   From: 2010.05.17/outbox.cif.g08.bks.cpg/sg59_16_cif.got.tgz:31761.got - 2010.06.03 14:40:33.
