data_PCOD9449803
_publ_section_title
;
Structure prediction by ZEFSAII (Michael W. Deem and Ramdas Pophale) SiO2 
 PCOD9449803
Probable space group: P M M N
;
_chemical_formula_sum "Si O2"
_cell_formula_units_Z 56
_cell_length_a 8.873030
_cell_length_b 19.806124
_cell_length_c 17.167462
_cell_angle_alpha 90.000000
_cell_angle_beta 90.000000
_cell_angle_gamma 90.000000
_cell_volume 3017.015479
_symmetry_space_group_name_H-M "P M M N"
_symmetry_group_IT_number 59
_space_group.IT_coordinate_system_code '2'
_symmetry_cell_setting 'orthorhombic'
loop_
_space_group_symop_operation_xyz
x,y,z
1/2-x,1/2-y,z
1/2+x,-y,-z
-x,1/2+y,-z
-x,-y,-z
1/2+x,1/2+y,-z
1/2-x,y,z
x,1/2-y,z
loop_
_atom_site_type_symbol
_atom_site_label
_atom_site_fract_x
_atom_site_fract_y
_atom_site_fract_z
Si Si1 0.924127 0.827076 0.105671
Si Si2 0.070920 0.915608 0.803306
Si Si3 0.068056 0.829063 0.650179
Si Si4 0.069790 0.430153 0.030044
Si Si5 0.077458 0.968493 0.285466
Si Si6 0.920909 0.946267 0.556874
Si Si7 0.070309 0.823155 0.271873
O O1 0.750000 0.841412 0.129190
O O2 0.929397 0.750000 0.077875
O O3 0.028618 0.831658 0.181163
O O4 0.967132 0.876065 0.036563
O O5 0.250000 0.910939 0.811889
O O6 0.025296 0.863532 0.733788
O O7 0.993310 0.906729 0.886567
O O8 0.024599 0.990621 0.774609
O O9 0.250000 0.832041 0.645822
O O10 0.022997 0.750000 0.646398
O O11 0.002806 0.876257 0.580890
O O12 0.250000 0.436639 0.035592
O O13 0.000000 0.500000 0.000000
O O14 0.250000 0.962917 0.254688
O O15 0.019577 0.894018 0.307651
O O16 0.084071 0.013523 0.361882
O O17 0.750000 0.932885 0.530317
O O18 0.000000 0.000000 0.500000
O O19 0.250000 0.819963 0.282614
O O20 0.007346 0.750000 0.297297
#
# Coordination Sequence:
#
# PCOD9449803 Si02
#       7
#     8   8   8   8   8   8   8
#     4   9  19  34  48  64  90 125 162 199 244 296
#     4  10  20  33  51  75 101 131 169 214 263 313
#     4   9  19  37  59  82 109 142 180 222 270 324
#     4  11  22  34  49  70  98 132 171 216 263 311
#     4   9  18  33  52  73  99 131 167 204 244 297
#     4  10  20  35  56  82 111 143 177 213 257 311
#     4   9  17  30  49  71  93 120 158 203 246 289
#
# _framework density 18.561388999999998
#
# number of rings (size 3 to 8) (size 9 to 14) (size 15 to 20)
#    0.000    2.429    0.000    2.143    0.000    6.000 
#    0.000    0.714    0.000    2.571    0.000    0.000 
#    0.000    0.000    0.000    0.000    0.000    0.000 
#
# Total GULP energy -311971.145227 kJ/mol
# GULP energy per Si atom -5570.913308 kJ/mol
# Density = 1.851914 g / cm^3
# Si number density = 18.561389 Si / 1000 Ang^3
#
#
#
# Elastic Constant Matrix: (Units=GPa)
#
#
# Indices 1 2 3 4 5 6 
#
# 1 29.8605 24.0563 12.3716 0.0000 0.0000 0.0000
# 2 24.0563 132.2913 13.3648 0.0000 0.0000 0.0000
# 3 12.3716 13.3648 19.7562 0.0000 0.0000 0.0000
# 4 0.0000 0.0000 0.0000 25.5431 0.0000 0.0000
# 5 0.0000 0.0000 0.0000 0.0000 24.8983 0.0000
# 6 0.0000 0.0000 0.0000 0.0000 0.0000 25.4183
#
#
#
# Elastic Compliance Matrix: (Units=1/GPa)
#
#
# Indices 1 2 3 4 5 6 
#
# 1 0.049710 -0.006327 -0.026849 0.000000 0.000000 0.000000
# 2 -0.006327 0.008919 -0.002071 0.000000 0.000000 0.000000
# 3 -0.026849 -0.002071 0.068832 0.000000 0.000000 0.000000
# 4 0.000000 0.000000 0.000000 0.039150 0.000000 0.000000
# 5 0.000000 0.000000 0.000000 0.000000 0.040163 0.000000
# 6 0.000000 0.000000 0.000000 0.000000 0.000000 0.039342
#
#
# Mechanical properties :
#
#
# Convention : Reuss Voigt Hill
#
# Bulk Modulus (GPa) = 17.55447 31.27705 24.41576
# Shear Modulus (GPa) = 14.89874 23.97962 19.43918
#
# Velocity S-wave (km/s) = 2.83622 3.59821 3.23970
# Velocity P-wave (km/s) = 4.49484 5.84380 5.21314
#
# Compressibility (1/GPa) = 0.05696554
#
# Stress axis : x y z
#
# Youngs Moduli (GPa) = 20.11657 112.12179 14.52823
#
# Poissons Ratio (x) = 0.70940 0.39007
# Poissons Ratio (y) = 0.12728 0.03009
# Poissons Ratio (z) = 0.54011 0.23225
#
# Static dielectric constant tensor:
#      x y z
#    x 1.648410 0.000000 0.000000 
#    y 0.000000 1.673560 0.000000 
#    z 0.000000 0.000000 1.637060 
# 
# From -- ./inp_files/26134.got.cif
#   From: 2010.05.17/outbox.cif.g08.bks.cpg/sg59_14_cif.got.tgz:26134.got - 2010.06.03 14:40:33.
