data_PCOD9449685
_publ_section_title
;
Structure prediction by ZEFSAII (Michael W. Deem and Ramdas Pophale) SiO2 
 PCOD9449685
Probable space group: P M M N
;
_chemical_formula_sum "Si O2"
_cell_formula_units_Z 64
_cell_length_a 18.093335
_cell_length_b 7.790394
_cell_length_c 24.038655
_cell_angle_alpha 90.000000
_cell_angle_beta 90.000000
_cell_angle_gamma 90.000000
_cell_volume 3388.349587
_symmetry_space_group_name_H-M "P M M N"
_symmetry_group_IT_number 59
_space_group.IT_coordinate_system_code '2'
_symmetry_cell_setting 'orthorhombic'
loop_
_space_group_symop_operation_xyz
x,y,z
1/2-x,1/2-y,z
1/2+x,-y,-z
-x,1/2+y,-z
-x,-y,-z
1/2+x,1/2+y,-z
1/2-x,y,z
x,1/2-y,z
loop_
_atom_site_type_symbol
_atom_site_label
_atom_site_fract_x
_atom_site_fract_y
_atom_site_fract_z
Si Si1 0.583587 0.547613 0.061709
Si Si2 0.972208 0.044000 0.238936
Si Si3 0.666885 0.955292 0.955528
Si Si4 0.471038 0.954179 0.636051
Si Si5 0.332134 0.541920 0.831301
Si Si6 0.055070 0.545506 0.131689
Si Si7 0.333877 0.539546 0.559830
Si Si8 0.430250 0.953815 0.461146
O O1 0.569715 0.750000 0.053553
O O2 0.647563 0.524248 0.107489
O O3 0.510696 0.473184 0.091626
O O4 0.612200 0.473958 0.003482
O O5 0.967315 0.250000 0.242114
O O6 0.979457 0.976801 0.301547
O O7 0.896328 0.981280 0.210146
O O8 0.036396 0.004969 0.194652
O O9 0.750000 0.023230 0.960908
O O10 0.670365 0.750000 0.963667
O O11 0.631138 0.988489 0.895721
O O12 0.460124 0.750000 0.639838
O O13 0.397793 0.019109 0.603040
O O14 0.544180 0.980861 0.598791
O O15 0.250000 0.489319 0.814662
O O16 0.334518 0.750000 0.832966
O O17 0.051392 0.750000 0.129534
O O18 0.250000 0.485250 0.572162
O O19 0.334621 0.750000 0.560689
O O20 0.360584 0.485521 0.497802
O O21 0.424260 0.750000 0.456777
O O22 0.500000 0.000000 0.500000
#
# Coordination Sequence:
#
# PCOD9449685 Si02
#       8
#     8   8   8   8   8   8   8   8
#     4   9  18  32  49  69  93 123 156 187 228 287
#     4   9  18  32  48  66  91 124 160 194 230 275
#     4  10  20  33  50  71  94 121 152 189 239 294
#     4   9  17  29  47  69  91 121 159 194 226 264
#     4   9  17  28  43  66  95 124 154 191 234 278
#     4  10  20  33  50  71  94 122 157 196 235 275
#     4   8  14  25  43  69  97 121 147 181 222 266
#     4   9  16  27  45  67  92 122 153 186 223 264
#
# _framework density 18.888252999999999
#
# number of rings (size 3 to 8) (size 9 to 14) (size 15 to 20)
#    0.000    2.875    0.000    2.250    0.000    3.000 
#    0.000    2.500    0.000   10.125    0.000    8.750 
#    0.000    0.000    0.000    0.000    0.000    0.000 
#
# Total GULP energy -356563.901565 kJ/mol
# GULP energy per Si atom -5571.310962 kJ/mol
# Density = 1.884526 g / cm^3
# Si number density = 18.888253 Si / 1000 Ang^3
#
#
#
# Elastic Constant Matrix: (Units=GPa)
#
#
# Indices 1 2 3 4 5 6 
#
# 1 46.6056 3.3623 44.5616 0.0000 0.0000 0.0000
# 2 3.3623 21.1551 0.7214 0.0000 0.0000 0.0000
# 3 44.5616 0.7214 141.1811 0.0000 0.0000 0.0000
# 4 0.0000 0.0000 0.0000 17.7571 0.0000 0.0000
# 5 0.0000 0.0000 0.0000 0.0000 10.7069 0.0000
# 6 0.0000 0.0000 0.0000 0.0000 0.0000 12.5640
#
#
#
# Elastic Compliance Matrix: (Units=1/GPa)
#
#
# Indices 1 2 3 4 5 6 
#
# 1 0.031176 -0.004620 -0.009817 0.000000 0.000000 0.000000
# 2 -0.004620 0.047963 0.001213 0.000000 0.000000 0.000000
# 3 -0.009817 0.001213 0.010175 0.000000 0.000000 0.000000
# 4 0.000000 0.000000 0.000000 0.056316 0.000000 0.000000
# 5 0.000000 0.000000 0.000000 0.000000 0.093398 0.000000
# 6 0.000000 0.000000 0.000000 0.000000 0.000000 0.079593
#
#
# Mechanical properties :
#
#
# Convention : Reuss Voigt Hill
#
# Bulk Modulus (GPa) = 15.90660 34.02584 24.96622
# Shear Modulus (GPa) = 13.66034 18.89202 16.27618
#
# Velocity S-wave (km/s) = 2.69219 3.16602 2.93867
# Velocity P-wave (km/s) = 4.25483 5.60521 4.97604
#
# Compressibility (1/GPa) = 0.06286699
#
# Stress axis : x y z
#
# Youngs Moduli (GPa) = 32.07592 20.84945 98.27665
#
# Poissons Ratio (x) = 0.09633 0.96474
# Poissons Ratio (y) = 0.14820 -0.11923
# Poissons Ratio (z) = 0.31488 -0.02529
#
# Static dielectric constant tensor:
#      x y z
#    x 1.661520 0.000000 0.000000 
#    y 0.000000 2.387610 0.000000 
#    z 0.000000 0.000000 1.674610 
# 
# From -- ./inp_files/31778.got.cif
#   From: 2010.05.17/outbox.cif.g08.bks.cpg/sg59_16_cif.got.tgz:31778.got - 2010.06.03 14:40:33.
