data_PCOD9449659
_publ_section_title
;
Structure prediction by ZEFSAII (Michael W. Deem and Ramdas Pophale) SiO2 
 PCOD9449659
Probable space group: P M M N
;
_chemical_formula_sum "Si O2"
_cell_formula_units_Z 64
_cell_length_a 17.949621
_cell_length_b 9.002164
_cell_length_c 23.363062
_cell_angle_alpha 90.000000
_cell_angle_beta 90.000000
_cell_angle_gamma 90.000000
_cell_volume 3775.130466
_symmetry_space_group_name_H-M "P M M N"
_symmetry_group_IT_number 59
_space_group.IT_coordinate_system_code '2'
_symmetry_cell_setting 'orthorhombic'
loop_
_space_group_symop_operation_xyz
x,y,z
1/2-x,1/2-y,z
1/2+x,-y,-z
-x,1/2+y,-z
-x,-y,-z
1/2+x,1/2+y,-z
1/2-x,y,z
x,1/2-y,z
loop_
_atom_site_type_symbol
_atom_site_label
_atom_site_fract_x
_atom_site_fract_y
_atom_site_fract_z
Si Si1 0.544452 0.424949 0.373506
Si Si2 0.507904 0.428168 0.742283
Si Si3 0.664639 0.428370 0.052309
Si Si4 0.467948 0.927919 0.860573
Si Si5 0.121794 0.074418 0.416203
Si Si6 0.831252 0.071240 0.700658
Si Si7 0.566830 0.927490 0.963692
Si Si8 0.336564 0.427599 0.544436
O O1 0.554538 0.250000 0.363306
O O2 0.533849 0.508175 0.313334
O O3 0.466773 0.444524 0.407863
O O4 0.610449 0.490587 0.411218
O O5 0.504920 0.250000 0.741920
O O6 0.473996 0.491117 0.800472
O O7 0.594894 0.476347 0.735050
O O8 0.750000 0.464790 0.066888
O O9 0.658482 0.250000 0.045768
O O10 0.604647 0.471043 0.101417
O O11 0.639718 0.503868 0.992749
O O12 0.464184 0.750000 0.852296
O O13 0.541784 0.960118 0.898806
O O14 0.139255 0.250000 0.410671
O O15 0.146457 0.025315 0.479081
O O16 0.159351 0.988785 0.363803
O O17 0.750000 0.023643 0.723105
O O18 0.832571 0.250000 0.699206
O O19 0.566647 0.750000 0.970679
O O20 0.500000 0.000000 0.000000
O O21 0.250000 0.454118 0.556827
O O22 0.350461 0.250000 0.547294
#
# Coordination Sequence:
#
# PCOD9449659 Si02
#       8
#     8   8   8   8   8   8   8   8
#     4  10  20  34  52  72  96 128 166 205 245 296
#     4  10  20  34  53  73  96 131 172 210 248 293
#     4   9  18  33  53  78 107 136 167 208 256 298
#     4   9  18  33  52  74 101 133 170 209 247 292
#     4   9  18  32  51  74  97 124 158 196 245 304
#     4   9  18  32  49  71  98 125 157 202 252 299
#     4   9  17  30  50  75 103 133 163 198 241 290
#     4  10  20  33  49  71 100 129 158 199 250 300
#
# _framework density 16.953056
#
# number of rings (size 3 to 8) (size 9 to 14) (size 15 to 20)
#    0.000    2.625    0.000    2.625    0.000    5.250 
#    0.000    1.250    0.000    4.500    0.000    0.000 
#    0.000    0.000    0.000    0.000    0.000    0.000 
#
# Total GULP energy -356701.939075 kJ/mol
# GULP energy per Si atom -5573.467798 kJ/mol
# Density = 1.691447 g / cm^3
# Si number density = 16.953056 Si / 1000 Ang^3
#
#
#
# Elastic Constant Matrix: (Units=GPa)
#
#
# Indices 1 2 3 4 5 6 
#
# 1 88.3840 32.4751 46.2503 0.0000 0.0000 0.0000
# 2 32.4751 24.1476 21.3006 0.0000 0.0000 0.0000
# 3 46.2503 21.3006 59.9480 0.0000 0.0000 0.0000
# 4 0.0000 0.0000 0.0000 30.0498 0.0000 0.0000
# 5 0.0000 0.0000 0.0000 0.0000 14.9778 0.0000
# 6 0.0000 0.0000 0.0000 0.0000 0.0000 21.8111
#
#
#
# Elastic Compliance Matrix: (Units=1/GPa)
#
#
# Indices 1 2 3 4 5 6 
#
# 1 0.026896 -0.026024 -0.011504 0.000000 0.000000 0.000000
# 2 -0.026024 0.085497 -0.010301 0.000000 0.000000 0.000000
# 3 -0.011504 -0.010301 0.029216 0.000000 0.000000 0.000000
# 4 0.000000 0.000000 0.000000 0.033278 0.000000 0.000000
# 5 0.000000 0.000000 0.000000 0.000000 0.066765 0.000000
# 6 0.000000 0.000000 0.000000 0.000000 0.000000 0.045848
#
#
# Mechanical properties :
#
#
# Convention : Reuss Voigt Hill
#
# Bulk Modulus (GPa) = 21.76179 41.39240 31.57709
# Shear Modulus (GPa) = 12.54783 18.19798 15.37291
#
# Velocity S-wave (km/s) = 2.72352 3.27988 3.01457
# Velocity P-wave (km/s) = 4.77017 6.22996 5.54828
#
# Compressibility (1/GPa) = 0.04595211
#
# Stress axis : x y z
#
# Youngs Moduli (GPa) = 37.18025 11.69636 34.22728
#
# Poissons Ratio (x) = 0.30438 0.39374
# Poissons Ratio (y) = 0.96757 0.35257
# Poissons Ratio (z) = 0.42771 0.12048
#
# Static dielectric constant tensor:
#      x y z
#    x 1.601020 0.000000 0.000000 
#    y 0.000000 1.567430 0.000000 
#    z 0.000000 0.000000 1.547900 
# 
# From -- ./inp_files/30770.got.cif
#   From: 2010.05.17/outbox.cif.g08.bks.cpg/sg59_16_cif.got.tgz:30770.got - 2010.06.03 14:40:33.
