data_PCOD9449086
_publ_section_title
;
Structure prediction by ZEFSAII (Michael W. Deem and Ramdas Pophale) SiO2 
 PCOD9449086
Probable space group: P M M N
;
_chemical_formula_sum "Si O2"
_cell_formula_units_Z 56
_cell_length_a 9.037017
_cell_length_b 14.844329
_cell_length_c 23.033212
_cell_angle_alpha 90.000000
_cell_angle_beta 90.000000
_cell_angle_gamma 90.000000
_cell_volume 3089.869770
_symmetry_space_group_name_H-M "P M M N"
_symmetry_group_IT_number 59
_space_group.IT_coordinate_system_code '2'
_symmetry_cell_setting 'orthorhombic'
loop_
_space_group_symop_operation_xyz
x,y,z
1/2-x,1/2-y,z
1/2+x,-y,-z
-x,1/2+y,-z
-x,-y,-z
1/2+x,1/2+y,-z
1/2-x,y,z
x,1/2-y,z
loop_
_atom_site_type_symbol
_atom_site_label
_atom_site_fract_x
_atom_site_fract_y
_atom_site_fract_z
Si Si1 0.072058 0.750000 0.883225
Si Si2 0.928458 0.568172 0.836968
Si Si3 0.424538 0.857885 0.609276
Si Si4 0.572003 0.979795 0.706071
Si Si5 0.428673 0.553521 0.053443
Si Si6 0.429269 0.750000 0.019258
Si Si7 0.580755 0.640137 0.490208
Si Si8 0.572480 0.146074 0.629612
O O1 0.250000 0.750000 0.880089
O O2 0.006582 0.661256 0.853506
O O3 0.028048 0.750000 0.951379
O O4 0.750000 0.580561 0.838170
O O5 0.970868 0.536226 0.772613
O O6 0.966581 0.495118 0.886332
O O7 0.250000 0.875350 0.608233
O O8 0.446866 0.750000 0.614462
O O9 0.499288 0.908073 0.662908
O O10 0.496084 0.888083 0.548297
O O11 0.750000 0.970738 0.702469
O O12 0.533030 0.078298 0.681180
O O13 0.250000 0.550804 0.047304
O O14 0.477720 0.657388 0.049091
O O15 0.500000 0.500000 0.000000
O O16 0.250000 0.750000 0.020556
O O17 0.750000 0.609188 0.491484
O O18 0.580318 0.750000 0.490679
O O19 0.501804 0.614686 0.430354
O O20 0.750000 0.144095 0.621973
O O21 0.529611 0.250000 0.640781
#
# Coordination Sequence:
#
# PCOD9449086 Si02
#       8
#     4   8   8   8   8   4   8   8
#     4  11  21  35  59  85 113 147 184 221 270 329
#     4  10  22  38  56  82 114 148 185 226 271 324
#     4  10  21  36  54  79 109 141 180 224 271 324
#     4  10  22  38  54  77 108 145 184 222 270 324
#     4  10  19  35  57  82 114 146 183 228 274 322
#     4   9  18  33  55  85 113 143 178 223 276 323
#     4   9  17  31  54  82 108 137 175 221 276 328
#     4   9  18  35  57  78 104 138 179 227 274 323
#
# _framework density 18.123740999999999
#
# number of rings (size 3 to 8) (size 9 to 14) (size 15 to 20)
#    0.000    2.286    1.429    1.071    1.000    4.286 
#    1.286    0.357    0.000    0.000    0.000    0.000 
#    0.000    0.000    0.000    0.000    0.000    0.000 
#
# Total GULP energy -312624.214795 kJ/mol
# GULP energy per Si atom -5582.575264 kJ/mol
# Density = 1.808249 g / cm^3
# Si number density = 18.123741 Si / 1000 Ang^3
#
#
#
# Elastic Constant Matrix: (Units=GPa)
#
#
# Indices 1 2 3 4 5 6 
#
# 1 28.9209 47.2267 56.3358 0.0000 0.0000 0.0000
# 2 47.2267 136.5230 103.4727 0.0000 0.0000 0.0000
# 3 56.3358 103.4727 190.8002 0.0000 0.0000 0.0000
# 4 0.0000 0.0000 0.0000 31.0758 0.0000 0.0000
# 5 0.0000 0.0000 0.0000 0.0000 26.7707 0.0000
# 6 0.0000 0.0000 0.0000 0.0000 0.0000 17.9117
#
#
#
# Elastic Compliance Matrix: (Units=1/GPa)
#
#
# Indices 1 2 3 4 5 6 
#
# 1 0.113262 -0.023488 -0.020704 0.000000 0.000000 0.000000
# 2 -0.023488 0.017308 -0.002451 0.000000 0.000000 0.000000
# 3 -0.020704 -0.002451 0.012683 0.000000 0.000000 0.000000
# 4 0.000000 0.000000 0.000000 0.032179 0.000000 0.000000
# 5 0.000000 0.000000 0.000000 0.000000 0.037354 0.000000
# 6 0.000000 0.000000 0.000000 0.000000 0.000000 0.055829
#
#
# Mechanical properties :
#
#
# Convention : Reuss Voigt Hill
#
# Bulk Modulus (GPa) = 20.01330 85.59051 52.80190
# Shear Modulus (GPa) = 13.20801 25.09890 19.15346
#
# Velocity S-wave (km/s) = 2.70250 3.72541 3.25440
# Velocity P-wave (km/s) = 4.56120 8.11376 6.58170
#
# Compressibility (1/GPa) = 0.04996677
#
# Stress axis : x y z
#
# Youngs Moduli (GPa) = 8.82905 57.77840 78.84421
#
# Poissons Ratio (x) = 1.35712 1.63239
# Poissons Ratio (y) = 0.20738 0.19323
# Poissons Ratio (z) = 0.18280 0.14160
#
# Static dielectric constant tensor:
#      x y z
#    x 1.608920 0.000000 0.000000 
#    y 0.000000 1.637580 0.000000 
#    z 0.000000 0.000000 1.586630 
# 
# From -- ./inp_files/29201.got.cif
#   From: 2010.05.17/outbox.cif.g08.bks.cpg/sg59_15_cif.got.tgz:29201.got - 2010.06.03 14:40:33.
