data_PCOD9449783
_publ_section_title
;
Structure prediction by ZEFSAII (Michael W. Deem and Ramdas Pophale) SiO2 
 PCOD9449783
Probable space group: P M M N
;
_chemical_formula_sum "Si O2"
_cell_formula_units_Z 64
_cell_length_a 24.678569
_cell_length_b 8.993778
_cell_length_c 17.020911
_cell_angle_alpha 90.000000
_cell_angle_beta 90.000000
_cell_angle_gamma 90.000000
_cell_volume 3777.851977
_symmetry_space_group_name_H-M "P M M N"
_symmetry_group_IT_number 59
_space_group.IT_coordinate_system_code '2'
_symmetry_cell_setting 'orthorhombic'
loop_
_space_group_symop_operation_xyz
x,y,z
1/2-x,1/2-y,z
1/2+x,-y,-z
-x,1/2+y,-z
-x,-y,-z
1/2+x,1/2+y,-z
1/2-x,y,z
x,1/2-y,z
loop_
_atom_site_type_symbol
_atom_site_label
_atom_site_fract_x
_atom_site_fract_y
_atom_site_fract_z
Si Si1 0.184366 0.580006 0.099523
Si Si2 0.088361 0.574017 0.529879
Si Si3 0.313765 0.570043 0.923816
Si Si4 0.187340 0.573725 0.635992
Si Si5 0.972060 0.428881 0.308391
Si Si6 0.624983 0.572957 0.220997
Si Si7 0.687833 0.570969 0.738522
Si Si8 0.586951 0.571060 0.637592
O O1 0.250000 0.583555 0.096852
O O2 0.165701 0.750000 0.110383
O O3 0.170233 0.483176 0.175000
O O4 0.168681 0.527158 0.012416
O O5 0.081693 0.750000 0.516523
O O6 0.149179 0.545321 0.561407
O O7 0.050841 0.533453 0.604338
O O8 0.078251 0.489337 0.449727
O O9 0.250000 0.530327 0.912269
O O10 0.316686 0.750000 0.918843
O O11 0.350880 0.496242 0.858285
O O12 0.250000 0.543103 0.621289
O O13 0.181242 0.750000 0.655288
O O14 0.164573 0.480920 0.708777
O O15 0.966355 0.250000 0.299508
O O16 0.933608 0.508362 0.245744
O O17 0.035154 0.469863 0.309045
O O18 0.623468 0.750000 0.216784
O O19 0.750000 0.520006 0.723990
O O20 0.688385 0.750000 0.737691
O O21 0.643544 0.519249 0.675338
O O22 0.587801 0.750000 0.633807
#
# Coordination Sequence:
#
# PCOD9449783 Si02
#       8
#     8   8   8   8   8   8   8   8
#     4   8  15  29  49  72  96 125 161 193 223 269
#     4   9  18  31  48  70  92 119 159 206 246 274
#     4   9  17  30  49  72  99 131 162 190 226 277
#     4   9  18  33  49  65  94 135 168 192 229 284
#     4   9  19  36  52  65  89 127 167 201 237 283
#     4  11  21  30  45  72 100 124 157 201 243 280
#     4   9  18  32  49  72 102 128 149 184 239 291
#     4  10  20  33  51  72  93 124 162 196 236 290
#
# _framework density 16.940844999999999
#
# number of rings (size 3 to 8) (size 9 to 14) (size 15 to 20)
#    0.000    2.750    0.000    3.375    0.000    6.000 
#    0.000    1.250    0.000    0.750    0.000    0.000 
#    0.000    0.000    0.000    0.000    0.000    0.000 
#
# Total GULP energy -356672.974019 kJ/mol
# GULP energy per Si atom -5573.015219 kJ/mol
# Density = 1.690229 g / cm^3
# Si number density = 16.940845 Si / 1000 Ang^3
#
#
#
# Elastic Constant Matrix: (Units=GPa)
#
#
# Indices 1 2 3 4 5 6 
#
# 1 80.8532 19.2555 17.7863 0.0000 0.0000 0.0000
# 2 19.2555 16.7642 11.9401 0.0000 0.0000 0.0000
# 3 17.7863 11.9401 47.4249 0.0000 0.0000 0.0000
# 4 0.0000 0.0000 0.0000 23.3905 0.0000 0.0000
# 5 0.0000 0.0000 0.0000 0.0000 14.6762 0.0000
# 6 0.0000 0.0000 0.0000 0.0000 0.0000 11.4817
#
#
#
# Elastic Compliance Matrix: (Units=1/GPa)
#
#
# Indices 1 2 3 4 5 6 
#
# 1 0.017150 -0.018421 -0.001794 0.000000 0.000000 0.000000
# 2 -0.018421 0.092470 -0.016373 0.000000 0.000000 0.000000
# 3 -0.001794 -0.016373 0.025881 0.000000 0.000000 0.000000
# 4 0.000000 0.000000 0.000000 0.042752 0.000000 0.000000
# 5 0.000000 0.000000 0.000000 0.000000 0.068138 0.000000
# 6 0.000000 0.000000 0.000000 0.000000 0.000000 0.087095
#
#
# Mechanical properties :
#
#
# Convention : Reuss Voigt Hill
#
# Bulk Modulus (GPa) = 16.04459 27.00067 21.52263
# Shear Modulus (GPa) = 11.69765 16.31369 14.00567
#
# Velocity S-wave (km/s) = 2.63059 3.10656 2.87843
# Velocity P-wave (km/s) = 4.32645 5.37033 4.87640
#
# Compressibility (1/GPa) = 0.06232632
#
# Stress axis : x y z
#
# Youngs Moduli (GPa) = 58.31002 10.81430 38.63843
#
# Poissons Ratio (x) = 0.19920 0.06932
# Poissons Ratio (y) = 1.07410 0.63261
# Poissons Ratio (z) = 0.10462 0.17706
#
# Static dielectric constant tensor:
#      x y z
#    x 1.589140 0.000000 0.000000 
#    y 0.000000 1.567080 0.000000 
#    z 0.000000 0.000000 1.557170 
# 
# From -- ./inp_files/28497.got.cif
#   From: 2010.05.17/outbox.cif.g08.bks.cpg/sg59_15_cif.got.tgz:28497.got - 2010.06.03 14:40:33.
