data_PCOD9449682
_publ_section_title
;
Structure prediction by ZEFSAII (Michael W. Deem and Ramdas Pophale) SiO2 
 PCOD9449682
Probable space group: P M M N
;
_chemical_formula_sum "Si O2"
_cell_formula_units_Z 64
_cell_length_a 29.372476
_cell_length_b 8.738623
_cell_length_c 16.018335
_cell_angle_alpha 90.000000
_cell_angle_beta 90.000000
_cell_angle_gamma 90.000000
_cell_volume 4111.506045
_symmetry_space_group_name_H-M "P M M N"
_symmetry_group_IT_number 59
_space_group.IT_coordinate_system_code '2'
_symmetry_cell_setting 'orthorhombic'
loop_
_space_group_symop_operation_xyz
x,y,z
1/2-x,1/2-y,z
1/2+x,-y,-z
-x,1/2+y,-z
-x,-y,-z
1/2+x,1/2+y,-z
1/2-x,y,z
x,1/2-y,z
loop_
_atom_site_type_symbol
_atom_site_label
_atom_site_fract_x
_atom_site_fract_y
_atom_site_fract_z
Si Si1 0.800370 0.564127 0.594619
Si Si2 0.053662 0.433208 0.822212
Si Si3 0.395705 0.066259 0.338791
Si Si4 0.946506 0.066064 0.819382
Si Si5 0.949274 0.433854 0.502811
Si Si6 0.606380 0.066952 0.335578
Si Si7 0.550988 0.066672 0.004333
Si Si8 0.301856 0.065558 0.600358
O O1 0.750000 0.510633 0.620394
O O2 0.799555 0.750000 0.596117
O O3 0.843349 0.514764 0.648820
O O4 0.807573 0.521638 0.497413
O O5 0.055263 0.250000 0.824632
O O6 0.082161 0.495661 0.744829
O O7 0.071100 0.498231 0.910882
O O8 0.000118 0.477908 0.812651
O O9 0.397371 0.250000 0.343271
O O10 0.417802 0.010946 0.253096
O O11 0.423840 0.998818 0.416323
O O12 0.944591 0.250000 0.810200
O O13 0.929315 0.027560 0.912998
O O14 0.950924 0.250000 0.507292
O O15 0.921717 0.477710 0.419063
O O16 0.000000 0.500000 0.500000
O O17 0.605429 0.250000 0.329260
O O18 0.657903 0.009661 0.347573
O O19 0.549149 0.250000 0.010657
O O20 0.500000 0.000000 0.000000
O O21 0.250000 0.024624 0.624663
O O22 0.305751 0.250000 0.604985
#
# Coordination Sequence:
#
# PCOD9449682 Si02
#       8
#     8   8   8   8   8   8   8   8
#     4   8  15  29  48  69  92 120 157 199 240 280
#     4  10  20  33  50  70  95 129 164 200 239 286
#     4  11  20  30  49  72  94 125 162 198 236 280
#     4   9  19  33  48  69  99 131 159 193 239 286
#     4  11  23  35  46  63  93 131 166 198 231 275
#     4  11  22  33  47  70  98 128 161 200 243 287
#     4   9  17  31  50  70  94 125 159 199 243 285
#     4   9  17  32  53  71  91 123 161 201 243 287
#
# _framework density 15.566072
#
# number of rings (size 3 to 8) (size 9 to 14) (size 15 to 20)
#    0.000    2.250    1.250    4.125    0.000    6.750 
#    0.000    0.000    0.000    1.500    0.000    0.875 
#    0.000    3.000    0.000    0.000    0.000    0.000 
#
# Total GULP energy -356868.673196 kJ/mol
# GULP energy per Si atom -5576.073019 kJ/mol
# Density = 1.553064 g / cm^3
# Si number density = 15.566072 Si / 1000 Ang^3
#
#
#
# Elastic Constant Matrix: (Units=GPa)
#
#
# Indices 1 2 3 4 5 6 
#
# 1 114.5099 34.4014 73.1362 0.0000 0.0000 0.0000
# 2 34.4014 37.7726 46.9397 0.0000 0.0000 0.0000
# 3 73.1362 46.9397 145.9124 0.0000 0.0000 0.0000
# 4 0.0000 0.0000 0.0000 24.6291 0.0000 0.0000
# 5 0.0000 0.0000 0.0000 0.0000 5.8722 0.0000
# 6 0.0000 0.0000 0.0000 0.0000 0.0000 19.9494
#
#
#
# Elastic Compliance Matrix: (Units=1/GPa)
#
#
# Indices 1 2 3 4 5 6 
#
# 1 0.013767 -0.006603 -0.004776 0.000000 0.000000 0.000000
# 2 -0.006603 0.047273 -0.011898 0.000000 0.000000 0.000000
# 3 -0.004776 -0.011898 0.013075 0.000000 0.000000 0.000000
# 4 0.000000 0.000000 0.000000 0.040602 0.000000 0.000000
# 5 0.000000 0.000000 0.000000 0.000000 0.170294 0.000000
# 6 0.000000 0.000000 0.000000 0.000000 0.000000 0.050127
#
#
# Mechanical properties :
#
#
# Convention : Reuss Voigt Hill
#
# Bulk Modulus (GPa) = 36.28331 67.46105 51.87218
# Shear Modulus (GPa) = 12.79161 19.67131 16.23146
#
# Velocity S-wave (km/s) = 2.86975 3.55875 3.23266
# Velocity P-wave (km/s) = 5.86007 7.76652 6.87966
#
# Compressibility (1/GPa) = 0.02756088
#
# Stress axis : x y z
#
# Youngs Moduli (GPa) = 72.63660 21.15352 76.48061
#
# Poissons Ratio (x) = 0.13967 0.36531
# Poissons Ratio (y) = 0.47960 0.90999
# Poissons Ratio (z) = 0.34695 0.25169
#
# Static dielectric constant tensor:
#      x y z
#    x 1.506200 0.000000 0.000000 
#    y 0.000000 1.522890 0.000000 
#    z 0.000000 0.000000 1.513000 
# 
# From -- ./inp_files/21839.got.cif
#   From: 2010.05.17/outbox.cif.g08.bks.cpg/sg59_11_cif.got.tgz:21839.got - 2010.06.03 14:40:33.
