data_PCOD9449419
_publ_section_title
;
Structure prediction by ZEFSAII (Michael W. Deem and Ramdas Pophale) SiO2 
 PCOD9449419
Probable space group: P M M N
;
_chemical_formula_sum "Si O2"
_cell_formula_units_Z 48
_cell_length_a 9.141619
_cell_length_b 18.798547
_cell_length_c 16.655603
_cell_angle_alpha 90.000000
_cell_angle_beta 90.000000
_cell_angle_gamma 90.000000
_cell_volume 2862.251292
_symmetry_space_group_name_H-M "P M M N"
_symmetry_group_IT_number 59
_space_group.IT_coordinate_system_code '2'
_symmetry_cell_setting 'orthorhombic'
loop_
_space_group_symop_operation_xyz
x,y,z
1/2-x,1/2-y,z
1/2+x,-y,-z
-x,1/2+y,-z
-x,-y,-z
1/2+x,1/2+y,-z
1/2-x,y,z
x,1/2-y,z
loop_
_atom_site_type_symbol
_atom_site_label
_atom_site_fract_x
_atom_site_fract_y
_atom_site_fract_z
Si Si1 0.923197 0.165488 0.514183
Si Si2 0.923837 0.450967 0.246611
Si Si3 0.073818 0.472392 0.919624
Si Si4 0.072079 0.170424 0.834081
Si Si5 0.923980 0.666794 0.654334
Si Si6 0.924777 0.900847 0.333221
O O1 0.750000 0.153466 0.507878
O O2 0.947924 0.250000 0.528451
O O3 0.000164 0.147417 0.430111
O O4 0.991077 0.122175 0.587623
O O5 0.750000 0.436468 0.249566
O O6 0.959880 0.477596 0.156975
O O7 0.951840 0.518375 0.305004
O O8 0.012777 0.383807 0.277205
O O9 0.250000 0.471695 0.928497
O O10 0.025912 0.392696 0.893681
O O11 0.000000 0.500000 0.000000
O O12 0.250000 0.170301 0.835569
O O13 0.021289 0.250000 0.853145
O O14 0.032182 0.147816 0.743314
O O15 0.750000 0.658785 0.647215
O O16 0.956441 0.750000 0.669911
O O17 0.750000 0.892526 0.345326
#
# Coordination Sequence:
#
# PCOD9449419 Si02
#       6
#     8   8   8   8   8   8
#     4  10  20  32  47  70 101 135 167 201 246 293
#     4   9  19  35  53  74  99 128 162 199 247 302
#     4   9  18  33  53  76 101 129 160 195 240 294
#     4   8  14  27  49  74  98 126 160 197 237 282
#     4  10  21  36  53  72  94 126 171 214 247 284
#     4   9  17  30  50  74  98 127 164 202 240 289
#
# _framework density 16.770015999999998
#
# number of rings (size 3 to 8) (size 9 to 14) (size 15 to 20)
#    0.000    2.833    0.000    3.500    0.000    4.667 
#    0.000    3.333    0.000    4.500    0.000    0.000 
#    0.000    0.000    0.000    0.000    0.000    0.000 
#
# Total GULP energy -267641.988848 kJ/mol
# GULP energy per Si atom -5575.874768 kJ/mol
# Density = 1.673185 g / cm^3
# Si number density = 16.770016 Si / 1000 Ang^3
#
#
#
# Elastic Constant Matrix: (Units=GPa)
#
#
# Indices 1 2 3 4 5 6 
#
# 1 42.1331 51.8011 55.1859 0.0000 0.0000 0.0000
# 2 51.8011 103.7014 87.0174 0.0000 0.0000 0.0000
# 3 55.1859 87.0174 117.9919 0.0000 0.0000 0.0000
# 4 0.0000 0.0000 0.0000 19.8195 0.0000 0.0000
# 5 0.0000 0.0000 0.0000 0.0000 34.1689 0.0000
# 6 0.0000 0.0000 0.0000 0.0000 0.0000 26.1869
#
#
#
# Elastic Compliance Matrix: (Units=1/GPa)
#
#
# Indices 1 2 3 4 5 6 
#
# 1 0.075736 -0.021272 -0.019734 0.000000 0.000000 0.000000
# 2 -0.021272 0.031274 -0.013115 0.000000 0.000000 0.000000
# 3 -0.019734 -0.013115 0.027377 0.000000 0.000000 0.000000
# 4 0.000000 0.000000 0.000000 0.050455 0.000000 0.000000
# 5 0.000000 0.000000 0.000000 0.000000 0.029266 0.000000
# 6 0.000000 0.000000 0.000000 0.000000 0.000000 0.038187
#
#
# Mechanical properties :
#
#
# Convention : Reuss Voigt Hill
#
# Bulk Modulus (GPa) = 38.24986 72.42612 55.33799
# Shear Modulus (GPa) = 13.54088 20.68989 17.11538
#
# Velocity S-wave (km/s) = 2.84464 3.51628 3.19814
# Velocity P-wave (km/s) = 5.80063 7.73093 6.83427
#
# Compressibility (1/GPa) = 0.02614389
#
# Stress axis : x y z
#
# Youngs Moduli (GPa) = 13.20384 31.97557 36.52704
#
# Poissons Ratio (x) = 0.68019 0.72083
# Poissons Ratio (y) = 0.28088 0.47904
# Poissons Ratio (z) = 0.26057 0.41935
#
# Static dielectric constant tensor:
#      x y z
#    x 1.554490 0.000000 0.000000 
#    y 0.000000 1.574860 0.000000 
#    z 0.000000 0.000000 1.532360 
# 
# From -- ./inp_files/20476.got.cif
#   From: 2010.05.17/outbox.cif.g08.bks.cpg/sg59_11_cif.got.tgz:20476.got - 2010.06.03 14:40:33.
