data_PCOD9449795
_publ_section_title
;
Structure prediction by ZEFSAII (Michael W. Deem and Ramdas Pophale) SiO2 
 PCOD9449795
Probable space group: P M M N
;
_chemical_formula_sum "Si O2"
_cell_formula_units_Z 40
_cell_length_a 7.827130
_cell_length_b 9.811348
_cell_length_c 26.687848
_cell_angle_alpha 90.000000
_cell_angle_beta 90.000000
_cell_angle_gamma 90.000000
_cell_volume 2049.485181
_symmetry_space_group_name_H-M "P M M N"
_symmetry_group_IT_number 59
_space_group.IT_coordinate_system_code '2'
_symmetry_cell_setting 'orthorhombic'
loop_
_space_group_symop_operation_xyz
x,y,z
1/2-x,1/2-y,z
1/2+x,-y,-z
-x,1/2+y,-z
-x,-y,-z
1/2+x,1/2+y,-z
1/2-x,y,z
x,1/2-y,z
loop_
_atom_site_type_symbol
_atom_site_label
_atom_site_fract_x
_atom_site_fract_y
_atom_site_fract_z
Si Si1 0.543979 0.093703 0.547415
Si Si2 0.544701 0.594680 0.046283
Si Si3 0.544995 0.903393 0.751230
Si Si4 0.544554 0.905415 0.156865
Si Si5 0.041359 0.092384 0.361283
O O1 0.750000 0.100351 0.550391
O O2 0.481084 0.250000 0.543257
O O3 0.500000 0.000000 0.500000
O O4 0.481854 0.013789 0.596945
O O5 0.750000 0.599878 0.048322
O O6 0.482765 0.750000 0.038951
O O7 0.484938 0.547033 0.101562
O O8 0.500000 0.500000 0.000000
O O9 0.750000 0.897354 0.748207
O O10 0.481309 0.750000 0.761179
O O11 0.485841 0.943659 0.695325
O O12 0.502519 0.002044 0.796511
O O13 0.750000 0.901664 0.155201
O O14 0.483521 0.750000 0.163696
O O15 0.250000 0.091132 0.362192
O O16 0.990861 0.250000 0.371653
#
# Coordination Sequence:
#
# PCOD9449795 Si02
#       5
#     8   8   8   8   8
#     4  10  20  33  51  75 100 128 164 203 243 289
#     4   9  19  35  52  71  97 128 162 201 243 287
#     4   9  18  32  51  76 101 125 159 201 242 287
#     4   9  19  35  51  69  98 133 164 196 239 289
#     4   8  15  30  50  70  96 129 161 197 242 287
#
# _framework density 19.517098000000001
#
# number of rings (size 3 to 8) (size 9 to 14) (size 15 to 20)
#    0.000    3.000    0.000    3.000    0.000    4.800 
#    0.000    9.000    0.000    1.200    0.000    0.000 
#    0.000    0.000    0.000    0.000    0.000    0.000 
#
# Total GULP energy -222983.934167 kJ/mol
# GULP energy per Si atom -5574.598354 kJ/mol
# Density = 1.947268 g / cm^3
# Si number density = 19.517098 Si / 1000 Ang^3
#
#
#
# Elastic Constant Matrix: (Units=GPa)
#
#
# Indices 1 2 3 4 5 6 
#
# 1 19.2048 9.0251 9.9856 0.0000 0.0000 0.0000
# 2 9.0251 144.0849 145.5597 0.0000 0.0000 0.0000
# 3 9.9856 145.5597 225.9783 0.0000 0.0000 0.0000
# 4 0.0000 0.0000 0.0000 44.3448 0.0000 0.0000
# 5 0.0000 0.0000 0.0000 0.0000 27.1980 0.0000
# 6 0.0000 0.0000 0.0000 0.0000 0.0000 22.0800
#
#
#
# Elastic Compliance Matrix: (Units=1/GPa)
#
#
# Indices 1 2 3 4 5 6 
#
# 1 0.053677 -0.002766 -0.000590 0.000000 0.000000 0.000000
# 2 -0.002766 0.020013 -0.012769 0.000000 0.000000 0.000000
# 3 -0.000590 -0.012769 0.012676 0.000000 0.000000 0.000000
# 4 0.000000 0.000000 0.000000 0.022551 0.000000 0.000000
# 5 0.000000 0.000000 0.000000 0.000000 0.036767 0.000000
# 6 0.000000 0.000000 0.000000 0.000000 0.000000 0.045290
#
#
# Mechanical properties :
#
#
# Convention : Reuss Voigt Hill
#
# Bulk Modulus (GPa) = 18.47873 79.82319 49.15096
# Shear Modulus (GPa) = 20.72427 33.70440 27.21433
#
# Velocity S-wave (km/s) = 3.26214 4.16013 3.73820
# Velocity P-wave (km/s) = 4.86593 8.00396 6.62347
#
# Compressibility (1/GPa) = 0.05411626
#
# Stress axis : x y z
#
# Youngs Moduli (GPa) = 18.62994 49.96697 78.88827
#
# Poissons Ratio (x) = 0.13820 0.04657
# Poissons Ratio (y) = 0.05153 1.00732
# Poissons Ratio (z) = 0.01100 0.63802
#
# Static dielectric constant tensor:
#      x y z
#    x 1.727350 0.000000 0.000000 
#    y 0.000000 1.669990 0.000000 
#    z 0.000000 0.000000 1.685180 
# 
# From -- ./inp_files/28727.got.cif
#   From: 2010.05.17/outbox.cif.g08.bks.cpg/sg59_15_cif.got.tgz:28727.got - 2010.06.03 14:40:33.
