data_PCOD9449610
_publ_section_title
;
Structure prediction by ZEFSAII (Michael W. Deem and Ramdas Pophale) SiO2 
 PCOD9449610
Probable space group: P M M N
;
_chemical_formula_sum "Si O2"
_cell_formula_units_Z 48
_cell_length_a 9.573388
_cell_length_b 7.354729
_cell_length_c 32.303392
_cell_angle_alpha 90.000000
_cell_angle_beta 90.000000
_cell_angle_gamma 90.000000
_cell_volume 2274.471311
_symmetry_space_group_name_H-M "P M M N"
_symmetry_group_IT_number 59
_space_group.IT_coordinate_system_code '2'
_symmetry_cell_setting 'orthorhombic'
loop_
_space_group_symop_operation_xyz
x,y,z
1/2-x,1/2-y,z
1/2+x,-y,-z
-x,1/2+y,-z
-x,-y,-z
1/2+x,1/2+y,-z
1/2-x,y,z
x,1/2-y,z
loop_
_atom_site_type_symbol
_atom_site_label
_atom_site_fract_x
_atom_site_fract_y
_atom_site_fract_z
Si Si1 0.907974 0.533089 0.459891
Si Si2 0.588264 0.471364 0.801454
Si Si3 0.090540 0.532886 0.040989
Si Si4 0.912935 0.528883 0.369274
Si Si5 0.088815 0.472285 0.880359
Si Si6 0.911489 0.471396 0.708906
O O1 0.750000 0.463511 0.465629
O O2 0.898513 0.750000 0.456051
O O3 0.962811 0.468948 0.415000
O O4 0.000000 0.500000 0.500000
O O5 0.750000 0.526008 0.808457
O O6 0.588392 0.250000 0.801766
O O7 0.486204 0.529996 0.837946
O O8 0.544793 0.528330 0.755153
O O9 0.250000 0.463378 0.038128
O O10 0.100872 0.750000 0.045762
O O11 0.004378 0.466423 0.080793
O O12 0.000000 0.500000 0.000000
O O13 0.750000 0.480399 0.366103
O O14 0.920425 0.750000 0.368317
O O15 0.997982 0.463772 0.329661
O O16 0.250000 0.529722 0.883377
O O17 0.089472 0.250000 0.880682
O O18 0.750000 0.522723 0.703546
O O19 0.916532 0.250000 0.708861
#
# Coordination Sequence:
#
# PCOD9449610 Si02
#       6
#     8   8   8   8   8   8
#     4   9  18  31  45  63  87 114 146 183 221 262
#     4   8  13  21  32  48  74 106 137 170 208 250
#     4  10  20  33  49  68  91 120 152 187 227 267
#     4   8  14  24  36  51  75 105 134 168 210 252
#     4   9  16  25  38  57  81 110 144 179 215 258
#     4   8  13  20  31  49  73 102 136 170 204 248
#
# _framework density 21.103805000000001
#
# number of rings (size 3 to 8) (size 9 to 14) (size 15 to 20)
#    0.000    3.333    0.000    3.000    0.000    4.667 
#    0.000    5.000    0.000    0.000    0.000    0.000 
#    0.000    1.333    0.000    9.333    0.000   17.333 
#
# Total GULP energy -267787.072927 kJ/mol
# GULP energy per Si atom -5578.897353 kJ/mol
# Density = 2.105577 g / cm^3
# Si number density = 21.103805 Si / 1000 Ang^3
#
#
#
# Elastic Constant Matrix: (Units=GPa)
#
#
# Indices 1 2 3 4 5 6 
#
# 1 152.1124 5.2755 147.8755 0.0000 0.0000 0.0000
# 2 5.2755 76.7219 5.0070 0.0000 0.0000 0.0000
# 3 147.8755 5.0070 262.2692 0.0000 0.0000 0.0000
# 4 0.0000 0.0000 0.0000 6.9034 0.0000 0.0000
# 5 0.0000 0.0000 0.0000 0.0000 46.6036 0.0000
# 6 0.0000 0.0000 0.0000 0.0000 0.0000 -1.4703
#
#
#
# Elastic Compliance Matrix: (Units=1/GPa)
#
#
# Indices 1 2 3 4 5 6 
#
# 1 0.014565 -0.000466 -0.008203 0.000000 0.000000 0.000000
# 2 -0.000466 0.013065 0.000013 0.000000 0.000000 0.000000
# 3 -0.008203 0.000013 0.008438 0.000000 0.000000 0.000000
# 4 0.000000 0.000000 0.000000 0.144856 0.000000 0.000000
# 5 0.000000 0.000000 0.000000 0.000000 0.021458 0.000000
# 6 0.000000 0.000000 0.000000 0.000000 0.000000 -0.680140
#
#
# Mechanical properties :
#
#
# Convention : Reuss Voigt Hill
#
# Bulk Modulus (GPa) = 53.31602 89.71329 71.51466
# Shear Modulus (GPa) = -11.00852 32.60372 10.79760
#
# Velocity S-wave (km/s) = -2.28641 3.93481 2.26440
# Velocity P-wave (km/s) = 4.28349 7.95276 6.38728
#
# Compressibility (1/GPa) = 0.01875609
#
# Stress axis : x y z
#
# Youngs Moduli (GPa) = 68.65709 76.53884 118.51230
#
# Poissons Ratio (x) = 0.03568 0.97220
# Poissons Ratio (y) = 0.03200 -0.00159
# Poissons Ratio (z) = 0.56322 -0.00103
#
# Static dielectric constant tensor:
#      x y z
#    x 1.719820 0.000000 0.000000 
#    y 0.000000 1.921510 0.000000 
#    z 0.000000 0.000000 1.747020 
# 
# From -- ./inp_files/32467.got.cif
#   From: 2010.05.17/outbox.cif.g08.bks.cpg/sg59_17_cif.got.tgz:32467.got - 2010.06.03 14:40:33.
