data_PCOD9449808
_publ_section_title
;
Structure prediction by ZEFSAII (Michael W. Deem and Ramdas Pophale) SiO2 
 PCOD9449808
Probable space group: P M M N
;
_chemical_formula_sum "Si O2"
_cell_formula_units_Z 64
_cell_length_a 22.215494
_cell_length_b 14.150364
_cell_length_c 9.812515
_cell_angle_alpha 90.000000
_cell_angle_beta 90.000000
_cell_angle_gamma 90.000000
_cell_volume 3084.635982
_symmetry_space_group_name_H-M "P M M N"
_symmetry_group_IT_number 59
_space_group.IT_coordinate_system_code '2'
_symmetry_cell_setting 'orthorhombic'
loop_
_space_group_symop_operation_xyz
x,y,z
1/2-x,1/2-y,z
1/2+x,-y,-z
-x,1/2+y,-z
-x,-y,-z
1/2+x,1/2+y,-z
1/2-x,y,z
x,1/2-y,z
loop_
_atom_site_type_symbol
_atom_site_label
_atom_site_fract_x
_atom_site_fract_y
_atom_site_fract_z
Si Si1 0.821625 0.853547 0.057245
Si Si2 0.421001 0.642947 0.643514
Si Si3 0.449928 0.984583 0.163906
Si Si4 0.988545 0.862953 0.396836
Si Si5 0.153608 0.354302 0.541002
Si Si6 0.367737 0.144261 0.245217
Si Si7 0.816716 0.009177 0.259168
Si Si8 0.974300 0.356011 0.052667
O O1 0.750000 0.852730 0.082954
O O2 0.846763 0.750000 0.099182
O O3 0.844268 0.947012 0.134613
O O4 0.832979 0.860063 0.896438
O O5 0.404255 0.750000 0.607860
O O6 0.467187 0.611929 0.524273
O O7 0.361909 0.583465 0.675250
O O8 0.452508 0.644372 0.791676
O O9 0.495087 0.929953 0.267946
O O10 0.405244 0.047209 0.253300
O O11 0.471499 0.070022 0.063330
O O12 0.430136 0.902120 0.059370
O O13 0.997645 0.750000 0.366279
O O14 0.918722 0.871650 0.440952
O O15 0.166091 0.250000 0.594164
O O16 0.169655 0.355810 0.382819
O O17 0.187749 0.430313 0.625926
O O18 0.399730 0.250000 0.247620
O O19 0.750000 0.046324 0.223711
O O20 0.990505 0.250000 0.012812
#
# Coordination Sequence:
#
# PCOD9449808 Si02
#       8
#     8   8   8   8   8   8   8   8
#     4   9  19  36  55  75 103 139 178 222 271 323
#     4  10  21  38  57  77 106 143 183 228 270 313
#     4  11  20  32  52  75 106 140 173 216 264 314
#     4  10  21  37  57  80 108 145 186 224 269 325
#     4  10  21  36  55  82 113 143 178 223 273 327
#     4  10  20  33  51  75 102 135 175 215 260 315
#     4  11  22  36  56  82 109 139 178 222 272 329
#     4  10  21  34  49  74 105 137 175 217 263 314
#
# _framework density 20.747990999999999
#
# number of rings (size 3 to 8) (size 9 to 14) (size 15 to 20)
#    0.000    1.875    0.000    4.125    0.000    6.000 
#    0.000    3.750    0.000    0.000    0.000    0.000 
#    0.000   10.000    0.000    0.000    0.000    0.000 
#
# Total GULP energy -356666.222278 kJ/mol
# GULP energy per Si atom -5572.909723 kJ/mol
# Density = 2.070077 g / cm^3
# Si number density = 20.747991 Si / 1000 Ang^3
#
#
#
# Elastic Constant Matrix: (Units=GPa)
#
#
# Indices 1 2 3 4 5 6 
#
# 1 52.9186 28.9099 6.6385 0.0000 0.0000 0.0000
# 2 28.9099 106.0364 35.1617 0.0000 0.0000 0.0000
# 3 6.6385 35.1617 104.2349 0.0000 0.0000 0.0000
# 4 0.0000 0.0000 0.0000 37.7945 0.0000 0.0000
# 5 0.0000 0.0000 0.0000 0.0000 46.1272 0.0000
# 6 0.0000 0.0000 0.0000 0.0000 0.0000 103.2363
#
#
#
# Elastic Compliance Matrix: (Units=1/GPa)
#
#
# Indices 1 2 3 4 5 6 
#
# 1 0.022251 -0.006301 0.000709 0.000000 0.000000 0.000000
# 2 -0.006301 0.012403 -0.003783 0.000000 0.000000 0.000000
# 3 0.000709 -0.003783 0.010825 0.000000 0.000000 0.000000
# 4 0.000000 0.000000 0.000000 0.026459 0.000000 0.000000
# 5 0.000000 0.000000 0.000000 0.000000 0.021679 0.000000
# 6 0.000000 0.000000 0.000000 0.000000 0.000000 0.009687
#
#
# Mechanical properties :
#
#
# Convention : Reuss Voigt Hill
#
# Bulk Modulus (GPa) = 37.41489 44.95668 41.18579
# Shear Modulus (GPa) = 38.17881 50.26361 44.22121
#
# Velocity S-wave (km/s) = 4.29432 4.92731 4.62166
# Velocity P-wave (km/s) = 6.53149 7.35433 6.95509
#
# Compressibility (1/GPa) = 0.02672732
#
# Stress axis : x y z
#
# Youngs Moduli (GPa) = 44.94272 80.62531 92.38229
#
# Poissons Ratio (x) = 0.50805 -0.06546
# Poissons Ratio (y) = 0.28320 0.34945
# Poissons Ratio (z) = -0.03184 0.30497
#
# Static dielectric constant tensor:
#      x y z
#    x 1.827970 0.000000 0.000000 
#    y 0.000000 1.807340 0.000000 
#    z 0.000000 0.000000 1.776780 
# 
# From -- ./inp_files/9574.got.cif
#   From: 2010.05.17/outbox.cif.g08.bks.cpg/sg59_5_cif.got.tgz:9574.got - 2010.06.03 14:40:33.
