data_PCOD9449066
_publ_section_title
;
Structure prediction by ZEFSAII (Michael W. Deem and Ramdas Pophale) SiO2 
 PCOD9449066
Probable space group: P M M N
;
_chemical_formula_sum "Si O2"
_cell_formula_units_Z 56
_cell_length_a 21.624761
_cell_length_b 7.844333
_cell_length_c 15.633783
_cell_angle_alpha 90.000000
_cell_angle_beta 90.000000
_cell_angle_gamma 90.000000
_cell_volume 2651.987163
_symmetry_space_group_name_H-M "P M M N"
_symmetry_group_IT_number 59
_space_group.IT_coordinate_system_code '2'
_symmetry_cell_setting 'orthorhombic'
loop_
_space_group_symop_operation_xyz
x,y,z
1/2-x,1/2-y,z
1/2+x,-y,-z
-x,1/2+y,-z
-x,-y,-z
1/2+x,1/2+y,-z
1/2-x,y,z
x,1/2-y,z
loop_
_atom_site_type_symbol
_atom_site_label
_atom_site_fract_x
_atom_site_fract_y
_atom_site_fract_z
Si Si1 0.818678 0.439506 0.616490
Si Si2 0.867818 0.945358 0.784958
Si Si3 0.501168 0.956746 0.226447
Si Si4 0.319733 0.443133 0.566130
Si Si5 0.817794 0.959066 0.961388
Si Si6 0.541179 0.543923 0.415509
Si Si7 0.939775 0.545181 0.056446
O O1 0.750000 0.458789 0.653641
O O2 0.824581 0.250000 0.579498
O O3 0.863267 0.460589 0.695144
O O4 0.824243 0.562513 0.537058
O O5 0.849947 0.750000 0.768893
O O6 0.827646 0.013533 0.862975
O O7 0.938900 0.960890 0.810064
O O8 0.495145 0.750000 0.226019
O O9 0.512038 0.010196 0.324583
O O10 0.552125 0.004646 0.155803
O O11 0.250000 0.516512 0.584177
O O12 0.318916 0.250000 0.600764
O O13 0.387174 0.520364 0.587357
O O14 0.750000 0.009869 0.992483
O O15 0.819801 0.750000 0.960097
O O16 0.876364 0.020726 0.015180
O O17 0.500000 0.500000 0.500000
O O18 0.544380 0.750000 0.415971
O O19 0.936291 0.750000 0.055201
O O20 0.000000 0.500000 0.000000
#
# Coordination Sequence:
#
# PCOD9449066 Si02
#       7
#     8   8   8   8   8   8   8
#     4  10  20  32  47  71 104 138 173 216 271 330
#     4  11  20  31  50  75 104 139 179 220 264 321
#     4  10  21  35  53  78 108 139 176 223 275 326
#     4   9  18  34  54  73  98 137 183 226 269 321
#     4   9  18  32  51  77 107 138 175 219 264 313
#     4  10  21  36  53  78 109 141 178 224 275 322
#     4  10  19  35  57  79 106 141 179 221 266 319
#
# _framework density 21.116240999999999
#
# number of rings (size 3 to 8) (size 9 to 14) (size 15 to 20)
#    0.000    2.143    1.429    2.143    0.000    4.857 
#    0.000    0.714    0.000    5.571    0.000    0.000 
#    0.000    3.429    0.000    0.000    0.000    0.000 
#
# Total GULP energy -312049.544995 kJ/mol
# GULP energy per Si atom -5572.313303 kJ/mol
# Density = 2.106818 g / cm^3
# Si number density = 21.116241 Si / 1000 Ang^3
#
#
#
# Elastic Constant Matrix: (Units=GPa)
#
#
# Indices 1 2 3 4 5 6 
#
# 1 140.8746 -1.6207 38.4617 0.0000 0.0000 0.0000
# 2 -1.6207 28.9406 1.3662 0.0000 0.0000 0.0000
# 3 38.4617 1.3662 88.5047 0.0000 0.0000 0.0000
# 4 0.0000 0.0000 0.0000 9.2002 0.0000 0.0000
# 5 0.0000 0.0000 0.0000 0.0000 36.8548 0.0000
# 6 0.0000 0.0000 0.0000 0.0000 0.0000 18.6754
#
#
#
# Elastic Compliance Matrix: (Units=1/GPa)
#
#
# Indices 1 2 3 4 5 6 
#
# 1 0.008065 0.000618 -0.003514 0.000000 0.000000 0.000000
# 2 0.000618 0.034626 -0.000803 0.000000 0.000000 0.000000
# 3 -0.003514 -0.000803 0.012838 0.000000 0.000000 0.000000
# 4 0.000000 0.000000 0.000000 0.108693 0.000000 0.000000
# 5 0.000000 0.000000 0.000000 0.000000 0.027133 0.000000
# 6 0.000000 0.000000 0.000000 0.000000 0.000000 0.053546
#
#
# Mechanical properties :
#
#
# Convention : Reuss Voigt Hill
#
# Bulk Modulus (GPa) = 20.77700 37.19272 28.98486
# Shear Modulus (GPa) = 18.63270 27.62027 23.12648
#
# Velocity S-wave (km/s) = 2.97372 3.62057 3.31297
# Velocity P-wave (km/s) = 4.65311 5.92702 5.32827
#
# Compressibility (1/GPa) = 0.04813015
#
# Stress axis : x y z
#
# Youngs Moduli (GPa) = 123.99061 28.88001 77.89075
#
# Poissons Ratio (x) = -0.01784 0.27374
# Poissons Ratio (y) = -0.07657 0.06254
# Poissons Ratio (z) = 0.43575 0.02319
#
# Static dielectric constant tensor:
#      x y z
#    x 1.856640 0.000000 0.000000 
#    y 0.000000 1.839500 0.000000 
#    z 0.000000 0.000000 1.731470 
# 
# From -- ./inp_files/21055.got.cif
#   From: 2010.05.17/outbox.cif.g08.bks.cpg/sg59_11_cif.got.tgz:21055.got - 2010.06.03 14:40:33.
