data_PCOD9449474
_publ_section_title
;
Structure prediction by ZEFSAII (Michael W. Deem and Ramdas Pophale) SiO2 
 PCOD9449474
Probable space group: P M M N
;
_chemical_formula_sum "Si O2"
_cell_formula_units_Z 48
_cell_length_a 14.939841
_cell_length_b 9.421243
_cell_length_c 16.162642
_cell_angle_alpha 90.000000
_cell_angle_beta 90.000000
_cell_angle_gamma 90.000000
_cell_volume 2274.922125
_symmetry_space_group_name_H-M "P M M N"
_symmetry_group_IT_number 59
_space_group.IT_coordinate_system_code '2'
_symmetry_cell_setting 'orthorhombic'
loop_
_space_group_symop_operation_xyz
x,y,z
1/2-x,1/2-y,z
1/2+x,-y,-z
-x,1/2+y,-z
-x,-y,-z
1/2+x,1/2+y,-z
1/2-x,y,z
x,1/2-y,z
loop_
_atom_site_type_symbol
_atom_site_label
_atom_site_fract_x
_atom_site_fract_y
_atom_site_fract_z
Si Si1 0.889197 0.089415 0.069304
Si Si2 0.859900 0.414728 0.390150
Si Si3 0.397516 0.089579 0.086024
Si Si4 0.645753 0.077287 0.570408
Si Si5 0.143576 0.091179 0.766763
Si Si6 0.141518 0.914520 0.249224
O O1 0.854407 0.250000 0.072931
O O2 0.996861 0.099108 0.067307
O O3 0.868626 0.000910 0.151293
O O4 0.858142 0.005819 0.987778
O O5 0.750000 0.416021 0.391740
O O6 0.885497 0.250000 0.377929
O O7 0.891295 0.466184 0.480887
O O8 0.891131 0.510692 0.314359
O O9 0.361548 0.250000 0.087182
O O10 0.386792 0.012437 0.173649
O O11 0.750000 0.032573 0.570312
O O12 0.645100 0.250000 0.569987
O O13 0.608414 0.035457 0.659993
O O14 0.250000 0.103284 0.754635
O O15 0.106278 0.250000 0.776140
O O16 0.250000 0.915070 0.252349
O O17 0.114650 0.750000 0.235791
#
# Coordination Sequence:
#
# PCOD9449474 Si02
#       6
#     8   8   8   8   8   8
#     4  10  21  37  55  71  90 124 166 200 236 290
#     4   8  13  24  44  68  95 128 162 194 230 275
#     4  10  21  36  53  73  96 123 158 201 246 288
#     4   7  11  22  42  68  96 126 161 196 227 268
#     4  10  20  32  48  74 104 128 154 196 246 287
#     4   9  17  30  50  76 103 131 163 196 233 282
#
# _framework density 21.099623999999999
#
# number of rings (size 3 to 8) (size 9 to 14) (size 15 to 20)
#    0.000    3.000    0.000    3.500    0.000    4.000 
#    0.000    0.833    0.000    4.000    0.000    0.000 
#    0.000    0.000    0.000    0.000    0.000    0.000 
#
# Total GULP energy -267728.171875 kJ/mol
# GULP energy per Si atom -5577.670247 kJ/mol
# Density = 2.105160 g / cm^3
# Si number density = 21.099624 Si / 1000 Ang^3
#
#
#
# Elastic Constant Matrix: (Units=GPa)
#
#
# Indices 1 2 3 4 5 6 
#
# 1 37.8274 -2.6382 -13.8879 0.0000 0.0000 0.0000
# 2 -2.6382 152.8429 117.7448 0.0000 0.0000 0.0000
# 3 -13.8879 117.7448 230.4867 0.0000 0.0000 0.0000
# 4 0.0000 0.0000 0.0000 14.1274 0.0000 0.0000
# 5 0.0000 0.0000 0.0000 0.0000 35.1057 0.0000
# 6 0.0000 0.0000 0.0000 0.0000 0.0000 11.6079
#
#
#
# Elastic Compliance Matrix: (Units=1/GPa)
#
#
# Indices 1 2 3 4 5 6 
#
# 1 0.027191 -0.001307 0.002306 0.000000 0.000000 0.000000
# 2 -0.001307 0.010851 -0.005622 0.000000 0.000000 0.000000
# 3 0.002306 -0.005622 0.007350 0.000000 0.000000 0.000000
# 4 0.000000 0.000000 0.000000 0.070784 0.000000 0.000000
# 5 0.000000 0.000000 0.000000 0.000000 0.028485 0.000000
# 6 0.000000 0.000000 0.000000 0.000000 0.000000 0.086149
#
#
# Mechanical properties :
#
#
# Convention : Reuss Voigt Hill
#
# Bulk Modulus (GPa) = 27.66563 69.28826 48.47695
# Shear Modulus (GPa) = 19.83295 33.49741 26.66518
#
# Velocity S-wave (km/s) = 3.06921 3.98877 3.55882
# Velocity P-wave (km/s) = 5.06956 7.35688 6.31760
#
# Compressibility (1/GPa) = 0.03614594
#
# Stress axis : x y z
#
# Youngs Moduli (GPa) = 36.77629 92.15572 136.06010
#
# Poissons Ratio (x) = 0.12048 -0.31379
# Poissons Ratio (y) = 0.04808 0.76495
# Poissons Ratio (z) = -0.08482 0.51811
#
# Static dielectric constant tensor:
#      x y z
#    x 1.815390 0.000000 0.000000 
#    y 0.000000 1.732360 0.000000 
#    z 0.000000 0.000000 1.759250 
# 
# From -- ./inp_files/24102.got.cif
#   From: 2010.05.17/outbox.cif.g08.bks.cpg/sg59_13_cif.got.tgz:24102.got - 2010.06.03 14:40:33.
