data_PCOD9449043
_publ_section_title
;
Structure prediction by ZEFSAII (Michael W. Deem and Ramdas Pophale) SiO2 
 PCOD9449043
Probable space group: P M M N
;
_chemical_formula_sum "Si O2"
_cell_formula_units_Z 48
_cell_length_a 30.824128
_cell_length_b 9.335473
_cell_length_c 9.496275
_cell_angle_alpha 90.000000
_cell_angle_beta 90.000000
_cell_angle_gamma 90.000000
_cell_volume 2732.627342
_symmetry_space_group_name_H-M "P M M N"
_symmetry_group_IT_number 59
_space_group.IT_coordinate_system_code '2'
_symmetry_cell_setting 'orthorhombic'
loop_
_space_group_symop_operation_xyz
x,y,z
1/2-x,1/2-y,z
1/2+x,-y,-z
-x,1/2+y,-z
-x,-y,-z
1/2+x,1/2+y,-z
1/2-x,y,z
x,1/2-y,z
loop_
_atom_site_type_symbol
_atom_site_label
_atom_site_fract_x
_atom_site_fract_y
_atom_site_fract_z
Si Si1 0.150532 0.080555 0.999151
Si Si2 0.120909 0.085056 0.690074
Si Si3 0.602871 0.086773 0.748954
Si Si4 0.824262 0.091362 0.508909
Si Si5 0.455517 0.420255 0.464890
Si Si6 0.250000 0.080735 0.347261
Si Si7 0.250000 0.077429 0.020846
O O1 0.152360 0.250000 0.040250
O O2 0.201151 0.034583 0.969907
O O3 0.127329 0.990429 0.121818
O O4 0.121719 0.069726 0.857892
O O5 0.134464 0.250000 0.660065
O O6 0.077250 0.062182 0.598883
O O7 0.155404 0.973202 0.630878
O O8 0.588879 0.250000 0.784796
O O9 0.637876 0.098920 0.624136
O O10 0.565624 0.991550 0.674787
O O11 0.805936 0.250000 0.489311
O O12 0.790651 0.981515 0.572414
O O13 0.500000 0.500000 0.500000
O O14 0.461468 0.250000 0.444454
O O15 0.250000 0.250000 0.347542
O O16 0.250000 0.034135 0.184975
O O17 0.250000 0.250000 0.005982
#
# Coordination Sequence:
#
# PCOD9449043 Si02
#       7
#     8   8   8   8   8   4   4
#     4  10  19  35  55  80 112 147 185 225 268 319
#     4   9  20  36  56  80 109 142 179 224 276 331
#     4  10  20  34  54  80 108 143 181 221 268 324
#     4  10  20  33  50  74 106 140 178 223 269 314
#     4  10  20  37  60  85 109 139 179 227 280 336
#     4  11  19  30  51  76 102 138 185 229 264 311
#     4   9  18  30  51  78 106 142 183 221 260 309
#
# _framework density 17.565512999999999
#
# number of rings (size 3 to 8) (size 9 to 14) (size 15 to 20)
#    0.000    2.167    1.667    1.750    0.000    3.333 
#    0.000    2.917    0.000    0.000    0.000    0.000 
#    0.000    0.000    0.000    0.000    0.000    0.000 
#
# Total GULP energy -267288.141691 kJ/mol
# GULP energy per Si atom -5568.502952 kJ/mol
# Density = 1.752553 g / cm^3
# Si number density = 17.565513 Si / 1000 Ang^3
#
#
#
# Elastic Constant Matrix: (Units=GPa)
#
#
# Indices 1 2 3 4 5 6 
#
# 1 65.3748 37.7527 24.7269 0.0000 0.0000 0.0000
# 2 37.7527 85.9948 47.3491 0.0000 0.0000 0.0000
# 3 24.7269 47.3491 78.2301 0.0000 0.0000 0.0000
# 4 0.0000 0.0000 0.0000 20.8885 0.0000 0.0000
# 5 0.0000 0.0000 0.0000 0.0000 70.7257 0.0000
# 6 0.0000 0.0000 0.0000 0.0000 0.0000 18.7631
#
#
#
# Elastic Compliance Matrix: (Units=1/GPa)
#
#
# Indices 1 2 3 4 5 6 
#
# 1 0.020617 -0.008194 -0.001557 0.000000 0.000000 0.000000
# 2 -0.008194 0.020697 -0.009937 0.000000 0.000000 0.000000
# 3 -0.001557 -0.009937 0.019290 0.000000 0.000000 0.000000
# 4 0.000000 0.000000 0.000000 0.047873 0.000000 0.000000
# 5 0.000000 0.000000 0.000000 0.000000 0.014139 0.000000
# 6 0.000000 0.000000 0.000000 0.000000 0.000000 0.053296
#
#
# Mechanical properties :
#
#
# Convention : Reuss Voigt Hill
#
# Bulk Modulus (GPa) = 47.10893 49.91745 48.51319
# Shear Modulus (GPa) = 22.48555 30.06017 26.27286
#
# Velocity S-wave (km/s) = 3.58172 4.14130 3.87163
# Velocity P-wave (km/s) = 6.63191 7.16566 6.90394
#
# Compressibility (1/GPa) = 0.02122740
#
# Stress axis : x y z
#
# Youngs Moduli (GPa) = 48.50327 48.31578 51.84135
#
# Poissons Ratio (x) = 0.39588 0.08074
# Poissons Ratio (y) = 0.39742 0.51516
# Poissons Ratio (z) = 0.07554 0.48012
#
# Static dielectric constant tensor:
#      x y z
#    x 1.616780 0.000000 0.000000 
#    y 0.000000 1.613120 0.000000 
#    z 0.000000 0.000000 1.573460 
# 
# From -- ./inp_files/6399.got.cif
#   From: 2010.05.17/outbox.cif.g08.bks.cpg/sg59_4_cif.got.tgz:6399.got - 2010.06.03 14:40:33.
