data_PCOD9449428
_publ_section_title
;
Structure prediction by ZEFSAII (Michael W. Deem and Ramdas Pophale) SiO2 
 PCOD9449428
Probable space group: P M M N
;
_chemical_formula_sum "Si O2"
_cell_formula_units_Z 48
_cell_length_a 15.719731
_cell_length_b 7.939566
_cell_length_c 19.595904
_cell_angle_alpha 90.000000
_cell_angle_beta 90.000000
_cell_angle_gamma 90.000000
_cell_volume 2445.722486
_symmetry_space_group_name_H-M "P M M N"
_symmetry_group_IT_number 59
_space_group.IT_coordinate_system_code '2'
_symmetry_cell_setting 'orthorhombic'
loop_
_space_group_symop_operation_xyz
x,y,z
1/2-x,1/2-y,z
1/2+x,-y,-z
-x,1/2+y,-z
-x,-y,-z
1/2+x,1/2+y,-z
1/2-x,y,z
x,1/2-y,z
loop_
_atom_site_type_symbol
_atom_site_label
_atom_site_fract_x
_atom_site_fract_y
_atom_site_fract_z
Si Si1 0.346251 0.044511 0.171818
Si Si2 0.846551 0.549241 0.324641
Si Si3 0.498852 0.953486 0.921099
Si Si4 0.999227 0.049682 0.421263
Si Si5 0.653944 0.451421 0.172054
Si Si6 0.846621 0.544247 0.671623
O O1 0.250000 0.990811 0.154895
O O2 0.346518 0.250000 0.171099
O O3 0.417631 0.985724 0.119401
O O4 0.364994 0.994401 0.250039
O O5 0.750000 0.486441 0.337802
O O6 0.843230 0.750000 0.320425
O O7 0.913595 0.502240 0.382303
O O8 0.873489 0.483479 0.250078
O O9 0.498620 0.750000 0.916443
O O10 0.415019 0.016794 0.881452
O O11 0.500000 0.000000 0.000000
O O12 0.004206 0.250000 0.417928
O O13 0.081183 0.982253 0.379765
O O14 0.000000 0.000000 0.500000
O O15 0.750000 0.519849 0.163823
O O16 0.658403 0.250000 0.163333
O O17 0.750000 0.491764 0.654582
O O18 0.846905 0.750000 0.670573
#
# Coordination Sequence:
#
# PCOD9449428 Si02
#       6
#     8   8   8   8   8   8
#     4   8  14  27  48  71  92 118 158 204 244 286
#     4  10  21  37  57  80 105 136 178 226 271 317
#     4  10  20  32  47  71 102 134 166 202 249 305
#     4  11  22  35  53  79 111 145 177 212 260 316
#     4   9  18  34  55  76  99 131 172 217 265 316
#     4   8  15  30  53  77  98 125 166 214 259 303
#
# _framework density 19.626101999999999
#
# number of rings (size 3 to 8) (size 9 to 14) (size 15 to 20)
#    0.000    2.667    0.000    3.000    0.000    5.667 
#    0.000    1.667    0.000    1.500    0.000    4.667 
#    0.000    0.000    0.000    0.000    0.000    0.000 
#
# Total GULP energy -267853.598168 kJ/mol
# GULP energy per Si atom -5580.283295 kJ/mol
# Density = 1.958143 g / cm^3
# Si number density = 19.626102 Si / 1000 Ang^3
#
#
#
# Elastic Constant Matrix: (Units=GPa)
#
#
# Indices 1 2 3 4 5 6 
#
# 1 149.1403 7.4322 130.7057 0.0000 0.0000 0.0000
# 2 7.4322 17.5855 0.0202 0.0000 0.0000 0.0000
# 3 130.7057 0.0202 171.4349 0.0000 0.0000 0.0000
# 4 0.0000 0.0000 0.0000 29.2505 0.0000 0.0000
# 5 0.0000 0.0000 0.0000 0.0000 -1.0121 0.0000
# 6 0.0000 0.0000 0.0000 0.0000 0.0000 11.0825
#
#
#
# Elastic Compliance Matrix: (Units=1/GPa)
#
#
# Indices 1 2 3 4 5 6 
#
# 1 0.021571 -0.009098 -0.016445 0.000000 0.000000 0.000000
# 2 -0.009098 0.060702 0.006929 0.000000 0.000000 0.000000
# 3 -0.016445 0.006929 0.018370 0.000000 0.000000 0.000000
# 4 0.000000 0.000000 0.000000 0.034187 0.000000 0.000000
# 5 0.000000 0.000000 0.000000 0.000000 -0.988026 0.000000
# 6 0.000000 0.000000 0.000000 0.000000 0.000000 0.090232
#
#
# Mechanical properties :
#
#
# Convention : Reuss Voigt Hill
#
# Bulk Modulus (GPa) = 15.76883 68.27522 42.02202
# Shear Modulus (GPa) = -7.09625 21.19768 7.05071
#
# Velocity S-wave (km/s) = -1.90357 3.29002 1.89745
# Velocity P-wave (km/s) = 1.79461 7.02109 5.12428
#
# Compressibility (1/GPa) = 0.06341626
#
# Stress axis : x y z
#
# Youngs Moduli (GPa) = 46.35925 16.47387 54.43586
#
# Poissons Ratio (x) = 0.14987 0.89519
# Poissons Ratio (y) = 0.42176 -0.37719
# Poissons Ratio (z) = 0.76237 -0.11415
#
# Static dielectric constant tensor:
#      x y z
#    x 1.708460 0.000000 0.000000 
#    y 0.000000 1.715060 0.000000 
#    z 0.000000 0.000000 1.609910 
# 
# From -- ./inp_files/25467.got.cif
#   From: 2010.05.17/outbox.cif.g08.bks.cpg/sg59_13_cif.got.tgz:25467.got - 2010.06.03 14:40:33.
