data_PCOD9449652
_publ_section_title
;
Structure prediction by ZEFSAII (Michael W. Deem and Ramdas Pophale) SiO2 
 PCOD9449652
Probable space group: P M M N
;
_chemical_formula_sum "Si O2"
_cell_formula_units_Z 56
_cell_length_a 9.521759
_cell_length_b 14.837204
_cell_length_c 18.861327
_cell_angle_alpha 90.000000
_cell_angle_beta 90.000000
_cell_angle_gamma 90.000000
_cell_volume 2664.658128
_symmetry_space_group_name_H-M "P M M N"
_symmetry_group_IT_number 59
_space_group.IT_coordinate_system_code '2'
_symmetry_cell_setting 'orthorhombic'
loop_
_space_group_symop_operation_xyz
x,y,z
1/2-x,1/2-y,z
1/2+x,-y,-z
-x,1/2+y,-z
-x,-y,-z
1/2+x,1/2+y,-z
1/2-x,y,z
x,1/2-y,z
loop_
_atom_site_type_symbol
_atom_site_label
_atom_site_fract_x
_atom_site_fract_y
_atom_site_fract_z
Si Si1 0.414130 0.393569 0.070830
Si Si2 0.908931 0.858570 0.240146
Si Si3 0.916523 0.574743 0.081538
Si Si4 0.094017 0.646396 0.795468
Si Si5 0.413393 0.640219 0.373010
Si Si6 0.910709 0.639273 0.665737
Si Si7 0.586744 0.360084 0.470506
O O1 0.250000 0.383570 0.089352
O O2 0.468401 0.496550 0.072991
O O3 0.513840 0.352207 0.130077
O O4 0.432655 0.364124 0.988930
O O5 0.750000 0.887296 0.255369
O O6 0.913706 0.750000 0.241599
O O7 0.940613 0.885680 0.159337
O O8 0.006411 0.892457 0.303589
O O9 0.750000 0.545518 0.077906
O O10 0.250000 0.605515 0.800569
O O11 0.111643 0.750000 0.774202
O O12 0.996102 0.606283 0.734513
O O13 0.250000 0.616806 0.368428
O O14 0.421907 0.750000 0.372668
O O15 0.464456 0.611520 0.451208
O O16 0.750000 0.609363 0.667409
O O17 0.908081 0.750000 0.666434
O O18 0.990273 0.610769 0.594444
O O19 0.750000 0.386882 0.461166
O O20 0.586311 0.250000 0.469899
#
# Coordination Sequence:
#
# PCOD9449652 Si02
#       7
#     8   8   8   8   8   8   8
#     4  10  20  34  53  73  93 121 159 201 239 280
#     4   9  17  29  46  69  96 125 157 193 234 279
#     4   9  19  35  52  70  95 126 158 194 238 287
#     4  10  20  33  49  70  98 129 158 192 238 288
#     4   8  14  24  38  59  89 123 156 191 231 273
#     4   9  16  25  39  62  91 121 155 194 232 271
#     4   8  13  22  36  55  84 122 157 187 226 274
#
# _framework density 21.015829
#
# number of rings (size 3 to 8) (size 9 to 14) (size 15 to 20)
#    0.000    3.000    0.000    2.143    0.000    4.857 
#    0.000    4.286    0.000    1.714    0.000    1.000 
#    0.000    0.000    0.000    0.000    0.000    0.000 
#
# Total GULP energy -312150.806045 kJ/mol
# GULP energy per Si atom -5574.121537 kJ/mol
# Density = 2.096800 g / cm^3
# Si number density = 21.015829 Si / 1000 Ang^3
#
#
#
# Elastic Constant Matrix: (Units=GPa)
#
#
# Indices 1 2 3 4 5 6 
#
# 1 127.2541 4.7302 108.7005 0.0000 0.0000 0.0000
# 2 4.7302 27.6134 0.9640 0.0000 0.0000 0.0000
# 3 108.7005 0.9640 208.7146 0.0000 0.0000 0.0000
# 4 0.0000 0.0000 0.0000 71.0762 0.0000 0.0000
# 5 0.0000 0.0000 0.0000 0.0000 38.6318 0.0000
# 6 0.0000 0.0000 0.0000 0.0000 0.0000 -1.3157
#
#
#
# Elastic Compliance Matrix: (Units=1/GPa)
#
#
# Indices 1 2 3 4 5 6 
#
# 1 0.014287 -0.002188 -0.007431 0.000000 0.000000 0.000000
# 2 -0.002188 0.036555 0.000971 0.000000 0.000000 0.000000
# 3 -0.007431 0.000971 0.008657 0.000000 0.000000 0.000000
# 4 0.000000 0.000000 0.000000 0.014069 0.000000 0.000000
# 5 0.000000 0.000000 0.000000 0.000000 0.025885 0.000000
# 6 0.000000 0.000000 0.000000 0.000000 0.000000 -0.760069
#
#
# Mechanical properties :
#
#
# Convention : Reuss Voigt Hill
#
# Bulk Modulus (GPa) = 23.69504 65.81905 44.75705
# Shear Modulus (GPa) = -7.94594 38.29094 15.17250
#
# Velocity S-wave (km/s) = -1.94657 4.27313 2.68984
# Velocity P-wave (km/s) = 2.49943 7.46545 5.56687
#
# Compressibility (1/GPa) = 0.04220293
#
# Stress axis : x y z
#
# Youngs Moduli (GPa) = 69.99428 27.35589 115.51750
#
# Poissons Ratio (x) = 0.05985 0.85837
# Poissons Ratio (y) = 0.15315 -0.11213
# Poissons Ratio (z) = 0.52010 -0.02655
#
# Static dielectric constant tensor:
#      x y z
#    x 1.783050 0.000000 0.000000 
#    y 0.000000 1.851110 0.000000 
#    z 0.000000 0.000000 1.766040 
# 
# From -- ./inp_files/26025.got.cif
#   From: 2010.05.17/outbox.cif.g08.bks.cpg/sg59_14_cif.got.tgz:26025.got - 2010.06.03 14:40:33.
