data_PCOD9449001
_publ_section_title
;
Structure prediction by ZEFSAII (Michael W. Deem and Ramdas Pophale) SiO2 
 PCOD9449001
Probable space group: P M M N
;
_chemical_formula_sum "Si O2"
_cell_formula_units_Z 64
_cell_length_a 8.254672
_cell_length_b 16.055303
_cell_length_c 24.455919
_cell_angle_alpha 90.000000
_cell_angle_beta 90.000000
_cell_angle_gamma 90.000000
_cell_volume 3241.173763
_symmetry_space_group_name_H-M "P M M N"
_symmetry_group_IT_number 59
_space_group.IT_coordinate_system_code '2'
_symmetry_cell_setting 'orthorhombic'
loop_
_space_group_symop_operation_xyz
x,y,z
1/2-x,1/2-y,z
1/2+x,-y,-z
-x,1/2+y,-z
-x,-y,-z
1/2+x,1/2+y,-z
1/2-x,y,z
x,1/2-y,z
loop_
_atom_site_type_symbol
_atom_site_label
_atom_site_fract_x
_atom_site_fract_y
_atom_site_fract_z
Si Si1 0.448013 0.842648 0.132828
Si Si2 0.945601 0.403084 0.747838
Si Si3 0.057035 0.500589 0.062187
Si Si4 0.444121 0.402450 0.248629
Si Si5 0.557072 0.342597 0.131250
Si Si6 0.555416 0.841761 0.368989
Si Si7 0.554288 0.342333 0.366377
Si Si8 0.946135 0.000531 0.437571
O O1 0.250000 0.843902 0.132080
O O2 0.499532 0.750000 0.115937
O O3 0.496395 0.860794 0.195418
O O4 0.505878 0.917999 0.094694
O O5 0.750000 0.399414 0.745083
O O6 0.993398 0.500303 0.749166
O O7 0.013882 0.360452 0.693886
O O8 0.250000 0.506116 0.062634
O O9 0.009866 0.416953 0.094257
O O10 0.000000 0.500000 0.000000
O O11 0.250000 0.399143 0.244814
O O12 0.514869 0.361151 0.194321
O O13 0.499732 0.359733 0.304482
O O14 0.750000 0.342660 0.125178
O O15 0.495650 0.250000 0.116627
O O16 0.750000 0.840844 0.374183
O O17 0.493470 0.750000 0.384466
O O18 0.494445 0.918016 0.405911
O O19 0.750000 0.343513 0.367174
O O20 0.499956 0.250000 0.383554
O O21 0.496645 0.417134 0.405230
O O22 0.750000 0.000594 0.435768
O O23 0.000000 0.000000 0.500000
#
# Coordination Sequence:
#
# PCOD9449001 Si02
#       8
#     8   8   8   8   8   8   8   8
#     4   9  18  35  59  85 115 150 187 230 283 343
#     4  10  19  34  58  87 116 148 186 227 280 344
#     4  11  23  41  62  88 119 157 202 249 297 348
#     4  11  21  35  59  91 121 150 188 236 291 349
#     4  11  24  41  62  88 119 159 202 244 296 354
#     4  10  21  37  57  83 114 148 184 226 282 340
#     4  10  21  38  59  83 113 151 190 228 281 347
#     4  10  22  39  57  79 109 147 190 239 283 332
#
# _framework density 19.745933999999998
#
# number of rings (size 3 to 8) (size 9 to 14) (size 15 to 20)
#    0.000    1.750    2.500    1.875    0.000    6.000 
#    0.000    1.250    0.000    1.875    0.000    0.000 
#    0.000    0.000    0.000    0.000    0.000    0.000 
#
# Total GULP energy -357576.673549 kJ/mol
# GULP energy per Si atom -5587.135524 kJ/mol
# Density = 1.970099 g / cm^3
# Si number density = 19.745934 Si / 1000 Ang^3
#
#
#
# Elastic Constant Matrix: (Units=GPa)
#
#
# Indices 1 2 3 4 5 6 
#
# 1 11.2458 22.6480 8.8272 0.0000 0.0000 0.0000
# 2 22.6480 210.5576 96.1971 0.0000 0.0000 0.0000
# 3 8.8272 96.1971 157.5106 0.0000 0.0000 0.0000
# 4 0.0000 0.0000 0.0000 -0.8570 0.0000 0.0000
# 5 0.0000 0.0000 0.0000 0.0000 34.3157 0.0000
# 6 0.0000 0.0000 0.0000 0.0000 0.0000 18.3300
#
#
#
# Elastic Compliance Matrix: (Units=1/GPa)
#
#
# Indices 1 2 3 4 5 6 
#
# 1 0.113774 -0.012934 0.001523 0.000000 0.000000 0.000000
# 2 -0.012934 0.008058 -0.004196 0.000000 0.000000 0.000000
# 3 0.001523 -0.004196 0.008826 0.000000 0.000000 0.000000
# 4 0.000000 0.000000 0.000000 -1.166929 0.000000 0.000000
# 5 0.000000 0.000000 0.000000 0.000000 0.029141 0.000000
# 6 0.000000 0.000000 0.000000 0.000000 0.000000 0.054555
#
#
# Mechanical properties :
#
#
# Convention : Reuss Voigt Hill
#
# Bulk Modulus (GPa) = 10.05590 70.51764 40.28677
# Shear Modulus (GPa) = -5.62928 27.13385 10.75229
#
# Velocity S-wave (km/s) = -1.69028 3.71097 2.33605
# Velocity P-wave (km/s) = 1.13768 7.35879 5.26527
#
# Compressibility (1/GPa) = 0.09944410
#
# Stress axis : x y z
#
# Youngs Moduli (GPa) = 8.78934 124.10687 113.29889
#
# Poissons Ratio (x) = 1.60514 -0.17253
# Poissons Ratio (y) = 0.11368 0.47543
# Poissons Ratio (z) = -0.01338 0.52078
#
# Static dielectric constant tensor:
#      x y z
#    x 1.687820 0.000000 0.000000 
#    y 0.000000 1.721020 0.000000 
#    z 0.000000 0.000000 1.696600 
# 
# From -- ./inp_files/31597.got.cif
#   From: 2010.05.17/outbox.cif.g08.bks.cpg/sg59_16_cif.got.tgz:31597.got - 2010.06.03 14:40:33.
