data_PCOD9449925
_publ_section_title
;
Structure prediction by ZEFSAII (Michael W. Deem and Ramdas Pophale) SiO2 
 PCOD9449925
Probable space group: P M M N
;
_chemical_formula_sum "Si O2"
_cell_formula_units_Z 64
_cell_length_a 14.027382
_cell_length_b 7.610065
_cell_length_c 25.301979
_cell_angle_alpha 90.000000
_cell_angle_beta 90.000000
_cell_angle_gamma 90.000000
_cell_volume 2700.968263
_symmetry_space_group_name_H-M "P M M N"
_symmetry_group_IT_number 59
_space_group.IT_coordinate_system_code '2'
_symmetry_cell_setting 'orthorhombic'
loop_
_space_group_symop_operation_xyz
x,y,z
1/2-x,1/2-y,z
1/2+x,-y,-z
-x,1/2+y,-z
-x,-y,-z
1/2+x,1/2+y,-z
1/2-x,y,z
x,1/2-y,z
loop_
_atom_site_type_symbol
_atom_site_label
_atom_site_fract_x
_atom_site_fract_y
_atom_site_fract_z
Si Si1 0.859405 0.462964 0.914480
Si Si2 0.357812 0.547189 0.295786
Si Si3 0.636549 0.039235 0.031169
Si Si4 0.045583 0.956597 0.862105
Si Si5 0.639818 0.539613 0.473151
Si Si6 0.133702 0.046657 0.414073
Si Si7 0.640902 0.461376 0.359048
Si Si8 0.050825 0.547765 0.747890
O O1 0.750000 0.517327 0.906609
O O2 0.860586 0.250000 0.914787
O O3 0.932704 0.527532 0.871078
O O4 0.892899 0.526127 0.972976
O O5 0.250000 0.476481 0.291640
O O6 0.356687 0.750000 0.279479
O O7 0.386459 0.539407 0.357832
O O8 0.437649 0.453429 0.261755
O O9 0.750000 0.013360 0.033965
O O10 0.619657 0.250000 0.030553
O O11 0.590658 0.965540 0.084474
O O12 0.071245 0.750000 0.861128
O O13 0.073297 0.032079 0.805072
O O14 0.750000 0.473797 0.469292
O O15 0.643381 0.750000 0.479016
O O16 0.599987 0.471854 0.529225
O O17 0.595230 0.502581 0.416031
O O18 0.250000 0.044574 0.418447
O O19 0.103452 0.250000 0.408977
O O20 0.750000 0.525050 0.359984
O O21 0.640876 0.250000 0.356264
O O22 0.593674 0.531789 0.305645
O O23 0.083955 0.750000 0.749758
#
# Coordination Sequence:
#
# PCOD9449925 Si02
#       8
#     8   8   8   8   8   8   8   8
#     4   9  18  33  53  77 106 138 167 199 248 305
#     4  10  21  36  54  75  98 128 169 214 255 297
#     4   8  15  30  53  80 107 134 165 202 248 301
#     4  10  20  33  52  77 102 132 172 214 249 286
#     4   8  14  26  47  75 102 128 160 198 247 307
#     4   8  14  27  49  75 101 128 158 198 253 310
#     4   9  18  33  52  73  99 131 166 207 252 295
#     4  10  22  37  51  72 102 135 172 210 250 297
#
# _framework density 23.695205000000001
#
# number of rings (size 3 to 8) (size 9 to 14) (size 15 to 20)
#    0.000    3.000    0.000    2.250    0.000    3.500 
#    0.000    8.125    0.000    1.125    0.000    1.750 
#    0.000    0.000    0.000    0.000    0.000    0.000 
#
# Total GULP energy -357218.135435 kJ/mol
# GULP energy per Si atom -5581.533366 kJ/mol
# Density = 2.364127 g / cm^3
# Si number density = 23.695205 Si / 1000 Ang^3
#
#
#
# Elastic Constant Matrix: (Units=GPa)
#
#
# Indices 1 2 3 4 5 6 
#
# 1 34.7730 -7.2131 24.2493 0.0000 0.0000 0.0000
# 2 -7.2131 53.4324 1.1936 0.0000 0.0000 0.0000
# 3 24.2493 1.1936 126.0098 0.0000 0.0000 0.0000
# 4 0.0000 0.0000 0.0000 9.0516 0.0000 0.0000
# 5 0.0000 0.0000 0.0000 0.0000 17.5440 0.0000
# 6 0.0000 0.0000 0.0000 0.0000 0.0000 9.4139
#
#
#
# Elastic Compliance Matrix: (Units=1/GPa)
#
#
# Indices 1 2 3 4 5 6 
#
# 1 0.034400 0.004793 -0.006665 0.000000 0.000000 0.000000
# 2 0.004793 0.019387 -0.001106 0.000000 0.000000 0.000000
# 3 -0.006665 -0.001106 0.009229 0.000000 0.000000 0.000000
# 4 0.000000 0.000000 0.000000 0.110478 0.000000 0.000000
# 5 0.000000 0.000000 0.000000 0.000000 0.057000 0.000000
# 6 0.000000 0.000000 0.000000 0.000000 0.000000 0.106225
#
#
# Mechanical properties :
#
#
# Convention : Reuss Voigt Hill
#
# Bulk Modulus (GPa) = 17.52569 27.85276 22.68923
# Shear Modulus (GPa) = 13.82376 20.26759 17.04568
#
# Velocity S-wave (km/s) = 2.41799 2.92780 2.68502
# Velocity P-wave (km/s) = 3.89973 4.81762 4.38277
#
# Compressibility (1/GPa) = 0.05705909
#
# Stress axis : x y z
#
# Youngs Moduli (GPa) = 29.06954 51.58109 108.35351
#
# Poissons Ratio (x) = -0.24721 0.72222
# Poissons Ratio (y) = -0.13932 0.11983
# Poissons Ratio (z) = 0.19376 0.05705
#
# Static dielectric constant tensor:
#      x y z
#    x 1.920860 0.000000 0.000000 
#    y 0.000000 1.882270 0.000000 
#    z 0.000000 0.000000 1.933580 
# 
# From -- ./inp_files/32174.got.cif
#   From: 2010.05.17/outbox.cif.g08.bks.cpg/sg59_17_cif.got.tgz:32174.got - 2010.06.03 14:40:33.
