data_PCOD9449276
_publ_section_title
;
Structure prediction by ZEFSAII (Michael W. Deem and Ramdas Pophale) SiO2 
 PCOD9449276
Probable space group: P M M N
;
_chemical_formula_sum "Si O2"
_cell_formula_units_Z 64
_cell_length_a 19.125522
_cell_length_b 7.420070
_cell_length_c 21.792043
_cell_angle_alpha 90.000000
_cell_angle_beta 90.000000
_cell_angle_gamma 90.000000
_cell_volume 3092.567923
_symmetry_space_group_name_H-M "P M M N"
_symmetry_group_IT_number 59
_space_group.IT_coordinate_system_code '2'
_symmetry_cell_setting 'orthorhombic'
loop_
_space_group_symop_operation_xyz
x,y,z
1/2-x,1/2-y,z
1/2+x,-y,-z
-x,1/2+y,-z
-x,-y,-z
1/2+x,1/2+y,-z
1/2-x,y,z
x,1/2-y,z
loop_
_atom_site_type_symbol
_atom_site_label
_atom_site_fract_x
_atom_site_fract_y
_atom_site_fract_z
Si Si1 0.331489 0.530376 0.364682
Si Si2 0.923518 0.537743 0.257056
Si Si3 0.668953 0.466327 0.501573
Si Si4 0.668923 0.470534 0.871617
Si Si5 0.670326 0.962881 0.366998
Si Si6 0.664944 0.459315 0.005519
Si Si7 0.418574 0.529132 0.246409
Si Si8 0.830331 0.468021 0.139097
O O1 0.250000 0.477292 0.358752
O O2 0.331945 0.750000 0.364217
O O3 0.358861 0.473174 0.432127
O O4 0.376667 0.471269 0.307007
O O5 0.750000 0.522931 0.862236
O O6 0.932465 0.750000 0.269779
O O7 0.001629 0.466030 0.249263
O O8 0.879433 0.519547 0.194929
O O9 0.750000 0.527747 0.500106
O O10 0.669029 0.250000 0.502690
O O11 0.639249 0.518170 0.435509
O O12 0.668634 0.250000 0.873386
O O13 0.644549 0.534504 0.939114
O O14 0.621123 0.528087 0.815303
O O15 0.750000 0.037401 0.365786
O O16 0.676857 0.750000 0.355596
O O17 0.621281 0.038614 0.313720
O O18 0.750000 0.462397 0.005618
O O19 0.643012 0.250000 0.005458
O O20 0.644797 0.535094 0.071972
O O21 0.417690 0.750000 0.245586
O O22 0.750000 0.527490 0.149549
O O23 0.828702 0.250000 0.135954
#
# Coordination Sequence:
#
# PCOD9449276 Si02
#       8
#     8   8   8   8   8   8   8   8
#     4   8  13  23  41  64  87 110 139 176 215 253
#     4  10  20  31  42  61  91 120 144 175 214 254
#     4   8  14  25  43  66  86 103 131 176 220 250
#     4   8  12  20  38  63  88 113 142 177 214 251
#     4   9  17  29  43  57  77 109 144 174 208 253
#     4   7  11  21  38  61  85 106 135 178 219 250
#     4   9  16  25  38  59  89 121 146 170 208 257
#     4   9  17  30  48  66  83 109 146 183 217 254
#
# _framework density 20.694775
#
# number of rings (size 3 to 8) (size 9 to 14) (size 15 to 20)
#    0.000    3.500    0.000    3.000    0.000    2.750 
#    0.000    2.500    0.000    0.750    0.000    0.000 
#    0.000    2.500    0.000    0.500    0.000    0.000 
#
# Total GULP energy -356600.239236 kJ/mol
# GULP energy per Si atom -5571.878738 kJ/mol
# Density = 2.064767 g / cm^3
# Si number density = 20.694775 Si / 1000 Ang^3
#
#
#
# Elastic Constant Matrix: (Units=GPa)
#
#
# Indices 1 2 3 4 5 6 
#
# 1 96.6362 0.0425 100.6501 0.0000 0.0000 0.0000
# 2 0.0425 61.6180 -5.9340 0.0000 0.0000 0.0000
# 3 100.6501 -5.9340 234.7917 0.0000 0.0000 0.0000
# 4 0.0000 0.0000 0.0000 20.9751 0.0000 0.0000
# 5 0.0000 0.0000 0.0000 0.0000 -6.5433 0.0000
# 6 0.0000 0.0000 0.0000 0.0000 0.0000 3.8293
#
#
#
# Elastic Compliance Matrix: (Units=1/GPa)
#
#
# Indices 1 2 3 4 5 6 
#
# 1 0.018733 -0.000788 -0.008050 0.000000 0.000000 0.000000
# 2 -0.000788 0.016302 0.000750 0.000000 0.000000 0.000000
# 3 -0.008050 0.000750 0.007729 0.000000 0.000000 0.000000
# 4 0.000000 0.000000 0.000000 0.047676 0.000000 0.000000
# 5 0.000000 0.000000 0.000000 0.000000 -0.152828 0.000000
# 6 0.000000 0.000000 0.000000 0.000000 0.000000 0.261142
#
#
# Mechanical properties :
#
#
# Convention : Reuss Voigt Hill
#
# Bulk Modulus (GPa) = 37.61293 64.72923 51.17108
# Shear Modulus (GPa) = 22.34203 23.53805 22.94004
#
# Velocity S-wave (km/s) = 3.28929 3.37618 3.33302
# Velocity P-wave (km/s) = 5.71318 6.82232 6.29224
#
# Compressibility (1/GPa) = 0.02658660
#
# Stress axis : x y z
#
# Youngs Moduli (GPa) = 53.38092 61.34300 129.38105
#
# Poissons Ratio (x) = 0.04835 1.04158
# Poissons Ratio (y) = 0.04207 -0.09702
# Poissons Ratio (z) = 0.42974 -0.04600
#
# Static dielectric constant tensor:
#      x y z
#    x 1.691050 0.000000 0.000000 
#    y 0.000000 1.796650 0.000000 
#    z 0.000000 0.000000 1.766190 
# 
# From -- ./inp_files/27956.got.cif
#   From: 2010.05.17/outbox.cif.g08.bks.cpg/sg59_14_cif.got.tgz:27956.got - 2010.06.03 14:40:33.
