data_PCOD9449405
_publ_section_title
;
Structure prediction by ZEFSAII (Michael W. Deem and Ramdas Pophale) SiO2 
 PCOD9449405
Probable space group: P M M N
;
_chemical_formula_sum "Si O2"
_cell_formula_units_Z 64
_cell_length_a 19.635731
_cell_length_b 7.918279
_cell_length_c 22.451865
_cell_angle_alpha 90.000000
_cell_angle_beta 90.000000
_cell_angle_gamma 90.000000
_cell_volume 3490.842832
_symmetry_space_group_name_H-M "P M M N"
_symmetry_group_IT_number 59
_space_group.IT_coordinate_system_code '2'
_symmetry_cell_setting 'orthorhombic'
loop_
_space_group_symop_operation_xyz
x,y,z
1/2-x,1/2-y,z
1/2+x,-y,-z
-x,1/2+y,-z
-x,-y,-z
1/2+x,1/2+y,-z
1/2-x,y,z
x,1/2-y,z
loop_
_atom_site_type_symbol
_atom_site_label
_atom_site_fract_x
_atom_site_fract_y
_atom_site_fract_z
Si Si1 0.471184 0.953050 0.936155
Si Si2 0.139223 0.054287 0.774405
Si Si3 0.487709 0.043803 0.189870
Si Si4 0.562636 0.549348 0.688396
Si Si5 0.172207 0.454065 0.405335
Si Si6 0.172281 0.548475 0.539432
Si Si7 0.910567 0.950097 0.346143
Si Si8 0.822511 0.447997 0.099056
O O1 0.467317 0.750000 0.933318
O O2 0.518100 0.004506 0.879523
O O3 0.393961 0.019642 0.925361
O O4 0.500000 0.000000 0.000000
O O5 0.160567 0.250000 0.775925
O O6 0.140073 0.987108 0.706780
O O7 0.174450 0.961961 0.829166
O O8 0.059488 0.034889 0.790363
O O9 0.493229 0.250000 0.192489
O O10 0.436837 0.990010 0.242596
O O11 0.573615 0.750000 0.690734
O O12 0.619507 0.479280 0.643857
O O13 0.486409 0.521951 0.662788
O O14 0.250000 0.514133 0.396303
O O15 0.173183 0.250000 0.402324
O O16 0.151264 0.500841 0.472451
O O17 0.250000 0.483960 0.548257
O O18 0.173811 0.750000 0.543617
O O19 0.121974 0.483592 0.590083
O O20 0.916463 0.750000 0.336705
O O21 0.750000 0.522827 0.078975
O O22 0.822148 0.250000 0.083529
#
# Coordination Sequence:
#
# PCOD9449405 Si02
#       8
#     8   8   8   8   8   8   8   8
#     4   9  17  29  47  70  95 125 158 190 225 267
#     4   9  17  28  43  66  93 118 147 185 228 270
#     4   8  15  29  47  67  92 120 150 183 221 268
#     4   9  17  31  52  73  93 120 154 194 236 281
#     4   9  18  33  52  72  92 116 150 194 245 292
#     4  10  21  35  49  65  88 122 161 196 232 281
#     4  10  20  32  47  69  97 126 155 191 235 279
#     4   9  18  32  48  66  91 125 162 195 227 269
#
# _framework density 18.333682
#
# number of rings (size 3 to 8) (size 9 to 14) (size 15 to 20)
#    0.000    2.875    0.000    1.875    0.000    6.000 
#    0.000    2.500    0.000    0.750    0.000    1.750 
#    0.000    0.000    0.000    0.000    0.000    0.000 
#
# Total GULP energy -356274.753464 kJ/mol
# GULP energy per Si atom -5566.793023 kJ/mol
# Density = 1.829195 g / cm^3
# Si number density = 18.333682 Si / 1000 Ang^3
#
#
#
# Elastic Constant Matrix: (Units=GPa)
#
#
# Indices 1 2 3 4 5 6 
#
# 1 67.5996 -4.3341 69.9135 0.0000 0.0000 0.0000
# 2 -4.3341 14.5888 -2.5868 0.0000 0.0000 0.0000
# 3 69.9135 -2.5868 162.7331 0.0000 0.0000 0.0000
# 4 0.0000 0.0000 0.0000 20.6277 0.0000 0.0000
# 5 0.0000 0.0000 0.0000 0.0000 7.0720 0.0000
# 6 0.0000 0.0000 0.0000 0.0000 0.0000 3.3334
#
#
#
# Elastic Compliance Matrix: (Units=1/GPa)
#
#
# Indices 1 2 3 4 5 6 
#
# 1 0.027138 0.006012 -0.011563 0.000000 0.000000 0.000000
# 2 0.006012 0.070071 -0.001469 0.000000 0.000000 0.000000
# 3 -0.011563 -0.001469 0.011090 0.000000 0.000000 0.000000
# 4 0.000000 0.000000 0.000000 0.048479 0.000000 0.000000
# 5 0.000000 0.000000 0.000000 0.000000 0.141403 0.000000
# 6 0.000000 0.000000 0.000000 0.000000 0.000000 0.299994
#
#
# Mechanical properties :
#
#
# Convention : Reuss Voigt Hill
#
# Bulk Modulus (GPa) = 10.60923 41.21188 25.91055
# Shear Modulus (GPa) = 7.76838 18.33519 13.05179
#
# Velocity S-wave (km/s) = 2.06068 3.16584 2.67104
# Velocity P-wave (km/s) = 3.38544 5.99091 4.86581
#
# Compressibility (1/GPa) = 0.09425755
#
# Stress axis : x y z
#
# Youngs Moduli (GPa) = 36.84930 14.27116 90.17529
#
# Poissons Ratio (x) = -0.08580 1.04272
# Poissons Ratio (y) = -0.22153 0.13246
# Poissons Ratio (z) = 0.42610 0.02096
#
# Static dielectric constant tensor:
#      x y z
#    x 1.649000 0.000000 0.000000 
#    y 0.000000 1.661350 0.000000 
#    z 0.000000 0.000000 1.659370 
# 
# From -- ./inp_files/28252.got.cif
#   From: 2010.05.17/outbox.cif.g08.bks.cpg/sg59_15_cif.got.tgz:28252.got - 2010.06.03 14:40:33.
