data_PCOD9449062
_publ_section_title
;
Structure prediction by ZEFSAII (Michael W. Deem and Ramdas Pophale) SiO2 
 PCOD9449062
Probable space group: P M M N
;
_chemical_formula_sum "Si O2"
_cell_formula_units_Z 48
_cell_length_a 7.777129
_cell_length_b 16.727940
_cell_length_c 17.532432
_cell_angle_alpha 90.000000
_cell_angle_beta 90.000000
_cell_angle_gamma 90.000000
_cell_volume 2280.887830
_symmetry_space_group_name_H-M "P M M N"
_symmetry_group_IT_number 59
_space_group.IT_coordinate_system_code '2'
_symmetry_cell_setting 'orthorhombic'
loop_
_space_group_symop_operation_xyz
x,y,z
1/2-x,1/2-y,z
1/2+x,-y,-z
-x,1/2+y,-z
-x,-y,-z
1/2+x,1/2+y,-z
1/2-x,y,z
x,1/2-y,z
loop_
_atom_site_type_symbol
_atom_site_label
_atom_site_fract_x
_atom_site_fract_y
_atom_site_fract_z
Si Si1 0.042420 0.340337 0.487607
Si Si2 0.043218 0.412143 0.031366
Si Si3 0.046825 0.930015 0.664911
Si Si4 0.539994 0.750000 0.231901
Si Si5 0.960384 0.750000 0.056246
Si Si6 0.045709 0.160602 0.185045
Si Si7 0.960757 0.608797 0.343096
O O1 0.250000 0.339753 0.488921
O O2 0.983055 0.250000 0.471791
O O3 0.984544 0.366302 0.571745
O O4 0.988133 0.397884 0.419629
O O5 0.250000 0.409092 0.029859
O O6 0.980571 0.397585 0.118224
O O7 0.984444 0.333026 0.984327
O O8 0.000000 0.500000 0.000000
O O9 0.250000 0.933558 0.675467
O O10 0.979135 0.872329 0.730438
O O11 0.977952 0.019644 0.673792
O O12 0.750000 0.750000 0.231384
O O13 0.484592 0.750000 0.144438
O O14 0.484993 0.827401 0.279995
O O15 0.750000 0.750000 0.053975
O O16 0.250000 0.166515 0.173036
O O17 0.973180 0.250000 0.176959
O O18 0.750000 0.609113 0.343726
#
# Coordination Sequence:
#
# PCOD9449062 Si02
#       7
#     8   8   8   4   4   8   8
#     4  10  19  35  57  77 103 145 189 219 260 328
#     4  10  21  38  60  88 116 149 190 234 284 340
#     4  11  23  34  52  85 115 138 177 233 286 324
#     4   9  16  30  54  80 105 134 176 229 269 311
#     4   9  18  34  59  86 113 146 188 233 279 335
#     4  10  21  40  60  78 109 153 195 226 263 327
#     4   9  18  33  52  79 109 139 178 225 272 325
#
# _framework density 21.044438
#
# number of rings (size 3 to 8) (size 9 to 14) (size 15 to 20)
#    0.000    2.167    1.667    1.500    2.333    3.333 
#    0.000    1.250    0.000    0.000    0.000    0.000 
#    0.000    0.000    0.000    0.000    0.000    0.000 
#
# Total GULP energy -268034.521901 kJ/mol
# GULP energy per Si atom -5584.052540 kJ/mol
# Density = 2.099654 g / cm^3
# Si number density = 21.044438 Si / 1000 Ang^3
#
#
#
# Elastic Constant Matrix: (Units=GPa)
#
#
# Indices 1 2 3 4 5 6 
#
# 1 26.5005 10.2018 2.1366 0.0000 0.0000 0.0000
# 2 10.2018 122.5985 31.0400 0.0000 0.0000 0.0000
# 3 2.1366 31.0400 110.3053 0.0000 0.0000 0.0000
# 4 0.0000 0.0000 0.0000 129.5168 0.0000 0.0000
# 5 0.0000 0.0000 0.0000 0.0000 7.0512 0.0000
# 6 0.0000 0.0000 0.0000 0.0000 0.0000 19.0357
#
#
#
# Elastic Compliance Matrix: (Units=1/GPa)
#
#
# Indices 1 2 3 4 5 6 
#
# 1 0.038987 -0.003287 0.000170 0.000000 0.000000 0.000000
# 2 -0.003287 0.009060 -0.002486 0.000000 0.000000 0.000000
# 3 0.000170 -0.002486 0.009762 0.000000 0.000000 0.000000
# 4 0.000000 0.000000 0.000000 0.007721 0.000000 0.000000
# 5 0.000000 0.000000 0.000000 0.000000 0.141819 0.000000
# 6 0.000000 0.000000 0.000000 0.000000 0.000000 0.052533
#
#
# Mechanical properties :
#
#
# Convention : Reuss Voigt Hill
#
# Bulk Modulus (GPa) = 21.45817 38.46233 29.96025
# Shear Modulus (GPa) = 17.44460 45.52247 31.48353
#
# Velocity S-wave (km/s) = 2.88226 4.65602 3.87208
# Velocity P-wave (km/s) = 4.61468 6.87176 5.85305
#
# Compressibility (1/GPa) = 0.04660229
#
# Stress axis : x y z
#
# Youngs Moduli (GPa) = 25.64965 110.38035 102.43867
#
# Poissons Ratio (x) = 0.36285 -0.01740
# Poissons Ratio (y) = 0.08432 0.25463
# Poissons Ratio (z) = -0.00436 0.27437
#
# Static dielectric constant tensor:
#      x y z
#    x 1.786810 0.000000 0.000000 
#    y 0.000000 1.761730 0.000000 
#    z 0.000000 0.000000 1.739410 
# 
# From -- ./inp_files/25618.got.cif
#   From: 2010.05.17/outbox.cif.g08.bks.cpg/sg59_13_cif.got.tgz:25618.got - 2010.06.03 14:40:33.
