data_PCOD9449858
_publ_section_title
;
Structure prediction by ZEFSAII (Michael W. Deem and Ramdas Pophale) SiO2 
 PCOD9449858
Probable space group: P M M N
;
_chemical_formula_sum "Si O2"
_cell_formula_units_Z 40
_cell_length_a 26.717721
_cell_length_b 8.988353
_cell_length_c 9.742343
_cell_angle_alpha 90.000000
_cell_angle_beta 90.000000
_cell_angle_gamma 90.000000
_cell_volume 2339.607185
_symmetry_space_group_name_H-M "P M M N"
_symmetry_group_IT_number 59
_space_group.IT_coordinate_system_code '2'
_symmetry_cell_setting 'orthorhombic'
loop_
_space_group_symop_operation_xyz
x,y,z
1/2-x,1/2-y,z
1/2+x,-y,-z
-x,1/2+y,-z
-x,-y,-z
1/2+x,1/2+y,-z
1/2-x,y,z
x,1/2-y,z
loop_
_atom_site_type_symbol
_atom_site_label
_atom_site_fract_x
_atom_site_fract_y
_atom_site_fract_z
Si Si1 0.003119 0.071297 0.348465
Si Si2 0.604816 0.427926 0.659037
Si Si3 0.192368 0.071551 0.166987
Si Si4 0.806438 0.928775 0.154783
Si Si5 0.892450 0.427869 0.335477
O O1 0.007064 0.250000 0.358135
O O2 0.948857 0.034956 0.284536
O O3 0.053580 0.003159 0.286694
O O4 0.000000 0.000000 0.500000
O O5 0.600267 0.250000 0.667694
O O6 0.652222 0.486837 0.741913
O O7 0.610583 0.467694 0.497313
O O8 0.250000 0.036378 0.204126
O O9 0.185996 0.250000 0.181809
O O10 0.185854 0.034704 0.005864
O O11 0.750000 0.977825 0.193295
O O12 0.807687 0.750000 0.165491
O O13 0.849203 0.996466 0.248794
O O14 0.887058 0.250000 0.326711
#
# Coordination Sequence:
#
# PCOD9449858 Si02
#       5
#     8   8   8   8   8
#     4   9  17  31  50  73 102 133 165 203 249 297
#     4  10  20  33  51  77 104 131 167 207 247 295
#     4   9  19  36  54  72  98 132 168 207 251 296
#     4   9  19  35  53  73  98 130 168 206 246 296
#     4   9  19  33  50  75 103 129 161 203 246 291
#
# _framework density 17.096886999999999
#
# number of rings (size 3 to 8) (size 9 to 14) (size 15 to 20)
#    0.000    2.800    0.000    3.600    0.000    7.200 
#    0.000    7.000    0.000    0.000    0.000    0.000 
#    0.000    0.000    0.000    0.000    0.000    0.000 
#
# Total GULP energy -222884.764981 kJ/mol
# GULP energy per Si atom -5572.119125 kJ/mol
# Density = 1.705797 g / cm^3
# Si number density = 17.096887 Si / 1000 Ang^3
#
#
#
# Elastic Constant Matrix: (Units=GPa)
#
#
# Indices 1 2 3 4 5 6 
#
# 1 195.0380 70.3189 82.3075 0.0000 0.0000 0.0000
# 2 70.3189 46.2660 36.4587 0.0000 0.0000 0.0000
# 3 82.3075 36.4587 51.6853 0.0000 0.0000 0.0000
# 4 0.0000 0.0000 0.0000 27.7519 0.0000 0.0000
# 5 0.0000 0.0000 0.0000 0.0000 -81.1835 0.0000
# 6 0.0000 0.0000 0.0000 0.0000 0.0000 37.5241
#
#
#
# Elastic Compliance Matrix: (Units=1/GPa)
#
#
# Indices 1 2 3 4 5 6 
#
# 1 0.017652 -0.010531 -0.020681 0.000000 0.000000 0.000000
# 2 -0.010531 0.054949 -0.021990 0.000000 0.000000 0.000000
# 3 -0.020681 -0.021990 0.067794 0.000000 0.000000 0.000000
# 4 0.000000 0.000000 0.000000 0.036034 0.000000 0.000000
# 5 0.000000 0.000000 0.000000 0.000000 -0.012318 0.000000
# 6 0.000000 0.000000 0.000000 0.000000 0.000000 0.026650
#
#
# Mechanical properties :
#
#
# Convention : Reuss Voigt Hill
#
# Bulk Modulus (GPa) = 29.42082 74.57328 51.99705
# Shear Modulus (GPa) = 16.20765 3.74546 9.97655
#
# Velocity S-wave (km/s) = 3.08228 1.48172 2.41826
# Velocity P-wave (km/s) = 5.46927 6.82935 6.18680
#
# Compressibility (1/GPa) = 0.03398953
#
# Stress axis : x y z
#
# Youngs Moduli (GPa) = 56.65134 18.19858 14.75053
#
# Poissons Ratio (x) = 0.19166 0.30506
# Poissons Ratio (y) = 0.59661 0.32437
# Poissons Ratio (z) = 1.17162 0.40019
#
# Static dielectric constant tensor:
#      x y z
#    x 1.599650 0.000000 0.000000 
#    y 0.000000 1.568910 0.000000 
#    z 0.000000 0.000000 1.561090 
# 
# From -- ./inp_files/5687.got.cif
#   From: 2010.05.17/outbox.cif.g08.bks.cpg/sg59_3_cif.got.tgz:5687.got - 2010.06.03 14:40:33.
