data_PCOD9449613
_publ_section_title
;
Structure prediction by ZEFSAII (Michael W. Deem and Ramdas Pophale) SiO2 
 PCOD9449613
Probable space group: P M M N
;
_chemical_formula_sum "Si O2"
_cell_formula_units_Z 64
_cell_length_a 9.408302
_cell_length_b 14.510386
_cell_length_c 21.826923
_cell_angle_alpha 90.000000
_cell_angle_beta 90.000000
_cell_angle_gamma 90.000000
_cell_volume 2979.769918
_symmetry_space_group_name_H-M "P M M N"
_symmetry_group_IT_number 59
_space_group.IT_coordinate_system_code '2'
_symmetry_cell_setting 'orthorhombic'
loop_
_space_group_symop_operation_xyz
x,y,z
1/2-x,1/2-y,z
1/2+x,-y,-z
-x,1/2+y,-z
-x,-y,-z
1/2+x,1/2+y,-z
1/2-x,y,z
x,1/2-y,z
loop_
_atom_site_type_symbol
_atom_site_label
_atom_site_fract_x
_atom_site_fract_y
_atom_site_fract_z
Si Si1 0.911848 0.363408 0.711711
Si Si2 0.086179 0.612621 0.057733
Si Si3 0.578453 0.354783 0.206385
Si Si4 0.093397 0.355636 0.824635
Si Si5 0.419445 0.930234 0.928872
Si Si6 0.415093 0.362401 0.592591
Si Si7 0.914506 0.136913 0.338715
Si Si8 0.584627 0.862502 0.542442
O O1 0.750000 0.394550 0.711454
O O2 0.908956 0.250000 0.712080
O O3 0.992506 0.396418 0.772798
O O4 0.994645 0.392408 0.650763
O O5 0.250000 0.629481 0.074755
O O6 0.980399 0.648362 0.109439
O O7 0.041374 0.505596 0.059440
O O8 0.066622 0.639486 0.986487
O O9 0.750000 0.351668 0.212885
O O10 0.525473 0.250000 0.201777
O O11 0.554366 0.399617 0.140547
O O12 0.528115 0.393567 0.271996
O O13 0.250000 0.399443 0.826525
O O14 0.111439 0.250000 0.805587
O O15 0.250000 0.959332 0.933392
O O16 0.250000 0.389076 0.599181
O O17 0.417447 0.250000 0.592953
O O18 0.468040 0.391298 0.525155
O O19 0.750000 0.110020 0.344984
O O20 0.918413 0.250000 0.337271
O O21 0.998529 0.105495 0.398559
O O22 0.750000 0.888168 0.547280
O O23 0.579049 0.750000 0.543051
#
# Coordination Sequence:
#
# PCOD9449613 Si02
#       8
#     8   8   8   8   8   8   8   8
#     4   9  16  25  38  58  84 112 144 184 226 265
#     4  10  20  33  50  71  94 119 150 191 233 273
#     4   8  14  26  45  68  91 117 152 190 226 268
#     4  10  20  33  49  68  92 123 155 187 227 277
#     4   9  18  33  52  70  91 122 155 187 227 276
#     4   8  13  21  32  47  72 109 148 180 213 258
#     4   8  13  21  34  53  78 107 140 180 221 258
#     4   8  13  20  30  46  72 108 146 179 213 258
#
# _framework density 21.478166999999999
#
# number of rings (size 3 to 8) (size 9 to 14) (size 15 to 20)
#    0.000    3.250    0.000    2.625    0.000    3.750 
#    0.000    4.375    0.000    1.125    0.000    0.000 
#    0.000    1.000    0.000    3.000    0.000    7.125 
#
# Total GULP energy -356555.907667 kJ/mol
# GULP energy per Si atom -5571.186057 kJ/mol
# Density = 2.142928 g / cm^3
# Si number density = 21.478167 Si / 1000 Ang^3
#
#
#
# Elastic Constant Matrix: (Units=GPa)
#
#
# Indices 1 2 3 4 5 6 
#
# 1 94.5740 3.2791 87.0287 0.0000 0.0000 0.0000
# 2 3.2791 28.9756 9.1657 0.0000 0.0000 0.0000
# 3 87.0287 9.1657 222.9386 0.0000 0.0000 0.0000
# 4 0.0000 0.0000 0.0000 84.9314 0.0000 0.0000
# 5 0.0000 0.0000 0.0000 0.0000 35.7805 0.0000
# 6 0.0000 0.0000 0.0000 0.0000 0.0000 2.0765
#
#
#
# Elastic Compliance Matrix: (Units=1/GPa)
#
#
# Indices 1 2 3 4 5 6 
#
# 1 0.016502 0.000172 -0.006449 0.000000 0.000000 0.000000
# 2 0.000172 0.034968 -0.001505 0.000000 0.000000 0.000000
# 3 -0.006449 -0.001505 0.007065 0.000000 0.000000 0.000000
# 4 0.000000 0.000000 0.000000 0.011774 0.000000 0.000000
# 5 0.000000 0.000000 0.000000 0.000000 0.027948 0.000000
# 6 0.000000 0.000000 0.000000 0.000000 0.000000 0.481574
#
#
# Mechanical properties :
#
#
# Convention : Reuss Voigt Hill
#
# Bulk Modulus (GPa) = 23.27075 60.60391 41.93733
# Shear Modulus (GPa) = 8.20049 41.02534 24.61292
#
# Velocity S-wave (km/s) = 1.95611 4.37520 3.38886
# Velocity P-wave (km/s) = 3.99499 7.33492 5.90597
#
# Compressibility (1/GPa) = 0.04297241
#
# Stress axis : x y z
#
# Youngs Moduli (GPa) = 60.59737 28.59726 141.54344
#
# Poissons Ratio (x) = -0.00493 0.91283
# Poissons Ratio (y) = -0.01045 0.21302
# Poissons Ratio (z) = 0.39080 0.04304
#
# Static dielectric constant tensor:
#      x y z
#    x 1.749030 0.000000 0.000000 
#    y 0.000000 1.915660 0.000000 
#    z 0.000000 0.000000 1.810500 
# 
# From -- ./inp_files/29752.got.cif
#   From: 2010.05.17/outbox.cif.g08.bks.cpg/sg59_15_cif.got.tgz:29752.got - 2010.06.03 14:40:33.
