data_PCOD9449862
_publ_section_title
;
Structure prediction by ZEFSAII (Michael W. Deem and Ramdas Pophale) SiO2 
 PCOD9449862
Probable space group: P M M N
;
_chemical_formula_sum "Si O2"
_cell_formula_units_Z 64
_cell_length_a 13.216810
_cell_length_b 7.740619
_cell_length_c 25.586709
_cell_angle_alpha 90.000000
_cell_angle_beta 90.000000
_cell_angle_gamma 90.000000
_cell_volume 2617.681287
_symmetry_space_group_name_H-M "P M M N"
_symmetry_group_IT_number 59
_space_group.IT_coordinate_system_code '2'
_symmetry_cell_setting 'orthorhombic'
loop_
_space_group_symop_operation_xyz
x,y,z
1/2-x,1/2-y,z
1/2+x,-y,-z
-x,1/2+y,-z
-x,-y,-z
1/2+x,1/2+y,-z
1/2-x,y,z
x,1/2-y,z
loop_
_atom_site_type_symbol
_atom_site_label
_atom_site_fract_x
_atom_site_fract_y
_atom_site_fract_z
Si Si1 0.580825 0.454434 0.564779
Si Si2 0.641105 0.450870 0.294754
Si Si3 0.142510 0.049170 0.045177
Si Si4 0.580413 0.044480 0.066738
Si Si5 0.639956 0.959284 0.791944
Si Si6 0.084258 0.050799 0.819232
Si Si7 0.922174 0.958538 0.676925
Si Si8 0.357564 0.450858 0.547266
O O1 0.578065 0.250000 0.553722
O O2 0.623500 0.482957 0.622309
O O3 0.464924 0.525465 0.565455
O O4 0.635657 0.539009 0.515785
O O5 0.750000 0.529852 0.308159
O O6 0.643142 0.250000 0.310309
O O7 0.626294 0.456678 0.231973
O O8 0.537923 0.527197 0.317979
O O9 0.250000 0.971058 0.061334
O O10 0.143142 0.250000 0.061745
O O11 0.035724 0.976513 0.064317
O O12 0.135916 0.039651 0.982201
O O13 0.579718 0.250000 0.056948
O O14 0.621004 0.012248 0.124512
O O15 0.750000 0.013423 0.812289
O O16 0.634857 0.750000 0.795425
O O17 0.632048 0.008181 0.730632
O O18 0.537724 0.027619 0.817631
O O19 0.110127 0.250000 0.812969
O O20 0.924389 0.750000 0.676776
O O21 0.250000 0.529551 0.563956
O O22 0.357139 0.250000 0.562893
#
# Coordination Sequence:
#
# PCOD9449862 Si02
#       8
#     8   8   8   8   8   8   8   8
#     4  10  20  33  51  77 105 132 166 210 256 302
#     4   9  19  37  58  78 102 135 177 219 256 303
#     4   9  19  36  56  78 104 134 171 216 262 306
#     4  10  20  35  55  78 105 139 176 212 255 309
#     4   9  19  37  58  77 101 137 179 218 256 304
#     4  11  22  35  53  79 110 140 172 215 264 310
#     4   9  18  33  53  78 106 136 169 206 254 310
#     4   9  19  36  54  71  97 135 174 210 251 301
#
# _framework density 24.449119
#
# number of rings (size 3 to 8) (size 9 to 14) (size 15 to 20)
#    0.000    2.500    0.000    2.625    0.000    6.000 
#    0.000    2.500    0.000    0.000    0.000    0.000 
#    0.000    0.000    0.000    0.000    0.000    0.000 
#
# Total GULP energy -357613.993165 kJ/mol
# GULP energy per Si atom -5587.718643 kJ/mol
# Density = 2.439347 g / cm^3
# Si number density = 24.449119 Si / 1000 Ang^3
#
#
#
# Elastic Constant Matrix: (Units=GPa)
#
#
# Indices 1 2 3 4 5 6 
#
# 1 124.4417 2.5955 -6.6516 0.0000 0.0000 0.0000
# 2 2.5955 52.9730 -15.7580 0.0000 0.0000 0.0000
# 3 -6.6516 -15.7580 120.6132 0.0000 0.0000 0.0000
# 4 0.0000 0.0000 0.0000 16.4830 0.0000 0.0000
# 5 0.0000 0.0000 0.0000 0.0000 -32.8662 0.0000
# 6 0.0000 0.0000 0.0000 0.0000 0.0000 2.2653
#
#
#
# Elastic Compliance Matrix: (Units=1/GPa)
#
#
# Indices 1 2 3 4 5 6 
#
# 1 0.008063 -0.000273 0.000409 0.000000 0.000000 0.000000
# 2 -0.000273 0.019650 0.002552 0.000000 0.000000 0.000000
# 3 0.000409 0.002552 0.008647 0.000000 0.000000 0.000000
# 4 0.000000 0.000000 0.000000 0.060669 0.000000 0.000000
# 5 0.000000 0.000000 0.000000 0.000000 -0.030426 0.000000
# 6 0.000000 0.000000 0.000000 0.000000 0.000000 0.441445
#
#
# Mechanical properties :
#
#
# Convention : Reuss Voigt Hill
#
# Bulk Modulus (GPa) = 23.96010 28.71107 26.33558
# Shear Modulus (GPa) = 9.67897 18.36589 14.02243
#
# Velocity S-wave (km/s) = 1.99184 2.74375 2.39746
# Velocity P-wave (km/s) = 3.88731 4.66972 4.29636
#
# Compressibility (1/GPa) = 0.04173606
#
# Stress axis : x y z
#
# Youngs Moduli (GPa) = 124.01636 50.89016 115.64751
#
# Poissons Ratio (x) = 0.01391 -0.04730
# Poissons Ratio (y) = 0.03391 -0.29516
# Poissons Ratio (z) = -0.05072 -0.12988
#
# Static dielectric constant tensor:
#      x y z
#    x 1.982720 0.000000 0.000000 
#    y 0.000000 1.896980 0.000000 
#    z 0.000000 0.000000 1.916210 
# 
# From -- ./inp_files/32226.got.cif
#   From: 2010.05.17/outbox.cif.g08.bks.cpg/sg59_17_cif.got.tgz:32226.got - 2010.06.03 14:40:33.
