data_PCOD9449324
_publ_section_title
;
Structure prediction by ZEFSAII (Michael W. Deem and Ramdas Pophale) SiO2 
 PCOD9449324
Probable space group: P M M N
;
_chemical_formula_sum "Si O2"
_cell_formula_units_Z 64
_cell_length_a 23.344368
_cell_length_b 27.010510
_cell_length_c 5.472663
_cell_angle_alpha 90.000000
_cell_angle_beta 90.000000
_cell_angle_gamma 90.000000
_cell_volume 3450.750907
_symmetry_space_group_name_H-M "P M M N"
_symmetry_group_IT_number 59
_space_group.IT_coordinate_system_code '2'
_symmetry_cell_setting 'orthorhombic'
loop_
_space_group_symop_operation_xyz
x,y,z
1/2-x,1/2-y,z
1/2+x,-y,-z
-x,1/2+y,-z
-x,-y,-z
1/2+x,1/2+y,-z
1/2-x,y,z
x,1/2-y,z
loop_
_atom_site_type_symbol
_atom_site_label
_atom_site_fract_x
_atom_site_fract_y
_atom_site_fract_z
Si Si1 0.818503 0.858540 0.947950
Si Si2 0.819826 0.807961 0.450656
Si Si3 0.319836 0.692702 0.749536
Si Si4 0.586002 0.534169 0.581528
Si Si5 0.815691 0.955303 0.226863
Si Si6 0.681573 0.357843 0.748055
Si Si7 0.864481 0.043943 0.959999
Si Si8 0.975604 0.461371 0.198430
O O1 0.750000 0.850371 0.940181
O O2 0.839778 0.830120 0.191064
O O3 0.825861 0.916722 0.005244
O O4 0.840555 0.837375 0.691499
O O5 0.750000 0.811664 0.447113
O O6 0.834005 0.750000 0.471021
O O7 0.250000 0.690065 0.752068
O O8 0.335355 0.750000 0.716592
O O9 0.339997 0.661059 0.514950
O O10 0.338974 0.672760 0.013997
O O11 0.637215 0.558088 0.429393
O O12 0.613444 0.499254 0.784404
O O13 0.532355 0.564578 0.693356
O O14 0.554946 0.495784 0.398302
O O15 0.750000 0.948318 0.309608
O O16 0.825973 0.012526 0.150168
O O17 0.750000 0.351887 0.740052
O O18 0.667544 0.414500 0.808582
O O19 0.921937 0.067017 0.081384
O O20 0.000000 0.500000 0.000000
#
# Coordination Sequence:
#
# PCOD9449324 Si02
#       8
#     8   8   8   8   8   8   8   8
#     4   9  18  29  42  63  91 125 162 196 236 291
#     4   9  16  28  45  62  83 115 159 210 252 281
#     4   9  18  33  50  68  97 139 181 222 266 315
#     4   9  18  32  51  67  94 137 171 211 248 298
#     4  10  21  31  43  67 105 145 171 196 240 306
#     4  10  20  31  48  74 105 139 180 220 264 324
#     4  10  20  31  47  71 102 137 170 215 260 309
#     4   8  16  33  51  69  90 126 169 220 260 289
#
# _framework density 18.546686999999999
#
# number of rings (size 3 to 8) (size 9 to 14) (size 15 to 20)
#    0.000    2.750    0.000    1.125    5.250    4.000 
#    0.000    0.000    0.000    0.000    0.000    0.000 
#    0.000    6.000    0.000    0.000    0.000    0.000 
#
# Total GULP energy -356273.428870 kJ/mol
# GULP energy per Si atom -5566.772326 kJ/mol
# Density = 1.850447 g / cm^3
# Si number density = 18.546687 Si / 1000 Ang^3
#
#
#
# Elastic Constant Matrix: (Units=GPa)
#
#
# Indices 1 2 3 4 5 6 
#
# 1 42.6480 15.9410 30.1638 0.0000 0.0000 0.0000
# 2 15.9410 44.7369 9.7459 0.0000 0.0000 0.0000
# 3 30.1638 9.7459 76.3696 0.0000 0.0000 0.0000
# 4 0.0000 0.0000 0.0000 12.6429 0.0000 0.0000
# 5 0.0000 0.0000 0.0000 0.0000 16.9592 0.0000
# 6 0.0000 0.0000 0.0000 0.0000 0.0000 3.9891
#
#
#
# Elastic Compliance Matrix: (Units=1/GPa)
#
#
# Indices 1 2 3 4 5 6 
#
# 1 0.036533 -0.010157 -0.013133 0.000000 0.000000 0.000000
# 2 -0.010157 0.025816 0.000717 0.000000 0.000000 0.000000
# 3 -0.013133 0.000717 0.018190 0.000000 0.000000 0.000000
# 4 0.000000 0.000000 0.000000 0.079096 0.000000 0.000000
# 5 0.000000 0.000000 0.000000 0.000000 0.058965 0.000000
# 6 0.000000 0.000000 0.000000 0.000000 0.000000 0.250685
#
#
# Mechanical properties :
#
#
# Convention : Reuss Voigt Hill
#
# Bulk Modulus (GPa) = 28.25417 30.60621 29.43019
# Shear Modulus (GPa) = 9.50160 13.91183 11.70671
#
# Velocity S-wave (km/s) = 2.26588 2.74176 2.51510
# Velocity P-wave (km/s) = 4.70242 5.15375 4.93325
#
# Compressibility (1/GPa) = 0.03539300
#
# Stress axis : x y z
#
# Youngs Moduli (GPa) = 27.37255 38.73597 54.97534
#
# Poissons Ratio (x) = 0.39343 0.72201
# Poissons Ratio (y) = 0.27801 -0.03942
# Poissons Ratio (z) = 0.35949 -0.02778
#
# Static dielectric constant tensor:
#      x y z
#    x 1.692910 0.000000 0.000000 
#    y 0.000000 1.691710 0.000000 
#    z 0.000000 0.000000 1.783690 
# 
# From -- ./inp_files/3528.got.cif
#   From: 2010.05.17/outbox.cif.g08.bks.cpg/sg59_2_cif.got.tgz:3528.got - 2010.06.03 14:40:33.
