data_PCOD9449534
_publ_section_title
;
Structure prediction by ZEFSAII (Michael W. Deem and Ramdas Pophale) SiO2 
 PCOD9449534
Probable space group: P M M N
;
_chemical_formula_sum "Si O2"
_cell_formula_units_Z 64
_cell_length_a 13.570497
_cell_length_b 7.542663
_cell_length_c 25.454929
_cell_angle_alpha 90.000000
_cell_angle_beta 90.000000
_cell_angle_gamma 90.000000
_cell_volume 2605.507620
_symmetry_space_group_name_H-M "P M M N"
_symmetry_group_IT_number 59
_space_group.IT_coordinate_system_code '2'
_symmetry_cell_setting 'orthorhombic'
loop_
_space_group_symop_operation_xyz
x,y,z
1/2-x,1/2-y,z
1/2+x,-y,-z
-x,1/2+y,-z
-x,-y,-z
1/2+x,1/2+y,-z
1/2-x,y,z
x,1/2-y,z
loop_
_atom_site_type_symbol
_atom_site_label
_atom_site_fract_x
_atom_site_fract_y
_atom_site_fract_z
Si Si1 0.862847 0.455726 0.704371
Si Si2 0.637076 0.034885 0.912883
Si Si3 0.444120 0.957243 0.862307
Si Si4 0.631426 0.043427 0.360367
Si Si5 0.061667 0.953567 0.748941
Si Si6 0.368070 0.540669 0.971650
Si Si7 0.365011 0.536375 0.526482
Si Si8 0.637352 0.959875 0.588096
O O1 0.750000 0.524251 0.706291
O O2 0.860426 0.250000 0.719270
O O3 0.943944 0.547048 0.740233
O O4 0.899444 0.467916 0.643665
O O5 0.750000 0.979910 0.904923
O O6 0.635898 0.250000 0.913431
O O7 0.561501 0.969432 0.869656
O O8 0.601374 0.971169 0.970896
O O9 0.414535 0.750000 0.861846
O O10 0.414597 0.033122 0.805814
O O11 0.403770 0.038138 0.916558
O O12 0.750000 0.045861 0.362836
O O13 0.596651 0.250000 0.359242
O O14 0.602729 0.962036 0.304512
O O15 0.597561 0.969143 0.416867
O O16 0.098060 0.750000 0.749957
O O17 0.250000 0.528373 0.972185
O O18 0.393205 0.750000 0.971467
O O19 0.250000 0.476706 0.523916
O O20 0.365753 0.750000 0.529638
O O21 0.408134 0.489191 0.469522
O O22 0.750000 0.031263 0.584727
O O23 0.640282 0.750000 0.595170
#
# Coordination Sequence:
#
# PCOD9449534 Si02
#       8
#     8   8   8   8   8   8   8   8
#     4  10  21  37  55  72  94 130 173 212 251 299
#     4   9  18  33  53  75 101 136 173 206 245 297
#     4  10  20  32  50  77 105 133 166 209 256 294
#     4   8  15  30  52  75 100 132 167 203 245 295
#     4  10  21  35  51  75 104 132 168 211 251 294
#     4   8  15  30  52  78 106 134 166 204 247 297
#     4   8  13  24  45  71  97 126 160 196 237 293
#     4   9  16  27  47  75 102 125 154 200 257 308
#
# _framework density 24.563351999999998
#
# number of rings (size 3 to 8) (size 9 to 14) (size 15 to 20)
#    0.000    3.000    0.000    2.625    0.000    4.000 
#    0.000    6.250    0.000    2.250    0.000    1.750 
#    0.000    0.000    0.000    0.000    0.000    0.000 
#
# Total GULP energy -357218.685113 kJ/mol
# GULP energy per Si atom -5581.541955 kJ/mol
# Density = 2.450744 g / cm^3
# Si number density = 24.563352 Si / 1000 Ang^3
#
#
#
# Elastic Constant Matrix: (Units=GPa)
#
#
# Indices 1 2 3 4 5 6 
#
# 1 36.6842 -6.5984 15.7026 0.0000 0.0000 0.0000
# 2 -6.5984 67.9879 0.7628 0.0000 0.0000 0.0000
# 3 15.7026 0.7628 156.1726 0.0000 0.0000 0.0000
# 4 0.0000 0.0000 0.0000 8.1782 0.0000 0.0000
# 5 0.0000 0.0000 0.0000 0.0000 20.1529 0.0000
# 6 0.0000 0.0000 0.0000 0.0000 0.0000 7.5868
#
#
#
# Elastic Compliance Matrix: (Units=1/GPa)
#
#
# Indices 1 2 3 4 5 6 
#
# 1 0.029028 0.002850 -0.002933 0.000000 0.000000 0.000000
# 2 0.002850 0.014989 -0.000360 0.000000 0.000000 0.000000
# 3 -0.002933 -0.000360 0.006700 0.000000 0.000000 0.000000
# 4 0.000000 0.000000 0.000000 0.122276 0.000000 0.000000
# 5 0.000000 0.000000 0.000000 0.000000 0.049621 0.000000
# 6 0.000000 0.000000 0.000000 0.000000 0.000000 0.131808
#
#
# Mechanical properties :
#
#
# Convention : Reuss Voigt Hill
#
# Bulk Modulus (GPa) = 20.06740 31.17542 25.62141
# Shear Modulus (GPa) = 13.44389 23.91544 18.67966
#
# Velocity S-wave (km/s) = 2.34201 3.12368 2.76065
# Velocity P-wave (km/s) = 3.93710 5.07240 4.54037
#
# Compressibility (1/GPa) = 0.04983207
#
# Stress axis : x y z
#
# Youngs Moduli (GPa) = 34.44998 66.71498 149.25843
#
# Poissons Ratio (x) = -0.19014 0.43771
# Poissons Ratio (y) = -0.09819 0.05370
# Poissons Ratio (z) = 0.10103 0.02400
#
# Static dielectric constant tensor:
#      x y z
#    x 1.985840 0.000000 0.000000 
#    y 0.000000 1.244270 0.000000 
#    z 0.000000 0.000000 1.980750 
# 
# From -- ./inp_files/32153.got.cif
#   From: 2010.05.17/outbox.cif.g08.bks.cpg/sg59_17_cif.got.tgz:32153.got - 2010.06.03 14:40:33.
