data_PCOD9449802
_publ_section_title
;
Structure prediction by ZEFSAII (Michael W. Deem and Ramdas Pophale) SiO2 
 PCOD9449802
Probable space group: P M M N
;
_chemical_formula_sum "Si O2"
_cell_formula_units_Z 48
_cell_length_a 7.815990
_cell_length_b 9.446616
_cell_length_c 31.745890
_cell_angle_alpha 90.000000
_cell_angle_beta 90.000000
_cell_angle_gamma 90.000000
_cell_volume 2343.946874
_symmetry_space_group_name_H-M "P M M N"
_symmetry_group_IT_number 59
_space_group.IT_coordinate_system_code '2'
_symmetry_cell_setting 'orthorhombic'
loop_
_space_group_symop_operation_xyz
x,y,z
1/2-x,1/2-y,z
1/2+x,-y,-z
-x,1/2+y,-z
-x,-y,-z
1/2+x,1/2+y,-z
1/2-x,y,z
x,1/2-y,z
loop_
_atom_site_type_symbol
_atom_site_label
_atom_site_fract_x
_atom_site_fract_y
_atom_site_fract_z
Si Si1 0.545272 0.910079 0.202995
Si Si2 0.543474 0.587816 0.715783
Si Si3 0.043700 0.589731 0.458856
Si Si4 0.458810 0.086809 0.378939
Si Si5 0.955058 0.089384 0.123967
Si Si6 0.046000 0.588467 0.041509
O O1 0.750000 0.901669 0.197428
O O2 0.476960 0.750000 0.201325
O O3 0.513106 0.983786 0.247619
O O4 0.477034 0.007839 0.165131
O O5 0.750000 0.589253 0.715485
O O6 0.486326 0.750000 0.723978
O O7 0.486872 0.547384 0.668476
O O8 0.250000 0.594882 0.456039
O O9 0.979349 0.750000 0.462381
O O10 0.980551 0.512929 0.416462
O O11 0.000000 0.500000 0.500000
O O12 0.250000 0.083932 0.379098
O O13 0.508909 0.250000 0.386561
O O14 0.750000 0.099927 0.128543
O O15 0.022086 0.250000 0.120215
O O16 0.987796 0.996723 0.082619
O O17 0.250000 0.597325 0.043182
O O18 0.977723 0.750000 0.040332
O O19 0.000000 0.500000 0.000000
#
# Coordination Sequence:
#
# PCOD9449802 Si02
#       6
#     8   8   8   8   8   8
#     4  10  21  36  54  78 109 144 179 216 262 313
#     4   9  18  33  54  79 104 133 172 215 259 310
#     4  10  20  33  51  75 101 131 169 211 257 310
#     4   8  15  30  51  73  99 132 169 210 257 308
#     4  10  21  38  60  83 107 140 182 223 265 314
#     4  11  24  40  59  85 115 146 181 220 264 314
#
# _framework density 20.478280000000002
#
# number of rings (size 3 to 8) (size 9 to 14) (size 15 to 20)
#    0.000    2.333    0.000    3.500    0.000    8.000 
#    0.000    2.500    0.000    1.000    0.000    0.000 
#    0.000    0.000    0.000    0.000    0.000    0.000 
#
# Total GULP energy -268064.493901 kJ/mol
# GULP energy per Si atom -5584.676956 kJ/mol
# Density = 2.043167 g / cm^3
# Si number density = 20.478280 Si / 1000 Ang^3
#
#
#
# Elastic Constant Matrix: (Units=GPa)
#
#
# Indices 1 2 3 4 5 6 
#
# 1 24.9480 10.1806 0.0412 0.0000 0.0000 0.0000
# 2 10.1806 212.0037 143.1531 0.0000 0.0000 0.0000
# 3 0.0412 143.1531 194.2062 0.0000 0.0000 0.0000
# 4 0.0000 0.0000 0.0000 41.3802 0.0000 0.0000
# 5 0.0000 0.0000 0.0000 0.0000 30.2176 0.0000
# 6 0.0000 0.0000 0.0000 0.0000 0.0000 21.2172
#
#
#
# Elastic Compliance Matrix: (Units=1/GPa)
#
#
# Indices 1 2 3 4 5 6 
#
# 1 0.041701 -0.003975 0.002921 0.000000 0.000000 0.000000
# 2 -0.003975 0.009770 -0.007201 0.000000 0.000000 0.000000
# 3 0.002921 -0.007201 0.010456 0.000000 0.000000 0.000000
# 4 0.000000 0.000000 0.000000 0.024166 0.000000 0.000000
# 5 0.000000 0.000000 0.000000 0.000000 0.033093 0.000000
# 6 0.000000 0.000000 0.000000 0.000000 0.000000 0.047132
#
#
# Mechanical properties :
#
#
# Convention : Reuss Voigt Hill
#
# Bulk Modulus (GPa) = 22.01775 81.98974 52.00375
# Shear Modulus (GPa) = 25.25674 37.08187 31.16931
#
# Velocity S-wave (km/s) = 3.51571 4.25995 3.90560
# Velocity P-wave (km/s) = 5.22067 8.02001 6.76668
#
# Compressibility (1/GPa) = 0.04541789
#
# Stress axis : x y z
#
# Youngs Moduli (GPa) = 23.98041 102.35313 95.63473
#
# Poissons Ratio (x) = 0.40686 -0.27937
# Poissons Ratio (y) = 0.09532 0.68865
# Poissons Ratio (z) = -0.07005 0.73703
#
# Static dielectric constant tensor:
#      x y z
#    x 1.762500 0.000000 0.000000 
#    y 0.000000 1.722100 0.000000 
#    z 0.000000 0.000000 1.699600 
# 
# From -- ./inp_files/32868.got.cif
#   From: 2010.05.17/outbox.cif.g08.bks.cpg/sg59_17_cif.got.tgz:32868.got - 2010.06.03 14:40:33.
