data_PCOD9449286
_publ_section_title
;
Structure prediction by ZEFSAII (Michael W. Deem and Ramdas Pophale) SiO2 
 PCOD9449286
Probable space group: P M M N
;
_chemical_formula_sum "Si O2"
_cell_formula_units_Z 56
_cell_length_a 19.425309
_cell_length_b 7.427177
_cell_length_c 18.691574
_cell_angle_alpha 90.000000
_cell_angle_beta 90.000000
_cell_angle_gamma 90.000000
_cell_volume 2696.730731
_symmetry_space_group_name_H-M "P M M N"
_symmetry_group_IT_number 59
_space_group.IT_coordinate_system_code '2'
_symmetry_cell_setting 'orthorhombic'
loop_
_space_group_symop_operation_xyz
x,y,z
1/2-x,1/2-y,z
1/2+x,-y,-z
-x,1/2+y,-z
-x,-y,-z
1/2+x,1/2+y,-z
1/2-x,y,z
x,1/2-y,z
loop_
_atom_site_type_symbol
_atom_site_label
_atom_site_fract_x
_atom_site_fract_y
_atom_site_fract_z
Si Si1 0.925240 0.459975 0.721501
Si Si2 0.829935 0.966210 0.002703
Si Si3 0.171524 0.962214 0.154518
Si Si4 0.169856 0.469463 0.841124
Si Si5 0.671506 0.532522 0.589571
Si Si6 0.080195 0.029200 0.705605
Si Si7 0.671215 0.969284 0.427217
O O1 0.935619 0.250000 0.739645
O O2 0.878649 0.539135 0.785184
O O3 0.881798 0.470601 0.648778
O O4 0.001718 0.534086 0.711253
O O5 0.750000 0.025718 0.001478
O O6 0.830717 0.750000 0.003345
O O7 0.858414 0.020777 0.925718
O O8 0.856953 0.026354 0.080151
O O9 0.250000 0.036987 0.156408
O O10 0.178138 0.750000 0.169040
O O11 0.250000 0.523438 0.833455
O O12 0.169935 0.250000 0.840686
O O13 0.123819 0.527520 0.774880
O O14 0.750000 0.474991 0.606303
O O15 0.671194 0.750000 0.590141
O O16 0.655002 0.474283 0.508452
O O17 0.080660 0.250000 0.704189
O O18 0.118586 0.970424 0.633339
O O19 0.750000 0.022967 0.410802
O O20 0.670751 0.750000 0.427247
#
# Coordination Sequence:
#
# PCOD9449286 Si02
#       7
#     8   8   8   8   8   8   8
#     4  10  20  31  44  66  94 121 150 183 219 263
#     4   8  14  25  43  67  88 106 139 187 227 256
#     4   9  17  29  43  58  81 115 150 181 216 261
#     4   8  13  23  42  67  91 114 144 184 225 262
#     4   9  18  32  49  68  89 115 149 187 224 262
#     4   9  16  26  42  65  93 122 148 177 219 267
#     4   8  14  26  45  68  91 115 147 185 221 261
#
# _framework density 20.765885000000001
#
# number of rings (size 3 to 8) (size 9 to 14) (size 15 to 20)
#    0.000    3.286    0.000    2.571    0.000    3.714 
#    0.000    2.143    0.000    0.857    0.000    0.000 
#    0.000    5.714    0.000    0.000    0.000    0.000 
#
# Total GULP energy -312244.059815 kJ/mol
# GULP energy per Si atom -5575.786782 kJ/mol
# Density = 2.071862 g / cm^3
# Si number density = 20.765885 Si / 1000 Ang^3
#
#
#
# Elastic Constant Matrix: (Units=GPa)
#
#
# Indices 1 2 3 4 5 6 
#
# 1 128.1743 -0.7223 115.3842 0.0000 0.0000 0.0000
# 2 -0.7223 60.4457 -7.7210 0.0000 0.0000 0.0000
# 3 115.3842 -7.7210 178.4071 0.0000 0.0000 0.0000
# 4 0.0000 0.0000 0.0000 33.5342 0.0000 0.0000
# 5 0.0000 0.0000 0.0000 0.0000 -12.3689 0.0000
# 6 0.0000 0.0000 0.0000 0.0000 0.0000 1.0472
#
#
#
# Elastic Compliance Matrix: (Units=1/GPa)
#
#
# Indices 1 2 3 4 5 6 
#
# 1 0.018781 -0.001334 -0.012204 0.000000 0.000000 0.000000
# 2 -0.001334 0.016731 0.001587 0.000000 0.000000 0.000000
# 3 -0.012204 0.001587 0.013567 0.000000 0.000000 0.000000
# 4 0.000000 0.000000 0.000000 0.029820 0.000000 0.000000
# 5 0.000000 0.000000 0.000000 0.000000 -0.080848 0.000000
# 6 0.000000 0.000000 0.000000 0.000000 0.000000 0.954930
#
#
# Mechanical properties :
#
#
# Convention : Reuss Voigt Hill
#
# Bulk Modulus (GPa) = 39.72173 64.54543 52.13358
# Shear Modulus (GPa) = 5.07472 21.78158 13.42815
#
# Velocity S-wave (km/s) = 1.56496 3.24220 2.54568
# Velocity P-wave (km/s) = 4.73659 6.72055 5.81382
#
# Compressibility (1/GPa) = 0.02517514
#
# Stress axis : x y z
#
# Youngs Moduli (GPa) = 53.24642 59.77090 73.70951
#
# Poissons Ratio (x) = 0.07976 0.89955
# Poissons Ratio (y) = 0.07106 -0.11699
# Poissons Ratio (z) = 0.64982 -0.09486
#
# Static dielectric constant tensor:
#      x y z
#    x 1.708010 0.000000 0.000000 
#    y 0.000000 1.797580 0.000000 
#    z 0.000000 0.000000 1.742450 
# 
# From -- ./inp_files/28099.got.cif
#   From: 2010.05.17/outbox.cif.g08.bks.cpg/sg59_15_cif.got.tgz:28099.got - 2010.06.03 14:40:33.
