data_PCOD9449496
_publ_section_title
;
Structure prediction by ZEFSAII (Michael W. Deem and Ramdas Pophale) SiO2 
 PCOD9449496
Probable space group: P M M N
;
_chemical_formula_sum "Si O2"
_cell_formula_units_Z 64
_cell_length_a 30.689393
_cell_length_b 8.827509
_cell_length_c 14.671462
_cell_angle_alpha 90.000000
_cell_angle_beta 90.000000
_cell_angle_gamma 90.000000
_cell_volume 3974.658871
_symmetry_space_group_name_H-M "P M M N"
_symmetry_group_IT_number 59
_space_group.IT_coordinate_system_code '2'
_symmetry_cell_setting 'orthorhombic'
loop_
_space_group_symop_operation_xyz
x,y,z
1/2-x,1/2-y,z
1/2+x,-y,-z
-x,1/2+y,-z
-x,-y,-z
1/2+x,1/2+y,-z
1/2-x,y,z
x,1/2-y,z
loop_
_atom_site_type_symbol
_atom_site_label
_atom_site_fract_x
_atom_site_fract_y
_atom_site_fract_z
Si Si1 0.199784 0.067749 0.143586
Si Si2 0.116579 0.925802 0.061716
Si Si3 0.025202 0.572580 0.750000
Si Si4 0.958684 0.569531 0.444940
Si Si5 0.435767 0.920365 0.250000
Si Si6 0.383421 0.925802 0.438284
Si Si7 0.699784 0.932251 0.643586
Si Si8 0.541316 0.569531 0.055060
O O1 0.250000 0.028982 0.122427
O O2 0.195466 0.250000 0.138535
O O3 0.191975 0.025014 0.250000
O O4 0.164588 0.990958 0.078649
O O5 0.117844 0.750000 0.033696
O O6 0.093073 0.933469 0.160179
O O7 0.085659 0.019269 0.994583
O O8 0.035263 0.750000 0.750000
O O9 0.041330 0.494674 0.657394
O O10 0.041330 0.494674 0.842606
O O11 0.973230 0.544290 0.750000
O O12 0.963432 0.750000 0.444731
O O13 0.914341 0.519269 0.494583
O O14 0.000000 0.500000 0.500000
O O15 0.455837 0.750000 0.250000
O O16 0.406927 0.933469 0.339821
O O17 0.382156 0.750000 0.466304
O O18 0.335412 0.990958 0.421351
O O19 0.750000 0.971018 0.622427
O O20 0.695466 0.750000 0.638535
O O21 0.536568 0.750000 0.055269
O O22 0.500000 0.500000 0.000000
#
# Coordination Sequence:
#
# PCOD9449496 Si02
#       8
#     8   8   8   8   8   8   8   8
#     4   9  18  32  50  74 106 142 179 219 265 318
#     4  11  21  34  52  77 107 142 182 221 264 318
#     4  12  24  38  56  77 104 141 180 223 269 314
#     4  12  24  38  55  77 106 141 181 223 265 316
#     4  10  20  32  49  73 108 144 179 220 261 308
#     4  11  21  34  52  77 107 142 182 221 264 318
#     4   9  18  32  50  74 106 142 179 219 265 318
#     4  12  24  38  55  77 106 141 181 223 265 316
#
# _framework density 16.102011000000001
#
# number of rings (size 3 to 8) (size 9 to 14) (size 15 to 20)
#    0.000    1.250    3.750    4.875    0.000    1.500 
#    0.000    1.250    0.000    0.000    0.000    0.875 
#    0.000    7.000    0.000    0.000    0.000    0.000 
#
# Total GULP energy -357463.775821 kJ/mol
# GULP energy per Si atom -5585.371497 kJ/mol
# Density = 1.606536 g / cm^3
# Si number density = 16.102011 Si / 1000 Ang^3
#
#
#
# Elastic Constant Matrix: (Units=GPa)
#
#
# Indices 1 2 3 4 5 6 
#
# 1 109.1978 58.3506 47.6604 0.0000 0.0000 0.0000
# 2 58.3506 129.4154 61.0705 0.0000 0.0000 0.0000
# 3 47.6604 61.0705 105.5968 0.0000 0.0000 0.0000
# 4 0.0000 0.0000 0.0000 22.5939 0.0000 0.0000
# 5 0.0000 0.0000 0.0000 0.0000 19.3217 0.0000
# 6 0.0000 0.0000 0.0000 0.0000 0.0000 29.9698
#
#
#
# Elastic Compliance Matrix: (Units=1/GPa)
#
#
# Indices 1 2 3 4 5 6 
#
# 1 0.012884 -0.004216 -0.003377 0.000000 0.000000 0.000000
# 2 -0.004216 0.012007 -0.005041 0.000000 0.000000 0.000000
# 3 -0.003377 -0.005041 0.013910 0.000000 0.000000 0.000000
# 4 0.000000 0.000000 0.000000 0.044260 0.000000 0.000000
# 5 0.000000 0.000000 0.000000 0.000000 0.051755 0.000000
# 6 0.000000 0.000000 0.000000 0.000000 0.000000 0.033367
#
#
# Mechanical properties :
#
#
# Convention : Reuss Voigt Hill
#
# Bulk Modulus (GPa) = 73.89484 75.37478 74.63481
# Shear Modulus (GPa) = 25.25739 26.18564 25.72151
#
# Velocity S-wave (km/s) = 3.96483 4.03703 4.00110
# Velocity P-wave (km/s) = 8.18237 8.28508 8.23389
#
# Compressibility (1/GPa) = 0.01353274
#
# Stress axis : x y z
#
# Youngs Moduli (GPa) = 77.61362 83.28674 71.89168
#
# Poissons Ratio (x) = 0.35110 0.24280
# Poissons Ratio (y) = 0.32719 0.36242
# Poissons Ratio (z) = 0.26212 0.41987
#
# Static dielectric constant tensor:
#      x y z
#    x 1.530800 0.000000 0.000000 
#    y 0.000000 1.551900 0.000000 
#    z 0.000000 0.000000 1.540920 
# 
# From -- ./inp_files/25107.got.cif
#   From: 2010.05.17/outbox.cif.g08.bks.cpg/sg59_13_cif.got.tgz:25107.got - 2010.06.03 14:40:33.
