data_PCOD9449499
_publ_section_title
;
Structure prediction by ZEFSAII (Michael W. Deem and Ramdas Pophale) SiO2 
 PCOD9449499
Probable space group: P M M N
;
_chemical_formula_sum "Si O2"
_cell_formula_units_Z 64
_cell_length_a 27.785518
_cell_length_b 9.113571
_cell_length_c 14.981721
_cell_angle_alpha 90.000000
_cell_angle_beta 90.000000
_cell_angle_gamma 90.000000
_cell_volume 3793.750661
_symmetry_space_group_name_H-M "P M M N"
_symmetry_group_IT_number 59
_space_group.IT_coordinate_system_code '2'
_symmetry_cell_setting 'orthorhombic'
loop_
_space_group_symop_operation_xyz
x,y,z
1/2-x,1/2-y,z
1/2+x,-y,-z
-x,1/2+y,-z
-x,-y,-z
1/2+x,1/2+y,-z
1/2-x,y,z
x,1/2-y,z
loop_
_atom_site_type_symbol
_atom_site_label
_atom_site_fract_x
_atom_site_fract_y
_atom_site_fract_z
Si Si1 0.074635 0.074707 0.842052
Si Si2 0.118758 0.073965 0.026970
Si Si3 0.972634 0.923615 0.851717
Si Si4 0.192670 0.077010 0.341646
Si Si5 0.577400 0.425606 0.344781
Si Si6 0.807079 0.423524 0.845658
Si Si7 0.965389 0.576802 0.643832
Si Si8 0.617500 0.425382 0.533019
O O1 0.072226 0.250000 0.835263
O O2 0.089034 0.005889 0.747338
O O3 0.109781 0.036564 0.923764
O O4 0.021502 0.013260 0.864646
O O5 0.125568 0.250000 0.034647
O O6 0.069831 0.037354 0.080921
O O7 0.162137 0.991520 0.074671
O O8 0.983479 0.750000 0.861417
O O9 0.955876 0.945467 0.749348
O O10 0.250000 0.058095 0.354327
O O11 0.181945 0.250000 0.337535
O O12 0.179601 0.002899 0.247174
O O13 0.162435 0.002051 0.419708
O O14 0.579035 0.250000 0.330155
O O15 0.521676 0.459951 0.369258
O O16 0.610375 0.463501 0.428966
O O17 0.750000 0.446560 0.859465
O O18 0.815817 0.250000 0.837483
O O19 0.958572 0.750000 0.624067
O O20 0.929791 0.481294 0.585081
O O21 0.621189 0.250000 0.540386
#
# Coordination Sequence:
#
# PCOD9449499 Si02
#       8
#     8   8   8   8   8   8   8   8
#     4  10  20  32  49  74 101 132 173 214 248 288
#     4  10  20  33  51  76 103 133 169 206 249 300
#     4   9  18  32  48  69 102 138 168 201 245 298
#     4  10  21  37  56  77 103 134 162 194 246 305
#     4   9  20  36  50  68  99 138 173 207 251 295
#     4  10  21  36  55  80 105 129 162 203 245 293
#     4   9  17  30  48  71 101 136 170 202 242 297
#     4  11  21  32  51  77 101 129 169 212 251 294
#
# _framework density 16.869848999999999
#
# number of rings (size 3 to 8) (size 9 to 14) (size 15 to 20)
#    0.000    2.250    0.000    3.750    0.000    7.000 
#    0.000    0.000    0.000    0.750    0.000    0.000 
#    0.000    0.000    0.000    0.000    0.000    0.000 
#
# Total GULP energy -357310.510568 kJ/mol
# GULP energy per Si atom -5582.976728 kJ/mol
# Density = 1.683145 g / cm^3
# Si number density = 16.869849 Si / 1000 Ang^3
#
#
#
# Elastic Constant Matrix: (Units=GPa)
#
#
# Indices 1 2 3 4 5 6 
#
# 1 61.3422 52.9909 71.9683 0.0000 0.0000 0.0000
# 2 52.9909 67.9543 70.5475 0.0000 0.0000 0.0000
# 3 71.9683 70.5475 119.7911 0.0000 0.0000 0.0000
# 4 0.0000 0.0000 0.0000 27.8623 0.0000 0.0000
# 5 0.0000 0.0000 0.0000 0.0000 30.0092 0.0000
# 6 0.0000 0.0000 0.0000 0.0000 0.0000 28.5551
#
#
#
# Elastic Compliance Matrix: (Units=1/GPa)
#
#
# Indices 1 2 3 4 5 6 
#
# 1 0.072232 -0.029014 -0.026309 0.000000 0.000000 0.000000
# 2 -0.029014 0.049523 -0.011734 0.000000 0.000000 0.000000
# 3 -0.026309 -0.011734 0.031064 0.000000 0.000000 0.000000
# 4 0.000000 0.000000 0.000000 0.035891 0.000000 0.000000
# 5 0.000000 0.000000 0.000000 0.000000 0.033323 0.000000
# 6 0.000000 0.000000 0.000000 0.000000 0.000000 0.035020
#
#
# Mechanical properties :
#
#
# Convention : Reuss Voigt Hill
#
# Bulk Modulus (GPa) = 53.46024 71.12233 62.29128
# Shear Modulus (GPa) = 12.58174 20.85737 16.71956
#
# Velocity S-wave (km/s) = 2.73392 3.52002 3.15158
# Velocity P-wave (km/s) = 6.45944 7.66627 7.08858
#
# Compressibility (1/GPa) = 0.01870549
#
# Stress axis : x y z
#
# Youngs Moduli (GPa) = 13.84422 20.19283 32.19158
#
# Poissons Ratio (x) = 0.58588 0.84692
# Poissons Ratio (y) = 0.40168 0.37773
# Poissons Ratio (z) = 0.36423 0.23694
#
# Static dielectric constant tensor:
#      x y z
#    x 1.554400 0.000000 0.000000 
#    y 0.000000 1.560400 0.000000 
#    z 0.000000 0.000000 1.566440 
# 
# From -- ./inp_files/24699.got.cif
#   From: 2010.05.17/outbox.cif.g08.bks.cpg/sg59_13_cif.got.tgz:24699.got - 2010.06.03 14:40:33.
