data_PCOD9449836
_publ_section_title
;
Structure prediction by ZEFSAII (Michael W. Deem and Ramdas Pophale) SiO2 
 PCOD9449836
Probable space group: P M M N
;
_chemical_formula_sum "Si O2"
_cell_formula_units_Z 64
_cell_length_a 9.410454
_cell_length_b 7.537256
_cell_length_c 42.339410
_cell_angle_alpha 90.000000
_cell_angle_beta 90.000000
_cell_angle_gamma 90.000000
_cell_volume 3003.092049
_symmetry_space_group_name_H-M "P M M N"
_symmetry_group_IT_number 59
_space_group.IT_coordinate_system_code '2'
_symmetry_cell_setting 'orthorhombic'
loop_
_space_group_symop_operation_xyz
x,y,z
1/2-x,1/2-y,z
1/2+x,-y,-z
-x,1/2+y,-z
-x,-y,-z
1/2+x,1/2+y,-z
1/2-x,y,z
x,1/2-y,z
loop_
_atom_site_type_symbol
_atom_site_label
_atom_site_fract_x
_atom_site_fract_y
_atom_site_fract_z
Si Si1 0.585913 0.466241 0.723042
Si Si2 0.412108 0.462969 0.031623
Si Si3 0.911940 0.463700 0.652215
Si Si4 0.588305 0.036922 0.844999
Si Si5 0.590291 0.460870 0.409428
Si Si6 0.089185 0.463047 0.468622
Si Si7 0.913278 0.967239 0.216029
Si Si8 0.911900 0.462619 0.091912
O O1 0.750000 0.517682 0.728842
O O2 0.583339 0.250000 0.723156
O O3 0.546550 0.523631 0.687532
O O4 0.484282 0.525322 0.751137
O O5 0.250000 0.530500 0.030069
O O6 0.403374 0.250000 0.034733
O O7 0.498468 0.531112 0.062020
O O8 0.500000 0.500000 0.000000
O O9 0.750000 0.525026 0.645916
O O10 0.908194 0.250000 0.653081
O O11 0.016076 0.514738 0.624260
O O12 0.750000 0.969614 0.847469
O O13 0.596411 0.250000 0.842361
O O14 0.507212 0.973176 0.813689
O O15 0.496519 0.997508 0.875957
O O16 0.750000 0.533987 0.410021
O O17 0.600675 0.250000 0.414648
O O18 0.492656 0.532466 0.437720
O O19 0.250000 0.531809 0.470884
O O20 0.098329 0.250000 0.465617
O O21 0.000000 0.500000 0.500000
O O22 0.750000 0.023157 0.213123
O O23 0.914034 0.750000 0.215945
O O24 0.750000 0.531025 0.092866
O O25 0.902871 0.250000 0.088400
#
# Coordination Sequence:
#
# PCOD9449836 Si02
#       8
#     8   8   8   8   8   8   8   8
#     4   8  14  26  44  67  97 130 163 203 252 303
#     4  10  21  37  57  80 105 135 171 209 251 300
#     4   9  18  32  51  76 103 132 169 211 253 298
#     4  10  20  33  51  76 104 135 172 212 253 299
#     4  10  21  36  53  74 102 136 171 206 248 298
#     4  10  21  37  57  79 102 131 167 205 248 298
#     4   9  16  26  43  69 100 132 166 207 255 302
#     4  10  21  37  56  77 103 136 171 208 254 305
#
# _framework density 21.311367000000001
#
# number of rings (size 3 to 8) (size 9 to 14) (size 15 to 20)
#    0.000    2.500    0.000    3.000    0.000    7.000 
#    0.000    1.250    0.000    0.750    0.000    3.500 
#    0.000    0.000    0.000    0.000    0.000    0.000 
#
# Total GULP energy -357530.227987 kJ/mol
# GULP energy per Si atom -5586.409812 kJ/mol
# Density = 2.126286 g / cm^3
# Si number density = 21.311367 Si / 1000 Ang^3
#
#
#
# Elastic Constant Matrix: (Units=GPa)
#
#
# Indices 1 2 3 4 5 6 
#
# 1 237.2728 8.9375 151.2403 0.0000 0.0000 0.0000
# 2 8.9375 52.6318 -1.1736 0.0000 0.0000 0.0000
# 3 151.2403 -1.1736 206.4059 0.0000 0.0000 0.0000
# 4 0.0000 0.0000 0.0000 13.8591 0.0000 0.0000
# 5 0.0000 0.0000 0.0000 0.0000 41.2893 0.0000
# 6 0.0000 0.0000 0.0000 0.0000 0.0000 14.3022
#
#
#
# Elastic Compliance Matrix: (Units=1/GPa)
#
#
# Indices 1 2 3 4 5 6 
#
# 1 0.008024 -0.001494 -0.005888 0.000000 0.000000 0.000000
# 2 -0.001494 0.019280 0.001204 0.000000 0.000000 0.000000
# 3 -0.005888 0.001204 0.009166 0.000000 0.000000 0.000000
# 4 0.000000 0.000000 0.000000 0.072155 0.000000 0.000000
# 5 0.000000 0.000000 0.000000 0.000000 0.024219 0.000000
# 6 0.000000 0.000000 0.000000 0.000000 0.000000 0.069920
#
#
# Mechanical properties :
#
#
# Convention : Reuss Voigt Hill
#
# Bulk Modulus (GPa) = 41.46755 90.47989 65.97372
# Shear Modulus (GPa) = 22.40579 36.37721 29.39150
#
# Velocity S-wave (km/s) = 3.24598 4.13599 3.71772
# Velocity P-wave (km/s) = 5.79212 8.08436 7.03227
#
# Compressibility (1/GPa) = 0.02411524
#
# Stress axis : x y z
#
# Youngs Moduli (GPa) = 124.63003 51.86608 109.10098
#
# Poissons Ratio (x) = 0.07748 0.64236
# Poissons Ratio (y) = 0.18617 -0.13138
# Poissons Ratio (z) = 0.73379 -0.06246
#
# Static dielectric constant tensor:
#      x y z
#    x 1.745890 0.000000 0.000000 
#    y 0.000000 1.885000 0.000000 
#    z 0.000000 0.000000 1.720990 
# 
# From -- ./inp_files/33165.got.cif
#   From: 2010.05.17/outbox.cif.g08.bks.cpg/sg59_17_cif.got.tgz:33165.got - 2010.06.03 14:40:33.
