data_PCOD9449901
_publ_section_title
;
Structure prediction by ZEFSAII (Michael W. Deem and Ramdas Pophale) SiO2 
 PCOD9449901
Probable space group: P M M N
;
_chemical_formula_sum "Si O2"
_cell_formula_units_Z 64
_cell_length_a 27.109467
_cell_length_b 18.933354
_cell_length_c 6.344889
_cell_angle_alpha 90.000000
_cell_angle_beta 90.000000
_cell_angle_gamma 90.000000
_cell_volume 3256.661071
_symmetry_space_group_name_H-M "P M M N"
_symmetry_group_IT_number 59
_space_group.IT_coordinate_system_code '2'
_symmetry_cell_setting 'orthorhombic'
loop_
_space_group_symop_operation_xyz
x,y,z
1/2-x,1/2-y,z
1/2+x,-y,-z
-x,1/2+y,-z
-x,-y,-z
1/2+x,1/2+y,-z
1/2-x,y,z
x,1/2-y,z
loop_
_atom_site_type_symbol
_atom_site_label
_atom_site_fract_x
_atom_site_fract_y
_atom_site_fract_z
Si Si1 0.590648 0.829146 0.522735
Si Si2 0.012527 0.829134 0.775576
Si Si3 0.369316 0.671643 0.321965
Si Si4 0.890728 0.542314 0.788906
Si Si5 0.194825 0.827516 0.719712
Si Si6 0.806720 0.060924 0.925836
Si Si7 0.548504 0.427738 0.566696
Si Si8 0.040684 0.097771 0.851165
O O1 0.610928 0.750000 0.515068
O O2 0.536194 0.825343 0.628313
O O3 0.619073 0.883156 0.675407
O O4 0.580192 0.860508 0.291496
O O5 0.035304 0.750000 0.772194
O O6 0.041789 0.893885 0.665350
O O7 0.992288 0.850096 0.004384
O O8 0.372128 0.750000 0.235462
O O9 0.350171 0.674521 0.560247
O O10 0.328136 0.623577 0.216742
O O11 0.421680 0.633940 0.311180
O O12 0.843088 0.503915 0.883069
O O13 0.916486 0.494475 0.607232
O O14 0.930240 0.550808 0.978455
O O15 0.250000 0.829316 0.619675
O O16 0.194005 0.750000 0.832676
O O17 0.190646 0.899485 0.850154
O O18 0.750000 0.043842 0.881015
O O19 0.496826 0.439974 0.688008
#
# Coordination Sequence:
#
# PCOD9449901 Si02
#       8
#     8   8   8   8   8   8   8   8
#     4   9  19  36  56  77  99 126 168 216 262 321
#     4   9  18  32  50  73 104 143 182 215 249 294
#     4  10  20  33  51  78 113 151 188 225 261 300
#     4  10  22  36  54  79 106 137 176 223 280 333
#     4   9  18  33  53  76 104 142 186 227 265 308
#     4  10  21  37  57  81 108 141 183 228 275 327
#     4  10  21  33  48  76 113 148 183 222 261 311
#     4  10  20  34  55  77 105 145 186 223 264 315
#
# _framework density 19.652031000000001
#
# number of rings (size 3 to 8) (size 9 to 14) (size 15 to 20)
#    0.000    2.375    0.000    1.875    0.000   12.750 
#    0.000    0.000    0.000    0.375    0.000    0.000 
#    0.000    0.000    0.000    0.000    0.000    0.000 
#
# Total GULP energy -356683.283835 kJ/mol
# GULP energy per Si atom -5573.176310 kJ/mol
# Density = 1.960730 g / cm^3
# Si number density = 19.652031 Si / 1000 Ang^3
#
#
#
# Elastic Constant Matrix: (Units=GPa)
#
#
# Indices 1 2 3 4 5 6 
#
# 1 79.4381 33.3617 9.7397 0.0000 0.0000 0.0000
# 2 33.3617 90.9653 2.2442 0.0000 0.0000 0.0000
# 3 9.7397 2.2442 33.2671 0.0000 0.0000 0.0000
# 4 0.0000 0.0000 0.0000 15.7866 0.0000 0.0000
# 5 0.0000 0.0000 0.0000 0.0000 21.3847 0.0000
# 6 0.0000 0.0000 0.0000 0.0000 0.0000 18.7804
#
#
#
# Elastic Compliance Matrix: (Units=1/GPa)
#
#
# Indices 1 2 3 4 5 6 
#
# 1 0.015430 -0.005557 -0.004143 0.000000 0.000000 0.000000
# 2 -0.005557 0.013013 0.000749 0.000000 0.000000 0.000000
# 3 -0.004143 0.000749 0.031222 0.000000 0.000000 0.000000
# 4 0.000000 0.000000 0.000000 0.063345 0.000000 0.000000
# 5 0.000000 0.000000 0.000000 0.000000 0.046762 0.000000
# 6 0.000000 0.000000 0.000000 0.000000 0.000000 0.053247
#
#
# Mechanical properties :
#
#
# Convention : Reuss Voigt Hill
#
# Bulk Modulus (GPa) = 23.94406 32.70684 28.32545
# Shear Modulus (GPa) = 19.62008 21.74535 20.68271
#
# Velocity S-wave (km/s) = 3.16313 3.33005 3.24766
# Velocity P-wave (km/s) = 5.05480 5.60934 5.33928
#
# Compressibility (1/GPa) = 0.04176402
#
# Stress axis : x y z
#
# Youngs Moduli (GPa) = 64.80878 76.84814 32.02864
#
# Poissons Ratio (x) = 0.42703 0.13268
# Poissons Ratio (y) = 0.36013 -0.02399
# Poissons Ratio (z) = 0.26848 -0.05756
#
# Static dielectric constant tensor:
#      x y z
#    x 1.678290 0.000000 0.000000 
#    y 0.000000 1.715680 0.000000 
#    z 0.000000 0.000000 1.768710 
# 
# From -- ./inp_files/4629.got.cif
#   From: 2010.05.17/outbox.cif.g08.bks.cpg/sg59_3_cif.got.tgz:4629.got - 2010.06.03 14:40:33.
