data_PCOD9449014
_publ_section_title
;
Structure prediction by ZEFSAII (Michael W. Deem and Ramdas Pophale) SiO2 
 PCOD9449014
Probable space group: P M M N
;
_chemical_formula_sum "Si O2"
_cell_formula_units_Z 56
_cell_length_a 21.570184
_cell_length_b 13.858721
_cell_length_c 10.187888
_cell_angle_alpha 90.000000
_cell_angle_beta 90.000000
_cell_angle_gamma 90.000000
_cell_volume 3045.517949
_symmetry_space_group_name_H-M "P M M N"
_symmetry_group_IT_number 59
_space_group.IT_coordinate_system_code '2'
_symmetry_cell_setting 'orthorhombic'
loop_
_space_group_symop_operation_xyz
x,y,z
1/2-x,1/2-y,z
1/2+x,-y,-z
-x,1/2+y,-z
-x,-y,-z
1/2+x,1/2+y,-z
1/2-x,y,z
x,1/2-y,z
loop_
_atom_site_type_symbol
_atom_site_label
_atom_site_fract_x
_atom_site_fract_y
_atom_site_fract_z
Si Si1 0.320941 0.516143 0.743458
Si Si2 0.895087 0.946818 0.499492
Si Si3 0.558956 0.135425 0.214756
Si Si4 0.493118 0.861727 0.067312
Si Si5 0.820018 0.865417 0.740788
Si Si6 0.641144 0.636193 0.035041
Si Si7 0.491297 0.959065 0.337767
O O1 0.250000 0.547176 0.743840
O O2 0.341590 0.473390 0.602677
O O3 0.370480 0.601140 0.767841
O O4 0.330635 0.433455 0.854359
O O5 0.865936 0.891966 0.622671
O O6 0.932368 0.034534 0.568465
O O7 0.950896 0.904566 0.407812
O O8 0.549761 0.250000 0.233904
O O9 0.516860 0.067406 0.307148
O O10 0.539306 0.107831 0.066797
O O11 0.477874 0.750000 0.086203
O O12 0.566998 0.869648 0.048820
O O13 0.474831 0.916652 0.197818
O O14 0.750000 0.901405 0.715544
O O15 0.818242 0.750000 0.745936
O O16 0.840918 0.895473 0.887313
O O17 0.658924 0.750000 0.052178
#
# Coordination Sequence:
#
# PCOD9449014 Si02
#       7
#     8   8   8   8   8   8   8
#     4  11  23  39  58  82 114 158 196 233 279 329
#     4  10  21  35  55  80 112 148 187 228 278 339
#     4  10  21  36  58  87 113 147 194 242 286 333
#     4  10  19  34  59  88 115 142 178 237 297 346
#     4  10  21  35  52  79 115 153 190 227 270 332
#     4  10  20  36  58  87 118 148 183 229 292 348
#     4  10  20  36  56  82 115 147 180 233 295 343
#
# _framework density 18.387677
#
# number of rings (size 3 to 8) (size 9 to 14) (size 15 to 20)
#    0.000    1.857    2.857    2.143    2.000    4.000 
#    0.000    5.714    0.000    0.000    0.000    0.000 
#    0.000    0.000    0.000    0.000    0.000    0.000 
#
# Total GULP energy -312251.892183 kJ/mol
# GULP energy per Si atom -5575.926646 kJ/mol
# Density = 1.834583 g / cm^3
# Si number density = 18.387677 Si / 1000 Ang^3
#
#
#
# Elastic Constant Matrix: (Units=GPa)
#
#
# Indices 1 2 3 4 5 6 
#
# 1 54.3478 -0.1926 30.7069 0.0000 0.0000 0.0000
# 2 -0.1926 36.9415 38.0199 0.0000 0.0000 0.0000
# 3 30.7069 38.0199 140.5687 0.0000 0.0000 0.0000
# 4 0.0000 0.0000 0.0000 9.5039 0.0000 0.0000
# 5 0.0000 0.0000 0.0000 0.0000 24.5297 0.0000
# 6 0.0000 0.0000 0.0000 0.0000 0.0000 10.3099
#
#
#
# Elastic Compliance Matrix: (Units=1/GPa)
#
#
# Indices 1 2 3 4 5 6 
#
# 1 0.022256 0.007095 -0.006781 0.000000 0.000000 0.000000
# 2 0.007095 0.039774 -0.012307 0.000000 0.000000 0.000000
# 3 -0.006781 -0.012307 0.011924 0.000000 0.000000 0.000000
# 4 0.000000 0.000000 0.000000 0.105220 0.000000 0.000000
# 5 0.000000 0.000000 0.000000 0.000000 0.040767 0.000000
# 6 0.000000 0.000000 0.000000 0.000000 0.000000 0.096994
#
#
# Mechanical properties :
#
#
# Convention : Reuss Voigt Hill
#
# Bulk Modulus (GPa) = 20.01320 40.99180 30.50250
# Shear Modulus (GPa) = 13.98295 19.75695 16.86995
#
# Velocity S-wave (km/s) = 2.76062 3.28146 3.03225
# Velocity P-wave (km/s) = 4.59010 6.05795 5.37438
#
# Compressibility (1/GPa) = 0.04996703
#
# Stress axis : x y z
#
# Youngs Moduli (GPa) = 44.93101 25.14231 83.86429
#
# Poissons Ratio (x) = -0.17838 0.56867
# Poissons Ratio (y) = -0.31878 1.03216
# Poissons Ratio (z) = 0.30467 0.30944
#
# Static dielectric constant tensor:
#      x y z
#    x 1.644130 0.000000 0.000000 
#    y 0.000000 1.642810 0.000000 
#    z 0.000000 0.000000 1.653600 
# 
# From -- ./inp_files/11404.got.cif
#   From: 2010.05.17/outbox.cif.g08.bks.cpg/sg59_6_cif.got.tgz:11404.got - 2010.06.03 14:40:33.
