data_PCOD9449241
_publ_section_title
;
Structure prediction by ZEFSAII (Michael W. Deem and Ramdas Pophale) SiO2 
 PCOD9449241
Probable space group: P M M N
;
_chemical_formula_sum "Si O2"
_cell_formula_units_Z 20
_cell_length_a 10.712819
_cell_length_b 5.377374
_cell_length_c 17.614488
_cell_angle_alpha 90.000000
_cell_angle_beta 90.000000
_cell_angle_gamma 90.000000
_cell_volume 1014.714893
_symmetry_space_group_name_H-M "P M M N"
_symmetry_group_IT_number 59
_space_group.IT_coordinate_system_code '2'
_symmetry_cell_setting 'orthorhombic'
loop_
_space_group_symop_operation_xyz
x,y,z
1/2-x,1/2-y,z
1/2+x,-y,-z
-x,1/2+y,-z
-x,-y,-z
1/2+x,1/2+y,-z
1/2-x,y,z
x,1/2-y,z
loop_
_atom_site_type_symbol
_atom_site_label
_atom_site_fract_x
_atom_site_fract_y
_atom_site_fract_z
Si Si1 0.382729 0.250000 0.048120
Si Si2 0.899174 0.250000 0.735307
Si Si3 0.465789 0.250000 0.357355
Si Si4 0.250000 0.750000 0.582874
Si Si5 0.750000 0.750000 0.517567
Si Si6 0.010899 0.250000 0.896327
O O1 0.250000 0.250000 0.085192
O O2 0.445666 0.498112 0.077039
O O3 0.376137 0.250000 0.956438
O O4 0.750000 0.250000 0.756514
O O5 0.927938 0.500085 0.688071
O O6 0.995489 0.250000 0.806346
O O7 0.615523 0.250000 0.373411
O O8 0.375985 0.250000 0.431405
O O9 0.250000 0.499565 0.532539
#
# Coordination Sequence:
#
# PCOD9449241 Si02
#       6
#     4   4   4   2   2   4
#     4  10  19  37  56  87 117 151 210 252 307 352
#     4  12  22  41  64  92 128 167 211 251 313 362
#     4  12  25  43  66  97 129 162 206 259 301 384
#     4  12  26  44  68  98 126 164 202 254 320 360
#     4  12  22  46  70  96 124 160 210 252 306 370
#     4  10  22  35  60  86 116 160 204 257 296 358
#
# _framework density 19.709968
#
# number of rings (size 3 to 8) (size 9 to 14) (size 15 to 20)
#    0.000    0.800    2.000    6.600    0.000    0.000 
#    3.600    0.000    0.000    0.000    0.000    0.000 
#    0.000    0.000    0.000    0.000    0.000    0.000 
#
# Total GULP energy -111371.203686 kJ/mol
# GULP energy per Si atom -5568.560184 kJ/mol
# Density = 1.966511 g / cm^3
# Si number density = 19.709968 Si / 1000 Ang^3
#
#
#
# Elastic Constant Matrix: (Units=GPa)
#
#
# Indices 1 2 3 4 5 6 
#
# 1 86.9833 32.4388 2.3736 0.0000 0.0000 0.0000
# 2 32.4388 191.6776 48.6456 0.0000 0.0000 0.0000
# 3 2.3736 48.6456 78.5959 0.0000 0.0000 0.0000
# 4 0.0000 0.0000 0.0000 31.2517 0.0000 0.0000
# 5 0.0000 0.0000 0.0000 0.0000 -14.0729 0.0000
# 6 0.0000 0.0000 0.0000 0.0000 0.0000 15.8252
#
#
#
# Elastic Compliance Matrix: (Units=1/GPa)
#
#
# Indices 1 2 3 4 5 6 
#
# 1 0.012349 -0.002367 0.001092 0.000000 0.000000 0.000000
# 2 -0.002367 0.006643 -0.004040 0.000000 0.000000 0.000000
# 3 0.001092 -0.004040 0.015191 0.000000 0.000000 0.000000
# 4 0.000000 0.000000 0.000000 0.031998 0.000000 0.000000
# 5 0.000000 0.000000 0.000000 0.000000 -0.071059 0.000000
# 6 0.000000 0.000000 0.000000 0.000000 0.000000 0.063190
#
#
# Mechanical properties :
#
#
# Convention : Reuss Voigt Hill
#
# Bulk Modulus (GPa) = 42.45717 58.24143 50.34930
# Shear Modulus (GPa) = 65.10865 24.85404 44.98135
#
# Velocity S-wave (km/s) = 5.75370 3.55489 4.78238
# Velocity P-wave (km/s) = 8.10727 6.81638 7.48969
#
# Compressibility (1/GPa) = 0.02355315
#
# Stress axis : x y z
#
# Youngs Moduli (GPa) = 80.97530 150.53357 65.82894
#
# Poissons Ratio (x) = 0.35634 -0.07189
# Poissons Ratio (y) = 0.19168 0.26596
# Poissons Ratio (z) = -0.08844 0.60817
#
# Static dielectric constant tensor:
#      x y z
#    x 2.006360 0.000000 0.000000 
#    y 0.000000 1.633660 0.000000 
#    z 0.000000 0.000000 1.738840 
# 
# From -- ./inp_files/21987.got.cif
#   From: 2010.05.17/outbox.cif.g08.bks.cpg/sg59_11_cif.got.tgz:21987.got - 2010.06.03 14:40:33.
