data_PCOD9449687
_publ_section_title
;
Structure prediction by ZEFSAII (Michael W. Deem and Ramdas Pophale) SiO2 
 PCOD9449687
Probable space group: P M M N
;
_chemical_formula_sum "Si O2"
_cell_formula_units_Z 64
_cell_length_a 20.695803
_cell_length_b 7.757490
_cell_length_c 20.728153
_cell_angle_alpha 90.000000
_cell_angle_beta 90.000000
_cell_angle_gamma 90.000000
_cell_volume 3327.852829
_symmetry_space_group_name_H-M "P M M N"
_symmetry_group_IT_number 59
_space_group.IT_coordinate_system_code '2'
_symmetry_cell_setting 'orthorhombic'
loop_
_space_group_symop_operation_xyz
x,y,z
1/2-x,1/2-y,z
1/2+x,-y,-z
-x,1/2+y,-z
-x,-y,-z
1/2+x,1/2+y,-z
1/2-x,y,z
x,1/2-y,z
loop_
_atom_site_type_symbol
_atom_site_label
_atom_site_fract_x
_atom_site_fract_y
_atom_site_fract_z
Si Si1 0.676299 0.041537 0.430921
Si Si2 0.566544 0.452554 0.677690
Si Si3 0.076962 0.952863 0.675455
Si Si4 0.676001 0.039345 0.928297
Si Si5 0.428468 0.958734 0.821584
Si Si6 0.823089 0.954603 0.578147
Si Si7 0.424816 0.956146 0.177436
Si Si8 0.823863 0.039524 0.074915
O O1 0.750000 0.982748 0.418630
O O2 0.676405 0.250000 0.428911
O O3 0.625891 0.975331 0.377797
O O4 0.658998 0.991686 0.503971
O O5 0.554249 0.250000 0.684861
O O6 0.498050 0.529913 0.656058
O O7 0.624168 0.477177 0.627726
O O8 0.583507 0.522542 0.749199
O O9 0.091656 0.750000 0.680248
O O10 0.082970 0.023410 0.748355
O O11 0.750000 0.988573 0.914344
O O12 0.674774 0.250000 0.928195
O O13 0.625827 0.976016 0.874873
O O14 0.660128 0.986039 0.001629
O O15 0.425989 0.750000 0.820034
O O16 0.375106 0.020101 0.872234
O O17 0.501096 0.008302 0.840945
O O18 0.750000 0.023790 0.588493
O O19 0.820828 0.750000 0.586551
O O20 0.415421 0.750000 0.179503
O O21 0.750000 0.987158 0.089002
O O22 0.824574 0.250000 0.075577
#
# Coordination Sequence:
#
# PCOD9449687 Si02
#       8
#     8   8   8   8   8   8   8   8
#     4   9  18  33  52  73  96 123 157 195 233 276
#     4  10  20  33  50  71  95 125 161 199 235 276
#     4   9  18  32  49  70  98 128 156 192 237 281
#     4   8  14  26  44  66  92 121 155 195 234 272
#     4   9  17  29  46  69  96 124 154 190 232 276
#     4  10  21  36  53  73  97 124 153 189 236 286
#     4   9  18  31  47  68  93 122 157 195 233 274
#     4   8  14  25  43  68  95 122 155 194 232 272
#
# _framework density 19.231618999999998
#
# number of rings (size 3 to 8) (size 9 to 14) (size 15 to 20)
#    0.000    3.000    0.000    1.500    0.000    3.750 
#    0.000    3.750    0.000    0.750    0.000    5.250 
#    0.000    0.000    0.000    0.000    0.000    0.000 
#
# Total GULP energy -356830.917432 kJ/mol
# GULP energy per Si atom -5575.483085 kJ/mol
# Density = 1.918785 g / cm^3
# Si number density = 19.231619 Si / 1000 Ang^3
#
#
#
# Elastic Constant Matrix: (Units=GPa)
#
#
# Indices 1 2 3 4 5 6 
#
# 1 132.9404 -10.6080 118.4319 0.0000 0.0000 0.0000
# 2 -10.6080 22.9047 -5.7685 0.0000 0.0000 0.0000
# 3 118.4319 -5.7685 129.6077 0.0000 0.0000 0.0000
# 4 0.0000 0.0000 0.0000 5.3820 0.0000 0.0000
# 5 0.0000 0.0000 0.0000 0.0000 46.0766 0.0000
# 6 0.0000 0.0000 0.0000 0.0000 0.0000 10.6047
#
#
#
# Elastic Compliance Matrix: (Units=1/GPa)
#
#
# Indices 1 2 3 4 5 6 
#
# 1 0.042620 0.010043 -0.038498 0.000000 0.000000 0.000000
# 2 0.010043 0.046521 -0.007107 0.000000 0.000000 0.000000
# 3 -0.038498 -0.007107 0.042578 0.000000 0.000000 0.000000
# 4 0.000000 0.000000 0.000000 0.185805 0.000000 0.000000
# 5 0.000000 0.000000 0.000000 0.000000 0.021703 0.000000
# 6 0.000000 0.000000 0.000000 0.000000 0.000000 0.094298
#
#
# Mechanical properties :
#
#
# Convention : Reuss Voigt Hill
#
# Bulk Modulus (GPa) = 16.50286 54.39595 35.44941
# Shear Modulus (GPa) = 9.52658 24.63914 17.08286
#
# Velocity S-wave (km/s) = 2.22808 3.58324 2.98362
# Velocity P-wave (km/s) = 3.90114 6.74281 5.50838
#
# Compressibility (1/GPa) = 0.06059554
#
# Stress axis : x y z
#
# Youngs Moduli (GPa) = 23.46294 21.49579 23.48631
#
# Poissons Ratio (x) = -0.21589 0.90418
# Poissons Ratio (y) = -0.23565 0.16691
# Poissons Ratio (z) = 0.90328 0.15277
#
# Static dielectric constant tensor:
#      x y z
#    x 1.647450 0.000000 0.000000 
#    y 0.000000 1.710790 0.000000 
#    z 0.000000 0.000000 1.666110 
# 
# From -- ./inp_files/28271.got.cif
#   From: 2010.05.17/outbox.cif.g08.bks.cpg/sg59_15_cif.got.tgz:28271.got - 2010.06.03 14:40:33.
