data_PCOD9449882
_publ_section_title
;
Structure prediction by ZEFSAII (Michael W. Deem and Ramdas Pophale) SiO2 
 PCOD9449882
Probable space group: P M M N
;
_chemical_formula_sum "Si O2"
_cell_formula_units_Z 64
_cell_length_a 19.715149
_cell_length_b 7.369978
_cell_length_c 17.665371
_cell_angle_alpha 90.000000
_cell_angle_beta 90.000000
_cell_angle_gamma 90.000000
_cell_volume 2566.782194
_symmetry_space_group_name_H-M "P M M N"
_symmetry_group_IT_number 59
_space_group.IT_coordinate_system_code '2'
_symmetry_cell_setting 'orthorhombic'
loop_
_space_group_symop_operation_xyz
x,y,z
1/2-x,1/2-y,z
1/2+x,-y,-z
-x,1/2+y,-z
-x,-y,-z
1/2+x,1/2+y,-z
1/2-x,y,z
x,1/2-y,z
loop_
_atom_site_type_symbol
_atom_site_label
_atom_site_fract_x
_atom_site_fract_y
_atom_site_fract_z
Si Si1 0.465798 0.971079 0.774925
Si Si2 0.325205 0.469589 0.991980
Si Si3 0.328101 0.969599 0.253422
Si Si4 0.378826 0.529718 0.418986
Si Si5 0.822563 0.037615 0.185726
Si Si6 0.974982 0.959630 0.392628
Si Si7 0.425796 0.043198 0.115073
Si Si8 0.675243 0.959802 0.421570
O O1 0.467292 0.750000 0.776216
O O2 0.389127 0.039078 0.777032
O O3 0.506607 0.037151 0.848257
O O4 0.496038 0.031913 0.695759
O O5 0.250000 0.527649 0.018811
O O6 0.325990 0.250000 0.994957
O O7 0.385437 0.539117 0.044854
O O8 0.331203 0.524388 0.904793
O O9 0.250000 0.020443 0.241933
O O10 0.332943 0.750000 0.250539
O O11 0.351995 0.027358 0.336936
O O12 0.374193 0.043528 0.186023
O O13 0.379502 0.750000 0.420020
O O14 0.456836 0.466728 0.432130
O O15 0.331807 0.467361 0.487431
O O16 0.750000 0.956517 0.205769
O O17 0.820627 0.250000 0.205325
O O18 0.968207 0.750000 0.414439
O O19 0.898767 0.041039 0.397960
O O20 0.442363 0.250000 0.093331
O O21 0.750000 0.036235 0.399954
O O22 0.675518 0.750000 0.396556
#
# Coordination Sequence:
#
# PCOD9449882 Si02
#       8
#     8   8   8   8   8   8   8   8
#     4  10  21  36  55  80 108 139 179 223 265 316
#     4   9  18  33  52  75 104 138 176 217 264 319
#     4  10  20  33  51  77 108 141 178 216 256 309
#     4  10  20  36  57  80 107 142 180 218 262 314
#     4   9  19  36  55  76 105 140 178 222 270 316
#     4  10  21  38  58  79 108 144 179 219 267 317
#     4  10  20  34  52  76 108 141 176 219 265 315
#     4  10  22  38  56  82 112 140 176 222 269 317
#
# _framework density 24.933944
#
# number of rings (size 3 to 8) (size 9 to 14) (size 15 to 20)
#    0.000    2.250    1.250    1.125    0.000    5.000 
#    0.000    1.250    0.000    0.000    0.000    0.000 
#    0.000    0.000    0.000    0.000    0.000    0.000 
#
# Total GULP energy -357693.575396 kJ/mol
# GULP energy per Si atom -5588.962116 kJ/mol
# Density = 2.487719 g / cm^3
# Si number density = 24.933944 Si / 1000 Ang^3
#
#
#
# Elastic Constant Matrix: (Units=GPa)
#
#
# Indices 1 2 3 4 5 6 
#
# 1 135.0723 8.5778 4.9216 0.0000 0.0000 0.0000
# 2 8.5778 101.8178 -10.5432 0.0000 0.0000 0.0000
# 3 4.9216 -10.5432 43.2994 0.0000 0.0000 0.0000
# 4 0.0000 0.0000 0.0000 -70.9495 0.0000 0.0000
# 5 0.0000 0.0000 0.0000 0.0000 30.3908 0.0000
# 6 0.0000 0.0000 0.0000 0.0000 0.0000 -42.4144
#
#
#
# Elastic Compliance Matrix: (Units=1/GPa)
#
#
# Indices 1 2 3 4 5 6 
#
# 1 0.007488 -0.000738 -0.001031 0.000000 0.000000 0.000000
# 2 -0.000738 0.010148 0.002555 0.000000 0.000000 0.000000
# 3 -0.001031 0.002555 0.023834 0.000000 0.000000 0.000000
# 4 0.000000 0.000000 0.000000 -0.014095 0.000000 0.000000
# 5 0.000000 0.000000 0.000000 0.000000 0.032905 0.000000
# 6 0.000000 0.000000 0.000000 0.000000 0.000000 -0.023577
#
#
# Mechanical properties :
#
#
# Convention : Reuss Voigt Hill
#
# Bulk Modulus (GPa) = 23.23233 31.78912 27.51072
# Shear Modulus (GPa) = 101.05460 1.88758 51.47109
#
# Velocity S-wave (km/s) = 6.37314 0.87102 4.54838
# Velocity P-wave (km/s) = 7.96829 3.71330 6.21620
#
# Compressibility (1/GPa) = 0.04304346
#
# Stress axis : x y z
#
# Youngs Moduli (GPa) = 133.54994 98.54007 41.95641
#
# Poissons Ratio (x) = 0.07268 0.04324
# Poissons Ratio (y) = 0.09850 -0.10719
# Poissons Ratio (z) = 0.13765 -0.25176
#
# Static dielectric constant tensor:
#      x y z
#    x 1.998490 0.000000 0.000000 
#    y 0.000000 1.928730 0.000000 
#    z 0.000000 0.000000 1.920620 
# 
# From -- ./inp_files/28214.got.cif
#   From: 2010.05.17/outbox.cif.g08.bks.cpg/sg59_15_cif.got.tgz:28214.got - 2010.06.03 14:40:33.
