data_PCOD9449939
_publ_section_title
;
Structure prediction by ZEFSAII (Michael W. Deem and Ramdas Pophale) SiO2 
 PCOD9449939
Probable space group: P M M N
;
_chemical_formula_sum "Si O2"
_cell_formula_units_Z 48
_cell_length_a 13.626608
_cell_length_b 22.276254
_cell_length_c 7.640929
_cell_angle_alpha 90.000000
_cell_angle_beta 90.000000
_cell_angle_gamma 90.000000
_cell_volume 2319.402324
_symmetry_space_group_name_H-M "P M M N"
_symmetry_group_IT_number 59
_space_group.IT_coordinate_system_code '2'
_symmetry_cell_setting 'orthorhombic'
loop_
_space_group_symop_operation_xyz
x,y,z
1/2-x,1/2-y,z
1/2+x,-y,-z
-x,1/2+y,-z
-x,-y,-z
1/2+x,1/2+y,-z
1/2-x,y,z
x,1/2-y,z
loop_
_atom_site_type_symbol
_atom_site_label
_atom_site_fract_x
_atom_site_fract_y
_atom_site_fract_z
Si Si1 0.857123 0.899939 0.717483
Si Si2 0.924709 0.082367 0.619742
Si Si3 0.641506 0.400599 0.993166
Si Si4 0.052976 0.520128 0.722448
Si Si5 0.434844 0.319654 0.582739
Si Si6 0.947803 0.680085 0.006812
O O1 0.750000 0.928273 0.724995
O O2 0.867402 0.858606 0.544998
O O3 0.946925 0.946586 0.720721
O O4 0.875658 0.856243 0.881503
O O5 0.857530 0.084789 0.787723
O O6 0.892718 0.045875 0.449122
O O7 0.958564 0.148549 0.562423
O O8 0.023625 0.048469 0.692496
O O9 0.750000 0.381221 0.049793
O O10 0.554827 0.351573 0.014169
O O11 0.608416 0.458876 0.104898
O O12 0.434314 0.250000 0.532540
O O13 0.415176 0.323210 0.790425
O O14 0.953658 0.750000 0.958737
#
# Coordination Sequence:
#
# PCOD9449939 Si02
#       6
#     8   8   8   8   8   8
#     4  10  20  33  52  78 105 136 174 214 260 313
#     4   9  18  35  55  73 101 139 172 211 262 310
#     4  10  20  33  53  79 104 136 177 218 260 307
#     4   9  19  36  54  75 107 139 171 215 263 311
#     4   9  18  33  52  73  98 130 169 212 256 303
#     4   9  19  35  52  73 105 140 173 214 262 310
#
# _framework density 20.694986
#
# number of rings (size 3 to 8) (size 9 to 14) (size 15 to 20)
#    0.000    2.667    0.000    1.000    0.000    3.667 
#    0.000    8.333    0.000    0.000    0.000    9.333 
#    0.000    0.000    0.000    0.000    0.000    0.000 
#
# Total GULP energy -267736.554126 kJ/mol
# GULP energy per Si atom -5577.844878 kJ/mol
# Density = 2.064788 g / cm^3
# Si number density = 20.694986 Si / 1000 Ang^3
#
#
#
# Elastic Constant Matrix: (Units=GPa)
#
#
# Indices 1 2 3 4 5 6 
#
# 1 77.4345 2.7716 28.6024 0.0000 0.0000 0.0000
# 2 2.7716 67.9318 -1.4520 0.0000 0.0000 0.0000
# 3 28.6024 -1.4520 46.7045 0.0000 0.0000 0.0000
# 4 0.0000 0.0000 0.0000 27.4512 0.0000 0.0000
# 5 0.0000 0.0000 0.0000 0.0000 2.3505 0.0000
# 6 0.0000 0.0000 0.0000 0.0000 0.0000 3.1386
#
#
#
# Elastic Compliance Matrix: (Units=1/GPa)
#
#
# Indices 1 2 3 4 5 6 
#
# 1 0.016745 -0.000903 -0.010283 0.000000 0.000000 0.000000
# 2 -0.000903 0.014779 0.001012 0.000000 0.000000 0.000000
# 3 -0.010283 0.001012 0.027740 0.000000 0.000000 0.000000
# 4 0.000000 0.000000 0.000000 0.036428 0.000000 0.000000
# 5 0.000000 0.000000 0.000000 0.000000 0.425440 0.000000
# 6 0.000000 0.000000 0.000000 0.000000 0.000000 0.318609
#
#
# Mechanical properties :
#
#
# Convention : Reuss Voigt Hill
#
# Bulk Modulus (GPa) = 25.69551 27.99053 26.84302
# Shear Modulus (GPa) = 5.72698 17.39798 11.56248
#
# Velocity S-wave (km/s) = 1.66533 2.90260 2.36627
# Velocity P-wave (km/s) = 4.01759 4.97877 4.52378
#
# Compressibility (1/GPa) = 0.03891730
#
# Stress axis : x y z
#
# Youngs Moduli (GPa) = 59.72054 67.66297 36.04905
#
# Poissons Ratio (x) = 0.06110 0.37068
# Poissons Ratio (y) = 0.05393 -0.03650
# Poissons Ratio (z) = 0.61409 -0.06851
#
# Static dielectric constant tensor:
#      x y z
#    x 1.720170 0.000000 0.000000 
#    y 0.000000 1.752460 0.000000 
#    z 0.000000 0.000000 1.770910 
# 
# From -- ./inp_files/7579.got.cif
#   From: 2010.05.17/outbox.cif.g08.bks.cpg/sg59_4_cif.got.tgz:7579.got - 2010.06.03 14:40:33.
