data_PCOD9449590
_publ_section_title
;
Structure prediction by ZEFSAII (Michael W. Deem and Ramdas Pophale) SiO2 
 PCOD9449590
Probable space group: P M M N
;
_chemical_formula_sum "Si O2"
_cell_formula_units_Z 64
_cell_length_a 14.367014
_cell_length_b 7.699155
_cell_length_c 31.739376
_cell_angle_alpha 90.000000
_cell_angle_beta 90.000000
_cell_angle_gamma 90.000000
_cell_volume 3510.815137
_symmetry_space_group_name_H-M "P M M N"
_symmetry_group_IT_number 59
_space_group.IT_coordinate_system_code '2'
_symmetry_cell_setting 'orthorhombic'
loop_
_space_group_symop_operation_xyz
x,y,z
1/2-x,1/2-y,z
1/2+x,-y,-z
-x,1/2+y,-z
-x,-y,-z
1/2+x,1/2+y,-z
1/2-x,y,z
x,1/2-y,z
loop_
_atom_site_type_symbol
_atom_site_label
_atom_site_fract_x
_atom_site_fract_y
_atom_site_fract_z
Si Si1 0.990638 0.044096 0.951186
Si Si2 0.644603 0.542723 0.876745
Si Si3 0.468793 0.041950 0.566809
Si Si4 0.643879 0.961062 0.113020
Si Si5 0.644901 0.040088 0.516388
Si Si6 0.355544 0.957470 0.742907
Si Si7 0.511004 0.049571 0.187006
Si Si8 0.644648 0.539898 0.354433
O O1 0.986974 0.250000 0.948239
O O2 0.083193 0.983773 0.926963
O O3 0.904745 0.981912 0.922197
O O4 0.000000 0.000000 0.000000
O O5 0.750000 0.474124 0.875718
O O6 0.648846 0.750000 0.870589
O O7 0.576348 0.473089 0.839514
O O8 0.477510 0.250000 0.570743
O O9 0.568323 0.975463 0.550062
O O10 0.428078 0.975047 0.610800
O O11 0.395256 0.006685 0.529493
O O12 0.750000 0.012625 0.109502
O O13 0.639516 0.750000 0.116754
O O14 0.594379 0.041557 0.153292
O O15 0.750000 0.976438 0.522316
O O16 0.646518 0.250000 0.518820
O O17 0.250000 0.024888 0.752290
O O18 0.352353 0.750000 0.750433
O O19 0.439856 0.028727 0.771571
O O20 0.373643 0.986812 0.693567
O O21 0.486495 0.250000 0.196598
O O22 0.750000 0.482479 0.365190
O O23 0.644267 0.750000 0.355620
#
# Coordination Sequence:
#
# PCOD9449590 Si02
#       8
#     8   8   8   8   8   8   8   8
#     4  10  20  33  48  68  94 122 152 185 221 262
#     4   9  18  33  52  71  91 119 154 190 228 267
#     4   9  17  29  44  62  86 116 148 183 222 263
#     4   9  18  31  46  65  89 116 143 173 213 258
#     4   9  17  28  43  64  87 112 145 184 225 267
#     4   9  17  28  43  65  91 116 141 174 220 269
#     4   9  17  30  48  69  91 114 143 180 219 261
#     4   9  17  28  42  61  85 114 147 179 213 259
#
# _framework density 18.229385000000001
#
# number of rings (size 3 to 8) (size 9 to 14) (size 15 to 20)
#    0.000    2.875    0.000    1.125    0.000    3.750 
#    0.000    3.750    0.000    0.750    0.000    0.000 
#    0.000    0.000    0.000    0.000    0.000    0.000 
#
# Total GULP energy -356533.590912 kJ/mol
# GULP energy per Si atom -5570.837358 kJ/mol
# Density = 1.818789 g / cm^3
# Si number density = 18.229385 Si / 1000 Ang^3
#
#
#
# Elastic Constant Matrix: (Units=GPa)
#
#
# Indices 1 2 3 4 5 6 
#
# 1 161.7319 5.2150 76.7494 0.0000 0.0000 0.0000
# 2 5.2150 27.1410 -2.1851 0.0000 0.0000 0.0000
# 3 76.7494 -2.1851 108.4229 0.0000 0.0000 0.0000
# 4 0.0000 0.0000 0.0000 19.4391 0.0000 0.0000
# 5 0.0000 0.0000 0.0000 0.0000 13.8441 0.0000
# 6 0.0000 0.0000 0.0000 0.0000 0.0000 13.1786
#
#
#
# Elastic Compliance Matrix: (Units=1/GPa)
#
#
# Indices 1 2 3 4 5 6 
#
# 1 0.009459 -0.002360 -0.006744 0.000000 0.000000 0.000000
# 2 -0.002360 0.037494 0.002427 0.000000 0.000000 0.000000
# 3 -0.006744 0.002427 0.014046 0.000000 0.000000 0.000000
# 4 0.000000 0.000000 0.000000 0.051443 0.000000 0.000000
# 5 0.000000 0.000000 0.000000 0.000000 0.072233 0.000000
# 6 0.000000 0.000000 0.000000 0.000000 0.000000 0.075881
#
#
# Mechanical properties :
#
#
# Convention : Reuss Voigt Hill
#
# Bulk Modulus (GPa) = 20.98923 50.76159 35.87541
# Shear Modulus (GPa) = 17.25382 23.79347 20.52365
#
# Velocity S-wave (km/s) = 3.07984 3.61671 3.35902
# Velocity P-wave (km/s) = 4.91794 6.73404 5.89633
#
# Compressibility (1/GPa) = 0.04764349
#
# Stress axis : x y z
#
# Youngs Moduli (GPa) = 105.71597 26.67127 71.19664
#
# Poissons Ratio (x) = 0.06296 0.48012
# Poissons Ratio (y) = 0.24954 -0.17276
# Poissons Ratio (z) = 0.71290 -0.06472
#
# Static dielectric constant tensor:
#      x y z
#    x 1.626410 0.000000 0.000000 
#    y 0.000000 1.700650 0.000000 
#    z 0.000000 0.000000 1.750180 
# 
# From -- ./inp_files/33338.got.cif
#   From: 2010.05.17/outbox.cif.g08.bks.cpg/sg59_17_cif.got.tgz:33338.got - 2010.06.03 14:40:33.
