data_PCOD9449639
_publ_section_title
;
Structure prediction by ZEFSAII (Michael W. Deem and Ramdas Pophale) SiO2 
 PCOD9449639
Probable space group: P M M N
;
_chemical_formula_sum "Si O2"
_cell_formula_units_Z 64
_cell_length_a 23.685692
_cell_length_b 8.941014
_cell_length_c 19.433743
_cell_angle_alpha 90.000000
_cell_angle_beta 90.000000
_cell_angle_gamma 90.000000
_cell_volume 4115.563507
_symmetry_space_group_name_H-M "P M M N"
_symmetry_group_IT_number 59
_space_group.IT_coordinate_system_code '2'
_symmetry_cell_setting 'orthorhombic'
loop_
_space_group_symop_operation_xyz
x,y,z
1/2-x,1/2-y,z
1/2+x,-y,-z
-x,1/2+y,-z
-x,-y,-z
1/2+x,1/2+y,-z
1/2-x,y,z
x,1/2-y,z
loop_
_atom_site_type_symbol
_atom_site_label
_atom_site_fract_x
_atom_site_fract_y
_atom_site_fract_z
Si Si1 0.482005 0.428169 0.107857
Si Si2 0.815881 0.428739 0.107205
Si Si3 0.912205 0.071663 0.480854
Si Si4 0.315746 0.070100 0.608212
Si Si5 0.474521 0.428520 0.394575
Si Si6 0.868108 0.570780 0.243777
Si Si7 0.501905 0.071287 0.749536
Si Si8 0.586563 0.571966 0.026875
O O1 0.489236 0.250000 0.114672
O O2 0.472011 0.501917 0.181507
O O3 0.433482 0.456496 0.051181
O O4 0.538868 0.498618 0.075584
O O5 0.750000 0.467483 0.101202
O O6 0.821752 0.250000 0.104667
O O7 0.839978 0.488566 0.179620
O O8 0.854060 0.502835 0.048284
O O9 0.909473 0.250000 0.488820
O O10 0.964236 0.037146 0.428770
O O11 0.855638 0.008032 0.447286
O O12 0.928961 0.995771 0.552781
O O13 0.250000 0.031015 0.601291
O O14 0.321362 0.250000 0.601602
O O15 0.338068 0.030430 0.684532
O O16 0.468909 0.250000 0.390401
O O17 0.473076 0.501583 0.319727
O O18 0.862448 0.750000 0.233911
O O19 0.934666 0.536246 0.248504
O O20 0.507814 0.250000 0.749052
O O21 0.586539 0.750000 0.038596
#
# Coordination Sequence:
#
# PCOD9449639 Si02
#       8
#     8   8   8   8   8   8   8   8
#     4  10  20  33  51  73 100 129 164 207 253 301
#     4  11  23  35  49  71 100 135 173 212 251 293
#     4  10  20  33  50  72  98 129 166 210 253 294
#     4  10  20  34  51  70  97 135 174 209 246 290
#     4  10  20  33  51  72  99 132 166 206 253 300
#     4  10  20  33  49  70 100 137 176 209 240 290
#     4  11  20  31  51  77 103 133 168 203 248 301
#     4  10  20  34  51  72  96 130 169 208 251 296
#
# _framework density 15.550725
#
# number of rings (size 3 to 8) (size 9 to 14) (size 15 to 20)
#    0.000    1.750    2.500    2.625    0.000    5.250 
#    0.000    0.000    0.000    0.000    0.000    0.875 
#    0.000    3.000    0.000    0.000    0.000    0.000 
#
# Total GULP energy -357382.665847 kJ/mol
# GULP energy per Si atom -5584.104154 kJ/mol
# Density = 1.551533 g / cm^3
# Si number density = 15.550725 Si / 1000 Ang^3
#
#
#
# Elastic Constant Matrix: (Units=GPa)
#
#
# Indices 1 2 3 4 5 6 
#
# 1 86.0852 44.3734 62.1586 0.0000 0.0000 0.0000
# 2 44.3734 53.9461 63.8039 0.0000 0.0000 0.0000
# 3 62.1586 63.8039 145.0231 0.0000 0.0000 0.0000
# 4 0.0000 0.0000 0.0000 29.4935 0.0000 0.0000
# 5 0.0000 0.0000 0.0000 0.0000 20.1410 0.0000
# 6 0.0000 0.0000 0.0000 0.0000 0.0000 24.2207
#
#
#
# Elastic Compliance Matrix: (Units=1/GPa)
#
#
# Indices 1 2 3 4 5 6 
#
# 1 0.020730 -0.013641 -0.002884 0.000000 0.000000 0.000000
# 2 -0.013641 0.047623 -0.015105 0.000000 0.000000 0.000000
# 3 -0.002884 -0.015105 0.014777 0.000000 0.000000 0.000000
# 4 0.000000 0.000000 0.000000 0.033906 0.000000 0.000000
# 5 0.000000 0.000000 0.000000 0.000000 0.049650 0.000000
# 6 0.000000 0.000000 0.000000 0.000000 0.000000 0.041287
#
#
# Mechanical properties :
#
#
# Convention : Reuss Voigt Hill
#
# Bulk Modulus (GPa) = 50.32655 69.52511 59.92583
# Shear Modulus (GPa) = 17.99496 22.41896 20.20696
#
# Velocity S-wave (km/s) = 3.40542 3.80105 3.60866
# Velocity P-wave (km/s) = 6.92067 8.00435 7.48215
#
# Compressibility (1/GPa) = 0.01987023
#
# Stress axis : x y z
#
# Youngs Moduli (GPa) = 48.23972 20.99833 67.67165
#
# Poissons Ratio (x) = 0.28643 0.19515
# Poissons Ratio (y) = 0.65802 1.02221
# Poissons Ratio (z) = 0.13911 0.31719
#
# Static dielectric constant tensor:
#      x y z
#    x 1.496880 0.000000 0.000000 
#    y 0.000000 1.515900 0.000000 
#    z 0.000000 0.000000 1.506190 
# 
# From -- ./inp_files/24743.got.cif
#   From: 2010.05.17/outbox.cif.g08.bks.cpg/sg59_13_cif.got.tgz:24743.got - 2010.06.03 14:40:33.
