data_PCOD9449506
_publ_section_title
;
Structure prediction by ZEFSAII (Michael W. Deem and Ramdas Pophale) SiO2 
 PCOD9449506
Probable space group: P M M N
;
_chemical_formula_sum "Si O2"
_cell_formula_units_Z 64
_cell_length_a 9.127220
_cell_length_b 17.867637
_cell_length_c 23.484387
_cell_angle_alpha 90.000000
_cell_angle_beta 90.000000
_cell_angle_gamma 90.000000
_cell_volume 3829.877367
_symmetry_space_group_name_H-M "P M M N"
_symmetry_group_IT_number 59
_space_group.IT_coordinate_system_code '2'
_symmetry_cell_setting 'orthorhombic'
loop_
_space_group_symop_operation_xyz
x,y,z
1/2-x,1/2-y,z
1/2+x,-y,-z
-x,1/2+y,-z
-x,-y,-z
1/2+x,1/2+y,-z
1/2-x,y,z
x,1/2-y,z
loop_
_atom_site_type_symbol
_atom_site_label
_atom_site_fract_x
_atom_site_fract_y
_atom_site_fract_z
Si Si1 0.074565 0.447974 0.137023
Si Si2 0.922432 0.403126 0.934567
Si Si3 0.576738 0.335074 0.814922
Si Si4 0.424320 0.430090 0.468676
Si Si5 0.424355 0.522993 0.361086
Si Si6 0.426464 0.164372 0.043005
Si Si7 0.574163 0.335827 0.558303
Si Si8 0.075798 0.024280 0.759610
O O1 0.250000 0.448619 0.147497
O O2 0.043891 0.516480 0.093326
O O3 0.032285 0.373820 0.102786
O O4 0.991744 0.465618 0.195228
O O5 0.750000 0.401515 0.948283
O O6 0.949520 0.345926 0.882394
O O7 0.011930 0.382120 0.990035
O O8 0.750000 0.351829 0.805823
O O9 0.548629 0.250000 0.797867
O O10 0.481372 0.395140 0.781728
O O11 0.500000 0.500000 0.500000
O O12 0.250000 0.430090 0.478523
O O13 0.448114 0.451914 0.402849
O O14 0.496118 0.358783 0.499141
O O15 0.250000 0.528087 0.349415
O O16 0.464981 0.600022 0.395112
O O17 0.512700 0.514280 0.303369
O O18 0.250000 0.162555 0.040208
O O19 0.476253 0.250000 0.038932
O O20 0.750000 0.341251 0.550851
O O21 0.539189 0.250000 0.574615
O O22 0.250000 0.020993 0.760376
#
# Coordination Sequence:
#
# PCOD9449506 Si02
#       8
#     8   8   8   8   8   8   8   8
#     4   9  19  36  52  66  93 131 165 196 238 298
#     4   9  17  30  49  71  94 124 159 191 231 291
#     4   9  18  33  50  67  94 133 167 193 233 293
#     4   9  17  30  50  74  99 130 166 201 237 279
#     4   9  18  33  51  71  98 134 171 200 234 287
#     4  10  20  32  49  74  98 120 151 197 251 298
#     4   9  18  32  51  77 108 138 164 193 235 286
#     4  11  22  33  49  73  96 122 164 212 249 279
#
# _framework density 16.710719000000001
#
# number of rings (size 3 to 8) (size 9 to 14) (size 15 to 20)
#    0.000    2.625    0.000    3.750    0.000    6.750 
#    0.000    1.250    0.000    0.750    0.000    1.750 
#    0.000    0.000    0.000    0.000    0.000    0.000 
#
# Total GULP energy -356677.060686 kJ/mol
# GULP energy per Si atom -5573.079073 kJ/mol
# Density = 1.667268 g / cm^3
# Si number density = 16.710719 Si / 1000 Ang^3
#
#
#
# Elastic Constant Matrix: (Units=GPa)
#
#
# Indices 1 2 3 4 5 6 
#
# 1 47.5081 20.4561 59.2996 0.0000 0.0000 0.0000
# 2 20.4561 29.3881 33.9386 0.0000 0.0000 0.0000
# 3 59.2996 33.9386 118.2138 0.0000 0.0000 0.0000
# 4 0.0000 0.0000 0.0000 7.3001 0.0000 0.0000
# 5 0.0000 0.0000 0.0000 0.0000 30.1585 0.0000
# 6 0.0000 0.0000 0.0000 0.0000 0.0000 17.8873
#
#
#
# Elastic Compliance Matrix: (Units=1/GPa)
#
#
# Indices 1 2 3 4 5 6 
#
# 1 0.058267 -0.010178 -0.026307 0.000000 0.000000 0.000000
# 2 -0.010178 0.052683 -0.010019 0.000000 0.000000 0.000000
# 3 -0.026307 -0.010019 0.024532 0.000000 0.000000 0.000000
# 4 0.000000 0.000000 0.000000 0.136985 0.000000 0.000000
# 5 0.000000 0.000000 0.000000 0.000000 0.033158 0.000000
# 6 0.000000 0.000000 0.000000 0.000000 0.000000 0.055906
#
#
# Mechanical properties :
#
#
# Convention : Reuss Voigt Hill
#
# Bulk Modulus (GPa) = 23.54378 46.94430 35.24404
# Shear Modulus (GPa) = 10.66788 16.49688 13.58238
#
# Velocity S-wave (km/s) = 2.52937 3.14539 2.85405
# Velocity P-wave (km/s) = 4.75919 6.42998 5.65661
#
# Compressibility (1/GPa) = 0.04247407
#
# Stress axis : x y z
#
# Youngs Moduli (GPa) = 17.16226 18.98159 40.76312
#
# Poissons Ratio (x) = 0.19319 1.07234
# Poissons Ratio (y) = 0.17468 0.40842
# Poissons Ratio (z) = 0.45148 0.19018
#
# Static dielectric constant tensor:
#      x y z
#    x 1.554500 0.000000 0.000000 
#    y 0.000000 1.582220 0.000000 
#    z 0.000000 0.000000 1.560520 
# 
# From -- ./inp_files/29434.got.cif
#   From: 2010.05.17/outbox.cif.g08.bks.cpg/sg59_15_cif.got.tgz:29434.got - 2010.06.03 14:40:33.
