data_PCOD9449607
_publ_section_title
;
Structure prediction by ZEFSAII (Michael W. Deem and Ramdas Pophale) SiO2 
 PCOD9449607
Probable space group: P M M N
;
_chemical_formula_sum "Si O2"
_cell_formula_units_Z 64
_cell_length_a 19.091782
_cell_length_b 22.877950
_cell_length_c 9.465101
_cell_angle_alpha 90.000000
_cell_angle_beta 90.000000
_cell_angle_gamma 90.000000
_cell_volume 4134.174709
_symmetry_space_group_name_H-M "P M M N"
_symmetry_group_IT_number 59
_space_group.IT_coordinate_system_code '2'
_symmetry_cell_setting 'orthorhombic'
loop_
_space_group_symop_operation_xyz
x,y,z
1/2-x,1/2-y,z
1/2+x,-y,-z
-x,1/2+y,-z
-x,-y,-z
1/2+x,1/2+y,-z
1/2-x,y,z
x,1/2-y,z
loop_
_atom_site_type_symbol
_atom_site_label
_atom_site_fract_x
_atom_site_fract_y
_atom_site_fract_z
Si Si1 0.526258 0.044930 0.791886
Si Si2 0.426911 0.182320 0.181925
Si Si3 0.384891 0.085710 0.686972
Si Si4 0.169995 0.522547 0.868782
Si Si5 0.330774 0.384390 0.378504
Si Si6 0.668124 0.819036 0.095597
Si Si7 0.328900 0.502787 0.200564
Si Si8 0.529671 0.080944 0.114355
O O1 0.468219 0.073508 0.692181
O O2 0.607263 0.043143 0.746926
O O3 0.505919 0.976983 0.818786
O O4 0.519761 0.075356 0.945274
O O5 0.447292 0.250000 0.182655
O O6 0.381045 0.165172 0.317500
O O7 0.491941 0.138436 0.169052
O O8 0.376169 0.171875 0.046924
O O9 0.356034 0.094364 0.530957
O O10 0.364008 0.141255 0.781831
O O11 0.349768 0.029839 0.763713
O O12 0.250000 0.540843 0.848249
O O13 0.111971 0.572951 0.854594
O O14 0.162737 0.499017 0.030393
O O15 0.250000 0.365272 0.384885
O O16 0.334974 0.439552 0.271938
O O17 0.750000 0.834688 0.073765
O O18 0.664937 0.750000 0.130015
O O19 0.250000 0.524701 0.228803
#
# Coordination Sequence:
#
# PCOD9449607 Si02
#       8
#     8   8   8   8   8   8   8   8
#     4   9  16  30  51  72  97 123 156 200 245 290
#     4  11  21  35  51  67  91 128 171 204 234 278
#     4  11  20  31  49  71 101 129 159 199 242 282
#     4   9  17  30  52  74  96 126 155 193 243 298
#     4  11  22  32  44  68 101 130 162 198 236 280
#     4  10  20  33  49  67  89 123 167 201 231 280
#     4   9  17  30  48  70  99 130 158 190 234 292
#     4   9  16  30  50  75  94 118 160 203 242 284
#
# _framework density 15.48072
#
# number of rings (size 3 to 8) (size 9 to 14) (size 15 to 20)
#    0.000    2.125    2.500    3.000    0.000    2.750 
#    0.000    0.000    0.000    0.375    0.000    0.000 
#    0.000    0.500    0.000    0.000    0.000    0.000 
#
# Total GULP energy -356927.323051 kJ/mol
# GULP energy per Si atom -5576.989423 kJ/mol
# Density = 1.544548 g / cm^3
# Si number density = 15.480720 Si / 1000 Ang^3
#
#
#
# Elastic Constant Matrix: (Units=GPa)
#
#
# Indices 1 2 3 4 5 6 
#
# 1 125.1412 48.6238 32.4900 0.0000 0.0000 0.0000
# 2 48.6238 69.3290 35.6590 0.0000 0.0000 0.0000
# 3 32.4900 35.6590 46.5356 0.0000 0.0000 0.0000
# 4 0.0000 0.0000 0.0000 5.1351 0.0000 0.0000
# 5 0.0000 0.0000 0.0000 0.0000 19.8168 0.0000
# 6 0.0000 0.0000 0.0000 0.0000 0.0000 19.8609
#
#
#
# Elastic Compliance Matrix: (Units=1/GPa)
#
#
# Indices 1 2 3 4 5 6 
#
# 1 0.011229 -0.006343 -0.002979 0.000000 0.000000 0.000000
# 2 -0.006343 0.027390 -0.016560 0.000000 0.000000 0.000000
# 3 -0.002979 -0.016560 0.036258 0.000000 0.000000 0.000000
# 4 0.000000 0.000000 0.000000 0.194739 0.000000 0.000000
# 5 0.000000 0.000000 0.000000 0.000000 0.050462 0.000000
# 6 0.000000 0.000000 0.000000 0.000000 0.000000 0.050350
#
#
# Mechanical properties :
#
#
# Convention : Reuss Voigt Hill
#
# Bulk Modulus (GPa) = 43.26532 52.72793 47.99663
# Shear Modulus (GPa) = 11.63067 17.24477 14.43772
#
# Velocity S-wave (km/s) = 2.74396 3.34121 3.05721
# Velocity P-wave (km/s) = 6.16828 7.00138 6.59799
#
# Compressibility (1/GPa) = 0.02311320
#
# Stress axis : x y z
#
# Youngs Moduli (GPa) = 89.05430 36.50953 27.57990
#
# Poissons Ratio (x) = 0.23158 0.08217
# Poissons Ratio (y) = 0.56488 0.45672
# Poissons Ratio (z) = 0.26532 0.60459
#
# Static dielectric constant tensor:
#      x y z
#    x 1.552250 0.000000 0.000000 
#    y 0.000000 1.487100 0.000000 
#    z 0.000000 0.000000 1.517360 
# 
# From -- ./inp_files/11630.got.cif
#   From: 2010.05.17/outbox.cif.g08.bks.cpg/sg59_6_cif.got.tgz:11630.got - 2010.06.03 14:40:33.
