data_PCOD9449640
_publ_section_title
;
Structure prediction by ZEFSAII (Michael W. Deem and Ramdas Pophale) SiO2 
 PCOD9449640
Probable space group: P M M N
;
_chemical_formula_sum "Si O2"
_cell_formula_units_Z 64
_cell_length_a 8.977402
_cell_length_b 19.250612
_cell_length_c 22.405437
_cell_angle_alpha 90.000000
_cell_angle_beta 90.000000
_cell_angle_gamma 90.000000
_cell_volume 3872.118437
_symmetry_space_group_name_H-M "P M M N"
_symmetry_group_IT_number 59
_space_group.IT_coordinate_system_code '2'
_symmetry_cell_setting 'orthorhombic'
loop_
_space_group_symop_operation_xyz
x,y,z
1/2-x,1/2-y,z
1/2+x,-y,-z
-x,1/2+y,-z
-x,-y,-z
1/2+x,1/2+y,-z
1/2-x,y,z
x,1/2-y,z
loop_
_atom_site_type_symbol
_atom_site_label
_atom_site_fract_x
_atom_site_fract_y
_atom_site_fract_z
Si Si1 0.420028 0.108590 0.978196
Si Si2 0.074078 0.669482 0.512178
Si Si3 0.927317 0.044841 0.677925
Si Si4 0.929477 0.962918 0.197456
Si Si5 0.576070 0.831122 0.382395
Si Si6 0.071745 0.829697 0.134345
Si Si7 0.571954 0.961260 0.556914
Si Si8 0.579093 0.043897 0.084195
O O1 0.250000 0.133415 0.979088
O O2 0.517765 0.154562 0.933328
O O3 0.419932 0.031193 0.949059
O O4 0.484841 0.096449 0.044101
O O5 0.250000 0.654424 0.506786
O O6 0.056134 0.750000 0.529362
O O7 0.997602 0.660328 0.447527
O O8 0.995574 0.615729 0.555897
O O9 0.750000 0.044744 0.686426
O O10 0.009307 0.020552 0.737376
O O11 0.986871 0.121613 0.663236
O O12 0.962432 0.000377 0.618596
O O13 0.750000 0.958459 0.196393
O O14 0.994954 0.888972 0.174825
O O15 0.975061 0.022382 0.149864
O O16 0.750000 0.851381 0.384685
O O17 0.567334 0.750000 0.366959
O O18 0.250000 0.837588 0.138088
O O19 0.033191 0.750000 0.150394
O O20 0.750000 0.959992 0.549490
O O21 0.500000 0.000000 0.500000
O O22 0.750000 0.067934 0.086990
#
# Coordination Sequence:
#
# PCOD9449640 Si02
#       8
#     8   8   8   8   8   8   8   8
#     4   9  16  26  45  71  95 123 158 198 241 281
#     4  10  20  34  53  77 103 130 162 204 257 315
#     4  11  23  36  51  73 101 135 174 216 264 316
#     4  10  21  35  51  70  95 131 171 210 250 297
#     4  10  20  33  50  71  96 130 170 210 253 305
#     4  10  20  33  49  70 100 138 174 208 246 288
#     4  11  22  35  54  78 104 135 170 215 269 319
#     4   8  15  28  45  67  93 120 154 196 243 288
#
# _framework density 16.528419
#
# number of rings (size 3 to 8) (size 9 to 14) (size 15 to 20)
#    0.000    2.125    1.250    3.375    0.000    8.000 
#    0.000    0.000    0.000    0.000    0.000    0.875 
#    0.000    5.000    0.000    0.000    0.000    0.000 
#
# Total GULP energy -356968.652619 kJ/mol
# GULP energy per Si atom -5577.635197 kJ/mol
# Density = 1.649080 g / cm^3
# Si number density = 16.528419 Si / 1000 Ang^3
#
#
#
# Elastic Constant Matrix: (Units=GPa)
#
#
# Indices 1 2 3 4 5 6 
#
# 1 62.1536 19.4506 43.6114 0.0000 0.0000 0.0000
# 2 19.4506 27.5364 25.5246 0.0000 0.0000 0.0000
# 3 43.6114 25.5246 104.5890 0.0000 0.0000 0.0000
# 4 0.0000 0.0000 0.0000 16.3317 0.0000 0.0000
# 5 0.0000 0.0000 0.0000 0.0000 28.8225 0.0000
# 6 0.0000 0.0000 0.0000 0.0000 0.0000 23.6227
#
#
#
# Elastic Compliance Matrix: (Units=1/GPa)
#
#
# Indices 1 2 3 4 5 6 
#
# 1 0.024797 -0.010250 -0.007838 0.000000 0.000000 0.000000
# 2 -0.010250 0.051169 -0.008214 0.000000 0.000000 0.000000
# 3 -0.007838 -0.008214 0.014834 0.000000 0.000000 0.000000
# 4 0.000000 0.000000 0.000000 0.061231 0.000000 0.000000
# 5 0.000000 0.000000 0.000000 0.000000 0.034695 0.000000
# 6 0.000000 0.000000 0.000000 0.000000 0.000000 0.042332
#
#
# Mechanical properties :
#
#
# Convention : Reuss Voigt Hill
#
# Bulk Modulus (GPa) = 26.18038 41.27248 33.72643
# Shear Modulus (GPa) = 16.98405 20.80154 18.89280
#
# Velocity S-wave (km/s) = 3.20905 3.55143 3.38457
# Velocity P-wave (km/s) = 5.44101 6.46851 5.97689
#
# Compressibility (1/GPa) = 0.03819654
#
# Stress axis : x y z
#
# Youngs Moduli (GPa) = 40.32799 19.54297 67.41195
#
# Poissons Ratio (x) = 0.20031 0.52839
# Poissons Ratio (y) = 0.41335 0.55371
# Poissons Ratio (z) = 0.31610 0.16052
#
# Static dielectric constant tensor:
#      x y z
#    x 1.555980 0.000000 0.000000 
#    y 0.000000 1.560190 0.000000 
#    z 0.000000 0.000000 1.563790 
# 
# From -- ./inp_files/29677.got.cif
#   From: 2010.05.17/outbox.cif.g08.bks.cpg/sg59_15_cif.got.tgz:29677.got - 2010.06.03 14:40:33.
