data_PCOD9449168
_publ_section_title
;
Structure prediction by ZEFSAII (Michael W. Deem and Ramdas Pophale) SiO2 
 PCOD9449168
Probable space group: P M M N
;
_chemical_formula_sum "Si O2"
_cell_formula_units_Z 56
_cell_length_a 13.603627
_cell_length_b 16.978273
_cell_length_c 12.489337
_cell_angle_alpha 90.000000
_cell_angle_beta 90.000000
_cell_angle_gamma 90.000000
_cell_volume 2884.613371
_symmetry_space_group_name_H-M "P M M N"
_symmetry_group_IT_number 59
_space_group.IT_coordinate_system_code '2'
_symmetry_cell_setting 'orthorhombic'
loop_
_space_group_symop_operation_xyz
x,y,z
1/2-x,1/2-y,z
1/2+x,-y,-z
-x,1/2+y,-z
-x,-y,-z
1/2+x,1/2+y,-z
1/2-x,y,z
x,1/2-y,z
loop_
_atom_site_type_symbol
_atom_site_label
_atom_site_fract_x
_atom_site_fract_y
_atom_site_fract_z
Si Si1 0.863979 0.973130 0.206030
Si Si2 0.358210 0.610387 0.116380
Si Si3 0.066889 0.158516 0.957982
Si Si4 0.866544 0.658602 0.632908
Si Si5 0.854933 0.340212 0.642159
Si Si6 0.547473 0.928654 0.434334
Si Si7 0.058987 0.437824 0.166569
O O1 0.750000 0.995730 0.196187
O O2 0.884594 0.895056 0.134591
O O3 0.892454 0.955434 0.329510
O O4 0.943995 0.036728 0.164378
O O5 0.250000 0.615173 0.066205
O O6 0.449304 0.646307 0.053380
O O7 0.355405 0.654889 0.229653
O O8 0.383786 0.519779 0.146043
O O9 0.092708 0.250000 0.949069
O O10 0.090578 0.121280 0.072894
O O11 0.750000 0.655623 0.651307
O O12 0.898583 0.750000 0.642106
O O13 0.890571 0.624487 0.515884
O O14 0.917125 0.602592 0.720757
O O15 0.750000 0.376461 0.606253
O O16 0.856654 0.250000 0.607498
O O17 0.952327 0.381580 0.604640
O O18 0.500000 0.000000 0.500000
#
# Coordination Sequence:
#
# PCOD9449168 Si02
#       7
#     8   8   8   8   8   8   8
#     4  11  24  42  65  93 126 165 212 263 316 372
#     4  10  19  35  62  90 117 151 199 251 302 365
#     4  11  24  40  62  92 126 163 204 256 317 373
#     4  11  24  41  63  92 126 165 209 257 314 378
#     4  10  20  35  60  92 123 156 197 250 311 369
#     4  12  22  41  64  92 127 166 209 263 310 372
#     4  11  22  42  63  88 125 168 210 256 305 372
#
# _framework density 19.413346000000001
#
# number of rings (size 3 to 8) (size 9 to 14) (size 15 to 20)
#    0.000    1.143    4.286    3.857    0.000    6.857 
#    0.000    0.000    0.000    1.286    0.000    0.000 
#    0.000    0.000    0.000    0.000    0.000    0.000 
#
# Total GULP energy -312792.326161 kJ/mol
# GULP energy per Si atom -5585.577253 kJ/mol
# Density = 1.936916 g / cm^3
# Si number density = 19.413346 Si / 1000 Ang^3
#
#
#
# Elastic Constant Matrix: (Units=GPa)
#
#
# Indices 1 2 3 4 5 6 
#
# 1 78.8488 -1.3560 -8.1369 0.0000 0.0000 0.0000
# 2 -1.3560 70.9733 12.1387 0.0000 0.0000 0.0000
# 3 -8.1369 12.1387 78.5902 0.0000 0.0000 0.0000
# 4 0.0000 0.0000 0.0000 57.6389 0.0000 0.0000
# 5 0.0000 0.0000 0.0000 0.0000 -5.2896 0.0000
# 6 0.0000 0.0000 0.0000 0.0000 0.0000 11.0122
#
#
#
# Elastic Compliance Matrix: (Units=1/GPa)
#
#
# Indices 1 2 3 4 5 6 
#
# 1 0.012819 0.000018 0.001324 0.000000 0.000000 0.000000
# 2 0.000018 0.014472 -0.002233 0.000000 0.000000 0.000000
# 3 0.001324 -0.002233 0.013206 0.000000 0.000000 0.000000
# 4 0.000000 0.000000 0.000000 0.017349 0.000000 0.000000
# 5 0.000000 0.000000 0.000000 0.000000 -0.189051 0.000000
# 6 0.000000 0.000000 0.000000 0.000000 0.000000 0.090808
#
#
# Mechanical properties :
#
#
# Convention : Reuss Voigt Hill
#
# Bulk Modulus (GPa) = 25.82855 25.96710 25.89782
# Shear Modulus (GPa) = -194.48773 27.72340 -83.38216
#
# Velocity S-wave (km/s) = -10.01998 3.78307 -6.56081
# Velocity P-wave (km/s) = 10.97876 5.69974 6.63499
#
# Compressibility (1/GPa) = 0.03871684
#
# Stress axis : x y z
#
# Youngs Moduli (GPa) = 78.00617 69.09823 75.72128
#
# Poissons Ratio (x) = -0.00127 -0.10029
# Poissons Ratio (y) = -0.00144 0.16912
# Poissons Ratio (z) = -0.10331 0.15432
#
# Static dielectric constant tensor:
#      x y z
#    x 1.699080 0.000000 0.000000 
#    y 0.000000 1.650290 0.000000 
#    z 0.000000 0.000000 1.680120 
# 
# From -- ./inp_files/16989.got.cif
#   From: 2010.05.17/outbox.cif.g08.bks.cpg/sg59_9_cif.got.tgz:16989.got - 2010.06.03 14:40:33.
