data_PCOD9449560
_publ_section_title
;
Structure prediction by ZEFSAII (Michael W. Deem and Ramdas Pophale) SiO2 
 PCOD9449560
Probable space group: P M M N
;
_chemical_formula_sum "Si O2"
_cell_formula_units_Z 64
_cell_length_a 10.591067
_cell_length_b 27.105314
_cell_length_c 12.903596
_cell_angle_alpha 90.000000
_cell_angle_beta 90.000000
_cell_angle_gamma 90.000000
_cell_volume 3704.289455
_symmetry_space_group_name_H-M "P M M N"
_symmetry_group_IT_number 59
_space_group.IT_coordinate_system_code '2'
_symmetry_cell_setting 'orthorhombic'
loop_
_space_group_symop_operation_xyz
x,y,z
1/2-x,1/2-y,z
1/2+x,-y,-z
-x,1/2+y,-z
-x,-y,-z
1/2+x,1/2+y,-z
1/2-x,y,z
x,1/2-y,z
loop_
_atom_site_type_symbol
_atom_site_label
_atom_site_fract_x
_atom_site_fract_y
_atom_site_fract_z
Si Si1 0.997022 0.551449 0.255888
Si Si2 0.400223 0.906257 0.470704
Si Si3 0.896611 0.373463 0.120789
Si Si4 0.608705 0.655265 0.209882
Si Si5 0.398397 0.693044 0.367093
Si Si6 0.892319 0.691083 0.973873
Si Si7 0.901443 0.443421 0.309387
Si Si8 0.109955 0.963681 0.037983
O O1 0.905000 0.596331 0.224252
O O2 0.939339 0.497572 0.271817
O O3 0.053066 0.567579 0.366377
O O4 0.092717 0.547446 0.159501
O O5 0.250000 0.912188 0.473948
O O6 0.425041 0.847838 0.455231
O O7 0.452467 0.929219 0.576846
O O8 0.750000 0.357093 0.130781
O O9 0.936468 0.402887 0.223891
O O10 0.996304 0.331492 0.094224
O O11 0.900062 0.413593 0.027980
O O12 0.750000 0.670613 0.243975
O O13 0.496384 0.680185 0.275616
O O14 0.595035 0.670067 0.090335
O O15 0.250000 0.686311 0.335767
O O16 0.413266 0.750000 0.398387
O O17 0.750000 0.677890 0.937495
O O18 0.901000 0.750000 0.978383
O O19 0.750000 0.442574 0.313828
O O20 0.250000 0.984723 0.018177
O O21 0.000000 0.000000 0.000000
#
# Coordination Sequence:
#
# PCOD9449560 Si02
#       8
#     8   8   8   8   8   8   8   8
#     4  11  19  33  54  80 111 146 181 219 270 330
#     4   9  19  34  52  76 107 140 181 228 272 316
#     4  10  21  37  55  79 108 141 181 225 268 315
#     4  10  20  32  52  81 111 142 175 216 269 333
#     4   9  18  33  53  76 103 138 179 223 272 322
#     4  10  21  37  55  78 109 144 180 222 275 332
#     4  10  20  35  53  76 108 145 183 227 267 315
#     4  11  22  35  54  82 115 147 183 223 267 320
#
# _framework density 17.277267999999999
#
# number of rings (size 3 to 8) (size 9 to 14) (size 15 to 20)
#    0.000    2.000    2.500    1.500    0.000    3.000 
#    0.000    0.625    0.000    6.750    0.000    0.000 
#    0.000    0.000    0.000    0.000    0.000    0.000 
#
# Total GULP energy -356745.177566 kJ/mol
# GULP energy per Si atom -5574.143399 kJ/mol
# Density = 1.723794 g / cm^3
# Si number density = 17.277268 Si / 1000 Ang^3
#
#
#
# Elastic Constant Matrix: (Units=GPa)
#
#
# Indices 1 2 3 4 5 6 
#
# 1 75.0372 45.0298 31.4883 0.0000 0.0000 0.0000
# 2 45.0298 79.1490 38.7313 0.0000 0.0000 0.0000
# 3 31.4883 38.7313 101.9556 0.0000 0.0000 0.0000
# 4 0.0000 0.0000 0.0000 11.7066 0.0000 0.0000
# 5 0.0000 0.0000 0.0000 0.0000 16.3940 0.0000
# 6 0.0000 0.0000 0.0000 0.0000 0.0000 25.2261
#
#
#
# Elastic Compliance Matrix: (Units=1/GPa)
#
#
# Indices 1 2 3 4 5 6 
#
# 1 0.020686 -0.010616 -0.002356 0.000000 0.000000 0.000000
# 2 -0.010616 0.020967 -0.004687 0.000000 0.000000 0.000000
# 3 -0.002356 -0.004687 0.012316 0.000000 0.000000 0.000000
# 4 0.000000 0.000000 0.000000 0.085422 0.000000 0.000000
# 5 0.000000 0.000000 0.000000 0.000000 0.060998 0.000000
# 6 0.000000 0.000000 0.000000 0.000000 0.000000 0.039641
#
#
# Mechanical properties :
#
#
# Convention : Reuss Voigt Hill
#
# Bulk Modulus (GPa) = 53.61121 54.07116 53.84118
# Shear Modulus (GPa) = 17.75790 20.05818 18.90804
#
# Velocity S-wave (km/s) = 3.20944 3.41098 3.31174
# Velocity P-wave (km/s) = 6.69562 6.84669 6.77157
#
# Compressibility (1/GPa) = 0.01865282
#
# Stress axis : x y z
#
# Youngs Moduli (GPa) = 48.34209 47.69325 81.19434
#
# Poissons Ratio (x) = 0.50630 0.19129
# Poissons Ratio (y) = 0.51319 0.38052
# Poissons Ratio (z) = 0.11389 0.22352
#
# Static dielectric constant tensor:
#      x y z
#    x 1.594420 0.000000 0.000000 
#    y 0.000000 1.582840 0.000000 
#    z 0.000000 0.000000 1.587360 
# 
# From -- ./inp_files/16257.got.cif
#   From: 2010.05.17/outbox.cif.g08.bks.cpg/sg59_9_cif.got.tgz:16257.got - 2010.06.03 14:40:33.
