data_PCOD9449693
_publ_section_title
;
Structure prediction by ZEFSAII (Michael W. Deem and Ramdas Pophale) SiO2 
 PCOD9449693
Probable space group: P M M N
;
_chemical_formula_sum "Si O2"
_cell_formula_units_Z 48
_cell_length_a 9.617719
_cell_length_b 7.566235
_cell_length_c 32.702367
_cell_angle_alpha 90.000000
_cell_angle_beta 90.000000
_cell_angle_gamma 90.000000
_cell_volume 2379.748700
_symmetry_space_group_name_H-M "P M M N"
_symmetry_group_IT_number 59
_space_group.IT_coordinate_system_code '2'
_symmetry_cell_setting 'orthorhombic'
loop_
_space_group_symop_operation_xyz
x,y,z
1/2-x,1/2-y,z
1/2+x,-y,-z
-x,1/2+y,-z
-x,-y,-z
1/2+x,1/2+y,-z
1/2-x,y,z
x,1/2-y,z
loop_
_atom_site_type_symbol
_atom_site_label
_atom_site_fract_x
_atom_site_fract_y
_atom_site_fract_z
Si Si1 0.908142 0.039410 0.295177
Si Si2 0.908490 0.462259 0.960100
Si Si3 0.587577 0.534071 0.116690
Si Si4 0.588415 0.965784 0.629163
Si Si5 0.089493 0.037857 0.793631
Si Si6 0.092617 0.038384 0.460920
O O1 0.750000 0.967639 0.295395
O O2 0.898419 0.250000 0.300388
O O3 0.997258 0.969594 0.332987
O O4 0.973013 0.011363 0.250128
O O5 0.750000 0.528966 0.963469
O O6 0.900486 0.250000 0.956364
O O7 0.990666 0.528275 0.920084
O O8 0.000000 0.500000 0.000000
O O9 0.750000 0.481850 0.111618
O O10 0.587475 0.750000 0.115940
O O11 0.536041 0.478899 0.161977
O O12 0.750000 0.015903 0.633462
O O13 0.584451 0.750000 0.630050
O O14 0.540500 0.022841 0.583762
O O15 0.250000 0.974708 0.792216
O O16 0.091324 0.250000 0.794749
O O17 0.250000 0.971130 0.466600
O O18 0.100532 0.250000 0.457963
O O19 0.000000 0.000000 0.500000
#
# Coordination Sequence:
#
# PCOD9449693 Si02
#       6
#     8   8   8   8   8   8
#     4   9  16  26  43  67  89 110 144 187 221 253
#     4  10  20  33  50  72  96 123 156 193 233 276
#     4   8  14  27  47  66  86 118 155 185 219 269
#     4   8  15  29  46  62  85 118 149 176 214 268
#     4   8  14  26  44  64  87 117 149 179 217 264
#     4   9  18  32  49  69  92 119 153 191 231 276
#
# _framework density 20.170196000000001
#
# number of rings (size 3 to 8) (size 9 to 14) (size 15 to 20)
#    0.000    3.333    0.000    2.500    0.000    2.000 
#    0.000    4.167    0.000    7.500    0.000    0.000 
#    0.000    0.000    0.000    0.000    0.000    0.000 
#
# Total GULP energy -267396.361998 kJ/mol
# GULP energy per Si atom -5570.757542 kJ/mol
# Density = 2.012429 g / cm^3
# Si number density = 20.170196 Si / 1000 Ang^3
#
#
#
# Elastic Constant Matrix: (Units=GPa)
#
#
# Indices 1 2 3 4 5 6 
#
# 1 92.1458 4.2854 109.1076 0.0000 0.0000 0.0000
# 2 4.2854 43.3969 4.6081 0.0000 0.0000 0.0000
# 3 109.1076 4.6081 258.8689 0.0000 0.0000 0.0000
# 4 0.0000 0.0000 0.0000 23.8037 0.0000 0.0000
# 5 0.0000 0.0000 0.0000 0.0000 37.3235 0.0000
# 6 0.0000 0.0000 0.0000 0.0000 0.0000 8.5351
#
#
#
# Elastic Compliance Matrix: (Units=1/GPa)
#
#
# Indices 1 2 3 4 5 6 
#
# 1 0.021724 -0.001175 -0.009135 0.000000 0.000000 0.000000
# 2 -0.001175 0.023150 0.000083 0.000000 0.000000 0.000000
# 3 -0.009135 0.000083 0.007712 0.000000 0.000000 0.000000
# 4 0.000000 0.000000 0.000000 0.042010 0.000000 0.000000
# 5 0.000000 0.000000 0.000000 0.000000 0.026793 0.000000
# 6 0.000000 0.000000 0.000000 0.000000 0.000000 0.117163
#
#
# Mechanical properties :
#
#
# Convention : Reuss Voigt Hill
#
# Bulk Modulus (GPa) = 31.12201 70.04597 50.58399
# Shear Modulus (GPa) = 18.53799 32.35983 25.44891
#
# Velocity S-wave (km/s) = 3.03492 4.00977 3.55591
# Velocity P-wave (km/s) = 5.26727 7.49936 6.48015
#
# Compressibility (1/GPa) = 0.03213160
#
# Stress axis : x y z
#
# Youngs Moduli (GPa) = 46.03260 43.19589 129.67232
#
# Poissons Ratio (x) = 0.05076 1.18458
# Poissons Ratio (y) = 0.05410 -0.01079
# Poissons Ratio (z) = 0.42052 -0.00359
#
# Static dielectric constant tensor:
#      x y z
#    x 1.695870 0.000000 0.000000 
#    y 0.000000 1.773780 0.000000 
#    z 0.000000 0.000000 1.741500 
# 
# From -- ./inp_files/32583.got.cif
#   From: 2010.05.17/outbox.cif.g08.bks.cpg/sg59_17_cif.got.tgz:32583.got - 2010.06.03 14:40:33.
