data_PCOD9449722
_publ_section_title
;
Structure prediction by ZEFSAII (Michael W. Deem and Ramdas Pophale) SiO2 
 PCOD9449722
Probable space group: P M M N
;
_chemical_formula_sum "Si O2"
_cell_formula_units_Z 64
_cell_length_a 15.805156
_cell_length_b 8.519069
_cell_length_c 23.714239
_cell_angle_alpha 90.000000
_cell_angle_beta 90.000000
_cell_angle_gamma 90.000000
_cell_volume 3193.008797
_symmetry_space_group_name_H-M "P M M N"
_symmetry_group_IT_number 59
_space_group.IT_coordinate_system_code '2'
_symmetry_cell_setting 'orthorhombic'
loop_
_space_group_symop_operation_xyz
x,y,z
1/2-x,1/2-y,z
1/2+x,-y,-z
-x,1/2+y,-z
-x,-y,-z
1/2+x,1/2+y,-z
1/2-x,y,z
x,1/2-y,z
loop_
_atom_site_type_symbol
_atom_site_label
_atom_site_fract_x
_atom_site_fract_y
_atom_site_fract_z
Si Si1 0.339758 0.064576 0.155893
Si Si2 0.582854 0.928750 0.073258
Si Si3 0.525117 0.061960 0.187743
Si Si4 0.345210 0.939544 0.363648
Si Si5 0.158443 0.059263 0.604457
Si Si6 0.117013 0.927084 0.041087
Si Si7 0.983184 0.939970 0.308318
Si Si8 0.906802 0.561287 0.515553
O O1 0.250000 0.997421 0.176761
O O2 0.339758 0.250000 0.167453
O O3 0.428227 0.999843 0.179141
O O4 0.344432 0.038144 0.088589
O O5 0.612408 0.750000 0.075182
O O6 0.483888 0.928265 0.054093
O O7 0.580744 0.001823 0.135439
O O8 0.629414 0.020363 0.023170
O O9 0.523755 0.250000 0.185293
O O10 0.550125 0.003523 0.249138
O O11 0.250000 0.995759 0.350443
O O12 0.344499 0.750000 0.361984
O O13 0.421034 0.993233 0.322528
O O14 0.371633 0.990683 0.426641
O O15 0.250000 0.006623 0.626008
O O16 0.156800 0.250000 0.606306
O O17 0.148080 0.016489 0.539122
O O18 0.079274 0.006660 0.641707
O O19 0.147116 0.750000 0.049838
O O20 0.983192 0.750000 0.306801
O O21 0.908065 0.750000 0.520446
O O22 0.000000 0.500000 0.500000
#
# Coordination Sequence:
#
# PCOD9449722 Si02
#       8
#     8   8   8   8   8   8   8   8
#     4   9  18  32  48  68  99 138 175 212 257 312
#     4   9  16  28  47  70  95 126 162 202 253 313
#     4  10  20  33  50  73 100 134 177 225 267 309
#     4  10  21  37  55  79 113 150 185 225 276 332
#     4   9  18  34  57  81 104 135 177 223 271 326
#     4   9  16  26  44  71  99 124 156 203 253 302
#     4  10  20  36  54  75 105 142 182 226 275 329
#     4  11  20  34  57  84 114 145 180 223 276 334
#
# _framework density 20.043790000000001
#
# number of rings (size 3 to 8) (size 9 to 14) (size 15 to 20)
#    0.000    2.375    1.250    1.875    0.000    5.500 
#    0.000    0.000    0.000    2.625    0.000    1.750 
#    0.000    0.000    0.000    0.000    0.000    0.000 
#
# Total GULP energy -356925.763166 kJ/mol
# GULP energy per Si atom -5576.965049 kJ/mol
# Density = 1.999817 g / cm^3
# Si number density = 20.043790 Si / 1000 Ang^3
#
#
#
# Elastic Constant Matrix: (Units=GPa)
#
#
# Indices 1 2 3 4 5 6 
#
# 1 52.8105 -3.5890 -6.1054 0.0000 0.0000 0.0000
# 2 -3.5890 15.7493 1.1644 0.0000 0.0000 0.0000
# 3 -6.1054 1.1644 91.8308 0.0000 0.0000 0.0000
# 4 0.0000 0.0000 0.0000 28.0351 0.0000 0.0000
# 5 0.0000 0.0000 0.0000 0.0000 -2.3371 0.0000
# 6 0.0000 0.0000 0.0000 0.0000 0.0000 7.2253
#
#
#
# Elastic Compliance Matrix: (Units=1/GPa)
#
#
# Indices 1 2 3 4 5 6 
#
# 1 0.019372 0.004323 0.001233 0.000000 0.000000 0.000000
# 2 0.004323 0.064519 -0.000531 0.000000 0.000000 0.000000
# 3 0.001233 -0.000531 0.010978 0.000000 0.000000 0.000000
# 4 0.000000 0.000000 0.000000 0.035670 0.000000 0.000000
# 5 0.000000 0.000000 0.000000 0.000000 -0.427878 0.000000
# 6 0.000000 0.000000 0.000000 0.000000 0.000000 0.138403
#
#
# Mechanical properties :
#
#
# Convention : Reuss Voigt Hill
#
# Bulk Modulus (GPa) = 9.53093 15.92561 12.72827
# Shear Modulus (GPa) = -37.30968 17.84604 -9.73182
#
# Velocity S-wave (km/s) = -4.31908 2.98711 -2.20586
# Velocity P-wave (km/s) = 4.48411 4.45643 0.35177
#
# Compressibility (1/GPa) = 0.10492152
#
# Stress axis : x y z
#
# Youngs Moduli (GPa) = 51.62087 15.49922 91.08872
#
# Poissons Ratio (x) = -0.06701 -0.11232
# Poissons Ratio (y) = -0.22318 0.04834
# Poissons Ratio (z) = -0.06366 0.00822
#
# Static dielectric constant tensor:
#      x y z
#    x 1.774420 0.000000 0.000000 
#    y 0.000000 1.680670 0.000000 
#    z 0.000000 0.000000 1.683930 
# 
# From -- ./inp_files/30779.got.cif
#   From: 2010.05.17/outbox.cif.g08.bks.cpg/sg59_16_cif.got.tgz:30779.got - 2010.06.03 14:40:33.
