data_PCOD9449798
_publ_section_title
;
Structure prediction by ZEFSAII (Michael W. Deem and Ramdas Pophale) SiO2 
 PCOD9449798
Probable space group: P M M N
;
_chemical_formula_sum "Si O2"
_cell_formula_units_Z 64
_cell_length_a 8.882937
_cell_length_b 30.084383
_cell_length_c 15.110518
_cell_angle_alpha 90.000000
_cell_angle_beta 90.000000
_cell_angle_gamma 90.000000
_cell_volume 4038.099757
_symmetry_space_group_name_H-M "P M M N"
_symmetry_group_IT_number 59
_space_group.IT_coordinate_system_code '2'
_symmetry_cell_setting 'orthorhombic'
loop_
_space_group_symop_operation_xyz
x,y,z
1/2-x,1/2-y,z
1/2+x,-y,-z
-x,1/2+y,-z
-x,-y,-z
1/2+x,1/2+y,-z
1/2-x,y,z
x,1/2-y,z
loop_
_atom_site_type_symbol
_atom_site_label
_atom_site_fract_x
_atom_site_fract_y
_atom_site_fract_z
Si Si1 0.572027 0.933331 0.045910
Si Si2 0.930203 0.611523 0.542962
Si Si3 0.069343 0.440450 0.638507
Si Si4 0.571826 0.468189 0.128062
Si Si5 0.429061 0.617044 0.202703
Si Si6 0.570438 0.300371 0.511953
Si Si7 0.069382 0.034106 0.321342
Si Si8 0.426067 0.301686 0.706578
O O1 0.750000 0.925220 0.039095
O O2 0.492751 0.897534 0.108071
O O3 0.551014 0.980900 0.095232
O O4 0.498915 0.938373 0.949525
O O5 0.750000 0.618353 0.543815
O O6 0.967686 0.587139 0.450029
O O7 0.969658 0.577418 0.620992
O O8 0.010739 0.659040 0.546468
O O9 0.250000 0.442450 0.647452
O O10 0.000288 0.415340 0.722919
O O11 0.003287 0.489989 0.636287
O O12 0.750000 0.460367 0.136437
O O13 0.491367 0.462178 0.221691
O O14 0.250000 0.613098 0.204929
O O15 0.483067 0.665948 0.229893
O O16 0.750000 0.303716 0.522734
O O17 0.535666 0.250000 0.480545
O O18 0.492089 0.305760 0.607687
O O19 0.250000 0.029233 0.321226
O O20 0.250000 0.314589 0.705219
O O21 0.437519 0.250000 0.731912
#
# Coordination Sequence:
#
# PCOD9449798 Si02
#       8
#     8   8   8   8   8   8   8   8
#     4  10  20  34  53  74 101 133 167 209 252 303
#     4  10  22  36  51  72 101 139 178 212 254 308
#     4  11  21  34  49  70 102 141 180 213 249 298
#     4  10  20  34  52  74 100 132 169 212 256 300
#     4  12  22  32  51  77 105 137 172 211 253 304
#     4  10  20  33  51  75 100 129 169 215 260 304
#     4  11  22  35  51  73 102 138 178 217 256 301
#     4  10  20  34  52  73 101 136 171 210 256 306
#
# _framework density 15.849038999999999
#
# number of rings (size 3 to 8) (size 9 to 14) (size 15 to 20)
#    0.000    1.500    2.500    3.750    0.000    4.000 
#    0.000    0.000    0.000    0.000    0.000    0.875 
#    0.000    3.000    0.000    0.000    0.000    0.000 
#
# Total GULP energy -357478.656612 kJ/mol
# GULP energy per Si atom -5585.604010 kJ/mol
# Density = 1.581297 g / cm^3
# Si number density = 15.849039 Si / 1000 Ang^3
#
#
#
# Elastic Constant Matrix: (Units=GPa)
#
#
# Indices 1 2 3 4 5 6 
#
# 1 72.2257 49.6848 34.4464 0.0000 0.0000 0.0000
# 2 49.6848 98.2217 40.9322 0.0000 0.0000 0.0000
# 3 34.4464 40.9322 59.0884 0.0000 0.0000 0.0000
# 4 0.0000 0.0000 0.0000 23.5238 0.0000 0.0000
# 5 0.0000 0.0000 0.0000 0.0000 23.7822 0.0000
# 6 0.0000 0.0000 0.0000 0.0000 0.0000 28.5956
#
#
#
# Elastic Compliance Matrix: (Units=1/GPa)
#
#
# Indices 1 2 3 4 5 6 
#
# 1 0.023474 -0.008676 -0.007674 0.000000 0.000000 0.000000
# 2 -0.008676 0.017520 -0.007079 0.000000 0.000000 0.000000
# 3 -0.007674 -0.007079 0.026301 0.000000 0.000000 0.000000
# 4 0.000000 0.000000 0.000000 0.042510 0.000000 0.000000
# 5 0.000000 0.000000 0.000000 0.000000 0.042048 0.000000
# 6 0.000000 0.000000 0.000000 0.000000 0.000000 0.034970
#
#
# Mechanical properties :
#
#
# Convention : Reuss Voigt Hill
#
# Bulk Modulus (GPa) = 48.93101 53.29586 51.11343
# Shear Modulus (GPa) = 20.79060 22.14514 21.46787
#
# Velocity S-wave (km/s) = 3.62579 3.74204 3.68438
# Velocity P-wave (km/s) = 6.96195 7.23676 7.10068
#
# Compressibility (1/GPa) = 0.02043694
#
# Stress axis : x y z
#
# Youngs Moduli (GPa) = 42.60062 57.07905 38.02119
#
# Poissons Ratio (x) = 0.49521 0.29179
# Poissons Ratio (y) = 0.36960 0.26913
# Poissons Ratio (z) = 0.32693 0.40404
#
# Static dielectric constant tensor:
#      x y z
#    x 1.526510 0.000000 0.000000 
#    y 0.000000 1.533660 0.000000 
#    z 0.000000 0.000000 1.505050 
# 
# From -- ./inp_files/21844.got.cif
#   From: 2010.05.17/outbox.cif.g08.bks.cpg/sg59_11_cif.got.tgz:21844.got - 2010.06.03 14:40:33.
