data_PCOD9449187
_publ_section_title
;
Structure prediction by ZEFSAII (Michael W. Deem and Ramdas Pophale) SiO2 
 PCOD9449187
Probable space group: P M M N
;
_chemical_formula_sum "Si O2"
_cell_formula_units_Z 64
_cell_length_a 18.187146
_cell_length_b 16.788767
_cell_length_c 11.248308
_cell_angle_alpha 90.000000
_cell_angle_beta 90.000000
_cell_angle_gamma 90.000000
_cell_volume 3434.555627
_symmetry_space_group_name_H-M "P M M N"
_symmetry_group_IT_number 59
_space_group.IT_coordinate_system_code '2'
_symmetry_cell_setting 'orthorhombic'
loop_
_space_group_symop_operation_xyz
x,y,z
1/2-x,1/2-y,z
1/2+x,-y,-z
-x,1/2+y,-z
-x,-y,-z
1/2+x,1/2+y,-z
1/2-x,y,z
x,1/2-y,z
loop_
_atom_site_type_symbol
_atom_site_label
_atom_site_fract_x
_atom_site_fract_y
_atom_site_fract_z
Si Si1 0.836143 0.946985 0.172439
Si Si2 0.405498 0.842664 0.188110
Si Si3 0.028636 0.156328 0.213010
Si Si4 0.333209 0.344194 0.066584
Si Si5 0.063536 0.563641 0.963489
Si Si6 0.061117 0.340483 0.681132
Si Si7 0.334409 0.654470 0.440984
Si Si8 0.518522 0.410796 0.460811
O O1 0.750000 0.960459 0.195237
O O2 0.877926 0.903677 0.279948
O O3 0.880365 0.023946 0.128790
O O4 0.843393 0.888674 0.057857
O O5 0.393427 0.750000 0.154469
O O6 0.490140 0.849948 0.232781
O O7 0.355305 0.860144 0.302776
O O8 0.396486 0.903229 0.080237
O O9 0.027831 0.250000 0.241159
O O10 0.108716 0.131288 0.165789
O O11 0.976102 0.136519 0.102434
O O12 0.004146 0.106615 0.326654
O O13 0.250000 0.357970 0.106632
O O14 0.343792 0.250000 0.045945
O O15 0.000000 0.500000 0.000000
O O16 0.088378 0.250000 0.692482
O O17 0.028624 0.355477 0.550353
O O18 0.250000 0.632805 0.465301
O O19 0.342793 0.750000 0.459406
O O20 0.396023 0.609877 0.517536
O O21 0.500000 0.500000 0.500000
#
# Coordination Sequence:
#
# PCOD9449187 Si02
#       8
#     8   8   8   8   8   8   8   8
#     4  11  22  35  54  83 116 151 191 242 299 347
#     4   9  18  33  58  86 112 144 187 236 286 344
#     4  11  22  38  59  84 116 159 198 231 283 356
#     4   9  18  33  54  82 115 149 187 232 286 353
#     4  12  21  34  56  85 119 150 189 233 287 345
#     4  10  19  36  58  80 107 147 193 238 280 339
#     4   9  19  38  64  90 115 150 199 251 300 349
#     4  11  23  38  60  86 119 152 199 246 291 346
#
# _framework density 18.634142000000001
#
# number of rings (size 3 to 8) (size 9 to 14) (size 15 to 20)
#    0.000    1.750    2.500    3.375    1.750    3.250 
#    0.000    5.000    0.000    3.375    0.000    0.000 
#    0.000    0.000    0.000    0.000    0.000    0.000 
#
# Total GULP energy -357391.458075 kJ/mol
# GULP energy per Si atom -5584.241532 kJ/mol
# Density = 1.859173 g / cm^3
# Si number density = 18.634142 Si / 1000 Ang^3
#
#
#
# Elastic Constant Matrix: (Units=GPa)
#
#
# Indices 1 2 3 4 5 6 
#
# 1 101.1841 14.9927 11.4367 0.0000 0.0000 0.0000
# 2 14.9927 23.2994 -0.2925 0.0000 0.0000 0.0000
# 3 11.4367 -0.2925 35.9863 0.0000 0.0000 0.0000
# 4 0.0000 0.0000 0.0000 24.2227 0.0000 0.0000
# 5 0.0000 0.0000 0.0000 0.0000 22.1541 0.0000
# 6 0.0000 0.0000 0.0000 0.0000 0.0000 21.4174
#
#
#
# Elastic Compliance Matrix: (Units=1/GPa)
#
#
# Indices 1 2 3 4 5 6 
#
# 1 0.011392 -0.007377 -0.003680 0.000000 0.000000 0.000000
# 2 -0.007377 0.047701 0.002732 0.000000 0.000000 0.000000
# 3 -0.003680 0.002732 0.028980 0.000000 0.000000 0.000000
# 4 0.000000 0.000000 0.000000 0.041284 0.000000 0.000000
# 5 0.000000 0.000000 0.000000 0.000000 0.045138 0.000000
# 6 0.000000 0.000000 0.000000 0.000000 0.000000 0.046691
#
#
# Mechanical properties :
#
#
# Convention : Reuss Voigt Hill
#
# Bulk Modulus (GPa) = 14.00115 23.63819 18.81967
# Shear Modulus (GPa) = 19.10997 22.51437 20.81217
#
# Velocity S-wave (km/s) = 3.20587 3.47973 3.34561
# Velocity P-wave (km/s) = 4.60798 5.37194 5.00456
#
# Compressibility (1/GPa) = 0.07142273
#
# Stress axis : x y z
#
# Youngs Moduli (GPa) = 87.78089 20.96404 34.50630
#
# Poissons Ratio (x) = 0.15465 0.12700
# Poissons Ratio (y) = 0.64754 -0.09427
# Poissons Ratio (z) = 0.32307 -0.05727
#
# Static dielectric constant tensor:
#      x y z
#    x 1.636120 0.000000 0.000000 
#    y 0.000000 1.662900 0.000000 
#    z 0.000000 0.000000 1.627350 
# 
# From -- ./inp_files/17833.got.cif
#   From: 2010.05.17/outbox.cif.g08.bks.cpg/sg59_9_cif.got.tgz:17833.got - 2010.06.03 14:40:33.
