data_PCOD9449668
_publ_section_title
;
Structure prediction by ZEFSAII (Michael W. Deem and Ramdas Pophale) SiO2 
 PCOD9449668
Probable space group: P M M N
;
_chemical_formula_sum "Si O2"
_cell_formula_units_Z 56
_cell_length_a 24.008103
_cell_length_b 14.131540
_cell_length_c 9.363277
_cell_angle_alpha 90.000000
_cell_angle_beta 90.000000
_cell_angle_gamma 90.000000
_cell_volume 3176.692732
_symmetry_space_group_name_H-M "P M M N"
_symmetry_group_IT_number 59
_space_group.IT_coordinate_system_code '2'
_symmetry_cell_setting 'orthorhombic'
loop_
_space_group_symop_operation_xyz
x,y,z
1/2-x,1/2-y,z
1/2+x,-y,-z
-x,1/2+y,-z
-x,-y,-z
1/2+x,1/2+y,-z
1/2-x,y,z
x,1/2-y,z
loop_
_atom_site_type_symbol
_atom_site_label
_atom_site_fract_x
_atom_site_fract_y
_atom_site_fract_z
Si Si1 0.686938 0.024801 0.328541
Si Si2 0.514405 0.977436 0.163599
Si Si3 0.186863 0.537013 0.330270
Si Si4 0.422675 0.639729 0.674545
Si Si5 0.183864 0.144502 0.141726
Si Si6 0.627558 0.639907 0.165758
Si Si7 0.423781 0.640956 0.332199
O O1 0.750000 0.048139 0.282663
O O2 0.686591 0.018916 0.500144
O O3 0.639580 0.101600 0.290327
O O4 0.667114 0.925762 0.262116
O O5 0.534605 0.072864 0.242170
O O6 0.566251 0.904865 0.172281
O O7 0.463280 0.929412 0.245927
O O8 0.500000 0.000000 0.000000
O O9 0.250000 0.564372 0.289582
O O10 0.171780 0.440149 0.249598
O O11 0.140227 0.614708 0.299358
O O12 0.428296 0.750000 0.710164
O O13 0.431109 0.628917 0.503468
O O14 0.250000 0.140388 0.108927
O O15 0.172431 0.250000 0.200451
O O16 0.150018 0.133244 0.995977
O O17 0.628047 0.750000 0.207977
O O18 0.435693 0.750000 0.296638
#
# Coordination Sequence:
#
# PCOD9449668 Si02
#       7
#     8   8   8   8   8   8   8
#     4   9  18  32  52  78 105 134 169 210 256 304
#     4  11  22  36  55  77 104 136 174 220 263 308
#     4   9  18  33  52  76 104 132 168 212 256 306
#     4   9  20  37  56  78 105 137 172 211 256 308
#     4   9  17  30  48  69  97 134 171 208 253 304
#     4  10  20  33  49  72 102 136 174 212 256 309
#     4  10  20  36  56  77 104 137 171 210 259 311
#
# _framework density 17.628397
#
# number of rings (size 3 to 8) (size 9 to 14) (size 15 to 20)
#    0.000    2.429    0.000    2.143    0.000    3.143 
#    0.000    5.000    0.000    0.000    0.000    4.000 
#    0.000    0.000    0.000    0.000    0.000    0.000 
#
# Total GULP energy -312332.386221 kJ/mol
# GULP energy per Si atom -5577.364040 kJ/mol
# Density = 1.758827 g / cm^3
# Si number density = 17.628397 Si / 1000 Ang^3
#
#
#
# Elastic Constant Matrix: (Units=GPa)
#
#
# Indices 1 2 3 4 5 6 
#
# 1 97.9319 64.5049 43.6496 0.0000 0.0000 0.0000
# 2 64.5049 138.2136 52.6110 0.0000 0.0000 0.0000
# 3 43.6496 52.6110 37.9271 0.0000 0.0000 0.0000
# 4 0.0000 0.0000 0.0000 21.8713 0.0000 0.0000
# 5 0.0000 0.0000 0.0000 0.0000 25.1592 0.0000
# 6 0.0000 0.0000 0.0000 0.0000 0.0000 17.7489
#
#
#
# Elastic Compliance Matrix: (Units=1/GPa)
#
#
# Indices 1 2 3 4 5 6 
#
# 1 0.021072 -0.001278 -0.022479 0.000000 0.000000 0.000000
# 2 -0.001278 0.015407 -0.019901 0.000000 0.000000 0.000000
# 3 -0.022479 -0.019901 0.079844 0.000000 0.000000 0.000000
# 4 0.000000 0.000000 0.000000 0.045722 0.000000 0.000000
# 5 0.000000 0.000000 0.000000 0.000000 0.039747 0.000000
# 6 0.000000 0.000000 0.000000 0.000000 0.000000 0.056342
#
#
# Mechanical properties :
#
#
# Convention : Reuss Voigt Hill
#
# Bulk Modulus (GPa) = 34.47531 66.17819 50.32675
# Shear Modulus (GPa) = 14.07983 20.50968 17.29475
#
# Velocity S-wave (km/s) = 2.82920 3.41463 3.13561
# Velocity P-wave (km/s) = 5.50196 7.29167 6.45910
#
# Compressibility (1/GPa) = 0.02900626
#
# Stress axis : x y z
#
# Youngs Moduli (GPa) = 47.45641 64.90544 12.52449
#
# Poissons Ratio (x) = 0.08294 0.28154
# Poissons Ratio (y) = 0.06064 0.24926
# Poissons Ratio (z) = 1.06677 1.29171
#
# Static dielectric constant tensor:
#      x y z
#    x 1.607440 0.000000 0.000000 
#    y 0.000000 1.579460 0.000000 
#    z 0.000000 0.000000 1.573100 
# 
# From -- ./inp_files/9358.got.cif
#   From: 2010.05.17/outbox.cif.g08.bks.cpg/sg59_5_cif.got.tgz:9358.got - 2010.06.03 14:40:33.
