data_PCOD9449896
_publ_section_title
;
Structure prediction by ZEFSAII (Michael W. Deem and Ramdas Pophale) SiO2 
 PCOD9449896
Probable space group: P M M N
;
_chemical_formula_sum "Si O2"
_cell_formula_units_Z 64
_cell_length_a 7.638567
_cell_length_b 21.328564
_cell_length_c 17.232562
_cell_angle_alpha 90.000000
_cell_angle_beta 90.000000
_cell_angle_gamma 90.000000
_cell_volume 2807.523230
_symmetry_space_group_name_H-M "P M M N"
_symmetry_group_IT_number 59
_space_group.IT_coordinate_system_code '2'
_symmetry_cell_setting 'orthorhombic'
loop_
_space_group_symop_operation_xyz
x,y,z
1/2-x,1/2-y,z
1/2+x,-y,-z
-x,1/2+y,-z
-x,-y,-z
1/2+x,1/2+y,-z
1/2-x,y,z
x,1/2-y,z
loop_
_atom_site_type_symbol
_atom_site_label
_atom_site_fract_x
_atom_site_fract_y
_atom_site_fract_z
Si Si1 0.038564 0.320493 0.176258
Si Si2 0.538828 0.589570 0.694999
Si Si3 0.539874 0.179843 0.600854
Si Si4 0.957175 0.928629 0.522299
Si Si5 0.049836 0.578367 0.949617
Si Si6 0.965408 0.182057 0.938319
Si Si7 0.451412 0.850133 0.227753
Si Si8 0.044654 0.013765 0.823243
O O1 0.250000 0.324524 0.165277
O O2 0.981445 0.250000 0.164423
O O3 0.999547 0.345174 0.262448
O O4 0.951807 0.367969 0.116623
O O5 0.750000 0.582776 0.693734
O O6 0.468970 0.584690 0.608156
O O7 0.472856 0.536108 0.753437
O O8 0.750000 0.182531 0.605641
O O9 0.477965 0.250000 0.578201
O O10 0.504491 0.123741 0.541049
O O11 0.471812 0.163599 0.687626
O O12 0.750000 0.924997 0.529040
O O13 0.000000 0.000000 0.500000
O O14 0.250000 0.562319 0.969071
O O15 0.974028 0.518467 0.903076
O O16 0.969910 0.618555 0.019937
O O17 0.750000 0.179152 0.940386
O O18 0.015048 0.250000 0.973261
O O19 0.026504 0.180902 0.849476
O O20 0.250000 0.828850 0.231454
O O21 0.455233 0.923491 0.206444
O O22 0.250000 0.026414 0.834967
#
# Coordination Sequence:
#
# PCOD9449896 Si02
#       8
#     8   8   8   8   8   8   8   8
#     4   9  17  30  49  72  99 131 165 202 247 301
#     4   9  19  35  53  74 101 135 173 210 251 307
#     4  10  22  40  60  83 113 147 186 236 289 337
#     4  11  23  38  59  85 112 144 184 229 278 335
#     4   9  18  32  50  74 104 136 171 212 257 307
#     4   9  17  31  53  77  99 130 176 222 259 306
#     4  10  20  35  56  78 101 136 181 223 266 320
#     4  10  20  33  51  78 110 140 172 215 267 318
#
# _framework density 22.795893
#
# number of rings (size 3 to 8) (size 9 to 14) (size 15 to 20)
#    0.000    2.375    0.000    2.250    0.000    8.500 
#    0.000    1.875    0.000    1.875    0.000    0.000 
#    0.000    0.000    0.000    0.000    0.000    0.000 
#
# Total GULP energy -357273.089949 kJ/mol
# GULP energy per Si atom -5582.392030 kJ/mol
# Density = 2.274401 g / cm^3
# Si number density = 22.795893 Si / 1000 Ang^3
#
#
#
# Elastic Constant Matrix: (Units=GPa)
#
#
# Indices 1 2 3 4 5 6 
#
# 1 54.6327 5.9770 11.4448 0.0000 0.0000 0.0000
# 2 5.9770 154.7450 57.6541 0.0000 0.0000 0.0000
# 3 11.4448 57.6541 144.4117 0.0000 0.0000 0.0000
# 4 0.0000 0.0000 0.0000 23.2743 0.0000 0.0000
# 5 0.0000 0.0000 0.0000 0.0000 9.5881 0.0000
# 6 0.0000 0.0000 0.0000 0.0000 0.0000 15.0737
#
#
#
# Elastic Compliance Matrix: (Units=1/GPa)
#
#
# Indices 1 2 3 4 5 6 
#
# 1 0.018618 -0.000199 -0.001396 0.000000 0.000000 0.000000
# 2 -0.000199 0.007594 -0.003016 0.000000 0.000000 0.000000
# 3 -0.001396 -0.003016 0.008239 0.000000 0.000000 0.000000
# 4 0.000000 0.000000 0.000000 0.042966 0.000000 0.000000
# 5 0.000000 0.000000 0.000000 0.000000 0.104296 0.000000
# 6 0.000000 0.000000 0.000000 0.000000 0.000000 0.066341
#
#
# Mechanical properties :
#
#
# Convention : Reuss Voigt Hill
#
# Bulk Modulus (GPa) = 39.63640 55.99349 47.81495
# Shear Modulus (GPa) = 18.81923 28.16810 23.49367
#
# Velocity S-wave (km/s) = 2.87636 3.51902 3.21379
# Velocity P-wave (km/s) = 5.33447 6.41308 5.89848
#
# Compressibility (1/GPa) = 0.02522933
#
# Stress axis : x y z
#
# Youngs Moduli (GPa) = 53.71066 131.69054 121.36927
#
# Poissons Ratio (x) = 0.02620 0.16944
# Poissons Ratio (y) = 0.01069 0.36603
# Poissons Ratio (z) = 0.07498 0.39716
#
# Static dielectric constant tensor:
#      x y z
#    x 1.858330 0.000000 0.000000 
#    y 0.000000 1.850470 0.000000 
#    z 0.000000 0.000000 1.878990 
# 
# From -- ./inp_files/26253.got.cif
#   From: 2010.05.17/outbox.cif.g08.bks.cpg/sg59_14_cif.got.tgz:26253.got - 2010.06.03 14:40:33.
