data_PCOD9449478
_publ_section_title
;
Structure prediction by ZEFSAII (Michael W. Deem and Ramdas Pophale) SiO2 
 PCOD9449478
Probable space group: P M M N
;
_chemical_formula_sum "Si O2"
_cell_formula_units_Z 48
_cell_length_a 9.701227
_cell_length_b 8.047880
_cell_length_c 32.403452
_cell_angle_alpha 90.000000
_cell_angle_beta 90.000000
_cell_angle_gamma 90.000000
_cell_volume 2529.877181
_symmetry_space_group_name_H-M "P M M N"
_symmetry_group_IT_number 59
_space_group.IT_coordinate_system_code '2'
_symmetry_cell_setting 'orthorhombic'
loop_
_space_group_symop_operation_xyz
x,y,z
1/2-x,1/2-y,z
1/2+x,-y,-z
-x,1/2+y,-z
-x,-y,-z
1/2+x,1/2+y,-z
1/2-x,y,z
x,1/2-y,z
loop_
_atom_site_type_symbol
_atom_site_label
_atom_site_fract_x
_atom_site_fract_y
_atom_site_fract_z
Si Si1 0.407731 0.052518 0.870702
Si Si2 0.593692 0.550813 0.794587
Si Si3 0.091936 0.950960 0.538530
Si Si4 0.406963 0.948379 0.961765
Si Si5 0.917791 0.057470 0.372110
Si Si6 0.409772 0.545967 0.718251
O O1 0.250000 0.986937 0.866109
O O2 0.402621 0.250000 0.866299
O O3 0.508322 0.984802 0.835878
O O4 0.455381 0.011322 0.917089
O O5 0.750000 0.485819 0.796323
O O6 0.601346 0.750000 0.790239
O O7 0.507655 0.488769 0.755052
O O8 0.250000 0.006960 0.532629
O O9 0.094157 0.750000 0.541243
O O10 0.040665 0.014634 0.583469
O O11 0.000000 0.000000 0.500000
O O12 0.250000 0.010886 0.967406
O O13 0.403737 0.750000 0.959982
O O14 0.500000 0.000000 0.000000
O O15 0.750000 0.058644 0.372718
O O16 0.963778 0.250000 0.371659
O O17 0.955070 0.986085 0.327377
O O18 0.250000 0.498286 0.725399
O O19 0.410973 0.750000 0.717205
#
# Coordination Sequence:
#
# PCOD9449478 Si02
#       6
#     8   8   8   8   8   8
#     4  10  21  37  56  76  99 132 174 213 245 282
#     4  10  20  32  48  74 105 132 158 194 244 297
#     4   9  17  29  45  66  93 123 156 196 240 287
#     4  10  21  37  58  83 109 137 169 206 249 294
#     4   7  11  22  41  64  88 116 153 196 239 282
#     4   8  13  24  45  69  91 119 157 200 243 286
#
# _framework density 18.973253
#
# number of rings (size 3 to 8) (size 9 to 14) (size 15 to 20)
#    0.000    3.000    0.000    3.500    0.000    4.000 
#    0.000    0.833    0.000    4.000    0.000    2.333 
#    0.000    0.000    0.000    0.000    0.000    0.000 
#
# Total GULP energy -267464.123984 kJ/mol
# GULP energy per Si atom -5572.169250 kJ/mol
# Density = 1.893007 g / cm^3
# Si number density = 18.973253 Si / 1000 Ang^3
#
#
#
# Elastic Constant Matrix: (Units=GPa)
#
#
# Indices 1 2 3 4 5 6 
#
# 1 90.1337 7.8564 106.1592 0.0000 0.0000 0.0000
# 2 7.8564 13.8333 4.6087 0.0000 0.0000 0.0000
# 3 106.1592 4.6087 216.2656 0.0000 0.0000 0.0000
# 4 0.0000 0.0000 0.0000 20.3054 0.0000 0.0000
# 5 0.0000 0.0000 0.0000 0.0000 31.7412 0.0000
# 6 0.0000 0.0000 0.0000 0.0000 0.0000 16.3381
#
#
#
# Elastic Compliance Matrix: (Units=1/GPa)
#
#
# Indices 1 2 3 4 5 6 
#
# 1 0.027976 -0.011394 -0.013490 0.000000 0.000000 0.000000
# 2 -0.011394 0.077447 0.003943 0.000000 0.000000 0.000000
# 3 -0.013490 0.003943 0.011162 0.000000 0.000000 0.000000
# 4 0.000000 0.000000 0.000000 0.049248 0.000000 0.000000
# 5 0.000000 0.000000 0.000000 0.000000 0.031505 0.000000
# 6 0.000000 0.000000 0.000000 0.000000 0.000000 0.061207
#
#
# Mechanical properties :
#
#
# Convention : Reuss Voigt Hill
#
# Bulk Modulus (GPa) = 13.38653 61.94235 37.66444
# Shear Modulus (GPa) = 15.36907 27.11747 21.24327
#
# Velocity S-wave (km/s) = 2.84921 3.78464 3.34974
# Velocity P-wave (km/s) = 4.23022 7.19834 5.90385
#
# Compressibility (1/GPa) = 0.07470195
#
# Stress axis : x y z
#
# Youngs Moduli (GPa) = 35.74446 12.91206 89.59087
#
# Poissons Ratio (x) = 0.14712 1.20859
# Poissons Ratio (y) = 0.40728 -0.35323
# Poissons Ratio (z) = 0.48220 -0.05091
#
# Static dielectric constant tensor:
#      x y z
#    x 1.650430 0.000000 0.000000 
#    y 0.000000 1.693460 0.000000 
#    z 0.000000 0.000000 1.678340 
# 
# From -- ./inp_files/32916.got.cif
#   From: 2010.05.17/outbox.cif.g08.bks.cpg/sg59_17_cif.got.tgz:32916.got - 2010.06.03 14:40:33.
