data_PCOD9449563
_publ_section_title
;
Structure prediction by ZEFSAII (Michael W. Deem and Ramdas Pophale) SiO2 
 PCOD9449563
Probable space group: P M M N
;
_chemical_formula_sum "Si O2"
_cell_formula_units_Z 56
_cell_length_a 22.600133
_cell_length_b 11.813423
_cell_length_c 11.913354
_cell_angle_alpha 90.000000
_cell_angle_beta 90.000000
_cell_angle_gamma 90.000000
_cell_volume 3180.685995
_symmetry_space_group_name_H-M "P M M N"
_symmetry_group_IT_number 59
_space_group.IT_coordinate_system_code '2'
_symmetry_cell_setting 'orthorhombic'
loop_
_space_group_symop_operation_xyz
x,y,z
1/2-x,1/2-y,z
1/2+x,-y,-z
-x,1/2+y,-z
-x,-y,-z
1/2+x,1/2+y,-z
1/2-x,y,z
x,1/2-y,z
loop_
_atom_site_type_symbol
_atom_site_label
_atom_site_fract_x
_atom_site_fract_y
_atom_site_fract_z
Si Si1 0.896155 0.473041 0.297333
Si Si2 0.818822 0.885838 0.471807
Si Si3 0.470627 0.380552 0.878352
Si Si4 0.120211 0.120045 0.300802
Si Si5 0.906707 0.495818 0.924107
Si Si6 0.497535 0.877650 0.564938
Si Si7 0.817588 0.115412 0.097552
O O1 0.861457 0.552463 0.384402
O O2 0.940563 0.544831 0.218533
O O3 0.936995 0.386114 0.365215
O O4 0.849338 0.416516 0.213881
O O5 0.750000 0.910818 0.450384
O O6 0.827397 0.750000 0.463941
O O7 0.837381 0.919230 0.598239
O O8 0.463416 0.250000 0.851719
O O9 0.539248 0.412606 0.893088
O O10 0.437659 0.410963 0.995120
O O11 0.135564 0.250000 0.273780
O O12 0.119639 0.047631 0.188730
O O13 0.054287 0.119277 0.353583
O O14 0.856726 0.437109 0.998523
O O15 0.500044 0.750000 0.509024
O O16 0.500000 0.000000 0.500000
O O17 0.750000 0.073813 0.095656
O O18 0.817411 0.250000 0.085712
#
# Coordination Sequence:
#
# PCOD9449563 Si02
#       7
#     8   8   8   8   8   8   8
#     4  11  20  36  58  84 113 148 187 240 288 348
#     4  10  21  36  56  82 114 154 196 236 283 343
#     4  10  20  32  52  83 115 144 182 234 293 343
#     4  10  20  36  56  82 117 151 188 232 284 343
#     4  10  20  35  54  81 109 148 188 230 285 339
#     4  11  22  37  58  89 122 155 192 239 296 355
#     4  10  22  39  58  79 107 147 191 236 286 342
#
# _framework density 17.606265
#
# number of rings (size 3 to 8) (size 9 to 14) (size 15 to 20)
#    0.000    1.714    2.857    2.143    0.000    1.143 
#    0.000    0.000    0.000    8.143    0.000    0.000 
#    0.000    0.000    0.000    0.000    0.000    0.000 
#
# Total GULP energy -312371.892747 kJ/mol
# GULP energy per Si atom -5578.069513 kJ/mol
# Density = 1.756619 g / cm^3
# Si number density = 17.606265 Si / 1000 Ang^3
#
#
#
# Elastic Constant Matrix: (Units=GPa)
#
#
# Indices 1 2 3 4 5 6 
#
# 1 101.5857 19.7027 24.6268 0.0000 0.0000 0.0000
# 2 19.7027 73.7005 27.7090 0.0000 0.0000 0.0000
# 3 24.6268 27.7090 80.7606 0.0000 0.0000 0.0000
# 4 0.0000 0.0000 0.0000 13.4359 0.0000 0.0000
# 5 0.0000 0.0000 0.0000 0.0000 22.2703 0.0000
# 6 0.0000 0.0000 0.0000 0.0000 0.0000 21.2293
#
#
#
# Elastic Compliance Matrix: (Units=1/GPa)
#
#
# Indices 1 2 3 4 5 6 
#
# 1 0.010857 -0.001903 -0.002658 0.000000 0.000000 0.000000
# 2 -0.001903 0.015912 -0.004879 0.000000 0.000000 0.000000
# 3 -0.002658 -0.004879 0.014867 0.000000 0.000000 0.000000
# 4 0.000000 0.000000 0.000000 0.074428 0.000000 0.000000
# 5 0.000000 0.000000 0.000000 0.000000 0.044903 0.000000
# 6 0.000000 0.000000 0.000000 0.000000 0.000000 0.047105
#
#
# Mechanical properties :
#
#
# Convention : Reuss Voigt Hill
#
# Bulk Modulus (GPa) = 43.94509 44.45819 44.20164
# Shear Modulus (GPa) = 21.31869 23.65431 22.48650
#
# Velocity S-wave (km/s) = 3.48351 3.66938 3.57765
# Velocity P-wave (km/s) = 6.41825 6.57713 6.49817
#
# Compressibility (1/GPa) = 0.02275567
#
# Stress axis : x y z
#
# Youngs Moduli (GPa) = 92.10343 62.84744 67.26459
#
# Poissons Ratio (x) = 0.11962 0.17877
# Poissons Ratio (y) = 0.17530 0.32817
# Poissons Ratio (z) = 0.24479 0.30662
#
# Static dielectric constant tensor:
#      x y z
#    x 1.589820 0.000000 0.000000 
#    y 0.000000 1.601210 0.000000 
#    z 0.000000 0.000000 1.594340 
# 
# From -- ./inp_files/16036.got.cif
#   From: 2010.05.17/outbox.cif.g08.bks.cpg/sg59_9_cif.got.tgz:16036.got - 2010.06.03 14:40:33.
