data_PCOD9449321
_publ_section_title
;
Structure prediction by ZEFSAII (Michael W. Deem and Ramdas Pophale) SiO2 
 PCOD9449321
Probable space group: P M M N
;
_chemical_formula_sum "Si O2"
_cell_formula_units_Z 48
_cell_length_a 7.558229
_cell_length_b 9.793215
_cell_length_c 31.623740
_cell_angle_alpha 90.000000
_cell_angle_beta 90.000000
_cell_angle_gamma 90.000000
_cell_volume 2340.769047
_symmetry_space_group_name_H-M "P M M N"
_symmetry_group_IT_number 59
_space_group.IT_coordinate_system_code '2'
_symmetry_cell_setting 'orthorhombic'
loop_
_space_group_symop_operation_xyz
x,y,z
1/2-x,1/2-y,z
1/2+x,-y,-z
-x,1/2+y,-z
-x,-y,-z
1/2+x,1/2+y,-z
1/2-x,y,z
x,1/2-y,z
loop_
_atom_site_type_symbol
_atom_site_label
_atom_site_fract_x
_atom_site_fract_y
_atom_site_fract_z
Si Si1 0.460246 0.903499 0.212300
Si Si2 0.533936 0.594353 0.712737
Si Si3 0.962419 0.405436 0.540295
Si Si4 0.034137 0.093874 0.383658
Si Si5 0.963295 0.093483 0.133313
Si Si6 0.961827 0.403660 0.039184
O O1 0.250000 0.892591 0.219113
O O2 0.532118 0.750000 0.209041
O O3 0.530998 0.989330 0.252117
O O4 0.483693 0.990145 0.169749
O O5 0.750000 0.593218 0.713107
O O6 0.480361 0.750000 0.722783
O O7 0.480092 0.563284 0.664551
O O8 0.750000 0.396914 0.544020
O O9 0.029529 0.250000 0.536002
O O10 0.028050 0.485129 0.581933
O O11 0.000000 0.500000 0.500000
O O12 0.250000 0.093179 0.384184
O O13 0.980401 0.250000 0.393974
O O14 0.750000 0.096208 0.133101
O O15 0.023057 0.250000 0.141381
O O16 0.024396 0.052770 0.086001
O O17 0.750000 0.396437 0.042227
O O18 0.028576 0.250000 0.031466
O O19 0.000000 0.500000 0.000000
#
# Coordination Sequence:
#
# PCOD9449321 Si02
#       6
#     8   8   8   8   8   8
#     4  10  20  31  46  73 104 129 156 195 241 283
#     4   8  14  26  45  68  94 125 159 194 234 281
#     4  10  20  32  48  71  97 127 162 198 240 289
#     4   8  14  26  45  68  93 122 157 196 237 282
#     4   9  19  36  54  70  93 129 168 200 234 281
#     4   9  19  35  53  74  99 126 159 199 240 284
#
# _framework density 20.506083
#
# number of rings (size 3 to 8) (size 9 to 14) (size 15 to 20)
#    0.000    3.000    0.000    3.000    0.000    4.667 
#    0.000    8.333    0.000    1.000    0.000    7.000 
#    0.000    0.000    0.000    0.000    0.000    0.000 
#
# Total GULP energy -267797.255016 kJ/mol
# GULP energy per Si atom -5579.109479 kJ/mol
# Density = 2.045941 g / cm^3
# Si number density = 20.506083 Si / 1000 Ang^3
#
#
#
# Elastic Constant Matrix: (Units=GPa)
#
#
# Indices 1 2 3 4 5 6 
#
# 1 46.5965 7.0132 2.0175 0.0000 0.0000 0.0000
# 2 7.0132 189.9997 156.2170 0.0000 0.0000 0.0000
# 3 2.0175 156.2170 192.2750 0.0000 0.0000 0.0000
# 4 0.0000 0.0000 0.0000 40.5987 0.0000 0.0000
# 5 0.0000 0.0000 0.0000 0.0000 15.8501 0.0000
# 6 0.0000 0.0000 0.0000 0.0000 0.0000 13.3893
#
#
#
# Elastic Compliance Matrix: (Units=1/GPa)
#
#
# Indices 1 2 3 4 5 6 
#
# 1 0.021684 -0.001847 0.001273 0.000000 0.000000 0.000000
# 2 -0.001847 0.016011 -0.012989 0.000000 0.000000 0.000000
# 3 0.001273 -0.012989 0.015740 0.000000 0.000000 0.000000
# 4 0.000000 0.000000 0.000000 0.024631 0.000000 0.000000
# 5 0.000000 0.000000 0.000000 0.000000 0.063091 0.000000
# 6 0.000000 0.000000 0.000000 0.000000 0.000000 0.074686
#
#
# Mechanical properties :
#
#
# Convention : Reuss Voigt Hill
#
# Bulk Modulus (GPa) = 38.00920 84.37407 61.19164
# Shear Modulus (GPa) = 19.86185 31.54253 25.70219
#
# Velocity S-wave (km/s) = 3.11558 3.92625 3.54417
# Velocity P-wave (km/s) = 5.61412 7.86060 6.83035
#
# Compressibility (1/GPa) = 0.02630942
#
# Stress axis : x y z
#
# Youngs Moduli (GPa) = 46.11751 62.45850 63.53070
#
# Poissons Ratio (x) = 0.11539 -0.08090
# Poissons Ratio (y) = 0.08520 0.82518
# Poissons Ratio (z) = -0.05873 0.81126
#
# Static dielectric constant tensor:
#      x y z
#    x 1.802230 0.000000 0.000000 
#    y 0.000000 1.718560 0.000000 
#    z 0.000000 0.000000 1.712010 
# 
# From -- ./inp_files/32870.got.cif
#   From: 2010.05.17/outbox.cif.g08.bks.cpg/sg59_17_cif.got.tgz:32870.got - 2010.06.03 14:40:33.
