data_PCOD9449214
_publ_section_title
;
Structure prediction by ZEFSAII (Michael W. Deem and Ramdas Pophale) SiO2 
 PCOD9449214
Probable space group: P M M N
;
_chemical_formula_sum "Si O2"
_cell_formula_units_Z 48
_cell_length_a 8.496320
_cell_length_b 31.176758
_cell_length_c 9.769647
_cell_angle_alpha 90.000000
_cell_angle_beta 90.000000
_cell_angle_gamma 90.000000
_cell_volume 2587.859446
_symmetry_space_group_name_H-M "P M M N"
_symmetry_group_IT_number 59
_space_group.IT_coordinate_system_code '2'
_symmetry_cell_setting 'orthorhombic'
loop_
_space_group_symop_operation_xyz
x,y,z
1/2-x,1/2-y,z
1/2+x,-y,-z
-x,1/2+y,-z
-x,-y,-z
1/2+x,1/2+y,-z
1/2-x,y,z
x,1/2-y,z
loop_
_atom_site_type_symbol
_atom_site_label
_atom_site_fract_x
_atom_site_fract_y
_atom_site_fract_z
Si Si1 0.560854 0.674201 0.349751
Si Si2 0.061457 0.500491 0.845998
Si Si3 0.441239 0.076174 0.652321
Si Si4 0.561170 0.923325 0.660080
Si Si5 0.441811 0.750000 0.846721
Si Si6 0.939178 0.172135 0.346024
Si Si7 0.438916 0.750000 0.161043
O O1 0.750000 0.675581 0.353380
O O2 0.511213 0.625162 0.316933
O O3 0.497782 0.684031 0.501902
O O4 0.498499 0.708295 0.241751
O O5 0.250000 0.499167 0.848400
O O6 0.003203 0.459151 0.759714
O O7 0.007371 0.542767 0.765657
O O8 0.000000 0.500000 0.000000
O O9 0.250000 0.075601 0.653483
O O10 0.489936 0.066022 0.496204
O O11 0.750000 0.924633 0.664787
O O12 0.505445 0.874879 0.687384
O O13 0.250000 0.750000 0.847528
O O14 0.490967 0.792154 0.762863
O O15 0.494294 0.750000 0.003713
O O16 0.750000 0.170446 0.347342
O O17 0.250000 0.750000 0.162209
#
# Coordination Sequence:
#
# PCOD9449214 Si02
#       7
#     8   8   8   8   4   8   4
#     4  10  20  37  58  83 109 139 179 227 273 321
#     4  11  22  37  55  80 112 148 183 223 274 331
#     4   8  18  36  58  80 107 139 178 224 273 323
#     4  10  20  37  58  83 110 141 182 230 274 323
#     4   9  21  37  54  78 112 145 180 221 268 324
#     4  10  19  36  60  85 110 143 182 226 275 328
#     4  11  22  37  54  78 110 147 182 219 264 318
#
# _framework density 18.548147
#
# number of rings (size 3 to 8) (size 9 to 14) (size 15 to 20)
#    0.000    2.167    0.000    4.250    0.000    2.000 
#    0.000   17.083    0.000    0.000    0.000    0.000 
#    0.000    0.000    0.000    0.000    0.000    0.000 
#
# Total GULP energy -268053.089477 kJ/mol
# GULP energy per Si atom -5584.439364 kJ/mol
# Density = 1.850593 g / cm^3
# Si number density = 18.548147 Si / 1000 Ang^3
#
#
#
# Elastic Constant Matrix: (Units=GPa)
#
#
# Indices 1 2 3 4 5 6 
#
# 1 55.3000 31.9577 40.0350 0.0000 0.0000 0.0000
# 2 31.9577 147.1834 143.6676 0.0000 0.0000 0.0000
# 3 40.0350 143.6676 188.8098 0.0000 0.0000 0.0000
# 4 0.0000 0.0000 0.0000 -17.6628 0.0000 0.0000
# 5 0.0000 0.0000 0.0000 0.0000 25.5715 0.0000
# 6 0.0000 0.0000 0.0000 0.0000 0.0000 22.6526
#
#
#
# Elastic Compliance Matrix: (Units=1/GPa)
#
#
# Indices 1 2 3 4 5 6 
#
# 1 0.021389 -0.000844 -0.003893 0.000000 0.000000 0.000000
# 2 -0.000844 0.026443 -0.019942 0.000000 0.000000 0.000000
# 3 -0.003893 -0.019942 0.021296 0.000000 0.000000 0.000000
# 4 0.000000 0.000000 0.000000 -0.056616 0.000000 0.000000
# 5 0.000000 0.000000 0.000000 0.000000 0.039106 0.000000
# 6 0.000000 0.000000 0.000000 0.000000 0.000000 0.044145
#
#
# Mechanical properties :
#
#
# Convention : Reuss Voigt Hill
#
# Bulk Modulus (GPa) = 50.58138 91.40156 70.99147
# Shear Modulus (GPa) = 32.95739 17.82111 25.38925
#
# Velocity S-wave (km/s) = 4.21985 3.10304 3.70378
# Velocity P-wave (km/s) = 7.14649 7.88819 7.52648
#
# Compressibility (1/GPa) = 0.01977012
#
# Stress axis : x y z
#
# Youngs Moduli (GPa) = 46.75201 37.81724 46.95779
#
# Poissons Ratio (x) = 0.03193 0.18281
# Poissons Ratio (y) = 0.03947 0.93642
# Poissons Ratio (z) = 0.18200 0.75414
#
# Static dielectric constant tensor:
#      x y z
#    x 1.633160 0.000000 0.000000 
#    y 0.000000 1.628620 0.000000 
#    z 0.000000 0.000000 1.613200 
# 
# From -- ./inp_files/6343.got.cif
#   From: 2010.05.17/outbox.cif.g08.bks.cpg/sg59_4_cif.got.tgz:6343.got - 2010.06.03 14:40:33.
