data_PCOD9449822
_publ_section_title
;
Structure prediction by ZEFSAII (Michael W. Deem and Ramdas Pophale) SiO2 
 PCOD9449822
Probable space group: P M M N
;
_chemical_formula_sum "Si O2"
_cell_formula_units_Z 48
_cell_length_a 14.689954
_cell_length_b 8.044637
_cell_length_c 21.946142
_cell_angle_alpha 90.000000
_cell_angle_beta 90.000000
_cell_angle_gamma 90.000000
_cell_volume 2593.492957
_symmetry_space_group_name_H-M "P M M N"
_symmetry_group_IT_number 59
_space_group.IT_coordinate_system_code '2'
_symmetry_cell_setting 'orthorhombic'
loop_
_space_group_symop_operation_xyz
x,y,z
1/2-x,1/2-y,z
1/2+x,-y,-z
-x,1/2+y,-z
-x,-y,-z
1/2+x,1/2+y,-z
1/2-x,y,z
x,1/2-y,z
loop_
_atom_site_type_symbol
_atom_site_label
_atom_site_fract_x
_atom_site_fract_y
_atom_site_fract_z
Si Si1 0.499923 0.051068 0.235980
Si Si2 0.353598 0.549367 0.999599
Si Si3 0.997623 0.549242 0.902634
Si Si4 0.853111 0.549567 0.333471
Si Si5 0.146928 0.950398 0.333587
Si Si6 0.000012 0.450278 0.569966
O O1 0.499734 0.250000 0.234493
O O2 0.499722 0.988178 0.166668
O O3 0.588110 0.995240 0.274134
O O4 0.411986 0.994562 0.274250
O O5 0.250000 0.488086 0.997498
O O6 0.351220 0.750000 0.996816
O O7 0.407161 0.500603 0.060750
O O8 0.416708 0.490396 0.943394
O O9 0.001265 0.750000 0.901331
O O10 0.750000 0.485991 0.332207
O O11 0.849611 0.750000 0.336597
O O12 0.911822 0.490989 0.391801
O O13 0.250000 0.014135 0.332245
O O14 0.150566 0.750000 0.336845
O O15 0.088190 0.009142 0.391874
O O16 0.000004 0.250000 0.572571
O O17 0.000000 0.500000 0.500000
#
# Coordination Sequence:
#
# PCOD9449822 Si02
#       6
#     8   8   8   8   8   8
#     4  10  20  33  51  76 103 130 162 204 251 294
#     4   9  18  33  52  72  95 127 166 202 237 285
#     4   9  19  34  50  71 101 131 158 197 248 293
#     4   9  19  36  54  72  99 134 168 202 242 291
#     4   9  19  36  54  71  97 134 170 203 242 291
#     4   9  18  32  50  73 100 129 162 201 245 292
#
# _framework density 18.507857000000001
#
# number of rings (size 3 to 8) (size 9 to 14) (size 15 to 20)
#    0.000    2.833    0.000    1.500    0.000    7.000 
#    0.000    5.000    0.000    0.000    0.000    0.000 
#    0.000    0.000    0.000    0.000    0.000    0.000 
#
# Total GULP energy -267647.722828 kJ/mol
# GULP energy per Si atom -5575.994226 kJ/mol
# Density = 1.846573 g / cm^3
# Si number density = 18.507857 Si / 1000 Ang^3
#
#
#
# Elastic Constant Matrix: (Units=GPa)
#
#
# Indices 1 2 3 4 5 6 
#
# 1 207.5187 13.0244 108.6550 0.0000 0.0000 0.0000
# 2 13.0244 9.6912 5.9224 0.0000 0.0000 0.0000
# 3 108.6550 5.9224 196.5146 0.0000 0.0000 0.0000
# 4 0.0000 0.0000 0.0000 26.5126 0.0000 0.0000
# 5 0.0000 0.0000 0.0000 0.0000 4.7460 0.0000
# 6 0.0000 0.0000 0.0000 0.0000 0.0000 15.3752
#
#
#
# Elastic Compliance Matrix: (Units=1/GPa)
#
#
# Indices 1 2 3 4 5 6 
#
# 1 0.007275 -0.007457 -0.003798 0.000000 0.000000 0.000000
# 2 -0.007457 0.112765 0.000724 0.000000 0.000000 0.000000
# 3 -0.003798 0.000724 0.007167 0.000000 0.000000 0.000000
# 4 0.000000 0.000000 0.000000 0.037718 0.000000 0.000000
# 5 0.000000 0.000000 0.000000 0.000000 0.210705 0.000000
# 6 0.000000 0.000000 0.000000 0.000000 0.000000 0.065040
#
#
# Mechanical properties :
#
#
# Convention : Reuss Voigt Hill
#
# Bulk Modulus (GPa) = 9.42090 74.32533 41.87312
# Shear Modulus (GPa) = 10.05808 28.40159 19.22983
#
# Velocity S-wave (km/s) = 2.33373 3.92161 3.22686
# Velocity P-wave (km/s) = 3.51610 7.79431 6.04625
#
# Compressibility (1/GPa) = 0.10614697
#
# Stress axis : x y z
#
# Youngs Moduli (GPa) = 137.44934 8.86799 139.53304
#
# Poissons Ratio (x) = 0.06613 0.52994
# Poissons Ratio (y) = 1.02492 -0.10109
# Poissons Ratio (z) = 0.52202 -0.00642
#
# Static dielectric constant tensor:
#      x y z
#    x 1.642170 0.000000 0.000000 
#    y 0.000000 1.657930 0.000000 
#    z 0.000000 0.000000 1.618290 
# 
# From -- ./inp_files/27378.got.cif
#   From: 2010.05.17/outbox.cif.g08.bks.cpg/sg59_14_cif.got.tgz:27378.got - 2010.06.03 14:40:33.
