data_PCOD9449772
_publ_section_title
;
Structure prediction by ZEFSAII (Michael W. Deem and Ramdas Pophale) SiO2 
 PCOD9449772
Probable space group: P M M N
;
_chemical_formula_sum "Si O2"
_cell_formula_units_Z 56
_cell_length_a 19.210570
_cell_length_b 8.948349
_cell_length_c 15.929589
_cell_angle_alpha 90.000000
_cell_angle_beta 90.000000
_cell_angle_gamma 90.000000
_cell_volume 2738.342304
_symmetry_space_group_name_H-M "P M M N"
_symmetry_group_IT_number 59
_space_group.IT_coordinate_system_code '2'
_symmetry_cell_setting 'orthorhombic'
loop_
_space_group_symop_operation_xyz
x,y,z
1/2-x,1/2-y,z
1/2+x,-y,-z
-x,1/2+y,-z
-x,-y,-z
1/2+x,1/2+y,-z
1/2-x,y,z
x,1/2-y,z
loop_
_atom_site_type_symbol
_atom_site_label
_atom_site_fract_x
_atom_site_fract_y
_atom_site_fract_z
Si Si1 0.330848 0.429793 0.912634
Si Si2 0.668850 0.087417 0.635641
Si Si3 0.035922 0.430209 0.815471
Si Si4 0.895113 0.578818 0.500723
Si Si5 0.833306 0.584117 0.794833
Si Si6 0.520969 0.424329 0.362719
Si Si7 0.587904 0.075925 0.932691
O O1 0.250000 0.481812 0.907871
O O2 0.328667 0.250000 0.918412
O O3 0.383607 0.467340 0.836462
O O4 0.372309 0.489826 0.993669
O O5 0.750000 0.103162 0.653757
O O6 0.634480 0.250000 0.648459
O O7 0.659926 0.032269 0.541405
O O8 0.646784 0.959017 0.700354
O O9 0.029141 0.250000 0.807532
O O10 0.011330 0.507694 0.729831
O O11 0.987139 0.474545 0.895398
O O12 0.872292 0.750000 0.496781
O O13 0.921354 0.521241 0.411589
O O14 0.957029 0.568078 0.570759
O O15 0.750000 0.589060 0.803234
O O16 0.860151 0.750000 0.817107
O O17 0.863031 0.454816 0.852677
O O18 0.539386 0.250000 0.355306
O O19 0.582953 0.250000 0.954518
#
# Coordination Sequence:
#
# PCOD9449772 Si02
#       7
#     8   8   8   8   8   8   8
#     4  10  22  41  62  82 109 147 188 228 272 327
#     4  10  20  33  50  75 109 146 184 229 278 327
#     4  10  22  39  58  83 113 145 183 228 279 333
#     4  10  20  35  56  81 110 146 186 227 274 332
#     4  10  20  33  50  75 110 151 191 229 275 336
#     4  10  21  36  57  84 111 142 182 229 279 328
#     4  11  22  35  56  85 114 143 179 228 282 334
#
# _framework density 20.450327999999999
#
# number of rings (size 3 to 8) (size 9 to 14) (size 15 to 20)
#    0.000    1.857    0.000    3.857    0.000    9.429 
#    0.000    0.714    0.000    2.571    0.000    0.000 
#    0.000    0.000    0.000    0.000    0.000    0.000 
#
# Total GULP energy -312263.586179 kJ/mol
# GULP energy per Si atom -5576.135467 kJ/mol
# Density = 2.040378 g / cm^3
# Si number density = 20.450328 Si / 1000 Ang^3
#
#
#
# Elastic Constant Matrix: (Units=GPa)
#
#
# Indices 1 2 3 4 5 6 
#
# 1 88.3972 22.5305 27.7343 0.0000 0.0000 0.0000
# 2 22.5305 48.0930 11.4197 0.0000 0.0000 0.0000
# 3 27.7343 11.4197 60.3359 0.0000 0.0000 0.0000
# 4 0.0000 0.0000 0.0000 28.4816 0.0000 0.0000
# 5 0.0000 0.0000 0.0000 0.0000 26.8521 0.0000
# 6 0.0000 0.0000 0.0000 0.0000 0.0000 21.6383
#
#
#
# Elastic Compliance Matrix: (Units=1/GPa)
#
#
# Indices 1 2 3 4 5 6 
#
# 1 0.014462 -0.005441 -0.005618 0.000000 0.000000 0.000000
# 2 -0.005441 0.023819 -0.002007 0.000000 0.000000 0.000000
# 3 -0.005618 -0.002007 0.019536 0.000000 0.000000 0.000000
# 4 0.000000 0.000000 0.000000 0.035110 0.000000 0.000000
# 5 0.000000 0.000000 0.000000 0.000000 0.037241 0.000000
# 6 0.000000 0.000000 0.000000 0.000000 0.000000 0.046214
#
#
# Mechanical properties :
#
#
# Convention : Reuss Voigt Hill
#
# Bulk Modulus (GPa) = 31.56095 35.57722 33.56909
# Shear Modulus (GPa) = 23.46581 24.40385 23.93483
#
# Velocity S-wave (km/s) = 3.39108 3.45820 3.42481
# Velocity P-wave (km/s) = 5.54969 5.77756 5.66477
#
# Compressibility (1/GPa) = 0.03168472
#
# Stress axis : x y z
#
# Youngs Moduli (GPa) = 69.14688 41.98391 51.18741
#
# Poissons Ratio (x) = 0.22844 0.28756
# Poissons Ratio (y) = 0.37624 0.10273
# Poissons Ratio (z) = 0.38846 0.08426
#
# Static dielectric constant tensor:
#      x y z
#    x 1.809720 0.000000 0.000000 
#    y 0.000000 1.681730 0.000000 
#    z 0.000000 0.000000 1.707540 
# 
# From -- ./inp_files/24227.got.cif
#   From: 2010.05.17/outbox.cif.g08.bks.cpg/sg59_13_cif.got.tgz:24227.got - 2010.06.03 14:40:33.
