data_PCOD9449352
_publ_section_title
;
Structure prediction by ZEFSAII (Michael W. Deem and Ramdas Pophale) SiO2 
 PCOD9449352
Probable space group: P M M N
;
_chemical_formula_sum "Si O2"
_cell_formula_units_Z 64
_cell_length_a 20.116246
_cell_length_b 8.281165
_cell_length_c 22.762659
_cell_angle_alpha 90.000000
_cell_angle_beta 90.000000
_cell_angle_gamma 90.000000
_cell_volume 3791.939227
_symmetry_space_group_name_H-M "P M M N"
_symmetry_group_IT_number 59
_space_group.IT_coordinate_system_code '2'
_symmetry_cell_setting 'orthorhombic'
loop_
_space_group_symop_operation_xyz
x,y,z
1/2-x,1/2-y,z
1/2+x,-y,-z
-x,1/2+y,-z
-x,-y,-z
1/2+x,1/2+y,-z
1/2-x,y,z
x,1/2-y,z
loop_
_atom_site_type_symbol
_atom_site_label
_atom_site_fract_x
_atom_site_fract_y
_atom_site_fract_z
Si Si1 0.041226 0.940253 0.171763
Si Si2 0.325003 0.057110 0.119982
Si Si3 0.891659 0.560802 0.521800
Si Si4 0.541151 0.446832 0.697501
Si Si5 0.676372 0.442512 0.633806
Si Si6 0.462114 0.557731 0.941471
Si Si7 0.973026 0.946041 0.417760
Si Si8 0.676235 0.054386 0.014455
O O1 0.029373 0.750000 0.172513
O O2 0.027724 0.006521 0.236933
O O3 0.118222 0.973473 0.157334
O O4 0.998737 0.008271 0.117916
O O5 0.250000 0.010423 0.137135
O O6 0.331625 0.250000 0.124792
O O7 0.333770 0.008562 0.051814
O O8 0.875699 0.750000 0.522078
O O9 0.840508 0.474280 0.565198
O O10 0.907276 0.508574 0.454624
O O11 0.963335 0.529596 0.552163
O O12 0.544948 0.250000 0.699520
O O13 0.612924 0.503291 0.671638
O O14 0.483438 0.485813 0.650537
O O15 0.750000 0.507346 0.648467
O O16 0.677881 0.250000 0.642405
O O17 0.461795 0.750000 0.943709
O O18 0.385873 0.499600 0.946701
O O19 0.500000 0.500000 0.000000
O O20 0.980431 0.750000 0.424022
O O21 0.750000 0.003113 0.033965
O O22 0.675626 0.250000 0.012022
#
# Coordination Sequence:
#
# PCOD9449352 Si02
#       8
#     8   8   8   8   8   8   8   8
#     4  11  21  32  48  69  93 125 163 201 239 285
#     4  10  20  32  46  65  91 122 155 194 237 281
#     4   9  15  23  41  67  89 110 141 185 231 265
#     4   8  16  30  46  63  85 119 163 196 220 265
#     4   9  17  30  46  63  89 126 162 192 223 265
#     4  11  21  33  51  73  98 123 151 195 248 296
#     4   8  14  27  44  61  84 113 145 182 223 267
#     4   9  18  33  52  71  89 114 150 188 230 285
#
# _framework density 16.877908999999999
#
# number of rings (size 3 to 8) (size 9 to 14) (size 15 to 20)
#    0.000    2.625    1.250    2.250    0.000    2.500 
#    0.000    6.250    0.000    0.000    0.000    0.875 
#    0.000    5.000    0.000    0.000    0.000    0.000 
#
# Total GULP energy -356328.631579 kJ/mol
# GULP energy per Si atom -5567.634868 kJ/mol
# Density = 1.683949 g / cm^3
# Si number density = 16.877909 Si / 1000 Ang^3
#
#
#
# Elastic Constant Matrix: (Units=GPa)
#
#
# Indices 1 2 3 4 5 6 
#
# 1 48.7013 8.0823 46.7204 0.0000 0.0000 0.0000
# 2 8.0823 8.6446 7.9701 0.0000 0.0000 0.0000
# 3 46.7204 7.9701 124.5976 0.0000 0.0000 0.0000
# 4 0.0000 0.0000 0.0000 16.8857 0.0000 0.0000
# 5 0.0000 0.0000 0.0000 0.0000 14.1345 0.0000
# 6 0.0000 0.0000 0.0000 0.0000 0.0000 17.0427
#
#
#
# Elastic Compliance Matrix: (Units=1/GPa)
#
#
# Indices 1 2 3 4 5 6 
#
# 1 0.035723 -0.022369 -0.011964 0.000000 0.000000 0.000000
# 2 -0.022369 0.136935 -0.000372 0.000000 0.000000 0.000000
# 3 -0.011964 -0.000372 0.012536 0.000000 0.000000 0.000000
# 4 0.000000 0.000000 0.000000 0.059222 0.000000 0.000000
# 5 0.000000 0.000000 0.000000 0.000000 0.070749 0.000000
# 6 0.000000 0.000000 0.000000 0.000000 0.000000 0.058676
#
#
# Mechanical properties :
#
#
# Convention : Reuss Voigt Hill
#
# Bulk Modulus (GPa) = 8.63672 34.16546 21.40109
# Shear Modulus (GPa) = 10.37677 17.55731 13.96704
#
# Velocity S-wave (km/s) = 2.48223 3.22880 2.87981
# Velocity P-wave (km/s) = 3.65289 5.84695 4.87496
#
# Compressibility (1/GPa) = 0.11578472
#
# Stress axis : x y z
#
# Youngs Moduli (GPa) = 27.99296 7.30272 79.77121
#
# Poissons Ratio (x) = 0.16335 0.95441
# Poissons Ratio (y) = 0.62617 0.02964
# Poissons Ratio (z) = 0.33492 0.00271
#
# Static dielectric constant tensor:
#      x y z
#    x 1.593000 0.000000 0.000000 
#    y 0.000000 1.583850 0.000000 
#    z 0.000000 0.000000 1.732530 
# 
# From -- ./inp_files/30987.got.cif
#   From: 2010.05.17/outbox.cif.g08.bks.cpg/sg59_16_cif.got.tgz:30987.got - 2010.06.03 14:40:33.
