data_PCOD9449669
_publ_section_title
;
Structure prediction by ZEFSAII (Michael W. Deem and Ramdas Pophale) SiO2 
 PCOD9449669
Probable space group: P M M N
;
_chemical_formula_sum "Si O2"
_cell_formula_units_Z 64
_cell_length_a 23.683299
_cell_length_b 8.718611
_cell_length_c 18.731270
_cell_angle_alpha 90.000000
_cell_angle_beta 90.000000
_cell_angle_gamma 90.000000
_cell_volume 3867.735112
_symmetry_space_group_name_H-M "P M M N"
_symmetry_group_IT_number 59
_space_group.IT_coordinate_system_code '2'
_symmetry_cell_setting 'orthorhombic'
loop_
_space_group_symop_operation_xyz
x,y,z
1/2-x,1/2-y,z
1/2+x,-y,-z
-x,1/2+y,-z
-x,-y,-z
1/2+x,1/2+y,-z
1/2-x,y,z
x,1/2-y,z
loop_
_atom_site_type_symbol
_atom_site_label
_atom_site_fract_x
_atom_site_fract_y
_atom_site_fract_z
Si Si1 0.495531 0.433588 0.079938
Si Si2 0.628604 0.935542 0.865556
Si Si3 0.110045 0.431948 0.869087
Si Si4 0.181392 0.071391 0.591642
Si Si5 0.183882 0.567488 0.742340
Si Si6 0.684523 0.432761 0.004021
Si Si7 0.184071 0.436956 0.281566
Si Si8 0.183000 0.435518 0.437093
O O1 0.498008 0.250000 0.075421
O O2 0.435617 0.476935 0.114738
O O3 0.548308 0.494158 0.124992
O O4 0.500000 0.500000 0.000000
O O5 0.633460 0.750000 0.869579
O O6 0.648171 0.984946 0.786838
O O7 0.668268 0.008410 0.925737
O O8 0.105007 0.250000 0.869547
O O9 0.144894 0.487378 0.800539
O O10 0.144629 0.486122 0.938699
O O11 0.250000 0.069174 0.587886
O O12 0.164887 0.250000 0.600234
O O13 0.160943 0.010645 0.514277
O O14 0.166079 0.978278 0.662127
O O15 0.250000 0.521626 0.751516
O O16 0.180843 0.750000 0.751638
O O17 0.750000 0.465980 0.019648
O O18 0.676069 0.250000 0.008535
O O19 0.250000 0.482297 0.273262
O O20 0.183846 0.250000 0.282953
O O21 0.161657 0.488235 0.359563
O O22 0.250000 0.468684 0.434873
O O23 0.177764 0.250000 0.439681
#
# Coordination Sequence:
#
# PCOD9449669 Si02
#       8
#     8   8   8   8   8   8   8   8
#     4  11  22  37  55  74  96 126 166 212 255 295
#     4  10  20  33  52  75  97 127 167 206 245 290
#     4  12  24  37  54  73  93 125 166 208 251 293
#     4   8  13  23  41  66  96 130 165 194 224 275
#     4  10  20  33  49  72 103 133 159 195 246 298
#     4  11  23  36  51  72 100 131 159 194 245 300
#     4   8  13  23  42  71 104 131 158 197 239 281
#     4   7  10  18  36  64  97 130 160 191 229 273
#
# _framework density 16.547152000000001
#
# number of rings (size 3 to 8) (size 9 to 14) (size 15 to 20)
#    0.000    2.375    1.250    4.500    0.000    4.250 
#    0.000    0.000    0.000    0.750    0.000    4.375 
#    0.000    0.000    0.000    0.000    0.000    0.000 
#
# Total GULP energy -356730.482633 kJ/mol
# GULP energy per Si atom -5573.913791 kJ/mol
# Density = 1.650949 g / cm^3
# Si number density = 16.547152 Si / 1000 Ang^3
#
#
#
# Elastic Constant Matrix: (Units=GPa)
#
#
# Indices 1 2 3 4 5 6 
#
# 1 49.5112 17.9422 19.0842 0.0000 0.0000 0.0000
# 2 17.9422 25.6843 8.6230 0.0000 0.0000 0.0000
# 3 19.0842 8.6230 103.8572 0.0000 0.0000 0.0000
# 4 0.0000 0.0000 0.0000 6.5693 0.0000 0.0000
# 5 0.0000 0.0000 0.0000 0.0000 2.0566 0.0000
# 6 0.0000 0.0000 0.0000 0.0000 0.0000 17.1475
#
#
#
# Elastic Compliance Matrix: (Units=1/GPa)
#
#
# Indices 1 2 3 4 5 6 
#
# 1 0.028338 -0.018565 -0.003666 0.000000 0.000000 0.000000
# 2 -0.018565 0.052214 -0.000924 0.000000 0.000000 0.000000
# 3 -0.003666 -0.000924 0.010379 0.000000 0.000000 0.000000
# 4 0.000000 0.000000 0.000000 0.152224 0.000000 0.000000
# 5 0.000000 0.000000 0.000000 0.000000 0.486246 0.000000
# 6 0.000000 0.000000 0.000000 0.000000 0.000000 0.058318
#
#
# Mechanical properties :
#
#
# Convention : Reuss Voigt Hill
#
# Bulk Modulus (GPa) = 22.41101 30.03903 26.22502
# Shear Modulus (GPa) = 5.88996 14.04822 9.96909
#
# Velocity S-wave (km/s) = 1.88871 2.91689 2.45718
# Velocity P-wave (km/s) = 4.28129 5.43483 4.89218
#
# Compressibility (1/GPa) = 0.04462093
#
# Stress axis : x y z
#
# Youngs Moduli (GPa) = 35.28791 19.15208 96.34925
#
# Poissons Ratio (x) = 0.35557 0.35320
# Poissons Ratio (y) = 0.65514 0.08900
# Poissons Ratio (z) = 0.12936 0.01769
#
# Static dielectric constant tensor:
#      x y z
#    x 1.536440 0.000000 0.000000 
#    y 0.000000 1.558380 0.000000 
#    z 0.000000 0.000000 1.585940 
# 
# From -- ./inp_files/28406.got.cif
#   From: 2010.05.17/outbox.cif.g08.bks.cpg/sg59_15_cif.got.tgz:28406.got - 2010.06.03 14:40:33.
