data_PCOD9449165
_publ_section_title
;
Structure prediction by ZEFSAII (Michael W. Deem and Ramdas Pophale) SiO2 
 PCOD9449165
Probable space group: P M M N
;
_chemical_formula_sum "Si O2"
_cell_formula_units_Z 64
_cell_length_a 19.161063
_cell_length_b 18.739709
_cell_length_c 10.144781
_cell_angle_alpha 90.000000
_cell_angle_beta 90.000000
_cell_angle_gamma 90.000000
_cell_volume 3642.714359
_symmetry_space_group_name_H-M "P M M N"
_symmetry_group_IT_number 59
_space_group.IT_coordinate_system_code '2'
_symmetry_cell_setting 'orthorhombic'
loop_
_space_group_symop_operation_xyz
x,y,z
1/2-x,1/2-y,z
1/2+x,-y,-z
-x,1/2+y,-z
-x,-y,-z
1/2+x,1/2+y,-z
1/2-x,y,z
x,1/2-y,z
loop_
_atom_site_type_symbol
_atom_site_label
_atom_site_fract_x
_atom_site_fract_y
_atom_site_fract_z
Si Si1 0.169930 0.604417 0.262569
Si Si2 0.668612 0.666986 0.555331
Si Si3 0.831385 0.165862 0.442009
Si Si4 0.531639 0.334605 0.840614
Si Si5 0.330525 0.439778 0.200569
Si Si6 0.450278 0.406157 0.597746
Si Si7 0.548925 0.429136 0.345858
Si Si8 0.972310 0.927344 0.933114
O O1 0.250000 0.618809 0.221988
O O2 0.160666 0.636171 0.408896
O O3 0.111500 0.638635 0.170260
O O4 0.159784 0.518903 0.262398
O O5 0.750000 0.660686 0.518157
O O6 0.653479 0.750000 0.582489
O O7 0.658656 0.618717 0.685407
O O8 0.618041 0.637220 0.443274
O O9 0.750000 0.157116 0.405946
O O10 0.848060 0.250000 0.440438
O O11 0.883302 0.120546 0.352346
O O12 0.528917 0.250000 0.830783
O O13 0.491504 0.370371 0.717642
O O14 0.496262 0.363755 0.972749
O O15 0.250000 0.434787 0.155000
O O16 0.389272 0.430599 0.090079
O O17 0.500021 0.408128 0.469333
O O18 0.432779 0.487686 0.634352
O O19 0.506991 0.421225 0.210588
O O20 0.000000 0.000000 0.000000
#
# Coordination Sequence:
#
# PCOD9449165 Si02
#       8
#     8   8   8   8   8   8   8   8
#     4  10  19  35  61  91 122 159 202 250 304 363
#     4  10  21  36  58  91 125 155 198 260 315 358
#     4  10  21  36  57  91 130 162 199 252 309 366
#     4  12  25  40  62  92 125 163 203 251 309 366
#     4  10  20  38  64  88 117 161 210 251 300 365
#     4  11  21  38  62  90 118 152 203 259 303 363
#     4  11  22  37  64  89 117 159 207 248 306 353
#     4  12  23  43  61  87 126 163 201 252 301 365
#
# _framework density 17.569316000000001
#
# number of rings (size 3 to 8) (size 9 to 14) (size 15 to 20)
#    0.000    1.250    5.000    1.500    0.000    3.750 
#    0.000    1.875    0.000    0.750    0.000    0.000 
#    0.000    0.000    0.000    0.000    0.000    0.000 
#
# Total GULP energy -357504.151393 kJ/mol
# GULP energy per Si atom -5586.002366 kJ/mol
# Density = 1.752933 g / cm^3
# Si number density = 17.569316 Si / 1000 Ang^3
#
#
#
# Elastic Constant Matrix: (Units=GPa)
#
#
# Indices 1 2 3 4 5 6 
#
# 1 120.7658 71.2491 48.4630 0.0000 0.0000 0.0000
# 2 71.2491 135.3344 44.5506 0.0000 0.0000 0.0000
# 3 48.4630 44.5506 82.3895 0.0000 0.0000 0.0000
# 4 0.0000 0.0000 0.0000 16.7192 0.0000 0.0000
# 5 0.0000 0.0000 0.0000 0.0000 29.7478 0.0000
# 6 0.0000 0.0000 0.0000 0.0000 0.0000 28.1306
#
#
#
# Elastic Compliance Matrix: (Units=1/GPa)
#
#
# Indices 1 2 3 4 5 6 
#
# 1 0.013510 -0.005470 -0.004989 0.000000 0.000000 0.000000
# 2 -0.005470 0.011204 -0.002841 0.000000 0.000000 0.000000
# 3 -0.004989 -0.002841 0.016608 0.000000 0.000000 0.000000
# 4 0.000000 0.000000 0.000000 0.059812 0.000000 0.000000
# 5 0.000000 0.000000 0.000000 0.000000 0.033616 0.000000
# 6 0.000000 0.000000 0.000000 0.000000 0.000000 0.035548
#
#
# Mechanical properties :
#
#
# Convention : Reuss Voigt Hill
#
# Bulk Modulus (GPa) = 67.92338 74.11280 71.01809
# Shear Modulus (GPa) = 24.77641 26.53464 25.65552
#
# Velocity S-wave (km/s) = 3.75935 3.89045 3.82546
# Velocity P-wave (km/s) = 7.58866 7.90288 7.74736
#
# Compressibility (1/GPa) = 0.01472247
#
# Stress axis : x y z
#
# Youngs Moduli (GPa) = 74.02058 89.25274 60.21179
#
# Poissons Ratio (x) = 0.48823 0.30038
# Poissons Ratio (y) = 0.40491 0.17105
# Poissons Ratio (z) = 0.36927 0.25355
#
# Static dielectric constant tensor:
#      x y z
#    x 1.615780 0.000000 0.000000 
#    y 0.000000 1.587780 0.000000 
#    z 0.000000 0.000000 1.566630 
# 
# From -- ./inp_files/11598.got.cif
#   From: 2010.05.17/outbox.cif.g08.bks.cpg/sg59_6_cif.got.tgz:11598.got - 2010.06.03 14:40:33.
