data_PCOD9449650
_publ_section_title
;
Structure prediction by ZEFSAII (Michael W. Deem and Ramdas Pophale) SiO2 
 PCOD9449650
Probable space group: P M M N
;
_chemical_formula_sum "Si O2"
_cell_formula_units_Z 56
_cell_length_a 9.136088
_cell_length_b 14.636212
_cell_length_c 21.007360
_cell_angle_alpha 90.000000
_cell_angle_beta 90.000000
_cell_angle_gamma 90.000000
_cell_volume 2809.056300
_symmetry_space_group_name_H-M "P M M N"
_symmetry_group_IT_number 59
_space_group.IT_coordinate_system_code '2'
_symmetry_cell_setting 'orthorhombic'
loop_
_space_group_symop_operation_xyz
x,y,z
1/2-x,1/2-y,z
1/2+x,-y,-z
-x,1/2+y,-z
-x,-y,-z
1/2+x,1/2+y,-z
1/2-x,y,z
x,1/2-y,z
loop_
_atom_site_type_symbol
_atom_site_label
_atom_site_fract_x
_atom_site_fract_y
_atom_site_fract_z
Si Si1 0.925594 0.450927 0.276280
Si Si2 0.076347 0.357847 0.536381
Si Si3 0.577206 0.532687 0.594977
Si Si4 0.074633 0.152687 0.769174
Si Si5 0.583218 0.399807 0.892638
Si Si6 0.415015 0.645326 0.972316
Si Si7 0.914995 0.892836 0.845801
O O1 0.750000 0.444915 0.275811
O O2 0.969736 0.557726 0.263668
O O3 0.993230 0.427935 0.344219
O O4 0.992729 0.390998 0.219058
O O5 0.250000 0.363586 0.552536
O O6 0.034841 0.250000 0.540836
O O7 0.058658 0.399015 0.465076
O O8 0.988797 0.432397 0.578157
O O9 0.750000 0.524272 0.607597
O O10 0.250000 0.151131 0.770312
O O11 0.027882 0.250000 0.739235
O O12 0.014768 0.150695 0.841122
O O13 0.750000 0.363532 0.895570
O O14 0.593139 0.501086 0.865221
O O15 0.523715 0.403380 0.964637
O O16 0.250000 0.610265 0.959167
O O17 0.405784 0.750000 0.993489
O O18 0.505187 0.646017 0.907624
O O19 0.750000 0.858399 0.837221
#
# Coordination Sequence:
#
# PCOD9449650 Si02
#       7
#     8   8   8   8   8   8   8
#     4  10  20  35  54  74 103 144 180 212 257 312
#     4   9  19  37  60  85 115 150 182 214 260 317
#     4  10  20  35  57  86 116 144 181 227 267 308
#     4   9  18  31  47  70  99 131 170 214 259 312
#     4   9  18  32  50  71  95 126 163 206 261 320
#     4  10  20  33  49  70  97 128 163 207 262 320
#     4  10  20  34  52  73  97 128 170 216 258 305
#
# _framework density 19.935521999999999
#
# number of rings (size 3 to 8) (size 9 to 14) (size 15 to 20)
#    0.000    2.429    0.000    2.143    0.000    4.286 
#    0.000    2.143    0.000    2.571    0.000    0.000 
#    0.000    0.000    0.000    0.000    0.000    0.000 
#
# Total GULP energy -312097.727405 kJ/mol
# GULP energy per Si atom -5573.173704 kJ/mol
# Density = 1.989015 g / cm^3
# Si number density = 19.935522 Si / 1000 Ang^3
#
#
#
# Elastic Constant Matrix: (Units=GPa)
#
#
# Indices 1 2 3 4 5 6 
#
# 1 55.4526 0.7943 41.8609 0.0000 0.0000 0.0000
# 2 0.7943 40.8356 -17.5704 0.0000 0.0000 0.0000
# 3 41.8609 -17.5704 89.5044 0.0000 0.0000 0.0000
# 4 0.0000 0.0000 0.0000 9.7522 0.0000 0.0000
# 5 0.0000 0.0000 0.0000 0.0000 36.0257 0.0000
# 6 0.0000 0.0000 0.0000 0.0000 0.0000 72.9981
#
#
#
# Elastic Compliance Matrix: (Units=1/GPa)
#
#
# Indices 1 2 3 4 5 6 
#
# 1 0.029672 -0.007152 -0.015281 0.000000 0.000000 0.000000
# 2 -0.007152 0.028472 0.008934 0.000000 0.000000 0.000000
# 3 -0.015281 0.008934 0.020074 0.000000 0.000000 0.000000
# 4 0.000000 0.000000 0.000000 0.102541 0.000000 0.000000
# 5 0.000000 0.000000 0.000000 0.000000 0.027758 0.000000
# 6 0.000000 0.000000 0.000000 0.000000 0.000000 0.013699
#
#
# Mechanical properties :
#
#
# Convention : Reuss Voigt Hill
#
# Bulk Modulus (GPa) = 19.52429 26.21802 22.87116
# Shear Modulus (GPa) = 18.77678 34.46907 26.62292
#
# Velocity S-wave (km/s) = 3.07233 4.16267 3.65835
# Velocity P-wave (km/s) = 4.73293 6.02360 5.41684
#
# Compressibility (1/GPa) = 0.05121825
#
# Stress axis : x y z
#
# Youngs Moduli (GPa) = 33.70215 35.12254 49.81676
#
# Poissons Ratio (x) = 0.25121 0.76127
# Poissons Ratio (y) = 0.24105 -0.44508
# Poissons Ratio (z) = 0.51502 -0.31380
#
# Static dielectric constant tensor:
#      x y z
#    x 1.699250 0.000000 0.000000 
#    y 0.000000 1.748310 0.000000 
#    z 0.000000 0.000000 1.700630 
# 
# From -- ./inp_files/28985.got.cif
#   From: 2010.05.17/outbox.cif.g08.bks.cpg/sg59_15_cif.got.tgz:28985.got - 2010.06.03 14:40:33.
