data_PCOD9449477
_publ_section_title
;
Structure prediction by ZEFSAII (Michael W. Deem and Ramdas Pophale) SiO2 
 PCOD9449477
Probable space group: P M M N
;
_chemical_formula_sum "Si O2"
_cell_formula_units_Z 48
_cell_length_a 7.528866
_cell_length_b 9.389244
_cell_length_c 32.498710
_cell_angle_alpha 90.000000
_cell_angle_beta 90.000000
_cell_angle_gamma 90.000000
_cell_volume 2297.345507
_symmetry_space_group_name_H-M "P M M N"
_symmetry_group_IT_number 59
_space_group.IT_coordinate_system_code '2'
_symmetry_cell_setting 'orthorhombic'
loop_
_space_group_symop_operation_xyz
x,y,z
1/2-x,1/2-y,z
1/2+x,-y,-z
-x,1/2+y,-z
-x,-y,-z
1/2+x,1/2+y,-z
1/2-x,y,z
x,1/2-y,z
loop_
_atom_site_type_symbol
_atom_site_label
_atom_site_fract_x
_atom_site_fract_y
_atom_site_fract_z
Si Si1 0.037359 0.588263 0.380358
Si Si2 0.036626 0.088543 0.959385
Si Si3 0.043122 0.076366 0.870958
Si Si4 0.536517 0.088551 0.298304
Si Si5 0.963183 0.912064 0.541208
Si Si6 0.467767 0.415306 0.780976
O O1 0.250000 0.597398 0.385236
O O2 0.967997 0.750000 0.379564
O O3 0.968344 0.497313 0.419004
O O4 0.003898 0.506190 0.338011
O O5 0.250000 0.095347 0.955036
O O6 0.970639 0.250000 0.964720
O O7 0.968115 0.030554 0.915263
O O8 0.000000 0.000000 0.000000
O O9 0.250000 0.032596 0.870161
O O10 0.038900 0.250000 0.871810
O O11 0.968849 0.036339 0.826312
O O12 0.750000 0.095354 0.295115
O O13 0.469722 0.250000 0.302816
O O14 0.472353 0.012226 0.256703
O O15 0.750000 0.903305 0.545264
O O16 0.031169 0.750000 0.538980
O O17 0.000000 0.000000 0.500000
O O18 0.250000 0.416898 0.781904
O O19 0.518554 0.250000 0.774615
#
# Coordination Sequence:
#
# PCOD9449477 Si02
#       6
#     8   8   8   8   8   8
#     4  10  21  37  56  76  99 131 170 207 242 283
#     4   9  17  29  45  66  92 121 154 193 236 283
#     4   7  11  22  41  63  86 115 152 192 234 279
#     4  10  20  32  48  74 105 132 158 193 240 290
#     4  10  21  37  57  80 105 134 167 203 245 290
#     4   8  13  24  44  67  90 118 154 197 240 279
#
# _framework density 20.893678999999999
#
# number of rings (size 3 to 8) (size 9 to 14) (size 15 to 20)
#    0.000    3.000    0.000    3.500    0.000    4.000 
#    0.000    0.833    0.000    4.000    0.000    2.333 
#    0.000    0.000    0.000    0.000    0.000    0.000 
#
# Total GULP energy -267701.886886 kJ/mol
# GULP energy per Si atom -5577.122643 kJ/mol
# Density = 2.084612 g / cm^3
# Si number density = 20.893679 Si / 1000 Ang^3
#
#
#
# Elastic Constant Matrix: (Units=GPa)
#
#
# Indices 1 2 3 4 5 6 
#
# 1 52.9321 7.1109 2.7281 0.0000 0.0000 0.0000
# 2 7.1109 155.4929 124.6483 0.0000 0.0000 0.0000
# 3 2.7281 124.6483 254.0029 0.0000 0.0000 0.0000
# 4 0.0000 0.0000 0.0000 38.3225 0.0000 0.0000
# 5 0.0000 0.0000 0.0000 0.0000 18.0795 0.0000
# 6 0.0000 0.0000 0.0000 0.0000 0.0000 12.4921
#
#
#
# Elastic Compliance Matrix: (Units=1/GPa)
#
#
# Indices 1 2 3 4 5 6 
#
# 1 0.019030 -0.001165 0.000367 0.000000 0.000000 0.000000
# 2 -0.001165 0.010673 -0.005225 0.000000 0.000000 0.000000
# 3 0.000367 -0.005225 0.006497 0.000000 0.000000 0.000000
# 4 0.000000 0.000000 0.000000 0.026094 0.000000 0.000000
# 5 0.000000 0.000000 0.000000 0.000000 0.055311 0.000000
# 6 0.000000 0.000000 0.000000 0.000000 0.000000 0.080051
#
#
# Mechanical properties :
#
#
# Convention : Reuss Voigt Hill
#
# Bulk Modulus (GPa) = 41.39972 81.26694 61.33333
# Shear Modulus (GPa) = 22.96178 35.64152 29.30165
#
# Velocity S-wave (km/s) = 3.31869 4.13468 3.74895
# Velocity P-wave (km/s) = 5.87728 7.85964 6.93961
#
# Compressibility (1/GPa) = 0.02415475
#
# Stress axis : x y z
#
# Youngs Moduli (GPa) = 52.54954 93.69370 153.91272
#
# Poissons Ratio (x) = 0.10911 -0.05650
# Poissons Ratio (y) = 0.06120 0.80422
# Poissons Ratio (z) = -0.01929 0.48956
#
# Static dielectric constant tensor:
#      x y z
#    x 1.830990 0.000000 0.000000 
#    y 0.000000 1.723020 0.000000 
#    z 0.000000 0.000000 1.753550 
# 
# From -- ./inp_files/32593.got.cif
#   From: 2010.05.17/outbox.cif.g08.bks.cpg/sg59_17_cif.got.tgz:32593.got - 2010.06.03 14:40:33.
