data_PCOD9449443
_publ_section_title
;
Structure prediction by ZEFSAII (Michael W. Deem and Ramdas Pophale) SiO2 
 PCOD9449443
Probable space group: P M M N
;
_chemical_formula_sum "Si O2"
_cell_formula_units_Z 48
_cell_length_a 7.481391
_cell_length_b 9.452514
_cell_length_c 31.805842
_cell_angle_alpha 90.000000
_cell_angle_beta 90.000000
_cell_angle_gamma 90.000000
_cell_volume 2249.244045
_symmetry_space_group_name_H-M "P M M N"
_symmetry_group_IT_number 59
_space_group.IT_coordinate_system_code '2'
_symmetry_cell_setting 'orthorhombic'
loop_
_space_group_symop_operation_xyz
x,y,z
1/2-x,1/2-y,z
1/2+x,-y,-z
-x,1/2+y,-z
-x,-y,-z
1/2+x,1/2+y,-z
1/2-x,y,z
x,1/2-y,z
loop_
_atom_site_type_symbol
_atom_site_label
_atom_site_fract_x
_atom_site_fract_y
_atom_site_fract_z
Si Si1 0.467999 0.913340 0.284600
Si Si2 0.463720 0.089147 0.878491
Si Si3 0.535218 0.589686 0.795103
Si Si4 0.031988 0.913111 0.379106
Si Si5 0.464322 0.911228 0.958049
Si Si6 0.964311 0.590535 0.541485
O O1 0.250000 0.914834 0.284256
O O2 0.521132 0.750000 0.277172
O O3 0.523433 0.954364 0.331865
O O4 0.530634 0.014781 0.247475
O O5 0.250000 0.098731 0.883796
O O6 0.533491 0.250000 0.877743
O O7 0.495821 0.007196 0.835196
O O8 0.533488 0.996953 0.917591
O O9 0.750000 0.597147 0.791765
O O10 0.468166 0.750000 0.800325
O O11 0.250000 0.915108 0.379356
O O12 0.978996 0.750000 0.386278
O O13 0.968392 0.012045 0.416693
O O14 0.250000 0.901915 0.953694
O O15 0.532614 0.750000 0.960480
O O16 0.500000 0.000000 0.000000
O O17 0.750000 0.598404 0.545711
O O18 0.033393 0.750000 0.537376
O O19 0.000000 0.500000 0.500000
#
# Coordination Sequence:
#
# PCOD9449443 Si02
#       6
#     8   8   8   8   8   8
#     4   8  14  26  45  69  97 128 161 199 243 289
#     4  10  21  37  56  76 100 134 173 209 248 295
#     4  10  20  32  49  76 106 134 165 203 247 292
#     4   8  14  26  45  68  94 125 160 198 242 291
#     4  10  21  37  57  80 105 134 168 206 249 295
#     4  10  20  32  48  71  97 127 163 201 244 294
#
# _framework density 21.340503999999999
#
# number of rings (size 3 to 8) (size 9 to 14) (size 15 to 20)
#    0.000    2.667    0.000    3.000    0.000    5.333 
#    0.000    3.333    0.000    1.000    0.000    7.000 
#    0.000    0.000    0.000    0.000    0.000    0.000 
#
# Total GULP energy -268102.722007 kJ/mol
# GULP energy per Si atom -5585.473375 kJ/mol
# Density = 2.129193 g / cm^3
# Si number density = 21.340504 Si / 1000 Ang^3
#
#
#
# Elastic Constant Matrix: (Units=GPa)
#
#
# Indices 1 2 3 4 5 6 
#
# 1 61.3237 8.1259 -0.0519 0.0000 0.0000 0.0000
# 2 8.1259 224.2141 157.4060 0.0000 0.0000 0.0000
# 3 -0.0519 157.4060 220.4862 0.0000 0.0000 0.0000
# 4 0.0000 0.0000 0.0000 46.5142 0.0000 0.0000
# 5 0.0000 0.0000 0.0000 0.0000 18.0267 0.0000
# 6 0.0000 0.0000 0.0000 0.0000 0.0000 11.5109
#
#
#
# Elastic Compliance Matrix: (Units=1/GPa)
#
#
# Indices 1 2 3 4 5 6 
#
# 1 0.016467 -0.001202 0.000862 0.000000 0.000000 0.000000
# 2 -0.001202 0.009029 -0.006446 0.000000 0.000000 0.000000
# 3 0.000862 -0.006446 0.009138 0.000000 0.000000 0.000000
# 4 0.000000 0.000000 0.000000 0.021499 0.000000 0.000000
# 5 0.000000 0.000000 0.000000 0.000000 0.055473 0.000000
# 6 0.000000 0.000000 0.000000 0.000000 0.000000 0.086874
#
#
# Mechanical properties :
#
#
# Convention : Reuss Voigt Hill
#
# Bulk Modulus (GPa) = 47.48054 92.99822 70.23938
# Shear Modulus (GPa) = 22.82353 37.91328 30.36841
#
# Velocity S-wave (km/s) = 3.27386 4.21953 3.77641
# Velocity P-wave (km/s) = 6.04882 8.21049 7.21111
#
# Compressibility (1/GPa) = 0.02106126
#
# Stress axis : x y z
#
# Youngs Moduli (GPa) = 60.72786 110.75476 109.43882
#
# Poissons Ratio (x) = 0.13311 -0.09433
# Poissons Ratio (y) = 0.07299 0.70545
# Poissons Ratio (z) = -0.05234 0.71394
#
# Static dielectric constant tensor:
#      x y z
#    x 1.850790 0.000000 0.000000 
#    y 0.000000 1.760500 0.000000 
#    z 0.000000 0.000000 1.724910 
# 
# From -- ./inp_files/31845.got.cif
#   From: 2010.05.17/outbox.cif.g08.bks.cpg/sg59_16_cif.got.tgz:31845.got - 2010.06.03 14:40:33.
