data_PCOD9449455
_publ_section_title
;
Structure prediction by ZEFSAII (Michael W. Deem and Ramdas Pophale) SiO2 
 PCOD9449455
Probable space group: P M M N
;
_chemical_formula_sum "Si O2"
_cell_formula_units_Z 64
_cell_length_a 9.258405
_cell_length_b 14.386737
_cell_length_c 25.921223
_cell_angle_alpha 90.000000
_cell_angle_beta 90.000000
_cell_angle_gamma 90.000000
_cell_volume 3452.661225
_symmetry_space_group_name_H-M "P M M N"
_symmetry_group_IT_number 59
_space_group.IT_coordinate_system_code '2'
_symmetry_cell_setting 'orthorhombic'
loop_
_space_group_symop_operation_xyz
x,y,z
1/2-x,1/2-y,z
1/2+x,-y,-z
-x,1/2+y,-z
-x,-y,-z
1/2+x,1/2+y,-z
1/2-x,y,z
x,1/2-y,z
loop_
_atom_site_type_symbol
_atom_site_label
_atom_site_fract_x
_atom_site_fract_y
_atom_site_fract_z
Si Si1 0.420584 0.591189 0.018379
Si Si2 0.082794 0.138447 0.189601
Si Si3 0.577677 0.360419 0.683165
Si Si4 0.421660 0.859046 0.134143
Si Si5 0.407739 0.644918 0.906246
Si Si6 0.577759 0.532142 0.224857
Si Si7 0.076165 0.356492 0.475563
Si Si8 0.922712 0.450126 0.572390
O O1 0.250000 0.575621 0.023386
O O2 0.467682 0.626245 0.074329
O O3 0.500000 0.500000 0.000000
O O4 0.440198 0.650732 0.966683
O O5 0.250000 0.114803 0.197100
O O6 0.068790 0.250000 0.197891
O O7 0.034080 0.111214 0.130942
O O8 0.982784 0.073358 0.224516
O O9 0.750000 0.371069 0.693364
O O10 0.547814 0.250000 0.680724
O O11 0.487838 0.410248 0.727716
O O12 0.545176 0.409444 0.628600
O O13 0.250000 0.881605 0.138792
O O14 0.436690 0.750000 0.146324
O O15 0.514818 0.918651 0.173543
O O16 0.250000 0.597105 0.899514
O O17 0.389947 0.750000 0.888317
O O18 0.750000 0.532866 0.225006
O O19 0.250000 0.356425 0.481105
O O20 0.032673 0.250000 0.462696
O O21 0.040467 0.440425 0.435697
O O22 0.004077 0.390518 0.528818
O O23 0.750000 0.440883 0.564190
#
# Coordination Sequence:
#
# PCOD9449455 Si02
#       8
#     8   8   8   8   8   8   8   8
#     4  10  20  32  48  72 101 134 170 209 259 318
#     4  10  21  38  60  83 106 136 176 219 266 326
#     4  10  21  38  59  81 108 145 189 235 279 324
#     4  10  21  38  58  78 105 143 184 225 270 324
#     4   9  17  31  51  74 100 128 160 202 254 312
#     4  12  25  39  57  81 109 140 178 228 282 333
#     4   9  17  30  51  82 120 156 187 225 275 326
#     4   9  18  33  54  81 113 151 195 236 273 319
#
# _framework density 18.536425000000001
#
# number of rings (size 3 to 8) (size 9 to 14) (size 15 to 20)
#    0.000    2.125    0.000    3.375    0.000    8.500 
#    0.000    0.625    0.000    4.500    0.000    0.000 
#    0.000    0.000    0.000    0.000    0.000    0.000 
#
# Total GULP energy -356635.283346 kJ/mol
# GULP energy per Si atom -5572.426302 kJ/mol
# Density = 1.849424 g / cm^3
# Si number density = 18.536425 Si / 1000 Ang^3
#
#
#
# Elastic Constant Matrix: (Units=GPa)
#
#
# Indices 1 2 3 4 5 6 
#
# 1 66.4205 64.7026 58.6442 0.0000 0.0000 0.0000
# 2 64.7026 124.8905 60.0828 0.0000 0.0000 0.0000
# 3 58.6442 60.0828 95.0390 0.0000 0.0000 0.0000
# 4 0.0000 0.0000 0.0000 26.7314 0.0000 0.0000
# 5 0.0000 0.0000 0.0000 0.0000 28.0750 0.0000
# 6 0.0000 0.0000 0.0000 0.0000 0.0000 21.9294
#
#
#
# Elastic Compliance Matrix: (Units=1/GPa)
#
#
# Indices 1 2 3 4 5 6 
#
# 1 0.046619 -0.014820 -0.019397 0.000000 0.000000 0.000000
# 2 -0.014820 0.016218 -0.001108 0.000000 0.000000 0.000000
# 3 -0.019397 -0.001108 0.023191 0.000000 0.000000 0.000000
# 4 0.000000 0.000000 0.000000 0.037409 0.000000 0.000000
# 5 0.000000 0.000000 0.000000 0.000000 0.035619 0.000000
# 6 0.000000 0.000000 0.000000 0.000000 0.000000 0.045601
#
#
# Mechanical properties :
#
#
# Convention : Reuss Voigt Hill
#
# Bulk Modulus (GPa) = 65.02961 72.57880 68.80420
# Shear Modulus (GPa) = 17.82954 22.20852 20.01903
#
# Velocity S-wave (km/s) = 3.10476 3.46512 3.28988
# Velocity P-wave (km/s) = 6.92899 7.43297 7.18540
#
# Compressibility (1/GPa) = 0.01537761
#
# Stress axis : x y z
#
# Youngs Moduli (GPa) = 21.45066 61.65957 43.11945
#
# Poissons Ratio (x) = 0.91382 0.83638
# Poissons Ratio (y) = 0.31791 0.04777
# Poissons Ratio (z) = 0.41608 0.06832
#
# Static dielectric constant tensor:
#      x y z
#    x 1.630850 0.000000 0.000000 
#    y 0.000000 1.654830 0.000000 
#    z 0.000000 0.000000 1.644260 
# 
# From -- ./inp_files/31477.got.cif
#   From: 2010.05.17/outbox.cif.g08.bks.cpg/sg59_16_cif.got.tgz:31477.got - 2010.06.03 14:40:33.
