data_PCOD9449774
_publ_section_title
;
Structure prediction by ZEFSAII (Michael W. Deem and Ramdas Pophale) SiO2 
 PCOD9449774
Probable space group: P M M N
;
_chemical_formula_sum "Si O2"
_cell_formula_units_Z 64
_cell_length_a 8.952866
_cell_length_b 14.800341
_cell_length_c 26.833763
_cell_angle_alpha 90.000000
_cell_angle_beta 90.000000
_cell_angle_gamma 90.000000
_cell_volume 3555.620371
_symmetry_space_group_name_H-M "P M M N"
_symmetry_group_IT_number 59
_space_group.IT_coordinate_system_code '2'
_symmetry_cell_setting 'orthorhombic'
loop_
_space_group_symop_operation_xyz
x,y,z
1/2-x,1/2-y,z
1/2+x,-y,-z
-x,1/2+y,-z
-x,-y,-z
1/2+x,1/2+y,-z
1/2-x,y,z
x,1/2-y,z
loop_
_atom_site_type_symbol
_atom_site_label
_atom_site_fract_x
_atom_site_fract_y
_atom_site_fract_z
Si Si1 0.574059 0.357620 0.373850
Si Si2 0.428589 0.494871 0.922226
Si Si3 0.072228 0.999782 0.445567
Si Si4 0.070761 0.499129 0.186020
Si Si5 0.573701 0.642469 0.373152
Si Si6 0.426521 0.356512 0.269256
Si Si7 0.926948 0.143714 0.731675
Si Si8 0.430046 0.644932 0.002894
O O1 0.750000 0.376567 0.378515
O O2 0.550724 0.250000 0.379609
O O3 0.483916 0.413665 0.414486
O O4 0.517140 0.382485 0.318583
O O5 0.250000 0.487240 0.922084
O O6 0.490387 0.501038 0.866634
O O7 0.468783 0.584641 0.954312
O O8 0.497825 0.409103 0.951142
O O9 0.250000 0.999082 0.449197
O O10 0.000000 0.000000 0.500000
O O11 0.014472 0.914061 0.414096
O O12 0.250000 0.499227 0.178043
O O13 0.032141 0.413792 0.220872
O O14 0.032154 0.585401 0.220259
O O15 0.750000 0.624382 0.377325
O O16 0.549127 0.750000 0.379047
O O17 0.515951 0.617548 0.317974
O O18 0.250000 0.372499 0.279048
O O19 0.447904 0.250000 0.260626
O O20 0.750000 0.129101 0.722139
O O21 0.950531 0.250000 0.740601
O O22 0.250000 0.642722 0.008140
O O23 0.475683 0.750000 0.999593
#
# Coordination Sequence:
#
# PCOD9449774 Si02
#       8
#     8   8   8   8   8   8   8   8
#     4  10  21  38  60  85 113 145 182 225 274 328
#     4  10  21  35  53  81 110 136 175 225 271 316
#     4  12  25  40  59  82 110 144 183 228 276 328
#     4  10  20  33  50  75 110 148 180 216 264 315
#     4  10  21  38  60  85 113 144 180 225 276 329
#     4   9  18  33  53  78 108 144 185 222 260 313
#     4   9  18  33  53  77 105 141 184 221 258 313
#     4   9  19  38  60  77 100 139 181 219 265 323
#
# _framework density 17.999670999999999
#
# number of rings (size 3 to 8) (size 9 to 14) (size 15 to 20)
#    0.000    2.125    0.000    3.000    0.000    5.750 
#    0.000    1.250    0.000    0.000    0.000    0.000 
#    0.000    0.000    0.000    0.000    0.000    0.000 
#
# Total GULP energy -357430.386781 kJ/mol
# GULP energy per Si atom -5584.849793 kJ/mol
# Density = 1.795870 g / cm^3
# Si number density = 17.999671 Si / 1000 Ang^3
#
#
#
# Elastic Constant Matrix: (Units=GPa)
#
#
# Indices 1 2 3 4 5 6 
#
# 1 86.8053 61.2985 82.0287 0.0000 0.0000 0.0000
# 2 61.2985 113.2346 81.1158 0.0000 0.0000 0.0000
# 3 82.0287 81.1158 175.9941 0.0000 0.0000 0.0000
# 4 0.0000 0.0000 0.0000 67.5048 0.0000 0.0000
# 5 0.0000 0.0000 0.0000 0.0000 38.0168 0.0000
# 6 0.0000 0.0000 0.0000 0.0000 0.0000 19.4263
#
#
#
# Elastic Compliance Matrix: (Units=1/GPa)
#
#
# Indices 1 2 3 4 5 6 
#
# 1 0.024215 -0.007500 -0.007830 0.000000 0.000000 0.000000
# 2 -0.007500 0.015507 -0.003652 0.000000 0.000000 0.000000
# 3 -0.007830 -0.003652 0.011014 0.000000 0.000000 0.000000
# 4 0.000000 0.000000 0.000000 0.014814 0.000000 0.000000
# 5 0.000000 0.000000 0.000000 0.000000 0.026304 0.000000
# 6 0.000000 0.000000 0.000000 0.000000 0.000000 0.051477
#
#
# Mechanical properties :
#
#
# Convention : Reuss Voigt Hill
#
# Bulk Modulus (GPa) = 78.28280 91.65777 84.97029
# Shear Modulus (GPa) = 26.94680 35.09564 31.02122
#
# Velocity S-wave (km/s) = 3.87340 4.42044 4.15593
# Velocity P-wave (km/s) = 7.97433 8.77987 8.38678
#
# Compressibility (1/GPa) = 0.01277420
#
# Stress axis : x y z
#
# Youngs Moduli (GPa) = 41.29701 64.48697 90.79060
#
# Poissons Ratio (x) = 0.48363 0.71086
# Poissons Ratio (y) = 0.30972 0.33154
# Poissons Ratio (z) = 0.32334 0.23548
#
# Static dielectric constant tensor:
#      x y z
#    x 1.603970 0.000000 0.000000 
#    y 0.000000 1.626390 0.000000 
#    z 0.000000 0.000000 1.571530 
# 
# From -- ./inp_files/31624.got.cif
#   From: 2010.05.17/outbox.cif.g08.bks.cpg/sg59_16_cif.got.tgz:31624.got - 2010.06.03 14:40:33.
