data_PCOD9449870
_publ_section_title
;
Structure prediction by ZEFSAII (Michael W. Deem and Ramdas Pophale) SiO2 
 PCOD9449870
Probable space group: P M M N
;
_chemical_formula_sum "Si O2"
_cell_formula_units_Z 64
_cell_length_a 20.316789
_cell_length_b 7.849142
_cell_length_c 19.860753
_cell_angle_alpha 90.000000
_cell_angle_beta 90.000000
_cell_angle_gamma 90.000000
_cell_volume 3167.181607
_symmetry_space_group_name_H-M "P M M N"
_symmetry_group_IT_number 59
_space_group.IT_coordinate_system_code '2'
_symmetry_cell_setting 'orthorhombic'
loop_
_space_group_symop_operation_xyz
x,y,z
1/2-x,1/2-y,z
1/2+x,-y,-z
-x,1/2+y,-z
-x,-y,-z
1/2+x,1/2+y,-z
1/2-x,y,z
x,1/2-y,z
loop_
_atom_site_type_symbol
_atom_site_label
_atom_site_fract_x
_atom_site_fract_y
_atom_site_fract_z
Si Si1 0.583037 0.454861 0.065396
Si Si2 0.431014 0.550578 0.082859
Si Si3 0.062859 0.449588 0.710463
Si Si4 0.431069 0.448092 0.227676
Si Si5 0.324001 0.042310 0.485837
Si Si6 0.451078 0.455039 0.560904
Si Si7 0.174307 0.044364 0.809105
Si Si8 0.824825 0.542024 0.666831
O O1 0.577106 0.250000 0.065146
O O2 0.510163 0.525519 0.080440
O O3 0.636287 0.503618 0.121330
O O4 0.597496 0.511442 0.988566
O O5 0.416845 0.750000 0.088683
O O6 0.407800 0.463986 0.151153
O O7 0.076893 0.250000 0.699660
O O8 0.040057 0.519637 0.637437
O O9 0.127344 0.521228 0.748247
O O10 0.001131 0.464973 0.760325
O O11 0.441709 0.250000 0.243142
O O12 0.377434 0.519055 0.279422
O O13 0.250000 0.985320 0.500711
O O14 0.323445 0.250000 0.486370
O O15 0.378999 0.986015 0.537354
O O16 0.341531 0.990892 0.409523
O O17 0.500000 0.500000 0.500000
O O18 0.452933 0.250000 0.563179
O O19 0.250000 0.982863 0.807678
O O20 0.176338 0.250000 0.803921
O O21 0.750000 0.487964 0.680978
O O22 0.824882 0.750000 0.668318
#
# Coordination Sequence:
#
# PCOD9449870 Si02
#       8
#     8   8   8   8   8   8   8   8
#     4  10  20  35  56  81 105 137 180 222 267 317
#     4  10  20  34  54  79 109 138 170 217 267 317
#     4  10  21  35  51  75 109 143 177 222 276 327
#     4  11  20  31  53  81 106 138 179 218 261 319
#     4   8  14  27  48  71  95 128 172 216 256 304
#     4  10  20  33  51  77 106 137 174 222 277 325
#     4  10  21  37  56  78 110 152 190 229 278 325
#     4   8  15  28  46  71 102 132 166 214 265 310
#
# _framework density 20.207241
#
# number of rings (size 3 to 8) (size 9 to 14) (size 15 to 20)
#    0.000    2.375    1.250    2.625    0.000    3.750 
#    0.000    3.125    0.000    4.125    0.000    7.000 
#    0.000    0.000    0.000    0.000    0.000    0.000 
#
# Total GULP energy -356939.422455 kJ/mol
# GULP energy per Si atom -5577.178476 kJ/mol
# Density = 2.016125 g / cm^3
# Si number density = 20.207241 Si / 1000 Ang^3
#
#
#
# Elastic Constant Matrix: (Units=GPa)
#
#
# Indices 1 2 3 4 5 6 
#
# 1 54.4900 4.8497 49.5825 0.0000 0.0000 0.0000
# 2 4.8497 23.5455 7.5145 0.0000 0.0000 0.0000
# 3 49.5825 7.5145 136.7833 0.0000 0.0000 0.0000
# 4 0.0000 0.0000 0.0000 17.7465 0.0000 0.0000
# 5 0.0000 0.0000 0.0000 0.0000 33.3646 0.0000
# 6 0.0000 0.0000 0.0000 0.0000 0.0000 10.1725
#
#
#
# Elastic Compliance Matrix: (Units=1/GPa)
#
#
# Indices 1 2 3 4 5 6 
#
# 1 0.027532 -0.002530 -0.009841 0.000000 0.000000 0.000000
# 2 -0.002530 0.043461 -0.001471 0.000000 0.000000 0.000000
# 3 -0.009841 -0.001471 0.010959 0.000000 0.000000 0.000000
# 4 0.000000 0.000000 0.000000 0.056349 0.000000 0.000000
# 5 0.000000 0.000000 0.000000 0.000000 0.029972 0.000000
# 6 0.000000 0.000000 0.000000 0.000000 0.000000 0.098304
#
#
# Mechanical properties :
#
#
# Convention : Reuss Voigt Hill
#
# Bulk Modulus (GPa) = 18.42678 37.63470 28.03074
# Shear Modulus (GPa) = 16.00770 22.44822 19.22796
#
# Velocity S-wave (km/s) = 2.81762 3.33663 3.08805
# Velocity P-wave (km/s) = 4.44117 5.78869 5.15911
#
# Compressibility (1/GPa) = 0.05426885
#
# Stress axis : x y z
#
# Youngs Moduli (GPa) = 36.32155 23.00896 91.25024
#
# Poissons Ratio (x) = 0.05821 0.89799
# Poissons Ratio (y) = 0.09190 0.13419
# Poissons Ratio (z) = 0.35744 0.03384
#
# Static dielectric constant tensor:
#      x y z
#    x 1.696850 0.000000 0.000000 
#    y 0.000000 1.762270 0.000000 
#    z 0.000000 0.000000 1.737460 
# 
# From -- ./inp_files/28315.got.cif
#   From: 2010.05.17/outbox.cif.g08.bks.cpg/sg59_15_cif.got.tgz:28315.got - 2010.06.03 14:40:33.
