data_PCOD9449519
_publ_section_title
;
Structure prediction by ZEFSAII (Michael W. Deem and Ramdas Pophale) SiO2 
 PCOD9449519
Probable space group: P M M N
;
_chemical_formula_sum "Si O2"
_cell_formula_units_Z 48
_cell_length_a 9.018675
_cell_length_b 18.435534
_cell_length_c 16.706890
_cell_angle_alpha 90.000000
_cell_angle_beta 90.000000
_cell_angle_gamma 90.000000
_cell_volume 2777.755856
_symmetry_space_group_name_H-M "P M M N"
_symmetry_group_IT_number 59
_space_group.IT_coordinate_system_code '2'
_symmetry_cell_setting 'orthorhombic'
loop_
_space_group_symop_operation_xyz
x,y,z
1/2-x,1/2-y,z
1/2+x,-y,-z
-x,1/2+y,-z
-x,-y,-z
1/2+x,1/2+y,-z
1/2-x,y,z
x,1/2-y,z
loop_
_atom_site_type_symbol
_atom_site_label
_atom_site_fract_x
_atom_site_fract_y
_atom_site_fract_z
Si Si1 0.074676 0.663496 0.017350
Si Si2 0.074430 0.548415 0.737225
Si Si3 0.072301 0.978636 0.416300
Si Si4 0.072776 0.668592 0.328820
Si Si5 0.925451 0.836157 0.848042
Si Si6 0.075003 0.397011 0.825916
O O1 0.250000 0.650276 0.010166
O O2 0.052780 0.750000 0.031003
O O3 0.994352 0.644553 0.934376
O O4 0.007332 0.621049 0.092108
O O5 0.250000 0.556594 0.723468
O O6 0.053033 0.479563 0.796443
O O7 0.992951 0.527861 0.654983
O O8 0.005783 0.617984 0.779860
O O9 0.250000 0.985500 0.419922
O O10 0.035674 0.895620 0.390586
O O11 0.000000 0.000000 0.500000
O O12 0.250000 0.664382 0.314227
O O13 0.037922 0.750000 0.356642
O O14 0.990471 0.651694 0.245831
O O15 0.750000 0.850809 0.847853
O O16 0.947884 0.750000 0.836740
O O17 0.250000 0.383731 0.834856
#
# Coordination Sequence:
#
# PCOD9449519 Si02
#       6
#     8   8   8   8   8   8
#     4  10  20  33  50  73 103 141 181 217 257 306
#     4  10  21  37  56  78 104 136 173 211 258 316
#     4  10  20  36  58  81 107 138 172 214 262 314
#     4   9  18  33  53  77 105 137 172 210 256 310
#     4  10  21  37  56  77 102 134 175 222 266 306
#     4  10  20  32  49  76 107 138 173 213 257 305
#
# _framework density 17.280135999999999
#
# number of rings (size 3 to 8) (size 9 to 14) (size 15 to 20)
#    0.000    2.167    0.000    3.000    0.000    7.667 
#    0.000    0.833    0.000    3.000    0.000    0.000 
#    0.000    0.000    0.000    0.000    0.000    0.000 
#
# Total GULP energy -267998.262825 kJ/mol
# GULP energy per Si atom -5583.297142 kJ/mol
# Density = 1.724081 g / cm^3
# Si number density = 17.280136 Si / 1000 Ang^3
#
#
#
# Elastic Constant Matrix: (Units=GPa)
#
#
# Indices 1 2 3 4 5 6 
#
# 1 89.6030 59.4539 78.4828 0.0000 0.0000 0.0000
# 2 59.4539 69.1862 73.4039 0.0000 0.0000 0.0000
# 3 78.4828 73.4039 141.5958 0.0000 0.0000 0.0000
# 4 0.0000 0.0000 0.0000 16.5808 0.0000 0.0000
# 5 0.0000 0.0000 0.0000 0.0000 37.6504 0.0000
# 6 0.0000 0.0000 0.0000 0.0000 0.0000 26.6850
#
#
#
# Elastic Compliance Matrix: (Units=1/GPa)
#
#
# Indices 1 2 3 4 5 6 
#
# 1 0.028745 -0.017329 -0.006950 0.000000 0.000000 0.000000
# 2 -0.017329 0.042566 -0.012462 0.000000 0.000000 0.000000
# 3 -0.006950 -0.012462 0.017375 0.000000 0.000000 0.000000
# 4 0.000000 0.000000 0.000000 0.060311 0.000000 0.000000
# 5 0.000000 0.000000 0.000000 0.000000 0.026560 0.000000
# 6 0.000000 0.000000 0.000000 0.000000 0.000000 0.037474
#
#
# Mechanical properties :
#
#
# Convention : Reuss Voigt Hill
#
# Bulk Modulus (GPa) = 65.76216 80.34070 73.05143
# Shear Modulus (GPa) = 17.14796 22.11954 19.63375
#
# Velocity S-wave (km/s) = 3.15358 3.58167 3.37442
# Velocity P-wave (km/s) = 7.16932 7.98113 7.58610
#
# Compressibility (1/GPa) = 0.01520631
#
# Stress axis : x y z
#
# Youngs Moduli (GPa) = 34.78817 23.49285 57.55538
#
# Poissons Ratio (x) = 0.40710 0.39999
# Poissons Ratio (y) = 0.60283 0.71724
# Poissons Ratio (z) = 0.24176 0.29276
#
# Static dielectric constant tensor:
#      x y z
#    x 1.572390 0.000000 0.000000 
#    y 0.000000 1.592030 0.000000 
#    z 0.000000 0.000000 1.541080 
# 
# From -- ./inp_files/20439.got.cif
#   From: 2010.05.17/outbox.cif.g08.bks.cpg/sg59_11_cif.got.tgz:20439.got - 2010.06.03 14:40:33.
