data_PCOD9449067
_publ_section_title
;
Structure prediction by ZEFSAII (Michael W. Deem and Ramdas Pophale) SiO2 
 PCOD9449067
Probable space group: P M M N
;
_chemical_formula_sum "Si O2"
_cell_formula_units_Z 64
_cell_length_a 20.719773
_cell_length_b 9.214400
_cell_length_c 17.873114
_cell_angle_alpha 90.000000
_cell_angle_beta 90.000000
_cell_angle_gamma 90.000000
_cell_volume 3412.339864
_symmetry_space_group_name_H-M "P M M N"
_symmetry_group_IT_number 59
_space_group.IT_coordinate_system_code '2'
_symmetry_cell_setting 'orthorhombic'
loop_
_space_group_symop_operation_xyz
x,y,z
1/2-x,1/2-y,z
1/2+x,-y,-z
-x,1/2+y,-z
-x,-y,-z
1/2+x,1/2+y,-z
1/2-x,y,z
x,1/2-y,z
loop_
_atom_site_type_symbol
_atom_site_label
_atom_site_fract_x
_atom_site_fract_y
_atom_site_fract_z
Si Si1 0.962444 0.078383 0.566930
Si Si2 0.178031 0.424041 0.785144
Si Si3 0.591552 0.922797 0.070108
Si Si4 0.179772 0.917464 0.037781
Si Si5 0.512189 0.919484 0.844626
Si Si6 0.446390 0.420437 0.711268
Si Si7 0.677464 0.074269 0.629936
Si Si8 0.861476 0.417131 0.798417
O O1 0.957084 0.250000 0.550265
O O2 0.889147 0.026305 0.588179
O O3 0.010320 0.063824 0.638047
O O4 0.000000 0.000000 0.500000
O O5 0.250000 0.486255 0.779748
O O6 0.183968 0.250000 0.790285
O O7 0.140175 0.465661 0.861271
O O8 0.130531 0.448983 0.714293
O O9 0.585692 0.750000 0.068355
O O10 0.523188 0.994212 0.089214
O O11 0.624380 0.983383 0.995889
O O12 0.250000 0.964341 0.009008
O O13 0.168228 0.750000 0.015370
O O14 0.181637 0.918394 0.127634
O O15 0.510876 0.750000 0.859433
O O16 0.472749 0.966802 0.771197
O O17 0.581803 0.977276 0.822506
O O18 0.454271 0.250000 0.735929
O O19 0.750000 0.024009 0.606314
O O20 0.677941 0.250000 0.623675
O O21 0.668699 0.042294 0.718679
O O22 0.885628 0.250000 0.789329
#
# Coordination Sequence:
#
# PCOD9449067 Si02
#       8
#     8   8   8   8   8   8   8   8
#     4  10  20  35  57  85 115 147 184 222 269 329
#     4   8  14  26  48  75  98 128 176 224 264 315
#     4  10  20  34  52  72 103 147 191 231 278 336
#     4  10  21  35  52  77 107 139 180 235 291 338
#     4  11  21  33  53  80 107 137 179 231 286 334
#     4   9  17  33  54  77 106 141 180 220 268 331
#     4   9  17  33  60  87 110 145 193 234 268 323
#     4  10  19  35  57  79 107 141 183 229 280 337
#
# _framework density 18.755459999999999
#
# number of rings (size 3 to 8) (size 9 to 14) (size 15 to 20)
#    0.000    2.375    1.250    3.000    0.000    3.750 
#    0.000    0.625    0.000    6.375    0.000    0.000 
#    0.000    0.000    0.000    0.000    0.000    0.000 
#
# Total GULP energy -356361.849940 kJ/mol
# GULP energy per Si atom -5568.153905 kJ/mol
# Density = 1.871277 g / cm^3
# Si number density = 18.755460 Si / 1000 Ang^3
#
#
#
# Elastic Constant Matrix: (Units=GPa)
#
#
# Indices 1 2 3 4 5 6 
#
# 1 130.5179 31.2698 44.4220 0.0000 0.0000 0.0000
# 2 31.2698 51.8376 22.4877 0.0000 0.0000 0.0000
# 3 44.4220 22.4877 65.4437 0.0000 0.0000 0.0000
# 4 0.0000 0.0000 0.0000 23.4843 0.0000 0.0000
# 5 0.0000 0.0000 0.0000 0.0000 8.6895 0.0000
# 6 0.0000 0.0000 0.0000 0.0000 0.0000 13.8346
#
#
#
# Elastic Compliance Matrix: (Units=1/GPa)
#
#
# Indices 1 2 3 4 5 6 
#
# 1 0.010576 -0.003837 -0.005860 0.000000 0.000000 0.000000
# 2 -0.003837 0.024063 -0.005664 0.000000 0.000000 0.000000
# 3 -0.005860 -0.005664 0.021204 0.000000 0.000000 0.000000
# 4 0.000000 0.000000 0.000000 0.042582 0.000000 0.000000
# 5 0.000000 0.000000 0.000000 0.000000 0.115082 0.000000
# 6 0.000000 0.000000 0.000000 0.000000 0.000000 0.072283
#
#
# Mechanical properties :
#
#
# Convention : Reuss Voigt Hill
#
# Bulk Modulus (GPa) = 39.80818 49.35090 44.57954
# Shear Modulus (GPa) = 15.39011 19.17632 17.28322
#
# Velocity S-wave (km/s) = 2.86766 3.20103 3.03892
# Velocity P-wave (km/s) = 5.67764 6.32709 6.01114
#
# Compressibility (1/GPa) = 0.02512047
#
# Stress axis : x y z
#
# Youngs Moduli (GPa) = 94.55744 41.55789 47.16076
#
# Poissons Ratio (x) = 0.15947 0.27636
# Poissons Ratio (y) = 0.36285 0.26711
# Poissons Ratio (z) = 0.55410 0.23537
#
# Static dielectric constant tensor:
#      x y z
#    x 1.738900 0.000000 0.000000 
#    y 0.000000 1.625440 0.000000 
#    z 0.000000 0.000000 1.673030 
# 
# From -- ./inp_files/28165.got.cif
#   From: 2010.05.17/outbox.cif.g08.bks.cpg/sg59_15_cif.got.tgz:28165.got - 2010.06.03 14:40:33.
