data_PCOD9449637
_publ_section_title
;
Structure prediction by ZEFSAII (Michael W. Deem and Ramdas Pophale) SiO2 
 PCOD9449637
Probable space group: P M M N
;
_chemical_formula_sum "Si O2"
_cell_formula_units_Z 64
_cell_length_a 8.618191
_cell_length_b 30.730878
_cell_length_c 15.155990
_cell_angle_alpha 90.000000
_cell_angle_beta 90.000000
_cell_angle_gamma 90.000000
_cell_volume 4013.981748
_symmetry_space_group_name_H-M "P M M N"
_symmetry_group_IT_number 59
_space_group.IT_coordinate_system_code '2'
_symmetry_cell_setting 'orthorhombic'
loop_
_space_group_symop_operation_xyz
x,y,z
1/2-x,1/2-y,z
1/2+x,-y,-z
-x,1/2+y,-z
-x,-y,-z
1/2+x,1/2+y,-z
1/2-x,y,z
x,1/2-y,z
loop_
_atom_site_type_symbol
_atom_site_label
_atom_site_fract_x
_atom_site_fract_y
_atom_site_fract_z
Si Si1 0.563726 0.115154 0.799118
Si Si2 0.562215 0.940405 0.362644
Si Si3 0.437215 0.798928 0.499919
Si Si4 0.065151 0.028207 0.133813
Si Si5 0.561332 0.202117 0.705499
Si Si6 0.564999 0.461438 0.327686
Si Si7 0.935149 0.939105 0.052684
Si Si8 0.935292 0.890502 0.540848
O O1 0.750000 0.114211 0.803824
O O2 0.508481 0.080991 0.724829
O O3 0.509599 0.162155 0.764681
O O4 0.492936 0.101935 0.892516
O O5 0.750000 0.938578 0.356443
O O6 0.512114 0.912989 0.448448
O O7 0.516821 0.991208 0.366355
O O8 0.250000 0.800124 0.503178
O O9 0.485156 0.750000 0.528954
O O10 0.484605 0.803484 0.396798
O O11 0.501508 0.841437 0.547911
O O12 0.250000 0.028563 0.147378
O O13 0.982852 0.038933 0.225224
O O14 0.026173 0.059468 0.051053
O O15 0.014129 0.980726 0.099238
O O16 0.750000 0.201707 0.705788
O O17 0.510435 0.250000 0.735032
O O18 0.750000 0.458416 0.335281
O O19 0.489833 0.422258 0.381653
O O20 0.750000 0.943946 0.060913
O O21 0.750000 0.888908 0.539009
#
# Coordination Sequence:
#
# PCOD9449637 Si02
#       8
#     8   8   8   8   8   8   8   8
#     4  11  19  28  50  75  97 131 169 203 240 292
#     4  10  21  34  46  67 100 136 168 203 243 286
#     4   9  17  32  52  71  95 128 166 206 248 294
#     4  10  20  34  51  71  94 126 166 204 243 288
#     4   8  15  28  46  70  98 127 161 202 244 286
#     4  11  22  35  51  69  97 135 171 209 251 291
#     4  10  20  33  49  70 100 129 157 199 246 293
#     4  11  22  34  49  71 101 134 169 207 246 297
#
# _framework density 15.944267999999999
#
# number of rings (size 3 to 8) (size 9 to 14) (size 15 to 20)
#    0.000    2.000    2.500    3.000    0.000    2.750 
#    0.000    0.000    0.000    1.500    0.000    0.875 
#    0.000    3.000    0.000    0.000    0.000    0.000 
#
# Total GULP energy -357024.466610 kJ/mol
# GULP energy per Si atom -5578.507291 kJ/mol
# Density = 1.590798 g / cm^3
# Si number density = 15.944268 Si / 1000 Ang^3
#
#
#
# Elastic Constant Matrix: (Units=GPa)
#
#
# Indices 1 2 3 4 5 6 
#
# 1 17.1169 21.1011 8.3263 0.0000 0.0000 0.0000
# 2 21.1011 131.1066 37.7442 0.0000 0.0000 0.0000
# 3 8.3263 37.7442 53.1126 0.0000 0.0000 0.0000
# 4 0.0000 0.0000 0.0000 24.1824 0.0000 0.0000
# 5 0.0000 0.0000 0.0000 0.0000 23.9795 0.0000
# 6 0.0000 0.0000 0.0000 0.0000 0.0000 19.7979
#
#
#
# Elastic Compliance Matrix: (Units=1/GPa)
#
#
# Indices 1 2 3 4 5 6 
#
# 1 0.073525 -0.010706 -0.003919 0.000000 0.000000 0.000000
# 2 -0.010706 0.011148 -0.006244 0.000000 0.000000 0.000000
# 3 -0.003919 -0.006244 0.023879 0.000000 0.000000 0.000000
# 4 0.000000 0.000000 0.000000 0.041352 0.000000 0.000000
# 5 0.000000 0.000000 0.000000 0.000000 0.041702 0.000000
# 6 0.000000 0.000000 0.000000 0.000000 0.000000 0.050511
#
#
# Mechanical properties :
#
#
# Convention : Reuss Voigt Hill
#
# Bulk Modulus (GPa) = 14.96629 37.29771 26.13200
# Shear Modulus (GPa) = 16.33311 22.53624 19.43467
#
# Velocity S-wave (km/s) = 3.20408 3.76365 3.49508
# Velocity P-wave (km/s) = 4.80574 6.50616 5.71950
#
# Compressibility (1/GPa) = 0.06681681
#
# Stress axis : x y z
#
# Youngs Moduli (GPa) = 13.60073 89.70236 41.87693
#
# Poissons Ratio (x) = 0.96031 0.16410
# Poissons Ratio (y) = 0.14560 0.26148
# Poissons Ratio (z) = 0.05329 0.56010
#
# Static dielectric constant tensor:
#      x y z
#    x 1.539070 0.000000 0.000000 
#    y 0.000000 1.542930 0.000000 
#    z 0.000000 0.000000 1.519850 
# 
# From -- ./inp_files/21890.got.cif
#   From: 2010.05.17/outbox.cif.g08.bks.cpg/sg59_11_cif.got.tgz:21890.got - 2010.06.03 14:40:33.
