data_PCOD9449801
_publ_section_title
;
Structure prediction by ZEFSAII (Michael W. Deem and Ramdas Pophale) SiO2 
 PCOD9449801
Probable space group: P M M N
;
_chemical_formula_sum "Si O2"
_cell_formula_units_Z 48
_cell_length_a 7.850983
_cell_length_b 9.731861
_cell_length_c 31.609935
_cell_angle_alpha 90.000000
_cell_angle_beta 90.000000
_cell_angle_gamma 90.000000
_cell_volume 2415.146819
_symmetry_space_group_name_H-M "P M M N"
_symmetry_group_IT_number 59
_space_group.IT_coordinate_system_code '2'
_symmetry_cell_setting 'orthorhombic'
loop_
_space_group_symop_operation_xyz
x,y,z
1/2-x,1/2-y,z
1/2+x,-y,-z
-x,1/2+y,-z
-x,-y,-z
1/2+x,1/2+y,-z
1/2-x,y,z
x,1/2-y,z
loop_
_atom_site_type_symbol
_atom_site_label
_atom_site_fract_x
_atom_site_fract_y
_atom_site_fract_z
Si Si1 0.546334 0.093597 0.867230
Si Si2 0.455616 0.405885 0.713425
Si Si3 0.547231 0.905797 0.039322
Si Si4 0.455444 0.593304 0.540123
Si Si5 0.542102 0.907050 0.382854
Si Si6 0.545934 0.905114 0.791383
O O1 0.750000 0.101675 0.861856
O O2 0.478175 0.250000 0.863780
O O3 0.513521 0.042967 0.914843
O O4 0.478042 0.994471 0.830760
O O5 0.250000 0.404889 0.713196
O O6 0.512586 0.250000 0.723949
O O7 0.511476 0.437131 0.665340
O O8 0.513059 0.513581 0.748175
O O9 0.750000 0.898792 0.041166
O O10 0.479178 0.750000 0.033938
O O11 0.500000 0.000000 0.000000
O O12 0.500000 0.500000 0.500000
O O13 0.250000 0.599343 0.542600
O O14 0.518712 0.750000 0.536353
O O15 0.517234 0.515420 0.582365
O O16 0.750000 0.908454 0.383122
O O17 0.490927 0.750000 0.393305
O O18 0.750000 0.896392 0.796559
O O19 0.477979 0.750000 0.790416
#
# Coordination Sequence:
#
# PCOD9449801 Si02
#       6
#     8   8   8   8   8   8
#     4   9  18  34  54  73  98 136 177 212 249 297
#     4   9  18  33  54  78 101 129 168 210 251 300
#     4  10  21  36  55  80 108 137 170 210 255 302
#     4  10  20  33  51  75 101 131 168 208 252 303
#     4   8  15  30  51  73  98 129 165 206 252 300
#     4  10  21  35  51  75 107 139 170 207 253 302
#
# _framework density 19.874566999999999
#
# number of rings (size 3 to 8) (size 9 to 14) (size 15 to 20)
#    0.000    2.667    0.000    2.500    0.000    5.333 
#    0.000    5.833    0.000    1.000    0.000    0.000 
#    0.000    0.000    0.000    0.000    0.000    0.000 
#
# Total GULP energy -267856.724728 kJ/mol
# GULP energy per Si atom -5580.348432 kJ/mol
# Density = 1.982933 g / cm^3
# Si number density = 19.874567 Si / 1000 Ang^3
#
#
#
# Elastic Constant Matrix: (Units=GPa)
#
#
# Indices 1 2 3 4 5 6 
#
# 1 21.3126 7.8963 0.7821 0.0000 0.0000 0.0000
# 2 7.8963 163.1810 134.6673 0.0000 0.0000 0.0000
# 3 0.7821 134.6673 173.4325 0.0000 0.0000 0.0000
# 4 0.0000 0.0000 0.0000 37.3444 0.0000 0.0000
# 5 0.0000 0.0000 0.0000 0.0000 28.2972 0.0000
# 6 0.0000 0.0000 0.0000 0.0000 0.0000 18.1765
#
#
#
# Elastic Compliance Matrix: (Units=1/GPa)
#
#
# Indices 1 2 3 4 5 6 
#
# 1 0.049013 -0.006095 0.004512 0.000000 0.000000 0.000000
# 2 -0.006095 0.017819 -0.013808 0.000000 0.000000 0.000000
# 3 0.004512 -0.013808 0.016468 0.000000 0.000000 0.000000
# 4 0.000000 0.000000 0.000000 0.026778 0.000000 0.000000
# 5 0.000000 0.000000 0.000000 0.000000 0.035339 0.000000
# 6 0.000000 0.000000 0.000000 0.000000 0.000000 0.055016
#
#
# Mechanical properties :
#
#
# Convention : Reuss Voigt Hill
#
# Bulk Modulus (GPa) = 19.04182 71.62418 45.33300
# Shear Modulus (GPa) = 20.10280 31.06898 25.58589
#
# Velocity S-wave (km/s) = 3.18383 3.95809 3.59188
# Velocity P-wave (km/s) = 4.80807 7.55016 6.32940
#
# Compressibility (1/GPa) = 0.05251599
#
# Stress axis : x y z
#
# Youngs Moduli (GPa) = 20.40260 56.12085 60.72539
#
# Poissons Ratio (x) = 0.34206 -0.27397
# Poissons Ratio (y) = 0.12436 0.83852
# Poissons Ratio (z) = -0.09205 0.77494
#
# Static dielectric constant tensor:
#      x y z
#    x 1.730870 0.000000 0.000000 
#    y 0.000000 1.700330 0.000000 
#    z 0.000000 0.000000 1.676590 
# 
# From -- ./inp_files/32910.got.cif
#   From: 2010.05.17/outbox.cif.g08.bks.cpg/sg59_17_cif.got.tgz:32910.got - 2010.06.03 14:40:33.
