data_PCOD9449003
_publ_section_title
;
Structure prediction by ZEFSAII (Michael W. Deem and Ramdas Pophale) SiO2 
 PCOD9449003
Probable space group: P M M N
;
_chemical_formula_sum "Si O2"
_cell_formula_units_Z 64
_cell_length_a 24.382185
_cell_length_b 8.664016
_cell_length_c 15.876755
_cell_angle_alpha 90.000000
_cell_angle_beta 90.000000
_cell_angle_gamma 90.000000
_cell_volume 3353.927040
_symmetry_space_group_name_H-M "P M M N"
_symmetry_group_IT_number 59
_space_group.IT_coordinate_system_code '2'
_symmetry_cell_setting 'orthorhombic'
loop_
_space_group_symop_operation_xyz
x,y,z
1/2-x,1/2-y,z
1/2+x,-y,-z
-x,1/2+y,-z
-x,-y,-z
1/2+x,1/2+y,-z
1/2-x,y,z
x,1/2-y,z
loop_
_atom_site_type_symbol
_atom_site_label
_atom_site_fract_x
_atom_site_fract_y
_atom_site_fract_z
Si Si1 0.501664 0.436231 0.905495
Si Si2 0.620460 0.065454 0.342324
Si Si3 0.384845 0.935374 0.345942
Si Si4 0.500479 0.935472 0.594894
Si Si5 0.120987 0.563866 0.157547
Si Si6 0.813746 0.935032 0.500393
Si Si7 0.884139 0.563453 0.161863
Si Si8 0.686961 0.563713 0.999895
O O1 0.500916 0.250000 0.909305
O O2 0.558296 0.484435 0.861996
O O3 0.446886 0.485269 0.856646
O O4 0.500000 0.500000 0.000000
O O5 0.624128 0.250000 0.345496
O O6 0.557168 0.021486 0.362065
O O7 0.658133 0.995789 0.415345
O O8 0.635260 0.005114 0.249973
O O9 0.385498 0.750000 0.350847
O O10 0.364707 0.981943 0.252856
O O11 0.446673 0.995322 0.359143
O O12 0.347257 0.000257 0.420222
O O13 0.504580 0.750000 0.592606
O O14 0.500000 0.000000 0.500000
O O15 0.123054 0.750000 0.153068
O O16 0.159283 0.496975 0.085092
O O17 0.750000 0.981432 0.504308
O O18 0.816877 0.750000 0.501470
O O19 0.882522 0.750000 0.166962
O O20 0.847781 0.514788 0.081757
O O21 0.750000 0.513784 0.006276
O O22 0.685550 0.750000 0.998023
#
# Coordination Sequence:
#
# PCOD9449003 Si02
#       8
#     8   8   8   8   8   8   8   8
#     4  10  19  34  58  87 118 155 194 238 293 351
#     4  11  24  40  62  93 124 157 197 246 301 358
#     4  11  23  40  63  91 123 160 200 247 302 361
#     4  11  22  37  61  92 125 161 197 242 302 363
#     4  10  22  38  59  88 121 155 195 243 297 356
#     4  11  25  44  65  88 117 158 205 252 302 357
#     4  10  21  38  60  87 121 159 197 243 298 357
#     4  10  22  40  61  85 115 155 203 250 295 349
#
# _framework density 19.082108000000002
#
# number of rings (size 3 to 8) (size 9 to 14) (size 15 to 20)
#    0.000    1.500    2.500    2.250    0.000    6.750 
#    0.000    3.750    0.000    0.000    0.000    0.000 
#    0.000    0.000    0.000    0.000    0.000    0.000 
#
# Total GULP energy -357742.428463 kJ/mol
# GULP energy per Si atom -5589.725445 kJ/mol
# Density = 1.903868 g / cm^3
# Si number density = 19.082108 Si / 1000 Ang^3
#
#
#
# Elastic Constant Matrix: (Units=GPa)
#
#
# Indices 1 2 3 4 5 6 
#
# 1 117.7307 30.2003 48.1761 0.0000 0.0000 0.0000
# 2 30.2003 25.4665 28.5685 0.0000 0.0000 0.0000
# 3 48.1761 28.5685 150.0267 0.0000 0.0000 0.0000
# 4 0.0000 0.0000 0.0000 31.8761 0.0000 0.0000
# 5 0.0000 0.0000 0.0000 0.0000 -1.0544 0.0000
# 6 0.0000 0.0000 0.0000 0.0000 0.0000 26.7663
#
#
#
# Elastic Compliance Matrix: (Units=1/GPa)
#
#
# Indices 1 2 3 4 5 6 
#
# 1 0.012471 -0.013094 -0.001511 0.000000 0.000000 0.000000
# 2 -0.013094 0.063682 -0.007922 0.000000 0.000000 0.000000
# 3 -0.001511 -0.007922 0.008659 0.000000 0.000000 0.000000
# 4 0.000000 0.000000 0.000000 0.031371 0.000000 0.000000
# 5 0.000000 0.000000 0.000000 0.000000 -0.948434 0.000000
# 6 0.000000 0.000000 0.000000 0.000000 0.000000 0.037360
#
#
# Mechanical properties :
#
#
# Convention : Reuss Voigt Hill
#
# Bulk Modulus (GPa) = 25.15207 56.34597 40.74902
# Shear Modulus (GPa) = -6.78811 23.93621 8.57405
#
# Velocity S-wave (km/s) = -1.88813 3.54556 2.12203
# Velocity P-wave (km/s) = 2.90796 6.80835 5.23497
#
# Compressibility (1/GPa) = 0.03975815
#
# Stress axis : x y z
#
# Youngs Moduli (GPa) = 80.18408 15.70305 115.48312
#
# Poissons Ratio (x) = 0.20562 0.17453
# Poissons Ratio (y) = 1.04994 0.91483
# Poissons Ratio (z) = 0.12119 0.12440
#
# Static dielectric constant tensor:
#      x y z
#    x 1.659580 0.000000 0.000000 
#    y 0.000000 1.646770 0.000000 
#    z 0.000000 0.000000 1.636000 
# 
# From -- ./inp_files/24676.got.cif
#   From: 2010.05.17/outbox.cif.g08.bks.cpg/sg59_13_cif.got.tgz:24676.got - 2010.06.03 14:40:33.
