data_PCOD9449406
_publ_section_title
;
Structure prediction by ZEFSAII (Michael W. Deem and Ramdas Pophale) SiO2 
 PCOD9449406
Probable space group: P M M N
;
_chemical_formula_sum "Si O2"
_cell_formula_units_Z 64
_cell_length_a 18.867369
_cell_length_b 9.225693
_cell_length_c 21.377885
_cell_angle_alpha 90.000000
_cell_angle_beta 90.000000
_cell_angle_gamma 90.000000
_cell_volume 3721.132020
_symmetry_space_group_name_H-M "P M M N"
_symmetry_group_IT_number 59
_space_group.IT_coordinate_system_code '2'
_symmetry_cell_setting 'orthorhombic'
loop_
_space_group_symop_operation_xyz
x,y,z
1/2-x,1/2-y,z
1/2+x,-y,-z
-x,1/2+y,-z
-x,-y,-z
1/2+x,1/2+y,-z
1/2-x,y,z
x,1/2-y,z
loop_
_atom_site_type_symbol
_atom_site_label
_atom_site_fract_x
_atom_site_fract_y
_atom_site_fract_z
Si Si1 0.665391 0.422614 0.425737
Si Si2 0.833889 0.423554 0.808601
Si Si3 0.336420 0.916945 0.939549
Si Si4 0.331746 0.926569 0.433370
Si Si5 0.833869 0.923009 0.187196
Si Si6 0.420504 0.926537 0.313953
Si Si7 0.836385 0.583182 0.935783
Si Si8 0.584423 0.575021 0.313414
O O1 0.750000 0.445032 0.418988
O O2 0.652620 0.250000 0.420523
O O3 0.646138 0.469910 0.496526
O O4 0.623677 0.506099 0.372414
O O5 0.750000 0.451210 0.798527
O O6 0.841988 0.250000 0.816445
O O7 0.877886 0.470999 0.748006
O O8 0.857085 0.502564 0.872043
O O9 0.250000 0.919569 0.940252
O O10 0.358693 0.750000 0.940805
O O11 0.357681 0.995307 0.875419
O O12 0.360284 0.000778 0.001704
O O13 0.250000 0.970528 0.422903
O O14 0.331966 0.750000 0.433289
O O15 0.381471 0.976440 0.377115
O O16 0.750000 0.951589 0.196881
O O17 0.841854 0.750000 0.177973
O O18 0.876646 0.966295 0.248919
O O19 0.418481 0.750000 0.314591
O O20 0.502324 0.969559 0.312010
O O21 0.750000 0.581281 0.936758
O O22 0.859015 0.750000 0.936112
O O23 0.587847 0.750000 0.318049
#
# Coordination Sequence:
#
# PCOD9449406 Si02
#       8
#     8   8   8   8   8   8   8   8
#     4   9  18  32  50  71  94 122 158 198 236 277
#     4   9  16  27  46  70  93 120 157 198 234 271
#     4   9  16  26  43  68  93 115 146 191 235 272
#     4   8  14  27  48  72  96 123 157 196 236 278
#     4   9  17  29  44  62  87 120 153 184 225 278
#     4   9  17  29  46  69  96 125 158 196 236 278
#     4   9  16  26  42  66  96 125 150 183 232 284
#     4  10  20  32  47  69  97 127 157 192 236 285
#
# _framework density 17.199066999999999
#
# number of rings (size 3 to 8) (size 9 to 14) (size 15 to 20)
#    0.000    3.000    0.000    2.250    0.000    6.250 
#    0.000    1.875    0.000    1.500    0.000    1.750 
#    0.000    0.000    0.000    0.000    0.000    0.000 
#
# Total GULP energy -356661.016234 kJ/mol
# GULP energy per Si atom -5572.828379 kJ/mol
# Density = 1.715992 g / cm^3
# Si number density = 17.199067 Si / 1000 Ang^3
#
#
#
# Elastic Constant Matrix: (Units=GPa)
#
#
# Indices 1 2 3 4 5 6 
#
# 1 57.4202 37.2806 87.3988 0.0000 0.0000 0.0000
# 2 37.2806 42.3090 69.6025 0.0000 0.0000 0.0000
# 3 87.3988 69.6025 219.5993 0.0000 0.0000 0.0000
# 4 0.0000 0.0000 0.0000 20.9706 0.0000 0.0000
# 5 0.0000 0.0000 0.0000 0.0000 -2.6382 0.0000
# 6 0.0000 0.0000 0.0000 0.0000 0.0000 11.6050
#
#
#
# Elastic Compliance Matrix: (Units=1/GPa)
#
#
# Indices 1 2 3 4 5 6 
#
# 1 0.055236 -0.026132 -0.013701 0.000000 0.000000 0.000000
# 2 -0.026132 0.061750 -0.009172 0.000000 0.000000 0.000000
# 3 -0.013701 -0.009172 0.012914 0.000000 0.000000 0.000000
# 4 0.000000 0.000000 0.000000 0.047686 0.000000 0.000000
# 5 0.000000 0.000000 0.000000 0.000000 -0.379052 0.000000
# 6 0.000000 0.000000 0.000000 0.000000 0.000000 0.086170
#
#
# Mechanical properties :
#
#
# Convention : Reuss Voigt Hill
#
# Bulk Modulus (GPa) = 31.35705 78.65469 55.00587
# Shear Modulus (GPa) = -750.73826 14.32393 -368.20717
#
# Velocity S-wave (km/s) = -20.91523 2.88901 -14.64754
# Velocity P-wave (km/s) = 23.76955 7.54717 15.93787
#
# Compressibility (1/GPa) = 0.03189076
#
# Stress axis : x y z
#
# Youngs Moduli (GPa) = 18.10428 16.19443 77.43829
#
# Poissons Ratio (x) = 0.42319 1.06097
# Poissons Ratio (y) = 0.47309 0.71023
# Poissons Ratio (z) = 0.24804 0.14853
#
# Static dielectric constant tensor:
#      x y z
#    x 1.563910 0.000000 0.000000 
#    y 0.000000 1.574140 0.000000 
#    z 0.000000 0.000000 1.571000 
# 
# From -- ./inp_files/30684.got.cif
#   From: 2010.05.17/outbox.cif.g08.bks.cpg/sg59_16_cif.got.tgz:30684.got - 2010.06.03 14:40:33.
