data_PCOD9449843
_publ_section_title
;
Structure prediction by ZEFSAII (Michael W. Deem and Ramdas Pophale) SiO2 
 PCOD9449843
Probable space group: P M M N
;
_chemical_formula_sum "Si O2"
_cell_formula_units_Z 64
_cell_length_a 9.084972
_cell_length_b 14.784973
_cell_length_c 26.979343
_cell_angle_alpha 90.000000
_cell_angle_beta 90.000000
_cell_angle_gamma 90.000000
_cell_volume 3623.894104
_symmetry_space_group_name_H-M "P M M N"
_symmetry_group_IT_number 59
_space_group.IT_coordinate_system_code '2'
_symmetry_cell_setting 'orthorhombic'
loop_
_space_group_symop_operation_xyz
x,y,z
1/2-x,1/2-y,z
1/2+x,-y,-z
-x,1/2+y,-z
-x,-y,-z
1/2+x,1/2+y,-z
1/2-x,y,z
x,1/2-y,z
loop_
_atom_site_type_symbol
_atom_site_label
_atom_site_fract_x
_atom_site_fract_y
_atom_site_fract_z
Si Si1 0.074328 0.855353 0.133524
Si Si2 0.424739 0.356050 0.229467
Si Si3 0.927301 0.004458 0.576417
Si Si4 0.076397 0.357542 0.763293
Si Si5 0.926151 0.505920 0.946544
Si Si6 0.422176 0.641696 0.873637
Si Si7 0.427395 0.355102 0.503871
Si Si8 0.072989 0.994696 0.309169
O O1 0.250000 0.862230 0.141824
O O2 0.038845 0.750000 0.123938
O O3 0.993741 0.884169 0.183890
O O4 0.036681 0.918677 0.087369
O O5 0.250000 0.367479 0.219481
O O6 0.451194 0.250000 0.239248
O O7 0.513188 0.382627 0.180292
O O8 0.463878 0.417205 0.276388
O O9 0.750000 0.014056 0.574385
O O10 0.965340 0.914336 0.544945
O O11 0.972238 0.997748 0.633659
O O12 0.000307 0.089819 0.549033
O O13 0.250000 0.375299 0.763884
O O14 0.052773 0.250000 0.757786
O O15 0.000272 0.411292 0.719090
O O16 0.750000 0.510813 0.951236
O O17 0.987954 0.590644 0.915857
O O18 0.000000 0.500000 0.000000
O O19 0.250000 0.618205 0.876667
O O20 0.436780 0.750000 0.878770
O O21 0.250000 0.357256 0.508998
O O22 0.472548 0.250000 0.501127
O O23 0.250000 0.984598 0.308065
#
# Coordination Sequence:
#
# PCOD9449843 Si02
#       8
#     8   8   8   8   8   8   8   8
#     4   9  19  37  58  77 101 135 172 210 254 306
#     4   9  18  33  53  77 104 134 169 208 252 305
#     4   9  19  34  51  75 104 133 170 212 254 303
#     4  10  21  35  52  76 104 135 171 209 251 300
#     4  11  23  37  55  80 107 136 172 214 262 313
#     4  10  21  37  56  77 104 139 176 214 257 306
#     4   9  18  34  55  75  98 132 172 214 259 304
#     4  10  20  33  51  76 106 138 169 206 253 303
#
# _framework density 17.660561000000001
#
# number of rings (size 3 to 8) (size 9 to 14) (size 15 to 20)
#    0.000    2.375    0.000    1.875    0.000    8.250 
#    0.000    6.250    0.000    0.000    0.000    3.500 
#    0.000    0.000    0.000    0.000    0.000    0.000 
#
# Total GULP energy -357216.237260 kJ/mol
# GULP energy per Si atom -5581.503707 kJ/mol
# Density = 1.762036 g / cm^3
# Si number density = 17.660561 Si / 1000 Ang^3
#
#
#
# Elastic Constant Matrix: (Units=GPa)
#
#
# Indices 1 2 3 4 5 6 
#
# 1 37.9992 47.1575 64.6839 0.0000 0.0000 0.0000
# 2 47.1575 99.5673 80.7922 0.0000 0.0000 0.0000
# 3 64.6839 80.7922 187.9680 0.0000 0.0000 0.0000
# 4 0.0000 0.0000 0.0000 -195.0304 0.0000 0.0000
# 5 0.0000 0.0000 0.0000 0.0000 30.0407 0.0000
# 6 0.0000 0.0000 0.0000 0.0000 0.0000 25.7594
#
#
#
# Elastic Compliance Matrix: (Units=1/GPa)
#
#
# Indices 1 2 3 4 5 6 
#
# 1 0.100376 -0.029962 -0.021663 0.000000 0.000000 0.000000
# 2 -0.029962 0.024366 -0.000162 0.000000 0.000000 0.000000
# 3 -0.021663 -0.000162 0.012845 0.000000 0.000000 0.000000
# 4 0.000000 0.000000 0.000000 -0.005127 0.000000 0.000000
# 5 0.000000 0.000000 0.000000 0.000000 0.033288 0.000000
# 6 0.000000 0.000000 0.000000 0.000000 0.000000 0.038821
#
#
# Mechanical properties :
#
#
# Convention : Reuss Voigt Hill
#
# Bulk Modulus (GPa) = 29.40230 78.97797 54.19013
# Shear Modulus (GPa) = 15.65042 -18.98601 -1.66779
#
# Velocity S-wave (km/s) = 2.98011 -3.28235 -0.97284
# Velocity P-wave (km/s) = 5.34098 5.51833 5.43038
#
# Compressibility (1/GPa) = 0.03401095
#
# Stress axis : x y z
#
# Youngs Moduli (GPa) = 9.96257 41.04070 77.85389
#
# Poissons Ratio (x) = 1.22967 1.68656
# Poissons Ratio (y) = 0.29850 0.01264
# Poissons Ratio (z) = 0.21582 0.00666
#
# Static dielectric constant tensor:
#      x y z
#    x 1.587790 0.000000 0.000000 
#    y 0.000000 1.604340 0.000000 
#    z 0.000000 0.000000 1.569110 
# 
# From -- ./inp_files/31414.got.cif
#   From: 2010.05.17/outbox.cif.g08.bks.cpg/sg59_16_cif.got.tgz:31414.got - 2010.06.03 14:40:33.
