data_PCOD9449412
_publ_section_title
;
Structure prediction by ZEFSAII (Michael W. Deem and Ramdas Pophale) SiO2 
 PCOD9449412
Probable space group: P M M N
;
_chemical_formula_sum "Si O2"
_cell_formula_units_Z 56
_cell_length_a 13.988988
_cell_length_b 7.329858
_cell_length_c 22.648896
_cell_angle_alpha 90.000000
_cell_angle_beta 90.000000
_cell_angle_gamma 90.000000
_cell_volume 2322.356544
_symmetry_space_group_name_H-M "P M M N"
_symmetry_group_IT_number 59
_space_group.IT_coordinate_system_code '2'
_symmetry_cell_setting 'orthorhombic'
loop_
_space_group_symop_operation_xyz
x,y,z
1/2-x,1/2-y,z
1/2+x,-y,-z
-x,1/2+y,-z
-x,-y,-z
1/2+x,1/2+y,-z
1/2-x,y,z
x,1/2-y,z
loop_
_atom_site_type_symbol
_atom_site_label
_atom_site_fract_x
_atom_site_fract_y
_atom_site_fract_z
Si Si1 0.636569 0.968859 0.534226
Si Si2 0.862755 0.971503 0.902679
Si Si3 0.640451 0.970768 0.159166
Si Si4 0.048547 0.461224 0.345692
Si Si5 0.640382 0.529280 0.403797
Si Si6 0.951984 0.538332 0.782157
Si Si7 0.365657 0.032559 0.970158
O O1 0.750000 0.999696 0.537025
O O2 0.621185 0.750000 0.533548
O O3 0.590726 0.043076 0.594066
O O4 0.606305 0.034579 0.469154
O O5 0.750000 0.012563 0.900708
O O6 0.871557 0.750000 0.903699
O O7 0.909005 0.041364 0.842408
O O8 0.901611 0.037773 0.966466
O O9 0.750000 0.028689 0.168103
O O10 0.640848 0.750000 0.157874
O O11 0.604863 0.037215 0.094288
O O12 0.565683 0.030522 0.207965
O O13 0.079865 0.250000 0.344511
O O14 0.934829 0.467024 0.355573
O O15 0.073680 0.540477 0.281757
O O16 0.750000 0.471660 0.394876
O O17 0.640447 0.750000 0.404174
O O18 0.921964 0.750000 0.781063
O O19 0.250000 0.006689 0.970832
O O20 0.381027 0.250000 0.969819
#
# Coordination Sequence:
#
# PCOD9449412 Si02
#       7
#     8   8   8   8   8   8   8
#     4   8  15  30  52  75  96 119 151 192 234 273
#     4   8  14  27  47  69  94 122 152 190 234 279
#     4   9  18  33  51  68  88 120 162 200 233 275
#     4  10  20  32  47  70 100 129 154 185 228 276
#     4   9  18  33  53  74  93 118 156 197 233 270
#     4  10  21  32  44  70 101 126 155 188 227 276
#     4   7  11  23  45  69  88 111 150 197 237 271
#
# _framework density 24.113437999999999
#
# number of rings (size 3 to 8) (size 9 to 14) (size 15 to 20)
#    0.000    3.286    0.000    3.000    0.000    2.857 
#    0.000    5.714    0.000    1.714    0.000    4.000 
#    0.000    0.000    0.000    0.000    0.000    0.000 
#
# Total GULP energy -312628.828254 kJ/mol
# GULP energy per Si atom -5582.657647 kJ/mol
# Density = 2.405855 g / cm^3
# Si number density = 24.113438 Si / 1000 Ang^3
#
#
#
# Elastic Constant Matrix: (Units=GPa)
#
#
# Indices 1 2 3 4 5 6 
#
# 1 24.7672 -7.5183 14.6278 0.0000 0.0000 0.0000
# 2 -7.5183 95.3588 4.9966 0.0000 0.0000 0.0000
# 3 14.6278 4.9966 136.6268 0.0000 0.0000 0.0000
# 4 0.0000 0.0000 0.0000 2.1279 0.0000 0.0000
# 5 0.0000 0.0000 0.0000 0.0000 17.0302 0.0000
# 6 0.0000 0.0000 0.0000 0.0000 0.0000 9.4506
#
#
#
# Elastic Compliance Matrix: (Units=1/GPa)
#
#
# Indices 1 2 3 4 5 6 
#
# 1 0.044406 0.003757 -0.004892 0.000000 0.000000 0.000000
# 2 0.003757 0.010825 -0.000798 0.000000 0.000000 0.000000
# 3 -0.004892 -0.000798 0.007872 0.000000 0.000000 0.000000
# 4 0.000000 0.000000 0.000000 0.469958 0.000000 0.000000
# 5 0.000000 0.000000 0.000000 0.000000 0.058719 0.000000
# 6 0.000000 0.000000 0.000000 0.000000 0.000000 0.105813
#
#
# Mechanical properties :
#
#
# Convention : Reuss Voigt Hill
#
# Bulk Modulus (GPa) = 16.88116 31.21834 24.04975
# Shear Modulus (GPa) = 6.93286 22.03151 14.48218
#
# Velocity S-wave (km/s) = 1.69745 3.02596 2.45334
# Velocity P-wave (km/s) = 3.29510 5.01828 4.24505
#
# Compressibility (1/GPa) = 0.05923764
#
# Stress axis : x y z
#
# Youngs Moduli (GPa) = 22.51965 92.38073 127.03054
#
# Poissons Ratio (x) = -0.34711 0.62139
# Poissons Ratio (y) = -0.08461 0.10139
# Poissons Ratio (z) = 0.11016 0.07373
#
# Static dielectric constant tensor:
#      x y z
#    x 1.912480 0.000000 0.000000 
#    y 0.000000 1.988800 0.000000 
#    z 0.000000 0.000000 1.938180 
# 
# From -- ./inp_files/30048.got.cif
#   From: 2010.05.17/outbox.cif.g08.bks.cpg/sg59_16_cif.got.tgz:30048.got - 2010.06.03 14:40:33.
