data_PCOD9449378
_publ_section_title
;
Structure prediction by ZEFSAII (Michael W. Deem and Ramdas Pophale) SiO2 
 PCOD9449378
Probable space group: P M M N
;
_chemical_formula_sum "Si O2"
_cell_formula_units_Z 48
_cell_length_a 9.722796
_cell_length_b 7.369772
_cell_length_c 32.600685
_cell_angle_alpha 90.000000
_cell_angle_beta 90.000000
_cell_angle_gamma 90.000000
_cell_volume 2335.995228
_symmetry_space_group_name_H-M "P M M N"
_symmetry_group_IT_number 59
_space_group.IT_coordinate_system_code '2'
_symmetry_cell_setting 'orthorhombic'
loop_
_space_group_symop_operation_xyz
x,y,z
1/2-x,1/2-y,z
1/2+x,-y,-z
-x,1/2+y,-z
-x,-y,-z
1/2+x,1/2+y,-z
1/2-x,y,z
x,1/2-y,z
loop_
_atom_site_type_symbol
_atom_site_label
_atom_site_fract_x
_atom_site_fract_y
_atom_site_fract_z
Si Si1 0.405841 0.032805 0.960973
Si Si2 0.408883 0.528736 0.385191
Si Si3 0.590716 0.972144 0.216932
Si Si4 0.406350 0.466923 0.539690
Si Si5 0.417573 0.461563 0.872429
Si Si6 0.408284 0.970839 0.292936
O O1 0.250000 0.965705 0.967704
O O2 0.397112 0.250000 0.956236
O O3 0.459531 0.962403 0.916791
O O4 0.500000 0.000000 0.000000
O O5 0.250000 0.474178 0.392874
O O6 0.408957 0.750000 0.385757
O O7 0.512284 0.465106 0.420256
O O8 0.448736 0.473076 0.339007
O O9 0.750000 0.023897 0.221693
O O10 0.587674 0.750000 0.216053
O O11 0.540341 0.035764 0.171974
O O12 0.502441 0.032666 0.255621
O O13 0.500000 0.500000 0.500000
O O14 0.250000 0.536106 0.535474
O O15 0.396712 0.250000 0.544160
O O16 0.250000 0.468194 0.872682
O O17 0.458551 0.250000 0.871928
O O18 0.250000 0.023990 0.286659
O O19 0.412152 0.750000 0.292788
#
# Coordination Sequence:
#
# PCOD9449378 Si02
#       6
#     8   8   8   8   8   8
#     4   9  17  29  44  61  83 111 142 177 215 254
#     4   8  14  25  39  54  77 110 141 169 206 250
#     4   8  12  18  30  47  67  95 130 162 192 234
#     4  10  20  32  47  67  89 115 148 183 218 256
#     4   7  11  21  35  50  71 101 133 163 200 245
#     4   8  13  20  30  47  73 103 131 160 199 244
#
# _framework density 20.547986999999999
#
# number of rings (size 3 to 8) (size 9 to 14) (size 15 to 20)
#    0.000    3.667    0.000    3.500    0.000    2.000 
#    0.000    4.167    0.000    3.000    0.000    0.000 
#    0.000    1.333    0.000    8.667    0.000   13.167 
#
# Total GULP energy -267464.658907 kJ/mol
# GULP energy per Si atom -5572.180394 kJ/mol
# Density = 2.050122 g / cm^3
# Si number density = 20.547987 Si / 1000 Ang^3
#
#
#
# Elastic Constant Matrix: (Units=GPa)
#
#
# Indices 1 2 3 4 5 6 
#
# 1 107.3137 4.5665 131.2507 0.0000 0.0000 0.0000
# 2 4.5665 73.1872 7.1366 0.0000 0.0000 0.0000
# 3 131.2507 7.1366 263.8699 0.0000 0.0000 0.0000
# 4 0.0000 0.0000 0.0000 5.9326 0.0000 0.0000
# 5 0.0000 0.0000 0.0000 0.0000 41.0681 0.0000
# 6 0.0000 0.0000 0.0000 0.0000 0.0000 0.2010
#
#
#
# Elastic Compliance Matrix: (Units=1/GPa)
#
#
# Indices 1 2 3 4 5 6 
#
# 1 0.023801 -0.000332 -0.011830 0.000000 0.000000 0.000000
# 2 -0.000332 0.013704 -0.000206 0.000000 0.000000 0.000000
# 3 -0.011830 -0.000206 0.009680 0.000000 0.000000 0.000000
# 4 0.000000 0.000000 0.000000 0.168559 0.000000 0.000000
# 5 0.000000 0.000000 0.000000 0.000000 0.024350 0.000000
# 6 0.000000 0.000000 0.000000 0.000000 0.000000 4.975534
#
#
# Mechanical properties :
#
#
# Convention : Reuss Voigt Hill
#
# Bulk Modulus (GPa) = 44.54184 81.14205 62.84194
# Shear Modulus (GPa) = 0.95277 29.53481 15.24379
#
# Velocity S-wave (km/s) = 0.68168 3.79536 2.72667
# Velocity P-wave (km/s) = 4.72690 7.66689 6.36886
#
# Compressibility (1/GPa) = 0.02245080
#
# Stress axis : x y z
#
# Youngs Moduli (GPa) = 42.01451 72.96955 103.30981
#
# Poissons Ratio (x) = 0.02419 1.22215
# Poissons Ratio (y) = 0.01393 0.02126
# Poissons Ratio (z) = 0.49703 0.01501
#
# Static dielectric constant tensor:
#      x y z
#    x 1.695220 0.000000 0.000000 
#    y 0.000000 1.917690 0.000000 
#    z 0.000000 0.000000 1.751940 
# 
# From -- ./inp_files/33132.got.cif
#   From: 2010.05.17/outbox.cif.g08.bks.cpg/sg59_17_cif.got.tgz:33132.got - 2010.06.03 14:40:33.
