data_PCOD9449725
_publ_section_title
;
Structure prediction by ZEFSAII (Michael W. Deem and Ramdas Pophale) SiO2 
 PCOD9449725
Probable space group: P M M N
;
_chemical_formula_sum "Si O2"
_cell_formula_units_Z 40
_cell_length_a 13.356023
_cell_length_b 12.858111
_cell_length_c 12.862603
_cell_angle_alpha 90.000000
_cell_angle_beta 90.000000
_cell_angle_gamma 90.000000
_cell_volume 2208.936311
_symmetry_space_group_name_H-M "P M M N"
_symmetry_group_IT_number 59
_space_group.IT_coordinate_system_code '2'
_symmetry_cell_setting 'orthorhombic'
loop_
_space_group_symop_operation_xyz
x,y,z
1/2-x,1/2-y,z
1/2+x,-y,-z
-x,1/2+y,-z
-x,-y,-z
1/2+x,1/2+y,-z
1/2-x,y,z
x,1/2-y,z
loop_
_atom_site_type_symbol
_atom_site_label
_atom_site_fract_x
_atom_site_fract_y
_atom_site_fract_z
Si Si1 0.559027 0.870825 0.216800
Si Si2 0.636668 0.011285 0.398387
Si Si3 0.431637 0.127296 0.408533
Si Si4 0.633809 0.493894 0.786031
Si Si5 0.370363 0.132368 0.017104
O O1 0.578904 0.750000 0.240271
O O2 0.620010 0.946563 0.292417
O O3 0.442759 0.900149 0.233102
O O4 0.586313 0.889317 0.096559
O O5 0.750000 0.050611 0.405077
O O6 0.614833 0.931280 0.492337
O O7 0.549679 0.097622 0.405010
O O8 0.416469 0.250000 0.413301
O O9 0.382568 0.076634 0.306280
O O10 0.750000 0.463471 0.790580
O O11 0.604007 0.550862 0.893420
O O12 0.250000 0.131914 0.008453
O O13 0.401305 0.250000 0.047415
#
# Coordination Sequence:
#
# PCOD9449725 Si02
#       5
#     8   8   8   8   8
#     4  10  20  33  50  73 101 133 169 208 249 294
#     4  10  21  36  54  77 103 131 165 204 246 293
#     4  10  21  36  54  77 103 131 165 204 246 293
#     4  10  20  33  50  73 101 133 169 208 249 294
#     4   9  17  30  50  74  97 125 164 208 253 299
#
# _framework density 18.108263000000001
#
# number of rings (size 3 to 8) (size 9 to 14) (size 15 to 20)
#    0.000    2.200    0.000    3.000    0.000    5.200 
#    0.000    0.000    0.000    7.200    0.000    5.600 
#    0.000    0.000    0.000    0.000    0.000    0.000 
#
# Total GULP energy -223237.900417 kJ/mol
# GULP energy per Si atom -5580.947510 kJ/mol
# Density = 1.806705 g / cm^3
# Si number density = 18.108263 Si / 1000 Ang^3
#
#
#
# Elastic Constant Matrix: (Units=GPa)
#
#
# Indices 1 2 3 4 5 6 
#
# 1 51.9693 -21.0412 -10.4913 0.0000 0.0000 0.0000
# 2 -21.0412 14.6808 -2.4180 0.0000 0.0000 0.0000
# 3 -10.4913 -2.4180 49.4187 0.0000 0.0000 0.0000
# 4 0.0000 0.0000 0.0000 16.7825 0.0000 0.0000
# 5 0.0000 0.0000 0.0000 0.0000 18.2521 0.0000
# 6 0.0000 0.0000 0.0000 0.0000 0.0000 17.1326
#
#
#
# Elastic Compliance Matrix: (Units=1/GPa)
#
#
# Indices 1 2 3 4 5 6 
#
# 1 0.056058 0.082974 0.015961 0.000000 0.000000 0.000000
# 2 0.082974 0.191482 0.026984 0.000000 0.000000 0.000000
# 3 0.015961 0.026984 0.024944 0.000000 0.000000 0.000000
# 4 0.000000 0.000000 0.000000 0.059586 0.000000 0.000000
# 5 0.000000 0.000000 0.000000 0.000000 0.054788 0.000000
# 6 0.000000 0.000000 0.000000 0.000000 0.000000 0.058368
#
#
# Mechanical properties :
#
#
# Convention : Reuss Voigt Hill
#
# Bulk Modulus (GPa) = 1.90723 5.35200 3.62962
# Shear Modulus (GPa) = 13.58093 20.43473 17.00783
#
# Velocity S-wave (km/s) = 2.74156 3.36292 3.06801
# Velocity P-wave (km/s) = 3.32822 4.24747 3.81563
#
# Compressibility (1/GPa) = 0.52432069
#
# Stress axis : x y z
#
# Youngs Moduli (GPa) = 17.83856 5.22243 40.09000
#
# Poissons Ratio (x) = -0.43332 -0.63986
# Poissons Ratio (y) = -1.48013 -1.08178
# Poissons Ratio (z) = -0.28471 -0.14092
#
# Static dielectric constant tensor:
#      x y z
#    x 1.624480 0.000000 0.000000 
#    y 0.000000 1.585070 0.000000 
#    z 0.000000 0.000000 1.616190 
# 
# From -- ./inp_files/15505.got.cif
#   From: 2010.05.17/outbox.cif.g08.bks.cpg/sg59_8_cif.got.tgz:15505.got - 2010.06.03 14:40:33.
