data_PCOD9449600
_publ_section_title
;
Structure prediction by ZEFSAII (Michael W. Deem and Ramdas Pophale) SiO2 
 PCOD9449600
Probable space group: P M M N
;
_chemical_formula_sum "Si O2"
_cell_formula_units_Z 56
_cell_length_a 20.358964
_cell_length_b 7.622111
_cell_length_c 18.190610
_cell_angle_alpha 90.000000
_cell_angle_beta 90.000000
_cell_angle_gamma 90.000000
_cell_volume 2822.787635
_symmetry_space_group_name_H-M "P M M N"
_symmetry_group_IT_number 59
_space_group.IT_coordinate_system_code '2'
_symmetry_cell_setting 'orthorhombic'
loop_
_space_group_symop_operation_xyz
x,y,z
1/2-x,1/2-y,z
1/2+x,-y,-z
-x,1/2+y,-z
-x,-y,-z
1/2+x,1/2+y,-z
1/2-x,y,z
x,1/2-y,z
loop_
_atom_site_type_symbol
_atom_site_label
_atom_site_fract_x
_atom_site_fract_y
_atom_site_fract_z
Si Si1 0.823043 0.965271 0.079834
Si Si2 0.543363 0.040846 0.802037
Si Si3 0.933637 0.035070 0.638611
Si Si4 0.916634 0.538323 0.386300
Si Si5 0.570609 0.542867 0.965454
Si Si6 0.104236 0.464055 0.777797
Si Si7 0.325265 0.958492 0.475455
O O1 0.750000 0.020433 0.062078
O O2 0.824738 0.750000 0.080084
O O3 0.843969 0.021035 0.161645
O O4 0.874243 0.030980 0.019507
O O5 0.540449 0.250000 0.794930
O O6 0.571859 0.978161 0.723964
O O7 0.467858 0.979112 0.805172
O O8 0.576251 0.005279 0.879960
O O9 0.933467 0.250000 0.636624
O O10 0.873087 0.972222 0.589152
O O11 0.006436 0.981395 0.609157
O O12 0.918291 0.750000 0.386515
O O13 0.889939 0.479613 0.306544
O O14 0.867709 0.483243 0.450504
O O15 0.576952 0.750000 0.968345
O O16 0.500000 0.500000 0.000000
O O17 0.105033 0.250000 0.776849
O O18 0.250000 0.027529 0.478654
O O19 0.319647 0.750000 0.463651
#
# Coordination Sequence:
#
# PCOD9449600 Si02
#       7
#     8   8   8   8   8   8   8
#     4   9  17  29  46  69  97 129 164 198 234 285
#     4   9  16  31  53  75  96 121 161 210 248 283
#     4   8  16  32  53  73  95 127 166 206 245 291
#     4   9  17  30  52  76  95 120 163 212 249 281
#     4  11  20  31  51  76 100 129 165 202 243 288
#     4   8  14  27  47  72  95 119 156 200 244 288
#     4  10  20  33  48  69 101 138 168 195 242 304
#
# _framework density 19.838543999999999
#
# number of rings (size 3 to 8) (size 9 to 14) (size 15 to 20)
#    0.000    2.857    1.429    2.571    0.000    0.857 
#    0.000    5.714    0.000    2.571    0.000    0.000 
#    0.000    0.000    0.000    0.000    0.000    0.000 
#
# Total GULP energy -312155.519257 kJ/mol
# GULP energy per Si atom -5574.205701 kJ/mol
# Density = 1.979339 g / cm^3
# Si number density = 19.838544 Si / 1000 Ang^3
#
#
#
# Elastic Constant Matrix: (Units=GPa)
#
#
# Indices 1 2 3 4 5 6 
#
# 1 167.5273 5.6366 116.3368 0.0000 0.0000 0.0000
# 2 5.6366 34.3608 0.8624 0.0000 0.0000 0.0000
# 3 116.3368 0.8624 163.7767 0.0000 0.0000 0.0000
# 4 0.0000 0.0000 0.0000 14.6659 0.0000 0.0000
# 5 0.0000 0.0000 0.0000 0.0000 25.0216 0.0000
# 6 0.0000 0.0000 0.0000 0.0000 0.0000 10.3135
#
#
#
# Elastic Compliance Matrix: (Units=1/GPa)
#
#
# Indices 1 2 3 4 5 6 
#
# 1 0.011883 -0.001738 -0.008432 0.000000 0.000000 0.000000
# 2 -0.001738 0.029361 0.001080 0.000000 0.000000 0.000000
# 3 -0.008432 0.001080 0.012090 0.000000 0.000000 0.000000
# 4 0.000000 0.000000 0.000000 0.068185 0.000000 0.000000
# 5 0.000000 0.000000 0.000000 0.000000 0.039966 0.000000
# 6 0.000000 0.000000 0.000000 0.000000 0.000000 0.096960
#
#
# Mechanical properties :
#
#
# Convention : Reuss Voigt Hill
#
# Bulk Modulus (GPa) = 28.44623 67.92627 48.18625
# Shear Modulus (GPa) = 17.34050 26.18878 21.76464
#
# Velocity S-wave (km/s) = 2.95969 3.63725 3.31583
# Velocity P-wave (km/s) = 5.10389 7.20787 6.24512
#
# Compressibility (1/GPa) = 0.03515404
#
# Stress axis : x y z
#
# Youngs Moduli (GPa) = 84.15415 34.05888 82.71572
#
# Poissons Ratio (x) = 0.05918 0.69744
# Poissons Ratio (y) = 0.14623 -0.08931
# Poissons Ratio (z) = 0.70957 -0.03677
#
# Static dielectric constant tensor:
#      x y z
#    x 1.685400 0.000000 0.000000 
#    y 0.000000 1.757710 0.000000 
#    z 0.000000 0.000000 1.705010 
# 
# From -- ./inp_files/28114.got.cif
#   From: 2010.05.17/outbox.cif.g08.bks.cpg/sg59_15_cif.got.tgz:28114.got - 2010.06.03 14:40:33.
