data_PCOD9449468
_publ_section_title
;
Structure prediction by ZEFSAII (Michael W. Deem and Ramdas Pophale) SiO2 
 PCOD9449468
Probable space group: P M M N
;
_chemical_formula_sum "Si O2"
_cell_formula_units_Z 64
_cell_length_a 8.976293
_cell_length_b 19.222373
_cell_length_c 21.743218
_cell_angle_alpha 90.000000
_cell_angle_beta 90.000000
_cell_angle_gamma 90.000000
_cell_volume 3751.697731
_symmetry_space_group_name_H-M "P M M N"
_symmetry_group_IT_number 59
_space_group.IT_coordinate_system_code '2'
_symmetry_cell_setting 'orthorhombic'
loop_
_space_group_symop_operation_xyz
x,y,z
1/2-x,1/2-y,z
1/2+x,-y,-z
-x,1/2+y,-z
-x,-y,-z
1/2+x,1/2+y,-z
1/2-x,y,z
x,1/2-y,z
loop_
_atom_site_type_symbol
_atom_site_label
_atom_site_fract_x
_atom_site_fract_y
_atom_site_fract_z
Si Si1 0.927335 0.168256 0.967127
Si Si2 0.574036 0.905649 0.147368
Si Si3 0.918529 0.136657 0.734284
Si Si4 0.420429 0.021820 0.315659
Si Si5 0.927460 0.832036 0.901459
Si Si6 0.927832 0.437391 0.193810
Si Si7 0.429363 0.673451 0.400579
Si Si8 0.571603 0.970651 0.437967
O O1 0.750000 0.160487 0.973226
O O2 0.959346 0.250000 0.954061
O O3 0.988175 0.121197 0.912186
O O4 0.005235 0.150600 0.031687
O O5 0.750000 0.898787 0.138018
O O6 0.522124 0.861076 0.206559
O O7 0.541107 0.986318 0.164021
O O8 0.750000 0.158031 0.750782
O O9 0.966438 0.174602 0.672180
O O10 0.914140 0.056419 0.711930
O O11 0.250000 0.044634 0.326106
O O12 0.501235 0.064497 0.261919
O O13 0.509212 0.013720 0.379275
O O14 0.750000 0.842725 0.901837
O O15 0.956690 0.750000 0.890658
O O16 0.002685 0.879250 0.849847
O O17 0.750000 0.430440 0.198017
O O18 0.250000 0.660796 0.404271
O O19 0.460501 0.750000 0.426894
O O20 0.515633 0.608825 0.429325
O O21 0.750000 0.973651 0.439453
O O22 0.500000 0.000000 0.500000
#
# Coordination Sequence:
#
# PCOD9449468 Si02
#       8
#     8   8   8   8   8   8   8   8
#     4  10  21  36  52  69  93 129 171 214 261 313
#     4  10  20  32  48  73 103 134 169 209 253 302
#     4   8  15  28  46  69  98 132 166 200 242 293
#     4   9  17  32  53  77 104 132 165 206 251 296
#     4  10  21  37  56  76  98 128 168 213 263 317
#     4  10  20  34  54  80 106 133 167 209 257 307
#     4   9  18  33  52  75 105 140 178 219 261 306
#     4  11  21  34  54  80 110 144 182 218 257 308
#
# _framework density 17.058942999999999
#
# number of rings (size 3 to 8) (size 9 to 14) (size 15 to 20)
#    0.000    2.375    0.000    3.750    0.000    7.250 
#    0.000    1.250    0.000    0.750    0.000    0.000 
#    0.000    0.000    0.000    0.000    0.000    0.000 
#
# Total GULP energy -356960.250570 kJ/mol
# GULP energy per Si atom -5577.503915 kJ/mol
# Density = 1.702012 g / cm^3
# Si number density = 17.058943 Si / 1000 Ang^3
#
#
#
# Elastic Constant Matrix: (Units=GPa)
#
#
# Indices 1 2 3 4 5 6 
#
# 1 111.3052 57.6747 85.7619 0.0000 0.0000 0.0000
# 2 57.6747 61.1316 63.5640 0.0000 0.0000 0.0000
# 3 85.7619 63.5640 142.3529 0.0000 0.0000 0.0000
# 4 0.0000 0.0000 0.0000 14.8670 0.0000 0.0000
# 5 0.0000 0.0000 0.0000 0.0000 34.3209 0.0000
# 6 0.0000 0.0000 0.0000 0.0000 0.0000 21.1869
#
#
#
# Elastic Compliance Matrix: (Units=1/GPa)
#
#
# Indices 1 2 3 4 5 6 
#
# 1 0.020760 -0.012286 -0.007022 0.000000 0.000000 0.000000
# 2 -0.012286 0.037806 -0.009480 0.000000 0.000000 0.000000
# 3 -0.007022 -0.009480 0.015488 0.000000 0.000000 0.000000
# 4 0.000000 0.000000 0.000000 0.067263 0.000000 0.000000
# 5 0.000000 0.000000 0.000000 0.000000 0.029137 0.000000
# 6 0.000000 0.000000 0.000000 0.000000 0.000000 0.047199
#
#
# Mechanical properties :
#
#
# Convention : Reuss Voigt Hill
#
# Bulk Modulus (GPa) = 60.67716 80.97676 70.82696
# Shear Modulus (GPa) = 17.81133 21.26089 19.53611
#
# Velocity S-wave (km/s) = 3.23477 3.53416 3.38777
# Velocity P-wave (km/s) = 7.04258 8.01408 7.54399
#
# Compressibility (1/GPa) = 0.01648066
#
# Stress axis : x y z
#
# Youngs Moduli (GPa) = 48.16861 26.45091 64.56651
#
# Poissons Ratio (x) = 0.32496 0.45335
# Poissons Ratio (y) = 0.59178 0.61207
# Poissons Ratio (z) = 0.33822 0.25075
#
# Static dielectric constant tensor:
#      x y z
#    x 1.572610 0.000000 0.000000 
#    y 0.000000 1.590930 0.000000 
#    z 0.000000 0.000000 1.555490 
# 
# From -- ./inp_files/29381.got.cif
#   From: 2010.05.17/outbox.cif.g08.bks.cpg/sg59_15_cif.got.tgz:29381.got - 2010.06.03 14:40:33.
