data_PCOD9449357
_publ_section_title
;
Structure prediction by ZEFSAII (Michael W. Deem and Ramdas Pophale) SiO2 
 PCOD9449357
Probable space group: P M M N
;
_chemical_formula_sum "Si O2"
_cell_formula_units_Z 64
_cell_length_a 14.279682
_cell_length_b 7.868994
_cell_length_c 24.093450
_cell_angle_alpha 90.000000
_cell_angle_beta 90.000000
_cell_angle_gamma 90.000000
_cell_volume 2707.302239
_symmetry_space_group_name_H-M "P M M N"
_symmetry_group_IT_number 59
_space_group.IT_coordinate_system_code '2'
_symmetry_cell_setting 'orthorhombic'
loop_
_space_group_symop_operation_xyz
x,y,z
1/2-x,1/2-y,z
1/2+x,-y,-z
-x,1/2+y,-z
-x,-y,-z
1/2+x,1/2+y,-z
1/2-x,y,z
x,1/2-y,z
loop_
_atom_site_type_symbol
_atom_site_label
_atom_site_fract_x
_atom_site_fract_y
_atom_site_fract_z
Si Si1 0.353746 0.050904 0.156157
Si Si2 0.543808 0.040565 0.198252
Si Si3 0.858834 0.457488 0.085237
Si Si4 0.148700 0.556718 0.330929
Si Si5 0.381926 0.061721 0.447002
Si Si6 0.935780 0.049383 0.316571
Si Si7 0.864122 0.447600 0.965743
Si Si8 0.106795 0.554775 0.565985
O O1 0.250000 0.973645 0.160943
O O2 0.346235 0.250000 0.168993
O O3 0.436175 0.980978 0.193969
O O4 0.386694 0.038180 0.091858
O O5 0.544588 0.250000 0.198627
O O6 0.592037 0.985807 0.141343
O O7 0.590143 0.983487 0.255705
O O8 0.750000 0.504826 0.088685
O O9 0.863136 0.250000 0.083215
O O10 0.897796 0.516401 0.025387
O O11 0.250000 0.484642 0.311594
O O12 0.142152 0.750000 0.310968
O O13 0.151531 0.558529 0.398246
O O14 0.049470 0.467281 0.319113
O O15 0.353038 0.250000 0.430374
O O16 0.494712 0.056861 0.443857
O O17 0.354325 0.028745 0.510392
O O18 0.914982 0.250000 0.318527
O O19 0.887256 0.976850 0.372155
O O20 0.750000 0.453875 0.969538
O O21 0.890089 0.250000 0.959999
O O22 0.139019 0.750000 0.566782
#
# Coordination Sequence:
#
# PCOD9449357 Si02
#       8
#     8   8   8   8   8   8   8   8
#     4   9  17  28  42  63  93 126 156 190 234 279
#     4   9  17  29  45  66  91 121 160 199 232 273
#     4   8  14  26  46  70  92 114 145 191 243 287
#     4  10  20  32  46  66  94 125 154 190 234 274
#     4   9  16  26  44  68  88 111 145 182 222 269
#     4   9  18  31  47  66  89 121 159 195 228 269
#     4   8  14  26  44  65  89 118 152 189 232 284
#     4   8  14  25  41  62  87 112 139 176 222 267
#
# _framework density 23.639769999999999
#
# number of rings (size 3 to 8) (size 9 to 14) (size 15 to 20)
#    0.000    3.250    0.000    2.250    0.000    5.000 
#    0.000    1.875    0.000    3.000    0.000    3.500 
#    0.000    0.000    0.000    0.000    0.000    0.000 
#
# Total GULP energy -356792.101467 kJ/mol
# GULP energy per Si atom -5574.876585 kJ/mol
# Density = 2.358596 g / cm^3
# Si number density = 23.639770 Si / 1000 Ang^3
#
#
#
# Elastic Constant Matrix: (Units=GPa)
#
#
# Indices 1 2 3 4 5 6 
#
# 1 44.7593 -5.1820 10.5627 0.0000 0.0000 0.0000
# 2 -5.1820 32.9452 0.2147 0.0000 0.0000 0.0000
# 3 10.5627 0.2147 142.0562 0.0000 0.0000 0.0000
# 4 0.0000 0.0000 0.0000 15.6679 0.0000 0.0000
# 5 0.0000 0.0000 0.0000 0.0000 -35.9984 0.0000
# 6 0.0000 0.0000 0.0000 0.0000 0.0000 -38.5209
#
#
#
# Elastic Compliance Matrix: (Units=1/GPa)
#
#
# Indices 1 2 3 4 5 6 
#
# 1 0.023173 0.003656 -0.001729 0.000000 0.000000 0.000000
# 2 0.003656 0.030931 -0.000319 0.000000 0.000000 0.000000
# 3 -0.001729 -0.000319 0.007168 0.000000 0.000000 0.000000
# 4 0.000000 0.000000 0.000000 0.063825 0.000000 0.000000
# 5 0.000000 0.000000 0.000000 0.000000 -0.027779 0.000000
# 6 0.000000 0.000000 0.000000 0.000000 0.000000 -0.025960
#
#
# Mechanical properties :
#
#
# Convention : Reuss Voigt Hill
#
# Bulk Modulus (GPa) = 15.50630 25.66131 20.58380
# Shear Modulus (GPa) = 55.78081 2.50740 29.14410
#
# Velocity S-wave (km/s) = 4.86286 1.03100 3.51499
# Velocity P-wave (km/s) = 6.17280 3.50657 5.01994
#
# Compressibility (1/GPa) = 0.06448991
#
# Stress axis : x y z
#
# Youngs Moduli (GPa) = 43.15380 32.33047 139.49961
#
# Poissons Ratio (x) = -0.11820 0.24114
# Poissons Ratio (y) = -0.15778 0.04445
# Poissons Ratio (z) = 0.07459 0.01030
#
# Static dielectric constant tensor:
#      x y z
#    x 1.945500 0.000000 0.000000 
#    y 0.000000 1.856670 0.000000 
#    z 0.000000 0.000000 1.943480 
# 
# From -- ./inp_files/32285.got.cif
#   From: 2010.05.17/outbox.cif.g08.bks.cpg/sg59_17_cif.got.tgz:32285.got - 2010.06.03 14:40:33.
