data_PCOD9449765
_publ_section_title
;
Structure prediction by ZEFSAII (Michael W. Deem and Ramdas Pophale) SiO2 
 PCOD9449765
Probable space group: P M M N
;
_chemical_formula_sum "Si O2"
_cell_formula_units_Z 56
_cell_length_a 19.050856
_cell_length_b 8.197964
_cell_length_c 19.808373
_cell_angle_alpha 90.000000
_cell_angle_beta 90.000000
_cell_angle_gamma 90.000000
_cell_volume 3093.636667
_symmetry_space_group_name_H-M "P M M N"
_symmetry_group_IT_number 59
_space_group.IT_coordinate_system_code '2'
_symmetry_cell_setting 'orthorhombic'
loop_
_space_group_symop_operation_xyz
x,y,z
1/2-x,1/2-y,z
1/2+x,-y,-z
-x,1/2+y,-z
-x,-y,-z
1/2+x,1/2+y,-z
1/2-x,y,z
x,1/2-y,z
loop_
_atom_site_type_symbol
_atom_site_label
_atom_site_fract_x
_atom_site_fract_y
_atom_site_fract_z
Si Si1 0.398508 0.552879 0.776181
Si Si2 0.970558 0.055465 0.428459
Si Si3 0.328577 0.444926 0.638476
Si Si4 0.664743 0.439550 0.938053
Si Si5 0.829210 0.944438 0.792269
Si Si6 0.331714 0.550405 0.915145
Si Si7 0.541771 0.949441 0.708007
O O1 0.396271 0.750000 0.776682
O O2 0.349352 0.496965 0.714522
O O3 0.373520 0.495065 0.849347
O O4 0.477278 0.503106 0.756547
O O5 0.971874 0.250000 0.426563
O O6 0.019859 0.995299 0.366730
O O7 0.891191 0.003456 0.410215
O O8 0.000000 0.000000 0.500000
O O9 0.250000 0.505530 0.622091
O O10 0.327860 0.250000 0.635799
O O11 0.750000 0.446445 0.941288
O O12 0.644728 0.250000 0.932375
O O13 0.644624 0.525959 0.868751
O O14 0.641211 0.504715 0.011201
O O15 0.750000 0.012060 0.785934
O O16 0.824807 0.750000 0.783046
O O17 0.885082 0.008945 0.738453
O O18 0.250000 0.503696 0.907554
O O19 0.333195 0.750000 0.917087
O O20 0.543795 0.750000 0.707127
#
# Coordination Sequence:
#
# PCOD9449765 Si02
#       7
#     8   8   8   8   8   8   8
#     4   9  16  28  47  67  90 123 161 199 237 281
#     4  10  20  36  57  77 100 130 161 195 239 291
#     4  10  20  33  50  75 105 133 162 197 236 281
#     4   8  14  25  40  59  84 113 148 192 238 281
#     4   9  16  28  46  64  84 115 155 194 231 277
#     4   8  13  22  39  62  85 113 152 193 233 281
#     4   8  16  30  47  68  91 117 151 189 231 280
#
# _framework density 18.101671
#
# number of rings (size 3 to 8) (size 9 to 14) (size 15 to 20)
#    0.000    3.143    0.000    3.000    0.000    1.714 
#    0.000    5.714    0.000    5.143    0.000    0.000 
#    0.000    0.000    0.000    0.000    0.000    0.000 
#
# Total GULP energy -311871.180735 kJ/mol
# GULP energy per Si atom -5569.128227 kJ/mol
# Density = 1.806047 g / cm^3
# Si number density = 18.101671 Si / 1000 Ang^3
#
#
#
# Elastic Constant Matrix: (Units=GPa)
#
#
# Indices 1 2 3 4 5 6 
#
# 1 112.9261 14.7385 99.8190 0.0000 0.0000 0.0000
# 2 14.7385 13.7483 11.7720 0.0000 0.0000 0.0000
# 3 99.8190 11.7720 144.7573 0.0000 0.0000 0.0000
# 4 0.0000 0.0000 0.0000 24.7411 0.0000 0.0000
# 5 0.0000 0.0000 0.0000 0.0000 24.8479 0.0000
# 6 0.0000 0.0000 0.0000 0.0000 0.0000 12.8656
#
#
#
# Elastic Compliance Matrix: (Units=1/GPa)
#
#
# Indices 1 2 3 4 5 6 
#
# 1 0.024590 -0.012728 -0.015921 0.000000 0.000000 0.000000
# 2 -0.012728 0.084769 0.001883 0.000000 0.000000 0.000000
# 3 -0.015921 0.001883 0.017733 0.000000 0.000000 0.000000
# 4 0.000000 0.000000 0.000000 0.040419 0.000000 0.000000
# 5 0.000000 0.000000 0.000000 0.000000 0.040245 0.000000
# 6 0.000000 0.000000 0.000000 0.000000 0.000000 0.077727
#
#
# Mechanical properties :
#
#
# Convention : Reuss Voigt Hill
#
# Bulk Modulus (GPa) = 13.59432 58.23232 35.91332
# Shear Modulus (GPa) = 13.75386 22.16437 17.95912
#
# Velocity S-wave (km/s) = 2.75946 3.50299 3.15322
# Velocity P-wave (km/s) = 4.20465 6.97142 5.75673
#
# Compressibility (1/GPa) = 0.07356013
#
# Stress axis : x y z
#
# Youngs Moduli (GPa) = 40.66757 11.79677 56.39067
#
# Poissons Ratio (x) = 0.15015 0.89779
# Poissons Ratio (y) = 0.51763 -0.10620
# Poissons Ratio (z) = 0.64747 -0.02222
#
# Static dielectric constant tensor:
#      x y z
#    x 1.599540 0.000000 0.000000 
#    y 0.000000 1.635720 0.000000 
#    z 0.000000 0.000000 1.638280 
# 
# From -- ./inp_files/28117.got.cif
#   From: 2010.05.17/outbox.cif.g08.bks.cpg/sg59_15_cif.got.tgz:28117.got - 2010.06.03 14:40:33.
