data_PCOD9449694
_publ_section_title
;
Structure prediction by ZEFSAII (Michael W. Deem and Ramdas Pophale) SiO2 
 PCOD9449694
Probable space group: P M M N
;
_chemical_formula_sum "Si O2"
_cell_formula_units_Z 64
_cell_length_a 7.378104
_cell_length_b 14.726095
_cell_length_c 25.276704
_cell_angle_alpha 90.000000
_cell_angle_beta 90.000000
_cell_angle_gamma 90.000000
_cell_volume 2746.330583
_symmetry_space_group_name_H-M "P M M N"
_symmetry_group_IT_number 59
_space_group.IT_coordinate_system_code '2'
_symmetry_cell_setting 'orthorhombic'
loop_
_space_group_symop_operation_xyz
x,y,z
1/2-x,1/2-y,z
1/2+x,-y,-z
-x,1/2+y,-z
-x,-y,-z
1/2+x,1/2+y,-z
1/2-x,y,z
x,1/2-y,z
loop_
_atom_site_type_symbol
_atom_site_label
_atom_site_fract_x
_atom_site_fract_y
_atom_site_fract_z
Si Si1 0.468039 0.543463 0.388304
Si Si2 0.958112 0.516417 0.197752
Si Si3 0.531778 0.352265 0.511033
Si Si4 0.958005 0.849295 0.612058
Si Si5 0.970126 0.356066 0.900538
Si Si6 0.461124 0.860712 0.984239
Si Si7 0.527483 0.145383 0.131277
Si Si8 0.534587 0.649351 0.284685
O O1 0.250000 0.535997 0.392281
O O2 0.533706 0.575685 0.445882
O O3 0.539243 0.445042 0.370063
O O4 0.508538 0.618618 0.344721
O O5 0.750000 0.496286 0.212277
O O6 0.036880 0.422232 0.176612
O O7 0.041688 0.572250 0.245952
O O8 0.961516 0.583158 0.147163
O O9 0.750000 0.359251 0.506731
O O10 0.490162 0.250000 0.530286
O O11 0.457717 0.359389 0.451884
O O12 0.750000 0.846070 0.630468
O O13 0.039731 0.750000 0.623850
O O14 0.750000 0.359095 0.900564
O O15 0.021007 0.250000 0.893625
O O16 0.035495 0.388621 0.958660
O O17 0.250000 0.886952 0.984387
O O18 0.467263 0.750000 0.984562
O O19 0.536333 0.887039 0.927037
O O20 0.750000 0.143140 0.129781
O O21 0.475843 0.250000 0.138937
O O22 0.750000 0.653576 0.274392
O O23 0.461024 0.750000 0.274836
#
# Coordination Sequence:
#
# PCOD9449694 Si02
#       8
#     8   8   8   8   8   8   8   8
#     4  10  20  34  53  75  99 131 171 209 240 277
#     4  10  20  33  50  72  96 123 158 202 248 287
#     4   9  17  29  47  74 105 133 164 204 244 279
#     4   9  18  32  50  75 107 138 165 195 236 287
#     4   9  17  29  46  69  97 128 160 193 233 287
#     4   7  11  22  41  66  95 124 154 189 229 278
#     4   8  14  27  48  71  95 125 159 193 233 286
#     4  10  22  38  52  69  97 128 157 198 251 297
#
# _framework density 23.303823999999999
#
# number of rings (size 3 to 8) (size 9 to 14) (size 15 to 20)
#    0.000    3.000    0.000    2.625    0.000    3.500 
#    0.000    1.875    0.000    1.125    0.000    1.750 
#    0.000    0.000    0.000    0.000    0.000    0.000 
#
# Total GULP energy -357259.659318 kJ/mol
# GULP energy per Si atom -5582.182177 kJ/mol
# Density = 2.325078 g / cm^3
# Si number density = 23.303824 Si / 1000 Ang^3
#
#
#
# Elastic Constant Matrix: (Units=GPa)
#
#
# Indices 1 2 3 4 5 6 
#
# 1 84.7683 -4.0932 -11.8538 0.0000 0.0000 0.0000
# 2 -4.0932 83.8362 3.7316 0.0000 0.0000 0.0000
# 3 -11.8538 3.7316 39.7613 0.0000 0.0000 0.0000
# 4 0.0000 0.0000 0.0000 36.4184 0.0000 0.0000
# 5 0.0000 0.0000 0.0000 0.0000 2.6350 0.0000
# 6 0.0000 0.0000 0.0000 0.0000 0.0000 4.1507
#
#
#
# Elastic Compliance Matrix: (Units=1/GPa)
#
#
# Indices 1 2 3 4 5 6 
#
# 1 0.012326 0.000440 0.003633 0.000000 0.000000 0.000000
# 2 0.000440 0.011994 -0.000994 0.000000 0.000000 0.000000
# 3 0.003633 -0.000994 0.026327 0.000000 0.000000 0.000000
# 4 0.000000 0.000000 0.000000 0.027459 0.000000 0.000000
# 5 0.000000 0.000000 0.000000 0.000000 0.379506 0.000000
# 6 0.000000 0.000000 0.000000 0.000000 0.000000 0.240925
#
#
# Mechanical properties :
#
#
# Convention : Reuss Voigt Hill
#
# Bulk Modulus (GPa) = 17.60414 20.43722 19.02068
# Shear Modulus (GPa) = 7.02925 23.34624 15.18775
#
# Velocity S-wave (km/s) = 1.73865 3.16859 2.55567
# Velocity P-wave (km/s) = 3.40604 4.70909 4.10954
#
# Compressibility (1/GPa) = 0.05680481
#
# Stress axis : x y z
#
# Youngs Moduli (GPa) = 81.12794 83.37664 37.98440
#
# Poissons Ratio (x) = -0.03669 -0.13801
# Poissons Ratio (y) = -0.03570 0.03777
# Poissons Ratio (z) = -0.29477 0.08291
#
# Static dielectric constant tensor:
#      x y z
#    x 1.888230 0.000000 0.000000 
#    y 0.000000 1.911170 0.000000 
#    z 0.000000 0.000000 1.843380 
# 
# From -- ./inp_files/31630.got.cif
#   From: 2010.05.17/outbox.cif.g08.bks.cpg/sg59_16_cif.got.tgz:31630.got - 2010.06.03 14:40:33.
