data_PCOD9449598
_publ_section_title
;
Structure prediction by ZEFSAII (Michael W. Deem and Ramdas Pophale) SiO2 
 PCOD9449598
Probable space group: P M M N
;
_chemical_formula_sum "Si O2"
_cell_formula_units_Z 64
_cell_length_a 8.960485
_cell_length_b 20.186879
_cell_length_c 17.876735
_cell_angle_alpha 90.000000
_cell_angle_beta 90.000000
_cell_angle_gamma 90.000000
_cell_volume 3233.619382
_symmetry_space_group_name_H-M "P M M N"
_symmetry_group_IT_number 59
_space_group.IT_coordinate_system_code '2'
_symmetry_cell_setting 'orthorhombic'
loop_
_space_group_symop_operation_xyz
x,y,z
1/2-x,1/2-y,z
1/2+x,-y,-z
-x,1/2+y,-z
-x,-y,-z
1/2+x,1/2+y,-z
1/2-x,y,z
x,1/2-y,z
loop_
_atom_site_type_symbol
_atom_site_label
_atom_site_fract_x
_atom_site_fract_y
_atom_site_fract_z
Si Si1 0.578388 0.000038 0.130611
Si Si2 0.928783 0.032756 0.717257
Si Si3 0.424392 0.150396 0.917134
Si Si4 0.430006 0.678426 0.240395
Si Si5 0.569905 0.956854 0.566145
Si Si6 0.571667 0.171984 0.380182
Si Si7 0.426372 0.638970 0.930262
Si Si8 0.917059 0.828481 0.774713
O O1 0.750000 0.007156 0.155454
O O2 0.480835 0.000990 0.205589
O O3 0.562375 0.929001 0.092580
O O4 0.549420 0.059639 0.074056
O O5 0.750000 0.034149 0.716768
O O6 0.981503 0.109916 0.720872
O O7 0.976037 0.993224 0.643764
O O8 0.250000 0.168132 0.915960
O O9 0.507488 0.177024 0.844009
O O10 0.498238 0.168083 0.995911
O O11 0.250000 0.676035 0.237623
O O12 0.472912 0.750000 0.274373
O O13 0.750000 0.955839 0.561994
O O14 0.507006 0.881967 0.567199
O O15 0.500000 0.000000 0.500000
O O16 0.750000 0.166062 0.384635
O O17 0.533972 0.250000 0.393860
O O18 0.515081 0.152766 0.296896
O O19 0.250000 0.652968 0.930276
O O20 0.501866 0.660942 0.853182
O O21 0.750000 0.858569 0.772494
O O22 0.900497 0.750000 0.767324
#
# Coordination Sequence:
#
# PCOD9449598 Si02
#       8
#     8   8   8   8   8   8   8   8
#     4   9  19  33  50  73  99 131 172 220 274 331
#     4   9  19  35  56  82 109 141 183 229 277 332
#     4  10  20  33  48  69 100 135 173 221 278 335
#     4   9  18  35  57  77 100 136 183 232 281 334
#     4  11  23  39  61  91 126 159 192 233 282 337
#     4  10  21  39  63  89 118 154 195 236 280 337
#     4  11  21  32  48  71 100 135 178 227 278 332
#     4  10  21  36  53  75 104 139 180 224 271 325
#
# _framework density 19.792065000000001
#
# number of rings (size 3 to 8) (size 9 to 14) (size 15 to 20)
#    0.000    2.125    0.000    3.000    0.000    6.750 
#    0.000    0.625    0.000    2.250    0.000    0.000 
#    0.000    0.000    0.000    0.000    0.000    0.000 
#
# Total GULP energy -357199.457373 kJ/mol
# GULP energy per Si atom -5581.241521 kJ/mol
# Density = 1.974702 g / cm^3
# Si number density = 19.792065 Si / 1000 Ang^3
#
#
#
# Elastic Constant Matrix: (Units=GPa)
#
#
# Indices 1 2 3 4 5 6 
#
# 1 52.3298 40.8686 36.2864 0.0000 0.0000 0.0000
# 2 40.8686 109.4832 38.2738 0.0000 0.0000 0.0000
# 3 36.2864 38.2738 76.2320 0.0000 0.0000 0.0000
# 4 0.0000 0.0000 0.0000 6.8780 0.0000 0.0000
# 5 0.0000 0.0000 0.0000 0.0000 27.5341 0.0000
# 6 0.0000 0.0000 0.0000 0.0000 0.0000 22.5560
#
#
#
# Elastic Compliance Matrix: (Units=1/GPa)
#
#
# Indices 1 2 3 4 5 6 
#
# 1 0.034044 -0.008542 -0.011916 0.000000 0.000000 0.000000
# 2 -0.008542 0.013222 -0.002572 0.000000 0.000000 0.000000
# 3 -0.011916 -0.002572 0.020081 0.000000 0.000000 0.000000
# 4 0.000000 0.000000 0.000000 0.145392 0.000000 0.000000
# 5 0.000000 0.000000 0.000000 0.000000 0.036319 0.000000
# 6 0.000000 0.000000 0.000000 0.000000 0.000000 0.044334
#
#
# Mechanical properties :
#
#
# Convention : Reuss Voigt Hill
#
# Bulk Modulus (GPa) = 46.97950 52.10031 49.53991
# Shear Modulus (GPa) = 14.42804 19.56802 16.99803
#
# Velocity S-wave (km/s) = 2.70289 3.14774 2.93376
# Velocity P-wave (km/s) = 5.79042 6.29222 6.04652
#
# Compressibility (1/GPa) = 0.02128588
#
# Stress axis : x y z
#
# Youngs Moduli (GPa) = 29.37389 75.63292 49.79784
#
# Poissons Ratio (x) = 0.64609 0.59339
# Poissons Ratio (y) = 0.25093 0.12808
# Poissons Ratio (z) = 0.35002 0.19453
#
# Static dielectric constant tensor:
#      x y z
#    x 1.678080 0.000000 0.000000 
#    y 0.000000 1.786240 0.000000 
#    z 0.000000 0.000000 1.659260 
# 
# From -- ./inp_files/26197.got.cif
#   From: 2010.05.17/outbox.cif.g08.bks.cpg/sg59_14_cif.got.tgz:26197.got - 2010.06.03 14:40:33.
