data_PCOD9449292
_publ_section_title
;
Structure prediction by ZEFSAII (Michael W. Deem and Ramdas Pophale) SiO2 
 PCOD9449292
Probable space group: P M M N
;
_chemical_formula_sum "Si O2"
_cell_formula_units_Z 64
_cell_length_a 24.346614
_cell_length_b 9.375880
_cell_length_c 17.082603
_cell_angle_alpha 90.000000
_cell_angle_beta 90.000000
_cell_angle_gamma 90.000000
_cell_volume 3899.461695
_symmetry_space_group_name_H-M "P M M N"
_symmetry_group_IT_number 59
_space_group.IT_coordinate_system_code '2'
_symmetry_cell_setting 'orthorhombic'
loop_
_space_group_symop_operation_xyz
x,y,z
1/2-x,1/2-y,z
1/2+x,-y,-z
-x,1/2+y,-z
-x,-y,-z
1/2+x,1/2+y,-z
1/2-x,y,z
x,1/2-y,z
loop_
_atom_site_type_symbol
_atom_site_label
_atom_site_fract_x
_atom_site_fract_y
_atom_site_fract_z
Si Si1 0.903560 0.420765 0.965010
Si Si2 0.186322 0.579058 0.750806
Si Si3 0.416230 0.920629 0.855504
Si Si4 0.816643 0.913187 0.406927
Si Si5 0.978204 0.418942 0.815187
Si Si6 0.315059 0.580566 0.437686
Si Si7 0.368381 0.920711 0.272292
Si Si8 0.314569 0.082232 0.129614
O O1 0.893588 0.250000 0.962869
O O2 0.949639 0.450987 0.899341
O O3 0.849951 0.504308 0.936669
O O4 0.918994 0.461337 0.053042
O O5 0.250000 0.541604 0.768944
O O6 0.184716 0.750000 0.738350
O O7 0.142924 0.543424 0.818484
O O8 0.169053 0.499750 0.671209
O O9 0.422781 0.750000 0.850868
O O10 0.465690 0.995464 0.809967
O O11 0.750000 0.911571 0.408650
O O12 0.835894 0.750000 0.404158
O O13 0.833391 0.992848 0.486383
O O14 0.988960 0.250000 0.812224
O O15 0.931486 0.452463 0.750743
O O16 0.250000 0.552058 0.422968
O O17 0.319845 0.750000 0.453264
O O18 0.349682 0.546542 0.360140
O O19 0.360578 0.750000 0.259684
O O20 0.331578 0.006679 0.210687
O O21 0.250000 0.066451 0.116331
O O22 0.328042 0.250000 0.132814
#
# Coordination Sequence:
#
# PCOD9449292 Si02
#       8
#     8   8   8   8   8   8   8   8
#     4   9  19  34  50  69  93 125 165 202 238 283
#     4   9  18  33  51  71  96 123 153 192 237 285
#     4  10  20  33  52  75  93 117 158 202 241 284
#     4   9  17  29  46  70  99 127 154 187 231 282
#     4   9  18  32  49  70  97 127 158 195 238 282
#     4   9  16  27  47  73  98 126 159 193 229 271
#     4   9  18  32  49  70  96 129 167 198 229 277
#     4  10  20  31  44  67  99 131 161 196 241 286
#
# _framework density 16.412523
#
# number of rings (size 3 to 8) (size 9 to 14) (size 15 to 20)
#    0.000    2.750    0.000    2.250    0.000    7.000 
#    0.000    2.500    0.000    2.250    0.000    0.000 
#    0.000    0.000    0.000    0.000    0.000    0.000 
#
# Total GULP energy -356689.318298 kJ/mol
# GULP energy per Si atom -5573.270598 kJ/mol
# Density = 1.637517 g / cm^3
# Si number density = 16.412523 Si / 1000 Ang^3
#
#
#
# Elastic Constant Matrix: (Units=GPa)
#
#
# Indices 1 2 3 4 5 6 
#
# 1 73.9559 32.0294 28.4017 0.0000 0.0000 0.0000
# 2 32.0294 25.3698 19.4159 0.0000 0.0000 0.0000
# 3 28.4017 19.4159 61.0569 0.0000 0.0000 0.0000
# 4 0.0000 0.0000 0.0000 9.6351 0.0000 0.0000
# 5 0.0000 0.0000 0.0000 0.0000 13.4307 0.0000
# 6 0.0000 0.0000 0.0000 0.0000 0.0000 26.9756
#
#
#
# Elastic Compliance Matrix: (Units=1/GPa)
#
#
# Indices 1 2 3 4 5 6 
#
# 1 0.030128 -0.036096 -0.002536 0.000000 0.000000 0.000000
# 2 -0.036096 0.095341 -0.013527 0.000000 0.000000 0.000000
# 3 -0.002536 -0.013527 0.021860 0.000000 0.000000 0.000000
# 4 0.000000 0.000000 0.000000 0.103787 0.000000 0.000000
# 5 0.000000 0.000000 0.000000 0.000000 0.074456 0.000000
# 6 0.000000 0.000000 0.000000 0.000000 0.000000 0.037071
#
#
# Mechanical properties :
#
#
# Convention : Reuss Voigt Hill
#
# Bulk Modulus (GPa) = 23.25067 35.56404 29.40735
# Shear Modulus (GPa) = 10.38856 15.37732 12.88294
#
# Velocity S-wave (km/s) = 2.51861 3.06425 2.80473
# Velocity P-wave (km/s) = 4.75973 5.85110 5.33340
#
# Compressibility (1/GPa) = 0.04300952
#
# Stress axis : x y z
#
# Youngs Moduli (GPa) = 33.19142 10.48867 45.74632
#
# Poissons Ratio (x) = 0.37860 0.11603
# Poissons Ratio (y) = 1.19807 0.61883
# Poissons Ratio (z) = 0.08418 0.14189
#
# Static dielectric constant tensor:
#      x y z
#    x 1.537670 0.000000 0.000000 
#    y 0.000000 1.548320 0.000000 
#    z 0.000000 0.000000 1.540630 
# 
# From -- ./inp_files/28475.got.cif
#   From: 2010.05.17/outbox.cif.g08.bks.cpg/sg59_15_cif.got.tgz:28475.got - 2010.06.03 14:40:33.
