data_PCOD9449327
_publ_section_title
;
Structure prediction by ZEFSAII (Michael W. Deem and Ramdas Pophale) SiO2 
 PCOD9449327
Probable space group: P M M N
;
_chemical_formula_sum "Si O2"
_cell_formula_units_Z 48
_cell_length_a 7.325192
_cell_length_b 13.404104
_cell_length_c 19.094709
_cell_angle_alpha 90.000000
_cell_angle_beta 90.000000
_cell_angle_gamma 90.000000
_cell_volume 1874.864325
_symmetry_space_group_name_H-M "P M M N"
_symmetry_group_IT_number 59
_space_group.IT_coordinate_system_code '2'
_symmetry_cell_setting 'orthorhombic'
loop_
_space_group_symop_operation_xyz
x,y,z
1/2-x,1/2-y,z
1/2+x,-y,-z
-x,1/2+y,-z
-x,-y,-z
1/2+x,1/2+y,-z
1/2-x,y,z
x,1/2-y,z
loop_
_atom_site_type_symbol
_atom_site_label
_atom_site_fract_x
_atom_site_fract_y
_atom_site_fract_z
Si Si1 0.038476 0.143929 0.057701
Si Si2 0.532145 0.131047 0.607284
Si Si3 0.027667 0.575409 0.094301
Si Si4 0.470756 0.864706 0.698462
Si Si5 0.960026 0.066886 0.755411
Si Si6 0.030222 0.869273 0.543025
O O1 0.250000 0.144068 0.078801
O O2 0.957726 0.250000 0.080541
O O3 0.030670 0.136833 0.973162
O O4 0.961660 0.038523 0.082727
O O5 0.750000 0.110776 0.606709
O O6 0.510613 0.250000 0.605753
O O7 0.459528 0.092352 0.532240
O O8 0.454271 0.096571 0.681397
O O9 0.250000 0.575737 0.094027
O O10 0.965508 0.606642 0.171480
O O11 0.250000 0.864719 0.698512
O O12 0.528469 0.750000 0.709816
O O13 0.535663 0.946194 0.753809
O O14 0.533289 0.900621 0.620404
O O15 0.750000 0.101040 0.752675
O O16 0.250000 0.878794 0.542610
O O17 0.993253 0.750000 0.543279
#
# Coordination Sequence:
#
# PCOD9449327 Si02
#       6
#     8   8   8   8   8   8
#     4   9  18  34  55  74  93 124 163 197 232 277
#     4   8  14  26  44  66  93 125 161 199 238 282
#     4   9  19  34  50  73 104 129 153 191 236 285
#     4   9  18  32  48  66  91 127 168 203 236 277
#     4  10  20  31  47  74 102 126 153 190 239 287
#     4   7  11  23  43  63  85 119 163 204 236 271
#
# _framework density 25.601851
#
# number of rings (size 3 to 8) (size 9 to 14) (size 15 to 20)
#    0.000    3.333    0.000    2.000    0.000    3.333 
#    0.000    3.333    0.000    0.500    0.000    2.333 
#    0.000    0.000    0.000    0.000    0.000    0.000 
#
# Total GULP energy -268049.301744 kJ/mol
# GULP energy per Si atom -5584.360453 kJ/mol
# Density = 2.554358 g / cm^3
# Si number density = 25.601851 Si / 1000 Ang^3
#
#
#
# Elastic Constant Matrix: (Units=GPa)
#
#
# Indices 1 2 3 4 5 6 
#
# 1 105.6979 2.3914 -6.2577 0.0000 0.0000 0.0000
# 2 2.3914 50.2411 -10.4360 0.0000 0.0000 0.0000
# 3 -6.2577 -10.4360 100.7828 0.0000 0.0000 0.0000
# 4 0.0000 0.0000 0.0000 1.8250 0.0000 0.0000
# 5 0.0000 0.0000 0.0000 0.0000 3.4270 0.0000
# 6 0.0000 0.0000 0.0000 0.0000 0.0000 6.6272
#
#
#
# Elastic Compliance Matrix: (Units=1/GPa)
#
#
# Indices 1 2 3 4 5 6 
#
# 1 0.009501 -0.000337 0.000555 0.000000 0.000000 0.000000
# 2 -0.000337 0.020353 0.002087 0.000000 0.000000 0.000000
# 3 0.000555 0.002087 0.010173 0.000000 0.000000 0.000000
# 4 0.000000 0.000000 0.000000 0.547947 0.000000 0.000000
# 5 0.000000 0.000000 0.000000 0.000000 0.291805 0.000000
# 6 0.000000 0.000000 0.000000 0.000000 0.000000 0.150892
#
#
# Mechanical properties :
#
#
# Convention : Reuss Voigt Hill
#
# Bulk Modulus (GPa) = 22.40276 25.34634 23.87455
# Shear Modulus (GPa) = 4.80334 20.44412 12.62373
#
# Velocity S-wave (km/s) = 1.37122 2.82891 2.22295
# Velocity P-wave (km/s) = 3.35804 4.53784 3.99177
#
# Compressibility (1/GPa) = 0.04463735
#
# Stress axis : x y z
#
# Youngs Moduli (GPa) = 105.24756 49.13161 98.30072
#
# Poissons Ratio (x) = 0.01655 -0.05456
# Poissons Ratio (y) = 0.03546 -0.20512
# Poissons Ratio (z) = -0.05842 -0.10252
#
# Static dielectric constant tensor:
#      x y z
#    x 1.952440 0.000000 0.000000 
#    y 0.000000 2.039840 0.000000 
#    z 0.000000 0.000000 2.021110 
# 
# From -- ./inp_files/25480.got.cif
#   From: 2010.05.17/outbox.cif.g08.bks.cpg/sg59_13_cif.got.tgz:25480.got - 2010.06.03 14:40:33.
