data_PCOD9449073
_publ_section_title
;
Structure prediction by ZEFSAII (Michael W. Deem and Ramdas Pophale) SiO2 
 PCOD9449073
Probable space group: P M M N
;
_chemical_formula_sum "Si O2"
_cell_formula_units_Z 48
_cell_length_a 10.143939
_cell_length_b 8.053189
_cell_length_c 29.457620
_cell_angle_alpha 90.000000
_cell_angle_beta 90.000000
_cell_angle_gamma 90.000000
_cell_volume 2406.424143
_symmetry_space_group_name_H-M "P M M N"
_symmetry_group_IT_number 59
_space_group.IT_coordinate_system_code '2'
_symmetry_cell_setting 'orthorhombic'
loop_
_space_group_symop_operation_xyz
x,y,z
1/2-x,1/2-y,z
1/2+x,-y,-z
-x,1/2+y,-z
-x,-y,-z
1/2+x,1/2+y,-z
1/2-x,y,z
x,1/2-y,z
loop_
_atom_site_type_symbol
_atom_site_label
_atom_site_fract_x
_atom_site_fract_y
_atom_site_fract_z
Si Si1 0.527459 0.449909 0.105497
Si Si2 0.899415 0.051558 0.461143
Si Si3 0.250000 0.453724 0.068038
Si Si4 0.600164 0.946583 0.358756
Si Si5 0.599784 0.551465 0.718017
Si Si6 0.102792 0.953337 0.793771
Si Si7 0.750000 0.947917 0.035940
O O1 0.525148 0.250000 0.107939
O O2 0.381385 0.508674 0.093550
O O3 0.578013 0.508259 0.154487
O O4 0.624177 0.496438 0.064782
O O5 0.750000 0.997201 0.472560
O O6 0.900345 0.250000 0.457323
O O7 0.930923 0.980277 0.411479
O O8 0.000000 0.000000 0.500000
O O9 0.250000 0.250000 0.067768
O O10 0.250000 0.510382 0.015719
O O11 0.750000 0.012373 0.350135
O O12 0.603128 0.750000 0.351215
O O13 0.488657 0.019458 0.326306
O O14 0.750000 0.486270 0.715619
O O15 0.609603 0.750000 0.723552
O O16 0.512384 0.488140 0.760334
O O17 0.250000 0.004344 0.778995
O O18 0.101315 0.750000 0.793414
O O19 0.750000 0.750000 0.033772
#
# Coordination Sequence:
#
# PCOD9449073 Si02
#       7
#     8   8   4   8   8   8   4
#     4  10  19  35  57  80 104 139 182 224 270 325
#     4  10  21  37  59  87 118 154 195 239 285 331
#     4   9  20  33  53  81 109 139 177 225 274 321
#     4  10  21  38  59  82 111 151 195 233 274 329
#     4  10  21  35  55  84 113 140 174 225 284 334
#     4   9  17  31  54  81 104 133 178 225 269 322
#     4  11  21  35  51  77 111 143 179 221 268 325
#
# _framework density 19.946608000000001
#
# number of rings (size 3 to 8) (size 9 to 14) (size 15 to 20)
#    0.000    2.167    0.833    2.250    1.167    3.667 
#    0.000    2.083    0.000    0.000    0.000    0.000 
#    0.000    0.000    0.000    0.000    0.000    0.000 
#
# Total GULP energy -268010.663233 kJ/mol
# GULP energy per Si atom -5583.555484 kJ/mol
# Density = 1.990121 g / cm^3
# Si number density = 19.946608 Si / 1000 Ang^3
#
#
#
# Elastic Constant Matrix: (Units=GPa)
#
#
# Indices 1 2 3 4 5 6 
#
# 1 173.1264 11.0527 80.0871 0.0000 0.0000 0.0000
# 2 11.0527 13.6414 2.2035 0.0000 0.0000 0.0000
# 3 80.0871 2.2035 103.1689 0.0000 0.0000 0.0000
# 4 0.0000 0.0000 0.0000 21.3337 0.0000 0.0000
# 5 0.0000 0.0000 0.0000 0.0000 28.6050 0.0000
# 6 0.0000 0.0000 0.0000 0.0000 0.0000 21.6193
#
#
#
# Elastic Compliance Matrix: (Units=1/GPa)
#
#
# Indices 1 2 3 4 5 6 
#
# 1 0.009566 -0.006574 -0.007285 0.000000 0.000000 0.000000
# 2 -0.006574 0.078077 0.003436 0.000000 0.000000 0.000000
# 3 -0.007285 0.003436 0.015275 0.000000 0.000000 0.000000
# 4 0.000000 0.000000 0.000000 0.046874 0.000000 0.000000
# 5 0.000000 0.000000 0.000000 0.000000 0.034959 0.000000
# 6 0.000000 0.000000 0.000000 0.000000 0.000000 0.046255
#
#
# Mechanical properties :
#
#
# Convention : Reuss Voigt Hill
#
# Bulk Modulus (GPa) = 12.18459 52.95815 32.57137
# Shear Modulus (GPa) = 17.90760 27.41781 22.66270
#
# Velocity S-wave (km/s) = 2.99954 3.71153 3.37437
# Velocity P-wave (km/s) = 4.25655 6.70633 5.61663
#
# Compressibility (1/GPa) = 0.08207090
#
# Stress axis : x y z
#
# Youngs Moduli (GPa) = 104.53687 12.80779 65.46673
#
# Poissons Ratio (x) = 0.08420 0.47695
# Poissons Ratio (y) = 0.68721 -0.22491
# Poissons Ratio (z) = 0.76159 -0.04400
#
# Static dielectric constant tensor:
#      x y z
#    x 1.712580 0.000000 0.000000 
#    y 0.000000 1.717330 0.000000 
#    z 0.000000 0.000000 1.673540 
# 
# From -- ./inp_files/33082.got.cif
#   From: 2010.05.17/outbox.cif.g08.bks.cpg/sg59_17_cif.got.tgz:33082.got - 2010.06.03 14:40:33.
