data_PCOD9449124
_publ_section_title
;
Structure prediction by ZEFSAII (Michael W. Deem and Ramdas Pophale) SiO2 
 PCOD9449124
Probable space group: P M M N
;
_chemical_formula_sum "Si O2"
_cell_formula_units_Z 64
_cell_length_a 14.439790
_cell_length_b 8.697315
_cell_length_c 27.490517
_cell_angle_alpha 90.000000
_cell_angle_beta 90.000000
_cell_angle_gamma 90.000000
_cell_volume 3452.462614
_symmetry_space_group_name_H-M "P M M N"
_symmetry_group_IT_number 59
_space_group.IT_coordinate_system_code '2'
_symmetry_cell_setting 'orthorhombic'
loop_
_space_group_symop_operation_xyz
x,y,z
1/2-x,1/2-y,z
1/2+x,-y,-z
-x,1/2+y,-z
-x,-y,-z
1/2+x,1/2+y,-z
1/2-x,y,z
x,1/2-y,z
loop_
_atom_site_type_symbol
_atom_site_label
_atom_site_fract_x
_atom_site_fract_y
_atom_site_fract_z
Si Si1 0.855885 0.935829 0.980937
Si Si2 0.648269 0.934483 0.721880
Si Si3 0.961580 0.434120 0.073894
Si Si4 0.986414 0.430202 0.447036
Si Si5 0.143954 0.927487 0.385668
Si Si6 0.643380 0.437476 0.361566
Si Si7 0.054913 0.564849 0.741365
Si Si8 0.855380 0.566283 0.163928
O O1 0.750000 0.984551 0.971442
O O2 0.856400 0.750000 0.984295
O O3 0.933439 0.979884 0.940994
O O4 0.894328 0.001985 0.031640
O O5 0.750000 0.969060 0.743759
O O6 0.645056 0.750000 0.713271
O O7 0.553553 0.973790 0.749348
O O8 0.643046 0.019105 0.670179
O O9 0.957238 0.250000 0.073960
O O10 0.925939 0.496698 0.124952
O O11 0.970636 0.250000 0.453176
O O12 0.905162 0.491354 0.411375
O O13 0.000000 0.500000 0.500000
O O14 0.078662 0.463787 0.416512
O O15 0.250000 0.936902 0.402656
O O16 0.113495 0.750000 0.389716
O O17 0.750000 0.485943 0.357908
O O18 0.641554 0.250000 0.362443
O O19 0.586710 0.481942 0.313052
O O20 0.065019 0.750000 0.744587
O O21 0.116893 0.488055 0.782374
O O22 0.750000 0.516382 0.152704
O O23 0.858778 0.750000 0.161135
#
# Coordination Sequence:
#
# PCOD9449124 Si02
#       8
#     8   8   8   8   8   8   8   8
#     4   9  18  34  56  82 114 150 186 230 284 335
#     4   9  17  32  56  84 109 133 167 213 264 318
#     4  10  20  34  55  83 112 147 192 236 276 327
#     4  11  22  37  55  79 109 142 178 220 271 326
#     4  10  20  34  54  79 105 136 173 214 261 313
#     4   9  18  34  56  80 106 136 172 217 268 322
#     4  10  19  35  59  84 107 139 182 223 268 325
#     4  11  24  39  54  77 111 149 186 230 283 328
#
# _framework density 18.537492
#
# number of rings (size 3 to 8) (size 9 to 14) (size 15 to 20)
#    0.000    2.125    1.250    2.250    0.000    5.500 
#    0.000    1.875    0.000    5.625    0.000    0.000 
#    0.000    0.000    0.000    0.000    0.000    0.000 
#
# Total GULP energy -356980.678066 kJ/mol
# GULP energy per Si atom -5577.823095 kJ/mol
# Density = 1.849530 g / cm^3
# Si number density = 18.537492 Si / 1000 Ang^3
#
#
#
# Elastic Constant Matrix: (Units=GPa)
#
#
# Indices 1 2 3 4 5 6 
#
# 1 128.2014 23.0502 41.2997 0.0000 0.0000 0.0000
# 2 23.0502 10.9351 15.7600 0.0000 0.0000 0.0000
# 3 41.2997 15.7600 77.2556 0.0000 0.0000 0.0000
# 4 0.0000 0.0000 0.0000 28.6969 0.0000 0.0000
# 5 0.0000 0.0000 0.0000 0.0000 16.6758 0.0000
# 6 0.0000 0.0000 0.0000 0.0000 0.0000 21.0207
#
#
#
# Elastic Compliance Matrix: (Units=1/GPa)
#
#
# Indices 1 2 3 4 5 6 
#
# 1 0.012752 -0.024158 -0.001889 0.000000 0.000000 0.000000
# 2 -0.024158 0.175299 -0.022846 0.000000 0.000000 0.000000
# 3 -0.001889 -0.022846 0.018614 0.000000 0.000000 0.000000
# 4 0.000000 0.000000 0.000000 0.034847 0.000000 0.000000
# 5 0.000000 0.000000 0.000000 0.000000 0.059967 0.000000
# 6 0.000000 0.000000 0.000000 0.000000 0.000000 0.047572
#
#
# Mechanical properties :
#
#
# Convention : Reuss Voigt Hill
#
# Bulk Modulus (GPa) = 9.18451 41.84577 25.51514
# Shear Modulus (GPa) = 10.34915 22.36415 16.35665
#
# Velocity S-wave (km/s) = 2.36536 3.47714 2.97367
# Velocity P-wave (km/s) = 3.52495 6.22441 5.05809
#
# Compressibility (1/GPa) = 0.10887899
#
# Stress axis : x y z
#
# Youngs Moduli (GPa) = 78.41704 5.70455 53.72193
#
# Poissons Ratio (x) = 0.13781 0.10148
# Poissons Ratio (y) = 1.89443 1.22733
# Poissons Ratio (z) = 0.14813 0.13033
#
# Static dielectric constant tensor:
#      x y z
#    x 1.671800 0.000000 0.000000 
#    y 0.000000 1.629180 0.000000 
#    z 0.000000 0.000000 1.608210 
# 
# From -- ./inp_files/32161.got.cif
#   From: 2010.05.17/outbox.cif.g08.bks.cpg/sg59_17_cif.got.tgz:32161.got - 2010.06.03 14:40:33.
