data_PCOD9449945
_publ_section_title
;
Structure prediction by ZEFSAII (Michael W. Deem and Ramdas Pophale) SiO2 
 PCOD9449945
Probable space group: P M M N
;
_chemical_formula_sum "Si O2"
_cell_formula_units_Z 64
_cell_length_a 29.123159
_cell_length_b 11.559682
_cell_length_c 10.022510
_cell_angle_alpha 90.000000
_cell_angle_beta 90.000000
_cell_angle_gamma 90.000000
_cell_volume 3374.122661
_symmetry_space_group_name_H-M "P M M N"
_symmetry_group_IT_number 59
_space_group.IT_coordinate_system_code '2'
_symmetry_cell_setting 'orthorhombic'
loop_
_space_group_symop_operation_xyz
x,y,z
1/2-x,1/2-y,z
1/2+x,-y,-z
-x,1/2+y,-z
-x,-y,-z
1/2+x,1/2+y,-z
1/2-x,y,z
x,1/2-y,z
loop_
_atom_site_type_symbol
_atom_site_label
_atom_site_fract_x
_atom_site_fract_y
_atom_site_fract_z
Si Si1 0.895831 0.487411 0.288038
Si Si2 0.014500 0.878028 0.179371
Si Si3 0.987911 0.120977 0.321493
Si Si4 0.106102 0.512380 0.210650
Si Si5 0.801730 0.388481 0.898303
Si Si6 0.073537 0.378406 0.967474
Si Si7 0.801374 0.111454 0.215783
Si Si8 0.422555 0.121380 0.465105
O O1 0.933270 0.392317 0.334916
O O2 0.907286 0.529109 0.138174
O O3 0.843843 0.445325 0.291079
O O4 0.906265 0.592093 0.387797
O O5 0.004671 0.750000 0.240800
O O6 0.069145 0.889790 0.167057
O O7 0.981829 0.880067 0.049146
O O8 0.001162 0.999294 0.250412
O O9 0.996687 0.250000 0.260685
O O10 0.022000 0.118581 0.448557
O O11 0.157413 0.550794 0.180158
O O12 0.097528 0.471562 0.361209
O O13 0.091065 0.408123 0.113319
O O14 0.750000 0.423150 0.858197
O O15 0.805364 0.250000 0.881774
O O16 0.806300 0.411976 0.056981
O O17 0.088826 0.250000 0.928956
O O18 0.750000 0.073947 0.256335
O O19 0.803831 0.250000 0.231310
O O20 0.407780 0.250000 0.426156
#
# Coordination Sequence:
#
# PCOD9449945 Si02
#       8
#     8   8   8   8   8   8   8   8
#     4  11  19  35  57  83 107 148 190 233 278 334
#     4   9  19  33  51  81 115 148 184 232 281 332
#     4   9  19  35  55  82 114 154 195 232 274 336
#     4  11  19  35  55  80 107 148 184 225 276 336
#     4   9  18  34  57  84 110 138 177 229 288 343
#     4  10  20  33  52  78 109 143 188 232 274 326
#     4   9  18  34  57  85 112 137 174 232 293 340
#     4  10  22  37  54  78 116 154 186 225 279 334
#
# _framework density 18.967894000000001
#
# number of rings (size 3 to 8) (size 9 to 14) (size 15 to 20)
#    0.000    2.250    1.250    3.000    0.000    1.000 
#    0.000   12.500    0.000    6.000    0.000    0.000 
#    0.000    0.000    0.000    0.000    0.000    0.000 
#
# Total GULP energy -356448.342298 kJ/mol
# GULP energy per Si atom -5569.505348 kJ/mol
# Density = 1.892472 g / cm^3
# Si number density = 18.967894 Si / 1000 Ang^3
#
#
#
# Elastic Constant Matrix: (Units=GPa)
#
#
# Indices 1 2 3 4 5 6 
#
# 1 135.2358 44.0512 12.9685 0.0000 0.0000 0.0000
# 2 44.0512 90.5339 10.6187 0.0000 0.0000 0.0000
# 3 12.9685 10.6187 36.2022 0.0000 0.0000 0.0000
# 4 0.0000 0.0000 0.0000 24.3262 0.0000 0.0000
# 5 0.0000 0.0000 0.0000 0.0000 22.5871 0.0000
# 6 0.0000 0.0000 0.0000 0.0000 0.0000 13.8822
#
#
#
# Elastic Compliance Matrix: (Units=1/GPa)
#
#
# Indices 1 2 3 4 5 6 
#
# 1 0.008924 -0.004108 -0.001992 0.000000 0.000000 0.000000
# 2 -0.004108 0.013331 -0.002438 0.000000 0.000000 0.000000
# 3 -0.001992 -0.002438 0.029051 0.000000 0.000000 0.000000
# 4 0.000000 0.000000 0.000000 0.041108 0.000000 0.000000
# 5 0.000000 0.000000 0.000000 0.000000 0.044273 0.000000
# 6 0.000000 0.000000 0.000000 0.000000 0.000000 0.072035
#
#
# Mechanical properties :
#
#
# Convention : Reuss Voigt Hill
#
# Bulk Modulus (GPa) = 29.21511 44.13873 36.67692
# Shear Modulus (GPa) = 21.07855 25.11466 23.09660
#
# Velocity S-wave (km/s) = 3.33720 3.64271 3.49330
# Velocity P-wave (km/s) = 5.50318 6.40416 5.97069
#
# Compressibility (1/GPa) = 0.03422886
#
# Stress axis : x y z
#
# Youngs Moduli (GPa) = 112.06051 75.01527 34.42184
#
# Poissons Ratio (x) = 0.30820 0.06856
# Poissons Ratio (y) = 0.46039 0.08393
# Poissons Ratio (z) = 0.22318 0.18291
#
# Static dielectric constant tensor:
#      x y z
#    x 1.681650 0.000000 0.000000 
#    y 0.000000 1.687430 0.000000 
#    z 0.000000 0.000000 1.665040 
# 
# From -- ./inp_files/13201.got.cif
#   From: 2010.05.17/outbox.cif.g08.bks.cpg/sg59_7_cif.got.tgz:13201.got - 2010.06.03 14:40:33.
