data_PCOD9449984
_publ_section_title
;
Structure prediction by ZEFSAII (Michael W. Deem and Ramdas Pophale) SiO2 
 PCOD9449984
Probable space group: P M M N
;
_chemical_formula_sum "Si O2"
_cell_formula_units_Z 40
_cell_length_a 9.241969
_cell_length_b 15.265780
_cell_length_c 14.524076
_cell_angle_alpha 90.000000
_cell_angle_beta 90.000000
_cell_angle_gamma 90.000000
_cell_volume 2049.141833
_symmetry_space_group_name_H-M "P M M N"
_symmetry_group_IT_number 59
_space_group.IT_coordinate_system_code '2'
_symmetry_cell_setting 'orthorhombic'
loop_
_space_group_symop_operation_xyz
x,y,z
1/2-x,1/2-y,z
1/2+x,-y,-z
-x,1/2+y,-z
-x,-y,-z
1/2+x,1/2+y,-z
1/2-x,y,z
x,1/2-y,z
loop_
_atom_site_type_symbol
_atom_site_label
_atom_site_fract_x
_atom_site_fract_y
_atom_site_fract_z
Si Si1 0.078538 0.486693 0.902989
Si Si2 0.590516 0.849237 0.596254
Si Si3 0.917736 0.147492 0.231648
Si Si4 0.422630 0.580127 0.444206
Si Si5 0.075728 0.645052 0.238320
O O1 0.250000 0.468645 0.913839
O O2 0.064080 0.579903 0.850778
O O3 0.005605 0.410557 0.840526
O O4 0.000000 0.500000 0.000000
O O5 0.750000 0.886827 0.578894
O O6 0.608663 0.750000 0.626221
O O7 0.511899 0.889801 0.683903
O O8 0.491246 0.845644 0.507381
O O9 0.750000 0.145744 0.261373
O O10 0.949445 0.250000 0.208467
O O11 0.500000 0.500000 0.500000
O O12 0.250000 0.577169 0.452744
O O13 0.458429 0.601258 0.338164
O O14 0.250000 0.637976 0.225628
O O15 0.041051 0.750000 0.238609
#
# Coordination Sequence:
#
# PCOD9449984 Si02
#       5
#     8   8   8   8   8
#     4  11  24  41  63  90 118 152 197 252 313 374
#     4  10  20  33  52  81 115 149 186 230 279 334
#     4   9  19  37  60  85 115 153 196 242 297 364
#     4  11  22  36  57  85 119 160 203 246 296 354
#     4  10  23  43  64  87 121 167 214 259 310 370
#
# _framework density 19.520368000000001
#
# number of rings (size 3 to 8) (size 9 to 14) (size 15 to 20)
#    0.000    1.800    0.000    3.600    0.000    9.600 
#    0.000    2.000    0.000    0.000    0.000    0.000 
#    0.000    0.000    0.000    0.000    0.000    0.000 
#
# Total GULP energy -222822.982400 kJ/mol
# GULP energy per Si atom -5570.574560 kJ/mol
# Density = 1.947594 g / cm^3
# Si number density = 19.520368 Si / 1000 Ang^3
#
#
#
# Elastic Constant Matrix: (Units=GPa)
#
#
# Indices 1 2 3 4 5 6 
#
# 1 102.2679 62.5109 100.9253 0.0000 0.0000 0.0000
# 2 62.5109 131.8682 61.6610 0.0000 0.0000 0.0000
# 3 100.9253 61.6610 169.0924 0.0000 0.0000 0.0000
# 4 0.0000 0.0000 0.0000 22.4213 0.0000 0.0000
# 5 0.0000 0.0000 0.0000 0.0000 35.2593 0.0000
# 6 0.0000 0.0000 0.0000 0.0000 0.0000 23.1883
#
#
#
# Elastic Compliance Matrix: (Units=1/GPa)
#
#
# Indices 1 2 3 4 5 6 
#
# 1 0.027788 -0.006531 -0.014204 0.000000 0.000000 0.000000
# 2 -0.006531 0.010677 0.000005 0.000000 0.000000 0.000000
# 3 -0.014204 0.000005 0.014390 0.000000 0.000000 0.000000
# 4 0.000000 0.000000 0.000000 0.044601 0.000000 0.000000
# 5 0.000000 0.000000 0.000000 0.000000 0.028361 0.000000
# 6 0.000000 0.000000 0.000000 0.000000 0.000000 0.043125
#
#
# Mechanical properties :
#
#
# Convention : Reuss Voigt Hill
#
# Bulk Modulus (GPa) = 87.76255 94.82478 91.29366
# Shear Modulus (GPa) = 23.34261 28.04919 25.69590
#
# Velocity S-wave (km/s) = 3.46180 3.79478 3.63211
# Velocity P-wave (km/s) = 7.81254 8.23913 8.02867
#
# Compressibility (1/GPa) = 0.01139438
#
# Stress axis : x y z
#
# Youngs Moduli (GPa) = 35.98719 93.65857 69.49203
#
# Poissons Ratio (x) = 0.61166 0.98706
# Poissons Ratio (y) = 0.23502 -0.00031
# Poissons Ratio (z) = 0.51116 -0.00042
#
# Static dielectric constant tensor:
#      x y z
#    x 1.728700 0.000000 0.000000 
#    y 0.000000 2.119550 0.000000 
#    z 0.000000 0.000000 1.656730 
# 
# From -- ./inp_files/19877.got.cif
#   From: 2010.05.17/outbox.cif.g08.bks.cpg/sg59_10_cif.got.tgz:19877.got - 2010.06.03 14:40:33.
