data_PCOD9449391
_publ_section_title
;
Structure prediction by ZEFSAII (Michael W. Deem and Ramdas Pophale) SiO2 
 PCOD9449391
Probable space group: P M M N
;
_chemical_formula_sum "Si O2"
_cell_formula_units_Z 64
_cell_length_a 9.190508
_cell_length_b 19.398130
_cell_length_c 22.329942
_cell_angle_alpha 90.000000
_cell_angle_beta 90.000000
_cell_angle_gamma 90.000000
_cell_volume 3980.952337
_symmetry_space_group_name_H-M "P M M N"
_symmetry_group_IT_number 59
_space_group.IT_coordinate_system_code '2'
_symmetry_cell_setting 'orthorhombic'
loop_
_space_group_symop_operation_xyz
x,y,z
1/2-x,1/2-y,z
1/2+x,-y,-z
-x,1/2+y,-z
-x,-y,-z
1/2+x,1/2+y,-z
1/2-x,y,z
x,1/2-y,z
loop_
_atom_site_type_symbol
_atom_site_label
_atom_site_fract_x
_atom_site_fract_y
_atom_site_fract_z
Si Si1 0.422629 0.550390 0.327055
Si Si2 0.080169 0.329615 0.612630
Si Si3 0.423918 0.530673 0.191899
Si Si4 0.922169 0.329978 0.485023
Si Si5 0.916891 0.459124 0.086514
Si Si6 0.423548 0.039964 0.444901
Si Si7 0.924757 0.172745 0.872440
Si Si8 0.082929 0.107128 0.982044
O O1 0.250000 0.566963 0.327537
O O2 0.514555 0.618693 0.339453
O O3 0.457401 0.521070 0.261691
O O4 0.450569 0.499514 0.382658
O O5 0.250000 0.344243 0.600619
O O6 0.067321 0.250000 0.631124
O O7 0.988629 0.338263 0.551566
O O8 0.250000 0.523790 0.183234
O O9 0.504533 0.477656 0.148409
O O10 0.463505 0.609054 0.171366
O O11 0.750000 0.345025 0.486410
O O12 0.942280 0.250000 0.467809
O O13 0.007303 0.384167 0.444496
O O14 0.750000 0.438393 0.095038
O O15 0.916872 0.532060 0.050484
O O16 0.002076 0.405386 0.044725
O O17 0.250000 0.042423 0.454943
O O18 0.500000 0.000000 0.500000
O O19 0.750000 0.170512 0.879548
O O20 0.964331 0.250000 0.851689
O O21 0.999081 0.156500 0.936101
O O22 0.250000 0.128253 0.990201
#
# Coordination Sequence:
#
# PCOD9449391 Si02
#       8
#     8   8   8   8   8   8   8   8
#     4  10  21  34  49  70  97 131 170 208 251 304
#     4  10  20  32  47  68  94 126 163 203 247 297
#     4   9  18  32  47  65  92 127 165 201 237 286
#     4  10  20  34  52  73  96 123 157 199 251 309
#     4   9  16  27  44  66  90 116 149 191 236 276
#     4  11  21  33  51  75 101 130 164 208 260 308
#     4   9  17  29  45  66  94 128 164 198 231 272
#     4   9  16  26  43  66  90 118 151 189 231 272
#
# _framework density 16.076556
#
# number of rings (size 3 to 8) (size 9 to 14) (size 15 to 20)
#    0.000    2.375    1.250    1.875    0.000    6.250 
#    0.000    1.250    0.000    0.000    0.000    0.875 
#    0.000    5.000    0.000    0.000    0.000    0.000 
#
# Total GULP energy -356804.052108 kJ/mol
# GULP energy per Si atom -5575.063314 kJ/mol
# Density = 1.603996 g / cm^3
# Si number density = 16.076556 Si / 1000 Ang^3
#
#
#
# Elastic Constant Matrix: (Units=GPa)
#
#
# Indices 1 2 3 4 5 6 
#
# 1 66.8713 28.9962 55.1093 0.0000 0.0000 0.0000
# 2 28.9962 34.4952 31.2889 0.0000 0.0000 0.0000
# 3 55.1093 31.2889 107.9312 0.0000 0.0000 0.0000
# 4 0.0000 0.0000 0.0000 16.0533 0.0000 0.0000
# 5 0.0000 0.0000 0.0000 0.0000 23.1963 0.0000
# 6 0.0000 0.0000 0.0000 0.0000 0.0000 23.9084
#
#
#
# Elastic Compliance Matrix: (Units=1/GPa)
#
#
# Indices 1 2 3 4 5 6 
#
# 1 0.031187 -0.015971 -0.011294 0.000000 0.000000 0.000000
# 2 -0.015971 0.047511 -0.005618 0.000000 0.000000 0.000000
# 3 -0.011294 -0.005618 0.016661 0.000000 0.000000 0.000000
# 4 0.000000 0.000000 0.000000 0.062293 0.000000 0.000000
# 5 0.000000 0.000000 0.000000 0.000000 0.043110 0.000000
# 6 0.000000 0.000000 0.000000 0.000000 0.000000 0.041826
#
#
# Mechanical properties :
#
#
# Convention : Reuss Voigt Hill
#
# Bulk Modulus (GPa) = 33.79370 48.89848 41.34609
# Shear Modulus (GPa) = 15.71252 18.89183 17.30218
#
# Velocity S-wave (km/s) = 3.12966 3.43172 3.28416
# Velocity P-wave (km/s) = 5.84173 6.79590 6.33680
#
# Compressibility (1/GPa) = 0.02959132
#
# Stress axis : x y z
#
# Youngs Moduli (GPa) = 32.06494 21.04789 60.02205
#
# Poissons Ratio (x) = 0.33616 0.67788
# Poissons Ratio (y) = 0.51211 0.33723
# Poissons Ratio (z) = 0.36214 0.11826
#
# Static dielectric constant tensor:
#      x y z
#    x 1.540660 0.000000 0.000000 
#    y 0.000000 1.543780 0.000000 
#    z 0.000000 0.000000 1.525070 
# 
# From -- ./inp_files/29678.got.cif
#   From: 2010.05.17/outbox.cif.g08.bks.cpg/sg59_15_cif.got.tgz:29678.got - 2010.06.03 14:40:33.
