data_PCOD9449042
_publ_section_title
;
Structure prediction by ZEFSAII (Michael W. Deem and Ramdas Pophale) SiO2 
 PCOD9449042
Probable space group: P M M N
;
_chemical_formula_sum "Si O2"
_cell_formula_units_Z 24
_cell_length_a 14.088677
_cell_length_b 13.686490
_cell_length_c 5.092210
_cell_angle_alpha 90.000000
_cell_angle_beta 90.000000
_cell_angle_gamma 90.000000
_cell_volume 981.903035
_symmetry_space_group_name_H-M "P M M N"
_symmetry_group_IT_number 59
_space_group.IT_coordinate_system_code '2'
_symmetry_cell_setting 'orthorhombic'
loop_
_space_group_symop_operation_xyz
x,y,z
1/2-x,1/2-y,z
1/2+x,-y,-z
-x,1/2+y,-z
-x,-y,-z
1/2+x,1/2+y,-z
1/2-x,y,z
x,1/2-y,z
loop_
_atom_site_type_symbol
_atom_site_label
_atom_site_fract_x
_atom_site_fract_y
_atom_site_fract_z
Si Si1 0.360808 0.079498 0.506101
Si Si2 0.640596 0.354899 0.643239
Si Si3 0.027984 0.387844 0.004359
O O1 0.250000 0.094118 0.449981
O O2 0.390428 0.122339 0.785526
O O3 0.377767 0.960212 0.496829
O O4 0.427451 0.129947 0.287876
O O5 0.750000 0.361585 0.732103
O O6 0.631943 0.250000 0.494680
O O7 0.568389 0.346504 0.884592
O O8 0.000000 0.500000 0.000000
#
# Coordination Sequence:
#
# PCOD9449042 Si02
#       3
#     8   8   8
#     4  10  20  36  58  80 105 141 184 223 261 314
#     4   9  18  33  54  82 112 139 171 218 274 323
#     4  10  19  35  55  79 108 142 180 217 262 318
#
# _framework density 24.442329000000001
#
# number of rings (size 3 to 8) (size 9 to 14) (size 15 to 20)
#    0.000    2.333    0.000    5.000    0.000    1.333 
#    0.000   16.667    0.000   50.000    0.000    0.000 
#    0.000    0.000    0.000    0.000    0.000    0.000 
#
# Total GULP energy -133866.005067 kJ/mol
# GULP energy per Si atom -5577.750211 kJ/mol
# Density = 2.438670 g / cm^3
# Si number density = 24.442329 Si / 1000 Ang^3
#
#
#
# Elastic Constant Matrix: (Units=GPa)
#
#
# Indices 1 2 3 4 5 6 
#
# 1 137.4778 18.2067 22.3169 0.0000 0.0000 0.0000
# 2 18.2067 108.3033 -1.7628 0.0000 0.0000 0.0000
# 3 22.3169 -1.7628 72.2040 0.0000 0.0000 0.0000
# 4 0.0000 0.0000 0.0000 5.1369 0.0000 0.0000
# 5 0.0000 0.0000 0.0000 0.0000 17.1387 0.0000
# 6 0.0000 0.0000 0.0000 0.0000 0.0000 -22.1345
#
#
#
# Elastic Compliance Matrix: (Units=1/GPa)
#
#
# Indices 1 2 3 4 5 6 
#
# 1 0.007853 -0.001360 -0.002461 0.000000 0.000000 0.000000
# 2 -0.001360 0.009473 0.000652 0.000000 0.000000 0.000000
# 3 -0.002461 0.000652 0.014626 0.000000 0.000000 0.000000
# 4 0.000000 0.000000 0.000000 0.194670 0.000000 0.000000
# 5 0.000000 0.000000 0.000000 0.000000 0.058348 0.000000
# 6 0.000000 0.000000 0.000000 0.000000 0.000000 -0.045178
#
#
# Mechanical properties :
#
#
# Convention : Reuss Voigt Hill
#
# Bulk Modulus (GPa) = 39.04136 43.94519 41.49327
# Shear Modulus (GPa) = 19.63340 18.64316 19.13828
#
# Velocity S-wave (km/s) = 2.83725 2.76477 2.80124
# Velocity P-wave (km/s) = 5.17115 5.31132 5.24171
#
# Compressibility (1/GPa) = 0.02561386
#
# Stress axis : x y z
#
# Youngs Moduli (GPa) = 127.33213 105.56746 68.37105
#
# Poissons Ratio (x) = 0.14360 0.16823
# Poissons Ratio (y) = 0.17321 -0.04456
# Poissons Ratio (z) = 0.31331 -0.06880
#
# Static dielectric constant tensor:
#      x y z
#    x 1.917040 0.000000 0.000000 
#    y 0.000000 2.045520 0.000000 
#    z 0.000000 0.000000 1.933010 
# 
# From -- ./inp_files/1631.got.cif
#   From: 2010.05.17/outbox.cif.g08.bks.cpg/sg59_1_cif.got.tgz:1631.got - 2010.06.03 14:40:33.
