data_PCOD9449290
_publ_section_title
;
Structure prediction by ZEFSAII (Michael W. Deem and Ramdas Pophale) SiO2 
 PCOD9449290
Probable space group: P M M N
;
_chemical_formula_sum "Si O2"
_cell_formula_units_Z 64
_cell_length_a 7.574558
_cell_length_b 18.336751
_cell_length_c 23.957334
_cell_angle_alpha 90.000000
_cell_angle_beta 90.000000
_cell_angle_gamma 90.000000
_cell_volume 3327.500816
_symmetry_space_group_name_H-M "P M M N"
_symmetry_group_IT_number 59
_space_group.IT_coordinate_system_code '2'
_symmetry_cell_setting 'orthorhombic'
loop_
_space_group_symop_operation_xyz
x,y,z
1/2-x,1/2-y,z
1/2+x,-y,-z
-x,1/2+y,-z
-x,-y,-z
1/2+x,1/2+y,-z
1/2-x,y,z
x,1/2-y,z
loop_
_atom_site_type_symbol
_atom_site_label
_atom_site_fract_x
_atom_site_fract_y
_atom_site_fract_z
Si Si1 0.956383 0.040359 0.363689
Si Si2 0.962266 0.546897 0.130729
Si Si3 0.466375 0.833292 0.552203
Si Si4 0.959279 0.065372 0.543052
Si Si5 0.462169 0.331715 0.172275
Si Si6 0.044879 0.526546 0.759440
Si Si7 0.538313 0.167599 0.951032
Si Si8 0.541299 0.088327 0.060162
O O1 0.750000 0.058317 0.356251
O O2 0.027553 0.107667 0.401348
O O3 0.035269 0.030050 0.302237
O O4 0.967476 0.965689 0.399174
O O5 0.750000 0.537745 0.132900
O O6 0.030789 0.525899 0.192155
O O7 0.031719 0.486632 0.086272
O O8 0.001827 0.625520 0.106184
O O9 0.250000 0.834922 0.552419
O O10 0.520901 0.750000 0.562240
O O11 0.521760 0.863661 0.491088
O O12 0.750000 0.071830 0.550254
O O13 0.000000 0.000000 0.500000
O O14 0.250000 0.334964 0.175235
O O15 0.520085 0.250000 0.185965
O O16 0.536329 0.393303 0.213059
O O17 0.516895 0.352955 0.109479
O O18 0.250000 0.505083 0.752531
O O19 0.750000 0.171322 0.957827
O O20 0.470240 0.250000 0.952510
O O21 0.466704 0.119330 0.002603
O O22 0.750000 0.076702 0.051597
#
# Coordination Sequence:
#
# PCOD9449290 Si02
#       8
#     8   8   8   8   8   8   8   8
#     4   9  17  30  49  70  91 118 156 199 232 266
#     4   9  18  32  49  69  92 120 155 193 235 283
#     4   8  14  25  43  69  97 121 147 180 218 262
#     4   9  16  27  45  67  93 125 155 185 222 262
#     4  10  20  31  44  67  98 127 155 190 231 276
#     4   9  19  34  50  68  90 122 163 199 233 277
#     4  10  20  32  48  71  95 119 150 191 240 290
#     4   9  18  33  51  69  91 121 155 189 231 287
#
# _framework density 19.233654000000001
#
# number of rings (size 3 to 8) (size 9 to 14) (size 15 to 20)
#    0.000    2.875    0.000    3.000    0.000    5.250 
#    0.000    1.250    0.000   10.125    0.000    3.500 
#    0.000    0.000    0.000    0.000    0.000    0.000 
#
# Total GULP energy -356632.088255 kJ/mol
# GULP energy per Si atom -5572.376379 kJ/mol
# Density = 1.918988 g / cm^3
# Si number density = 19.233654 Si / 1000 Ang^3
#
#
#
# Elastic Constant Matrix: (Units=GPa)
#
#
# Indices 1 2 3 4 5 6 
#
# 1 35.7123 3.0183 -6.7968 0.0000 0.0000 0.0000
# 2 3.0183 73.2435 65.3742 0.0000 0.0000 0.0000
# 3 -6.7968 65.3742 146.3830 0.0000 0.0000 0.0000
# 4 0.0000 0.0000 0.0000 4.9112 0.0000 0.0000
# 5 0.0000 0.0000 0.0000 0.0000 10.7343 0.0000
# 6 0.0000 0.0000 0.0000 0.0000 0.0000 17.3114
#
#
#
# Elastic Compliance Matrix: (Units=1/GPa)
#
#
# Indices 1 2 3 4 5 6 
#
# 1 0.028931 -0.003976 0.003119 0.000000 0.000000 0.000000
# 2 -0.003976 0.023249 -0.010568 0.000000 0.000000 0.000000
# 3 0.003119 -0.010568 0.011696 0.000000 0.000000 0.000000
# 4 0.000000 0.000000 0.000000 0.203617 0.000000 0.000000
# 5 0.000000 0.000000 0.000000 0.000000 0.093159 0.000000
# 6 0.000000 0.000000 0.000000 0.000000 0.000000 0.057765
#
#
# Mechanical properties :
#
#
# Convention : Reuss Voigt Hill
#
# Bulk Modulus (GPa) = 24.37440 42.05890 33.21665
# Shear Modulus (GPa) = 10.99040 19.50758 15.24899
#
# Velocity S-wave (km/s) = 2.39302 3.18817 2.81878
# Velocity P-wave (km/s) = 4.50951 5.95545 5.28219
#
# Compressibility (1/GPa) = 0.04102665
#
# Stress axis : x y z
#
# Youngs Moduli (GPa) = 34.56468 43.01225 85.50160
#
# Poissons Ratio (x) = 0.17102 -0.26669
# Poissons Ratio (y) = 0.13744 0.90355
# Poissons Ratio (z) = -0.10781 0.45454
#
# Static dielectric constant tensor:
#      x y z
#    x 1.720660 0.000000 0.000000 
#    y 0.000000 1.664390 0.000000 
#    z 0.000000 0.000000 1.690650 
# 
# From -- ./inp_files/31742.got.cif
#   From: 2010.05.17/outbox.cif.g08.bks.cpg/sg59_16_cif.got.tgz:31742.got - 2010.06.03 14:40:33.
