data_PCOD9449635
_publ_section_title
;
Structure prediction by ZEFSAII (Michael W. Deem and Ramdas Pophale) SiO2 
 PCOD9449635
Probable space group: P M M N
;
_chemical_formula_sum "Si O2"
_cell_formula_units_Z 64
_cell_length_a 9.015380
_cell_length_b 18.729144
_cell_length_c 20.725105
_cell_angle_alpha 90.000000
_cell_angle_beta 90.000000
_cell_angle_gamma 90.000000
_cell_volume 3499.441238
_symmetry_space_group_name_H-M "P M M N"
_symmetry_group_IT_number 59
_space_group.IT_coordinate_system_code '2'
_symmetry_cell_setting 'orthorhombic'
loop_
_space_group_symop_operation_xyz
x,y,z
1/2-x,1/2-y,z
1/2+x,-y,-z
-x,1/2+y,-z
-x,-y,-z
1/2+x,1/2+y,-z
1/2-x,y,z
x,1/2-y,z
loop_
_atom_site_type_symbol
_atom_site_label
_atom_site_fract_x
_atom_site_fract_y
_atom_site_fract_z
Si Si1 0.423627 0.556744 0.405896
Si Si2 0.082894 0.335372 0.230037
Si Si3 0.578721 0.602373 0.533892
Si Si4 0.929310 0.333966 0.848731
Si Si5 0.423084 0.078747 0.732027
Si Si6 0.075714 0.962157 0.060990
Si Si7 0.082024 0.952984 0.831517
Si Si8 0.586701 0.165785 0.354044
O O1 0.250000 0.577031 0.407494
O O2 0.518312 0.595088 0.461658
O O3 0.431350 0.473799 0.428534
O O4 0.491421 0.571830 0.335600
O O5 0.250000 0.359912 0.216524
O O6 0.079461 0.250000 0.224664
O O7 0.964073 0.373031 0.184793
O O8 0.034892 0.357716 0.302133
O O9 0.750000 0.624898 0.534624
O O10 0.472348 0.652352 0.575009
O O11 0.750000 0.340117 0.842383
O O12 0.965522 0.250000 0.856769
O O13 0.973373 0.384502 0.909984
O O14 0.004071 0.366959 0.784202
O O15 0.250000 0.097345 0.721508
O O16 0.426537 0.002032 0.767828
O O17 0.250000 0.957458 0.048597
O O18 0.035499 0.014348 0.119666
O O19 0.000000 0.000000 0.000000
O O20 0.250000 0.958522 0.856733
O O21 0.750000 0.132858 0.343637
O O22 0.600080 0.250000 0.343730
#
# Coordination Sequence:
#
# PCOD9449635 Si02
#       8
#     8   8   8   8   8   8   8   8
#     4  10  20  33  50  72  99 131 167 211 264 318
#     4  10  20  33  50  74 104 137 175 219 264 309
#     4  10  20  33  50  71  96 128 168 216 267 316
#     4   9  19  37  60  84 110 142 180 221 266 317
#     4  10  20  33  52  79 107 135 172 218 266 316
#     4  10  20  36  59  85 114 146 181 220 261 310
#     4  10  20  34  54  79 107 140 176 214 258 309
#     4  10  20  33  49  69  95 129 167 206 252 308
#
# _framework density 18.288633999999998
#
# number of rings (size 3 to 8) (size 9 to 14) (size 15 to 20)
#    0.000    2.125    0.000    3.375    0.000    7.250 
#    0.000    1.250    0.000    6.000    0.000    0.000 
#    0.000    0.000    0.000    0.000    0.000    0.000 
#
# Total GULP energy -356723.665603 kJ/mol
# GULP energy per Si atom -5573.807275 kJ/mol
# Density = 1.824701 g / cm^3
# Si number density = 18.288634 Si / 1000 Ang^3
#
#
#
# Elastic Constant Matrix: (Units=GPa)
#
#
# Indices 1 2 3 4 5 6 
#
# 1 69.5893 34.7257 20.2297 0.0000 0.0000 0.0000
# 2 34.7257 48.6817 42.7566 0.0000 0.0000 0.0000
# 3 20.2297 42.7566 83.2556 0.0000 0.0000 0.0000
# 4 0.0000 0.0000 0.0000 21.5411 0.0000 0.0000
# 5 0.0000 0.0000 0.0000 0.0000 35.4351 0.0000
# 6 0.0000 0.0000 0.0000 0.0000 0.0000 23.1961
#
#
#
# Elastic Compliance Matrix: (Units=1/GPa)
#
#
# Indices 1 2 3 4 5 6 
#
# 1 0.023523 -0.021422 0.005286 0.000000 0.000000 0.000000
# 2 -0.021422 0.056928 -0.024031 0.000000 0.000000 0.000000
# 3 0.005286 -0.024031 0.023068 0.000000 0.000000 0.000000
# 4 0.000000 0.000000 0.000000 0.046423 0.000000 0.000000
# 5 0.000000 0.000000 0.000000 0.000000 0.028221 0.000000
# 6 0.000000 0.000000 0.000000 0.000000 0.000000 0.043111
#
#
# Mechanical properties :
#
#
# Convention : Reuss Voigt Hill
#
# Bulk Modulus (GPa) = 43.13054 44.10562 43.61808
# Shear Modulus (GPa) = 16.16363 22.95543 19.55953
#
# Velocity S-wave (km/s) = 2.97611 3.54669 3.27386
# Velocity P-wave (km/s) = 5.95350 6.39850 6.18000
#
# Compressibility (1/GPa) = 0.02318543
#
# Stress axis : x y z
#
# Youngs Moduli (GPa) = 42.51123 17.56595 43.34990
#
# Poissons Ratio (x) = 0.37630 -0.22913
# Poissons Ratio (y) = 0.91067 1.04173
# Poissons Ratio (z) = -0.22470 0.42212
#
# Static dielectric constant tensor:
#      x y z
#    x 1.629870 0.000000 0.000000 
#    y 0.000000 1.654910 0.000000 
#    z 0.000000 0.000000 1.651570 
# 
# From -- ./inp_files/29535.got.cif
#   From: 2010.05.17/outbox.cif.g08.bks.cpg/sg59_15_cif.got.tgz:29535.got - 2010.06.03 14:40:33.
