data_PCOD9449763
_publ_section_title
;
Structure prediction by ZEFSAII (Michael W. Deem and Ramdas Pophale) SiO2 
 PCOD9449763
Probable space group: P M M N
;
_chemical_formula_sum "Si O2"
_cell_formula_units_Z 56
_cell_length_a 14.905077
_cell_length_b 9.326144
_cell_length_c 20.380274
_cell_angle_alpha 90.000000
_cell_angle_beta 90.000000
_cell_angle_gamma 90.000000
_cell_volume 2832.998596
_symmetry_space_group_name_H-M "P M M N"
_symmetry_group_IT_number 59
_space_group.IT_coordinate_system_code '2'
_symmetry_cell_setting 'orthorhombic'
loop_
_space_group_symop_operation_xyz
x,y,z
1/2-x,1/2-y,z
1/2+x,-y,-z
-x,1/2+y,-z
-x,-y,-z
1/2+x,1/2+y,-z
1/2-x,y,z
x,1/2-y,z
loop_
_atom_site_type_symbol
_atom_site_label
_atom_site_fract_x
_atom_site_fract_y
_atom_site_fract_z
Si Si1 0.894067 0.411453 0.563875
Si Si2 0.857904 0.911884 0.695242
Si Si3 0.142943 0.412984 0.706883
Si Si4 0.891516 0.587327 0.439767
Si Si5 0.141670 0.581827 0.835658
Si Si6 0.491154 0.421689 0.930650
Si Si7 0.144818 0.580465 0.174764
O O1 0.859262 0.250000 0.570396
O O2 0.879472 0.500413 0.629897
O O3 0.857491 0.491936 0.499633
O O4 0.001194 0.402915 0.554222
O O5 0.750000 0.904739 0.698617
O O6 0.893738 0.750000 0.691715
O O7 0.886060 0.992523 0.761479
O O8 0.250000 0.401556 0.713576
O O9 0.104994 0.250000 0.712225
O O10 0.125839 0.468488 0.633548
O O11 0.113062 0.514932 0.765561
O O12 0.855569 0.750000 0.443300
O O13 0.250000 0.569654 0.841486
O O14 0.118745 0.750000 0.839922
O O15 0.091483 0.490590 0.890911
O O16 0.480521 0.250000 0.937942
O O17 0.580032 0.447625 0.886443
O O18 0.500000 0.500000 0.000000
O O19 0.250000 0.547590 0.161023
O O20 0.139494 0.750000 0.190020
#
# Coordination Sequence:
#
# PCOD9449763 Si02
#       7
#     8   8   8   8   8   8   8
#     4  10  20  33  50  74 107 146 189 235 284 339
#     4  10  21  36  55  80 109 143 186 235 286 340
#     4   9  18  34  56  80 107 143 188 238 292 347
#     4   9  19  34  50  73 107 146 189 234 285 341
#     4  10  22  40  61  88 123 160 200 247 295 346
#     4  11  24  41  64  94 125 158 198 238 289 354
#     4   9  20  40  63  87 118 155 194 239 291 347
#
# _framework density 19.767040999999999
#
# number of rings (size 3 to 8) (size 9 to 14) (size 15 to 20)
#    0.000    2.286    0.000    1.714    2.000    5.143 
#    0.000    2.857    0.000    0.000    0.000    0.000 
#    0.000    0.000    0.000    0.000    0.000    0.000 
#
# Total GULP energy -312682.279305 kJ/mol
# GULP energy per Si atom -5583.612130 kJ/mol
# Density = 1.972205 g / cm^3
# Si number density = 19.767041 Si / 1000 Ang^3
#
#
#
# Elastic Constant Matrix: (Units=GPa)
#
#
# Indices 1 2 3 4 5 6 
#
# 1 57.5535 41.2309 35.9931 0.0000 0.0000 0.0000
# 2 41.2309 141.7029 124.4450 0.0000 0.0000 0.0000
# 3 35.9931 124.4450 203.1356 0.0000 0.0000 0.0000
# 4 0.0000 0.0000 0.0000 37.0174 0.0000 0.0000
# 5 0.0000 0.0000 0.0000 0.0000 33.3228 0.0000
# 6 0.0000 0.0000 0.0000 0.0000 0.0000 10.3913
#
#
#
# Elastic Compliance Matrix: (Units=1/GPa)
#
#
# Indices 1 2 3 4 5 6 
#
# 1 0.021951 -0.006431 0.000051 0.000000 0.000000 0.000000
# 2 -0.006431 0.017160 -0.009373 0.000000 0.000000 0.000000
# 3 0.000051 -0.009373 0.010656 0.000000 0.000000 0.000000
# 4 0.000000 0.000000 0.000000 0.027014 0.000000 0.000000
# 5 0.000000 0.000000 0.000000 0.000000 0.030009 0.000000
# 6 0.000000 0.000000 0.000000 0.000000 0.000000 0.096234
#
#
# Mechanical properties :
#
#
# Convention : Reuss Voigt Hill
#
# Bulk Modulus (GPa) = 54.76707 89.52554 72.14630
# Shear Modulus (GPa) = 20.77985 29.52784 25.15384
#
# Velocity S-wave (km/s) = 3.24580 3.86915 3.57110
# Velocity P-wave (km/s) = 6.46632 8.08388 7.31992
#
# Compressibility (1/GPa) = 0.01825915
#
# Stress axis : x y z
#
# Youngs Moduli (GPa) = 45.55615 58.27639 93.84566
#
# Poissons Ratio (x) = 0.37480 -0.00475
# Poissons Ratio (y) = 0.29299 0.87959
# Poissons Ratio (z) = -0.00230 0.54621
#
# Static dielectric constant tensor:
#      x y z
#    x 1.725500 0.000000 0.000000 
#    y 0.000000 1.695770 0.000000 
#    z 0.000000 0.000000 1.660170 
# 
# From -- ./inp_files/30392.got.cif
#   From: 2010.05.17/outbox.cif.g08.bks.cpg/sg59_16_cif.got.tgz:30392.got - 2010.06.03 14:40:33.
