data_PCOD9449383
_publ_section_title
;
Structure prediction by ZEFSAII (Michael W. Deem and Ramdas Pophale) SiO2 
 PCOD9449383
Probable space group: P M M N
;
_chemical_formula_sum "Si O2"
_cell_formula_units_Z 56
_cell_length_a 9.478836
_cell_length_b 14.656646
_cell_length_c 18.885210
_cell_angle_alpha 90.000000
_cell_angle_beta 90.000000
_cell_angle_gamma 90.000000
_cell_volume 2623.683392
_symmetry_space_group_name_H-M "P M M N"
_symmetry_group_IT_number 59
_space_group.IT_coordinate_system_code '2'
_symmetry_cell_setting 'orthorhombic'
loop_
_space_group_symop_operation_xyz
x,y,z
1/2-x,1/2-y,z
1/2+x,-y,-z
-x,1/2+y,-z
-x,-y,-z
1/2+x,1/2+y,-z
1/2-x,y,z
x,1/2-y,z
loop_
_atom_site_type_symbol
_atom_site_label
_atom_site_fract_x
_atom_site_fract_y
_atom_site_fract_z
Si Si1 0.406315 0.617197 0.140595
Si Si2 0.081921 0.594852 0.984791
Si Si3 0.910741 0.138003 0.596311
Si Si4 0.585260 0.638648 0.540378
Si Si5 0.905866 0.643495 0.273668
Si Si6 0.586628 0.859889 0.695259
Si Si7 0.412041 0.101330 0.149588
O O1 0.250000 0.648172 0.163325
O O2 0.523693 0.641817 0.196952
O O3 0.402314 0.507431 0.140583
O O4 0.432084 0.646366 0.059747
O O5 0.250000 0.580322 0.973339
O O6 0.007796 0.635698 0.915239
O O7 0.000000 0.500000 0.000000
O O8 0.750000 0.107021 0.595928
O O9 0.908423 0.250000 0.596589
O O10 0.993173 0.108406 0.526035
O O11 0.990112 0.105006 0.666882
O O12 0.750000 0.612938 0.532798
O O13 0.582905 0.750000 0.539196
O O14 0.530863 0.610125 0.618384
O O15 0.750000 0.601736 0.274144
O O16 0.891360 0.750000 0.292509
O O17 0.750000 0.891580 0.697757
O O18 0.588037 0.750000 0.693311
O O19 0.525239 0.884332 0.771854
O O20 0.250000 0.137315 0.146485
#
# Coordination Sequence:
#
# PCOD9449383 Si02
#       7
#     8   8   8   8   8   8   8
#     4   9  18  31  47  67  91 120 151 185 228 273
#     4   9  17  30  48  69  91 118 154 191 226 266
#     4   9  16  26  42  64  90 119 148 181 225 272
#     4   8  13  23  41  64  89 118 153 188 218 254
#     4  10  20  32  47  68  91 115 148 190 231 272
#     4   8  14  26  46  71  97 125 155 187 224 264
#     4   9  17  30  49  72  96 122 154 189 224 266
#
# _framework density 21.34404
#
# number of rings (size 3 to 8) (size 9 to 14) (size 15 to 20)
#    0.000    3.143    0.000    3.000    0.000    5.429 
#    0.000    1.429    0.000    4.714    0.000    0.000 
#    0.000    0.000    0.000    0.000    0.000    0.000 
#
# Total GULP energy -312151.641642 kJ/mol
# GULP energy per Si atom -5574.136458 kJ/mol
# Density = 2.129546 g / cm^3
# Si number density = 21.344040 Si / 1000 Ang^3
#
#
#
# Elastic Constant Matrix: (Units=GPa)
#
#
# Indices 1 2 3 4 5 6 
#
# 1 140.4390 6.8934 110.3658 0.0000 0.0000 0.0000
# 2 6.8934 42.2864 -5.2226 0.0000 0.0000 0.0000
# 3 110.3658 -5.2226 194.0526 0.0000 0.0000 0.0000
# 4 0.0000 0.0000 0.0000 16.4524 0.0000 0.0000
# 5 0.0000 0.0000 0.0000 0.0000 29.8861 0.0000
# 6 0.0000 0.0000 0.0000 0.0000 0.0000 3.5677
#
#
#
# Elastic Compliance Matrix: (Units=1/GPa)
#
#
# Indices 1 2 3 4 5 6 
#
# 1 0.013269 -0.003106 -0.007630 0.000000 0.000000 0.000000
# 2 -0.003106 0.024454 0.002424 0.000000 0.000000 0.000000
# 3 -0.007630 0.002424 0.009558 0.000000 0.000000 0.000000
# 4 0.000000 0.000000 0.000000 0.060781 0.000000 0.000000
# 5 0.000000 0.000000 0.000000 0.000000 0.033460 0.000000
# 6 0.000000 0.000000 0.000000 0.000000 0.000000 0.280296
#
#
# Mechanical properties :
#
#
# Convention : Reuss Voigt Hill
#
# Bulk Modulus (GPa) = 32.61752 66.76126 49.68939
# Shear Modulus (GPa) = 11.14424 27.63066 19.38745
#
# Velocity S-wave (km/s) = 2.28748 3.60187 3.01712
# Velocity P-wave (km/s) = 4.72141 6.97456 5.95551
#
# Compressibility (1/GPa) = 0.03065837
#
# Stress axis : x y z
#
# Youngs Moduli (GPa) = 75.36088 40.89321 104.62152
#
# Poissons Ratio (x) = 0.12700 0.79831
# Poissons Ratio (y) = 0.23404 -0.25364
# Poissons Ratio (z) = 0.57504 -0.09914
#
# Static dielectric constant tensor:
#      x y z
#    x 1.744400 0.000000 0.000000 
#    y 0.000000 1.842540 0.000000 
#    z 0.000000 0.000000 1.796460 
# 
# From -- ./inp_files/26016.got.cif
#   From: 2010.05.17/outbox.cif.g08.bks.cpg/sg59_14_cif.got.tgz:26016.got - 2010.06.03 14:40:33.
