data_PCOD9449921
_publ_section_title
;
Structure prediction by ZEFSAII (Michael W. Deem and Ramdas Pophale) SiO2 
 PCOD9449921
Probable space group: P M M N
;
_chemical_formula_sum "Si O2"
_cell_formula_units_Z 56
_cell_length_a 9.161720
_cell_length_b 14.035242
_cell_length_c 24.295291
_cell_angle_alpha 90.000000
_cell_angle_beta 90.000000
_cell_angle_gamma 90.000000
_cell_volume 3124.057547
_symmetry_space_group_name_H-M "P M M N"
_symmetry_group_IT_number 59
_space_group.IT_coordinate_system_code '2'
_symmetry_cell_setting 'orthorhombic'
loop_
_space_group_symop_operation_xyz
x,y,z
1/2-x,1/2-y,z
1/2+x,-y,-z
-x,1/2+y,-z
-x,-y,-z
1/2+x,1/2+y,-z
1/2-x,y,z
x,1/2-y,z
loop_
_atom_site_type_symbol
_atom_site_label
_atom_site_fract_x
_atom_site_fract_y
_atom_site_fract_z
Si Si1 0.072080 0.859715 0.195298
Si Si2 0.577235 0.136861 0.584046
Si Si3 0.574647 0.140421 0.031328
Si Si4 0.583258 0.866065 0.526384
Si Si5 0.074583 0.962924 0.083087
Si Si6 0.925630 0.026101 0.695743
Si Si7 0.922504 0.362704 0.360140
O O1 0.250000 0.857481 0.195132
O O2 0.022685 0.750000 0.196562
O O3 0.026969 0.913256 0.139602
O O4 0.028587 0.917489 0.249719
O O5 0.750000 0.123791 0.574562
O O6 0.551633 0.250000 0.590056
O O7 0.491089 0.102394 0.530325
O O8 0.537858 0.086710 0.641069
O O9 0.750000 0.135349 0.037654
O O10 0.529487 0.250000 0.039174
O O11 0.499156 0.064417 0.071322
O O12 0.540717 0.104822 0.969203
O O13 0.750000 0.898999 0.530625
O O14 0.584151 0.750000 0.524394
O O15 0.495352 0.890101 0.581471
O O16 0.250000 0.974534 0.084644
O O17 0.750000 0.014489 0.697115
O O18 0.002783 0.925355 0.686859
O O19 0.750000 0.379888 0.362540
O O20 0.946782 0.250000 0.352053
#
# Coordination Sequence:
#
# PCOD9449921 Si02
#       7
#     8   8   8   8   8   8   8
#     4   9  17  32  55  80 104 131 166 207 248 293
#     4   9  17  30  48  72 102 130 155 189 239 299
#     4   9  17  30  49  75 108 143 175 210 255 302
#     4   9  17  30  50  74  97 123 158 200 245 294
#     4   9  17  30  51  78 105 136 176 216 252 294
#     4  10  20  33  52  76  98 125 163 204 245 290
#     4  10  21  37  54  70  92 125 163 204 251 300
#
# _framework density 17.925405999999999
#
# number of rings (size 3 to 8) (size 9 to 14) (size 15 to 20)
#    0.000    2.714    0.000    1.714    0.000    7.429 
#    0.000    1.429    0.000    7.714    0.000    0.000 
#    0.000    0.000    0.000    0.000    0.000    0.000 
#
# Total GULP energy -312499.435299 kJ/mol
# GULP energy per Si atom -5580.347059 kJ/mol
# Density = 1.788461 g / cm^3
# Si number density = 17.925406 Si / 1000 Ang^3
#
#
#
# Elastic Constant Matrix: (Units=GPa)
#
#
# Indices 1 2 3 4 5 6 
#
# 1 31.7161 48.1266 46.2594 0.0000 0.0000 0.0000
# 2 48.1266 128.1257 85.7387 0.0000 0.0000 0.0000
# 3 46.2594 85.7387 142.0972 0.0000 0.0000 0.0000
# 4 0.0000 0.0000 0.0000 29.5870 0.0000 0.0000
# 5 0.0000 0.0000 0.0000 0.0000 21.8530 0.0000
# 6 0.0000 0.0000 0.0000 0.0000 0.0000 24.1272
#
#
#
# Elastic Compliance Matrix: (Units=1/GPa)
#
#
# Indices 1 2 3 4 5 6 
#
# 1 0.088437 -0.023402 -0.014670 0.000000 0.000000 0.000000
# 2 -0.023402 0.019283 -0.004016 0.000000 0.000000 0.000000
# 3 -0.014670 -0.004016 0.014237 0.000000 0.000000 0.000000
# 4 0.000000 0.000000 0.000000 0.033799 0.000000 0.000000
# 5 0.000000 0.000000 0.000000 0.000000 0.045760 0.000000
# 6 0.000000 0.000000 0.000000 0.000000 0.000000 0.041447
#
#
# Mechanical properties :
#
#
# Convention : Reuss Voigt Hill
#
# Bulk Modulus (GPa) = 26.46923 73.57650 50.02286
# Shear Modulus (GPa) = 14.71742 23.23439 18.97590
#
# Velocity S-wave (km/s) = 2.86848 3.60414 3.25715
# Velocity P-wave (km/s) = 5.07635 7.64558 6.48938
#
# Compressibility (1/GPa) = 0.03777972
#
# Stress axis : x y z
#
# Youngs Moduli (GPa) = 11.30742 51.85989 70.24062
#
# Poissons Ratio (x) = 1.21362 1.03046
# Poissons Ratio (y) = 0.26461 0.28212
# Poissons Ratio (z) = 0.16588 0.20829
#
# Static dielectric constant tensor:
#      x y z
#    x 1.602860 0.000000 0.000000 
#    y 0.000000 1.639640 0.000000 
#    z 0.000000 0.000000 1.587010 
# 
# From -- ./inp_files/28984.got.cif
#   From: 2010.05.17/outbox.cif.g08.bks.cpg/sg59_15_cif.got.tgz:28984.got - 2010.06.03 14:40:33.
