data_PCOD9449708
_publ_section_title
;
Structure prediction by ZEFSAII (Michael W. Deem and Ramdas Pophale) SiO2 
 PCOD9449708
Probable space group: P M M N
;
_chemical_formula_sum "Si O2"
_cell_formula_units_Z 64
_cell_length_a 8.214477
_cell_length_b 23.803522
_cell_length_c 16.725051
_cell_angle_alpha 90.000000
_cell_angle_beta 90.000000
_cell_angle_gamma 90.000000
_cell_volume 3270.307492
_symmetry_space_group_name_H-M "P M M N"
_symmetry_group_IT_number 59
_space_group.IT_coordinate_system_code '2'
_symmetry_cell_setting 'orthorhombic'
loop_
_space_group_symop_operation_xyz
x,y,z
1/2-x,1/2-y,z
1/2+x,-y,-z
-x,1/2+y,-z
-x,-y,-z
1/2+x,1/2+y,-z
1/2-x,y,z
x,1/2-y,z
loop_
_atom_site_type_symbol
_atom_site_label
_atom_site_fract_x
_atom_site_fract_y
_atom_site_fract_z
Si Si1 0.946637 0.032836 0.387376
Si Si2 0.553262 0.421406 0.218448
Si Si3 0.564852 0.817291 0.036378
Si Si4 0.057598 0.508313 0.090937
Si Si5 0.946247 0.186582 0.137694
Si Si6 0.446564 0.412205 0.547769
Si Si7 0.054739 0.315034 0.664456
Si Si8 0.063271 0.618365 0.180168
O O1 0.750000 0.032126 0.387070
O O2 0.005544 0.052564 0.301148
O O3 0.000637 0.075253 0.457191
O O4 0.001866 0.969171 0.406385
O O5 0.750000 0.426057 0.216315
O O6 0.483869 0.454313 0.143077
O O7 0.509435 0.356437 0.206922
O O8 0.750000 0.835461 0.053452
O O9 0.559377 0.750000 0.038770
O O10 0.448249 0.841335 0.103454
O O11 0.514728 0.833961 0.947218
O O12 0.250000 0.517786 0.086130
O O13 0.989573 0.560586 0.144049
O O14 0.000000 0.500000 0.000000
O O15 0.750000 0.187449 0.130628
O O16 0.003465 0.250000 0.151378
O O17 0.250000 0.411303 0.550208
O O18 0.504619 0.355522 0.591981
O O19 0.250000 0.311240 0.657408
O O20 0.993100 0.250000 0.666037
O O21 0.019011 0.349642 0.745819
O O22 0.250000 0.608192 0.203857
#
# Coordination Sequence:
#
# PCOD9449708 Si02
#       8
#     8   8   8   8   8   8   8   8
#     4   9  18  33  55  81 106 134 170 213 260 310
#     4  10  20  35  55  78 104 135 173 215 260 311
#     4  10  20  33  50  72  98 132 175 217 254 297
#     4  11  24  38  53  77 109 144 181 224 273 322
#     4   9  18  33  52  73  99 131 166 207 254 301
#     4   9  18  34  55  78 105 136 170 211 259 310
#     4  10  21  37  57  81 110 145 183 222 269 327
#     4  11  23  36  51  75 106 139 177 220 267 318
#
# _framework density 19.570025000000001
#
# number of rings (size 3 to 8) (size 9 to 14) (size 15 to 20)
#    0.000    2.125    0.000    3.000    0.000   10.000 
#    0.000    3.125    0.000    0.750    0.000    0.000 
#    0.000    0.000    0.000    0.000    0.000    0.000 
#
# Total GULP energy -357019.254363 kJ/mol
# GULP energy per Si atom -5578.425849 kJ/mol
# Density = 1.952548 g / cm^3
# Si number density = 19.570025 Si / 1000 Ang^3
#
#
#
# Elastic Constant Matrix: (Units=GPa)
#
#
# Indices 1 2 3 4 5 6 
#
# 1 8.5447 14.1133 4.7746 0.0000 0.0000 0.0000
# 2 14.1133 116.8411 69.9119 0.0000 0.0000 0.0000
# 3 4.7746 69.9119 118.4581 0.0000 0.0000 0.0000
# 4 0.0000 0.0000 0.0000 29.9315 0.0000 0.0000
# 5 0.0000 0.0000 0.0000 0.0000 26.2169 0.0000
# 6 0.0000 0.0000 0.0000 0.0000 0.0000 18.9169
#
#
#
# Elastic Compliance Matrix: (Units=1/GPa)
#
#
# Indices 1 2 3 4 5 6 
#
# 1 0.150056 -0.022426 0.007187 0.000000 0.000000 0.000000
# 2 -0.022426 0.016582 -0.008883 0.000000 0.000000 0.000000
# 3 0.007187 -0.008883 0.013395 0.000000 0.000000 0.000000
# 4 0.000000 0.000000 0.000000 0.033410 0.000000 0.000000
# 5 0.000000 0.000000 0.000000 0.000000 0.038143 0.000000
# 6 0.000000 0.000000 0.000000 0.000000 0.000000 0.052863
#
#
# Mechanical properties :
#
#
# Convention : Reuss Voigt Hill
#
# Bulk Modulus (GPa) = 7.58783 46.82706 27.20744
# Shear Modulus (GPa) = 12.60648 25.34935 18.97792
#
# Velocity S-wave (km/s) = 2.54081 3.60295 3.11745
# Velocity P-wave (km/s) = 3.53459 6.42559 5.18563
#
# Compressibility (1/GPa) = 0.13178997
#
# Stress axis : x y z
#
# Youngs Moduli (GPa) = 6.66419 60.30460 74.65704
#
# Poissons Ratio (x) = 1.35238 -0.53657
# Poissons Ratio (y) = 0.14945 0.66316
# Poissons Ratio (z) = -0.04790 0.53567
#
# Static dielectric constant tensor:
#      x y z
#    x 1.701580 0.000000 0.000000 
#    y 0.000000 1.752070 0.000000 
#    z 0.000000 0.000000 1.654590 
# 
# From -- ./inp_files/21455.got.cif
#   From: 2010.05.17/outbox.cif.g08.bks.cpg/sg59_11_cif.got.tgz:21455.got - 2010.06.03 14:40:33.
