data_PCOD9449322
_publ_section_title
;
Structure prediction by ZEFSAII (Michael W. Deem and Ramdas Pophale) SiO2 
 PCOD9449322
Probable space group: P M M N
;
_chemical_formula_sum "Si O2"
_cell_formula_units_Z 56
_cell_length_a 8.119925
_cell_length_b 15.605350
_cell_length_c 21.119382
_cell_angle_alpha 90.000000
_cell_angle_beta 90.000000
_cell_angle_gamma 90.000000
_cell_volume 2676.127107
_symmetry_space_group_name_H-M "P M M N"
_symmetry_group_IT_number 59
_space_group.IT_coordinate_system_code '2'
_symmetry_cell_setting 'orthorhombic'
loop_
_space_group_symop_operation_xyz
x,y,z
1/2-x,1/2-y,z
1/2+x,-y,-z
-x,1/2+y,-z
-x,-y,-z
1/2+x,1/2+y,-z
1/2-x,y,z
x,1/2-y,z
loop_
_atom_site_type_symbol
_atom_site_label
_atom_site_fract_x
_atom_site_fract_y
_atom_site_fract_z
Si Si1 0.050922 0.151625 0.662277
Si Si2 0.944877 0.500541 0.572566
Si Si3 0.060953 0.390325 0.933732
Si Si4 0.944803 0.919338 0.933697
Si Si5 0.561835 0.147213 0.197842
Si Si6 0.551311 0.348326 0.336228
Si Si7 0.937333 0.852040 0.201455
O O1 0.250000 0.153915 0.667285
O O2 0.995784 0.250000 0.650277
O O3 0.987908 0.119979 0.731519
O O4 0.005659 0.084380 0.608774
O O5 0.750000 0.501181 0.574690
O O6 0.000000 0.500000 0.500000
O O7 0.006485 0.584494 0.609976
O O8 0.250000 0.359252 0.930031
O O9 0.980015 0.366475 0.866688
O O10 0.047259 0.493067 0.934256
O O11 0.000342 0.365538 0.004032
O O12 0.750000 0.937865 0.942696
O O13 0.967982 0.878055 0.865407
O O14 0.750000 0.115063 0.191524
O O15 0.567619 0.250000 0.201200
O O16 0.492790 0.120656 0.266478
O O17 0.750000 0.345262 0.331433
O O18 0.494752 0.250000 0.347852
O O19 0.750000 0.888553 0.197845
O O20 0.924037 0.750000 0.208513
#
# Coordination Sequence:
#
# PCOD9449322 Si02
#       7
#     8   8   8   8   8   8   8
#     4   9  19  38  63  90 120 154 196 245 291 341
#     4  12  26  42  63  92 124 157 193 233 284 349
#     4   9  18  32  49  71 103 147 190 230 279 334
#     4  10  20  31  46  73 109 144 185 236 285 330
#     4   9  19  36  57  79 105 143 188 229 279 344
#     4   9  20  41  66  90 118 154 197 245 294 347
#     4   8  15  30  54  80 102 134 185 234 276 328
#
# _framework density 20.925761000000001
#
# number of rings (size 3 to 8) (size 9 to 14) (size 15 to 20)
#    0.000    2.571    0.000    3.429    2.000    3.143 
#    0.000    2.857    0.000    1.286    0.000    0.000 
#    0.000    0.000    0.000    0.000    0.000    0.000 
#
# Total GULP energy -312096.456017 kJ/mol
# GULP energy per Si atom -5573.151000 kJ/mol
# Density = 2.087813 g / cm^3
# Si number density = 20.925761 Si / 1000 Ang^3
#
#
#
# Elastic Constant Matrix: (Units=GPa)
#
#
# Indices 1 2 3 4 5 6 
#
# 1 34.8005 11.1625 20.4835 0.0000 0.0000 0.0000
# 2 11.1625 77.1308 77.5036 0.0000 0.0000 0.0000
# 3 20.4835 77.5036 237.9997 0.0000 0.0000 0.0000
# 4 0.0000 0.0000 0.0000 51.1450 0.0000 0.0000
# 5 0.0000 0.0000 0.0000 0.0000 24.9441 0.0000
# 6 0.0000 0.0000 0.0000 0.0000 0.0000 14.4728
#
#
#
# Elastic Compliance Matrix: (Units=1/GPa)
#
#
# Indices 1 2 3 4 5 6 
#
# 1 0.030629 -0.002651 -0.001773 0.000000 0.000000 0.000000
# 2 -0.002651 0.019500 -0.006122 0.000000 0.000000 0.000000
# 3 -0.001773 -0.006122 0.006348 0.000000 0.000000 0.000000
# 4 0.000000 0.000000 0.000000 0.019552 0.000000 0.000000
# 5 0.000000 0.000000 0.000000 0.000000 0.040090 0.000000
# 6 0.000000 0.000000 0.000000 0.000000 0.000000 0.069095
#
#
# Mechanical properties :
#
#
# Convention : Reuss Voigt Hill
#
# Bulk Modulus (GPa) = 28.26058 63.13669 45.69863
# Shear Modulus (GPa) = 22.92511 34.16448 28.54479
#
# Velocity S-wave (km/s) = 3.31349 4.04499 3.69738
# Velocity P-wave (km/s) = 5.30787 7.21479 6.33351
#
# Compressibility (1/GPa) = 0.03538498
#
# Stress axis : x y z
#
# Youngs Moduli (GPa) = 32.64873 51.28129 157.53365
#
# Poissons Ratio (x) = 0.13597 0.27925
# Poissons Ratio (y) = 0.08657 0.96442
# Poissons Ratio (z) = 0.05788 0.31394
#
# Static dielectric constant tensor:
#      x y z
#    x 1.775590 0.000000 0.000000 
#    y 0.000000 1.748390 0.000000 
#    z 0.000000 0.000000 1.703420 
# 
# From -- ./inp_files/29169.got.cif
#   From: 2010.05.17/outbox.cif.g08.bks.cpg/sg59_15_cif.got.tgz:29169.got - 2010.06.03 14:40:33.
