data_PCOD9449886
_publ_section_title
;
Structure prediction by ZEFSAII (Michael W. Deem and Ramdas Pophale) SiO2 
 PCOD9449886
Probable space group: P M M N
;
_chemical_formula_sum "Si O2"
_cell_formula_units_Z 48
_cell_length_a 7.534890
_cell_length_b 9.730353
_cell_length_c 29.639905
_cell_angle_alpha 90.000000
_cell_angle_beta 90.000000
_cell_angle_gamma 90.000000
_cell_volume 2173.113050
_symmetry_space_group_name_H-M "P M M N"
_symmetry_group_IT_number 59
_space_group.IT_coordinate_system_code '2'
_symmetry_cell_setting 'orthorhombic'
loop_
_space_group_symop_operation_xyz
x,y,z
1/2-x,1/2-y,z
1/2+x,-y,-z
-x,1/2+y,-z
-x,-y,-z
1/2+x,1/2+y,-z
1/2-x,y,z
x,1/2-y,z
loop_
_atom_site_type_symbol
_atom_site_label
_atom_site_fract_x
_atom_site_fract_y
_atom_site_fract_z
Si Si1 0.466743 0.590522 0.370862
Si Si2 0.966874 0.593458 0.714408
Si Si3 0.463334 0.250000 0.069995
Si Si4 0.037209 0.091275 0.455904
Si Si5 0.455009 0.041133 0.892633
Si Si6 0.543189 0.399585 0.791172
Si Si7 0.533573 0.750000 0.033048
O O1 0.250000 0.593745 0.371715
O O2 0.524897 0.750000 0.372797
O O3 0.518949 0.510235 0.325500
O O4 0.526661 0.497197 0.413002
O O5 0.750000 0.600441 0.713729
O O6 0.028836 0.750000 0.708430
O O7 0.027468 0.524790 0.761413
O O8 0.250000 0.250000 0.069428
O O9 0.526619 0.383060 0.096083
O O10 0.529286 0.250000 0.018220
O O11 0.250000 0.100957 0.451506
O O12 0.971066 0.250000 0.458288
O O13 0.000000 0.000000 0.500000
O O14 0.250000 0.080556 0.888256
O O15 0.536768 0.076664 0.844644
O O16 0.525200 0.121623 0.936473
O O17 0.750000 0.391353 0.778629
O O18 0.462783 0.250000 0.781032
O O19 0.750000 0.750000 0.030189
#
# Coordination Sequence:
#
# PCOD9449886 Si02
#       7
#     8   8   4   8   8   8   4
#     4   9  16  28  48  74 105 141 181 228 280 331
#     4   9  17  29  48  75 106 138 175 225 277 322
#     4  11  23  39  59  85 113 143 183 231 272 317
#     4  10  20  33  51  77 109 146 189 235 284 336
#     4  11  22  39  59  83 113 148 182 221 274 332
#     4  10  20  34  53  79 108 140 179 223 271 323
#     4   9  20  39  61  83 111 145 185 225 268 323
#
# _framework density 22.08813
#
# number of rings (size 3 to 8) (size 9 to 14) (size 15 to 20)
#    0.000    2.167    0.833    2.750    1.167    5.000 
#    0.000    2.500    0.000    1.000    0.000    0.000 
#    0.000    0.000    0.000    0.000    0.000    0.000 
#
# Total GULP energy -268083.354561 kJ/mol
# GULP energy per Si atom -5585.069887 kJ/mol
# Density = 2.203786 g / cm^3
# Si number density = 22.088130 Si / 1000 Ang^3
#
#
#
# Elastic Constant Matrix: (Units=GPa)
#
#
# Indices 1 2 3 4 5 6 
#
# 1 54.6909 3.1907 0.0739 0.0000 0.0000 0.0000
# 2 3.1907 224.3912 72.8117 0.0000 0.0000 0.0000
# 3 0.0739 72.8117 114.1338 0.0000 0.0000 0.0000
# 4 0.0000 0.0000 0.0000 42.9186 0.0000 0.0000
# 5 0.0000 0.0000 0.0000 0.0000 11.9605 0.0000
# 6 0.0000 0.0000 0.0000 0.0000 0.0000 21.1193
#
#
#
# Elastic Compliance Matrix: (Units=1/GPa)
#
#
# Indices 1 2 3 4 5 6 
#
# 1 0.018303 -0.000323 0.000194 0.000000 0.000000 0.000000
# 2 -0.000323 0.005626 -0.003589 0.000000 0.000000 0.000000
# 3 0.000194 -0.003589 0.011051 0.000000 0.000000 0.000000
# 4 0.000000 0.000000 0.000000 0.023300 0.000000 0.000000
# 5 0.000000 0.000000 0.000000 0.000000 0.083609 0.000000
# 6 0.000000 0.000000 0.000000 0.000000 0.000000 0.047350
#
#
# Mechanical properties :
#
#
# Convention : Reuss Voigt Hill
#
# Bulk Modulus (GPa) = 36.30481 60.59649 48.45065
# Shear Modulus (GPa) = 24.28895 36.34231 30.31563
#
# Velocity S-wave (km/s) = 3.31968 4.06067 3.70873
# Velocity P-wave (km/s) = 5.58262 7.03412 6.34998
#
# Compressibility (1/GPa) = 0.02754456
#
# Stress axis : x y z
#
# Youngs Moduli (GPa) = 54.63529 177.76027 90.49055
#
# Poissons Ratio (x) = 0.05748 -0.01759
# Poissons Ratio (y) = 0.01767 0.32474
# Poissons Ratio (z) = -0.01062 0.63791
#
# Static dielectric constant tensor:
#      x y z
#    x 1.856950 0.000000 0.000000 
#    y 0.000000 1.810310 0.000000 
#    z 0.000000 0.000000 1.769280 
# 
# From -- ./inp_files/33047.got.cif
#   From: 2010.05.17/outbox.cif.g08.bks.cpg/sg59_17_cif.got.tgz:33047.got - 2010.06.03 14:40:33.
