data_PCOD9449100
_publ_section_title
;
Structure prediction by ZEFSAII (Michael W. Deem and Ramdas Pophale) SiO2 
 PCOD9449100
Probable space group: P M M N
;
_chemical_formula_sum "Si O2"
_cell_formula_units_Z 56
_cell_length_a 17.938040
_cell_length_b 7.563779
_cell_length_c 17.523149
_cell_angle_alpha 90.000000
_cell_angle_beta 90.000000
_cell_angle_gamma 90.000000
_cell_volume 2377.529821
_symmetry_space_group_name_H-M "P M M N"
_symmetry_group_IT_number 59
_space_group.IT_coordinate_system_code '2'
_symmetry_cell_setting 'orthorhombic'
loop_
_space_group_symop_operation_xyz
x,y,z
1/2-x,1/2-y,z
1/2+x,-y,-z
-x,1/2+y,-z
-x,-y,-z
1/2+x,1/2+y,-z
1/2-x,y,z
x,1/2-y,z
loop_
_atom_site_type_symbol
_atom_site_label
_atom_site_fract_x
_atom_site_fract_y
_atom_site_fract_z
Si Si1 0.750000 0.964552 0.173120
Si Si2 0.104209 0.956639 0.556566
Si Si3 0.834688 0.461674 0.603553
Si Si4 0.750000 0.963751 0.346840
Si Si5 0.831894 0.043749 0.888862
Si Si6 0.986503 0.459711 0.842794
Si Si7 0.619922 0.535163 0.059198
Si Si8 0.014420 0.459810 0.325196
O O1 0.750000 0.750000 0.175759
O O2 0.750000 0.025913 0.259649
O O3 0.821693 0.016998 0.124541
O O4 0.087317 0.750000 0.542650
O O5 0.129838 0.034249 0.475442
O O6 0.034443 0.032984 0.603972
O O7 0.176429 0.971211 0.610236
O O8 0.750000 0.527436 0.616799
O O9 0.828237 0.250000 0.595596
O O10 0.898614 0.493872 0.665657
O O11 0.750000 0.750000 0.348854
O O12 0.750000 0.965149 0.876465
O O13 0.827192 0.250000 0.866288
O O14 0.903579 0.963098 0.847727
O O15 0.852763 0.034825 0.978332
O O16 0.981205 0.250000 0.856675
O O17 0.040330 0.528060 0.909237
O O18 0.619838 0.750000 0.053646
O O19 0.515866 0.518962 0.243006
O O20 0.007296 0.250000 0.327130
#
# Coordination Sequence:
#
# PCOD9449100 Si02
#       8
#     4   8   8   4   8   8   8   8
#     4   9  18  31  49  79 114 145 180 225 287 342
#     4  10  21  40  60  84 121 158 194 239 297 357
#     4  10  21  40  65  86 114 159 200 237 293 361
#     4  11  21  33  57  89 120 157 198 241 283 342
#     4  10  21  37  57  83 113 147 191 239 289 350
#     4  10  22  39  58  81 115 156 195 237 288 353
#     4  10  19  35  58  81 110 148 191 239 285 342
#     4  11  24  39  60  90 122 154 195 251 299 343
#
# _framework density 23.553857000000001
#
# number of rings (size 3 to 8) (size 9 to 14) (size 15 to 20)
#    0.000    1.857    1.429    2.357    0.000    4.857 
#    0.000    2.857    0.000    0.000    0.000    0.000 
#    0.000    0.000    0.000    0.000    0.000    0.000 
#
# Total GULP energy -312997.167616 kJ/mol
# GULP energy per Si atom -5589.235136 kJ/mol
# Density = 2.350025 g / cm^3
# Si number density = 23.553857 Si / 1000 Ang^3
#
#
#
# Elastic Constant Matrix: (Units=GPa)
#
#
# Indices 1 2 3 4 5 6 
#
# 1 125.8769 0.0606 -10.4172 0.0000 0.0000 0.0000
# 2 0.0606 55.9556 -19.4726 0.0000 0.0000 0.0000
# 3 -10.4172 -19.4726 38.8941 0.0000 0.0000 0.0000
# 4 0.0000 0.0000 0.0000 14.2289 0.0000 0.0000
# 5 0.0000 0.0000 0.0000 0.0000 38.4477 0.0000
# 6 0.0000 0.0000 0.0000 0.0000 0.0000 12.6499
#
#
#
# Elastic Compliance Matrix: (Units=1/GPa)
#
#
# Indices 1 2 3 4 5 6 
#
# 1 0.008162 0.000911 0.002642 0.000000 0.000000 0.000000
# 2 0.000911 0.021744 0.011130 0.000000 0.000000 0.000000
# 3 0.002642 0.011130 0.031991 0.000000 0.000000 0.000000
# 4 0.000000 0.000000 0.000000 0.070279 0.000000 0.000000
# 5 0.000000 0.000000 0.000000 0.000000 0.026009 0.000000
# 6 0.000000 0.000000 0.000000 0.000000 0.000000 0.079052
#
#
# Mechanical properties :
#
#
# Convention : Reuss Voigt Hill
#
# Bulk Modulus (GPa) = 10.95741 17.89644 14.42693
# Shear Modulus (GPa) = 20.98257 29.76903 25.37580
#
# Velocity S-wave (km/s) = 2.98792 3.55895 3.28587
# Velocity P-wave (km/s) = 4.07010 4.95003 4.53147
#
# Compressibility (1/GPa) = 0.09126241
#
# Stress axis : x y z
#
# Youngs Moduli (GPa) = 122.51166 45.99061 31.25893
#
# Poissons Ratio (x) = -0.04188 -0.08259
# Poissons Ratio (y) = -0.11156 -0.34791
# Poissons Ratio (z) = -0.32369 -0.51188
#
# Static dielectric constant tensor:
#      x y z
#    x 1.908770 0.000000 0.000000 
#    y 0.000000 1.879790 0.000000 
#    z 0.000000 0.000000 1.847780 
# 
# From -- ./inp_files/24320.got.cif
#   From: 2010.05.17/outbox.cif.g08.bks.cpg/sg59_13_cif.got.tgz:24320.got - 2010.06.03 14:40:33.
