data_PCOD9449416
_publ_section_title
;
Structure prediction by ZEFSAII (Michael W. Deem and Ramdas Pophale) SiO2 
 PCOD9449416
Probable space group: P M M N
;
_chemical_formula_sum "Si O2"
_cell_formula_units_Z 64
_cell_length_a 9.327495
_cell_length_b 19.652279
_cell_length_c 19.336295
_cell_angle_alpha 90.000000
_cell_angle_beta 90.000000
_cell_angle_gamma 90.000000
_cell_volume 3544.469219
_symmetry_space_group_name_H-M "P M M N"
_symmetry_group_IT_number 59
_space_group.IT_coordinate_system_code '2'
_symmetry_cell_setting 'orthorhombic'
loop_
_space_group_symop_operation_xyz
x,y,z
1/2-x,1/2-y,z
1/2+x,-y,-z
-x,1/2+y,-z
-x,-y,-z
1/2+x,1/2+y,-z
1/2-x,y,z
x,1/2-y,z
loop_
_atom_site_type_symbol
_atom_site_label
_atom_site_fract_x
_atom_site_fract_y
_atom_site_fract_z
Si Si1 0.922503 0.973345 0.219974
Si Si2 0.083514 0.329365 0.026916
Si Si3 0.915893 0.573348 0.581036
Si Si4 0.908003 0.328803 0.156002
Si Si5 0.415386 0.109173 0.264173
Si Si6 0.921615 0.428150 0.648075
Si Si7 0.078665 0.670734 0.474635
Si Si8 0.419030 0.457227 0.940537
O O1 0.750000 0.970537 0.225269
O O2 0.963704 0.963799 0.139527
O O3 0.994181 0.926488 0.279467
O O4 0.988492 0.045683 0.241180
O O5 0.250000 0.332891 0.049066
O O6 0.052349 0.250000 0.012456
O O7 0.987434 0.358317 0.089334
O O8 0.065102 0.378321 0.962163
O O9 0.750000 0.568149 0.557878
O O10 0.920429 0.613720 0.653651
O O11 0.962804 0.496322 0.602994
O O12 0.005643 0.617429 0.527161
O O13 0.750000 0.358715 0.167544
O O14 0.891592 0.250000 0.139107
O O15 0.009759 0.331843 0.221995
O O16 0.250000 0.099642 0.244131
O O17 0.750000 0.436091 0.661196
O O18 0.945961 0.362045 0.601054
O O19 0.250000 0.669467 0.486567
O O20 0.031523 0.750000 0.480603
O O21 0.250000 0.475048 0.944254
O O22 0.500000 0.500000 0.000000
#
# Coordination Sequence:
#
# PCOD9449416 Si02
#       8
#     8   8   8   8   8   8   8   8
#     4  10  20  34  53  79 106 131 168 217 264 308
#     4   9  18  34  53  70  94 133 175 211 254 312
#     4   9  19  34  53  77 103 134 173 215 256 304
#     4  10  20  32  47  70 100 133 171 215 259 305
#     4  10  20  34  51  73 102 136 173 210 254 311
#     4   9  19  37  57  77 104 139 177 213 255 311
#     4  10  21  36  55  80 109 139 172 214 262 310
#     4  10  21  34  51  78 107 134 167 211 261 309
#
# _framework density 18.0563
#
# number of rings (size 3 to 8) (size 9 to 14) (size 15 to 20)
#    0.000    2.375    0.000    3.000    0.000    8.000 
#    0.000    3.125    0.000    0.750    0.000    0.000 
#    0.000    0.000    0.000    0.000    0.000    0.000 
#
# Total GULP energy -356435.003879 kJ/mol
# GULP energy per Si atom -5569.296936 kJ/mol
# Density = 1.801520 g / cm^3
# Si number density = 18.056300 Si / 1000 Ang^3
#
#
#
# Elastic Constant Matrix: (Units=GPa)
#
#
# Indices 1 2 3 4 5 6 
#
# 1 59.5682 26.3077 54.7178 0.0000 0.0000 0.0000
# 2 26.3077 54.3113 42.5129 0.0000 0.0000 0.0000
# 3 54.7178 42.5129 103.4687 0.0000 0.0000 0.0000
# 4 0.0000 0.0000 0.0000 23.0608 0.0000 0.0000
# 5 0.0000 0.0000 0.0000 0.0000 28.1541 0.0000
# 6 0.0000 0.0000 0.0000 0.0000 0.0000 18.9483
#
#
#
# Elastic Compliance Matrix: (Units=1/GPa)
#
#
# Indices 1 2 3 4 5 6 
#
# 1 0.033075 -0.003434 -0.016080 0.000000 0.000000 0.000000
# 2 -0.003434 0.027498 -0.009482 0.000000 0.000000 0.000000
# 3 -0.016080 -0.009482 0.022065 0.000000 0.000000 0.000000
# 4 0.000000 0.000000 0.000000 0.043364 0.000000 0.000000
# 5 0.000000 0.000000 0.000000 0.000000 0.035519 0.000000
# 6 0.000000 0.000000 0.000000 0.000000 0.000000 0.052775
#
#
# Mechanical properties :
#
#
# Convention : Reuss Voigt Hill
#
# Bulk Modulus (GPa) = 40.57689 51.60276 46.08983
# Shear Modulus (GPa) = 17.82509 20.28663 19.05586
#
# Velocity S-wave (km/s) = 3.14537 3.35553 3.25215
# Velocity P-wave (km/s) = 5.97598 6.60709 6.29945
#
# Compressibility (1/GPa) = 0.02464457
#
# Stress axis : x y z
#
# Youngs Moduli (GPa) = 30.23430 36.36598 45.32146
#
# Poissons Ratio (x) = 0.12488 0.72878
# Poissons Ratio (y) = 0.10383 0.42975
# Poissons Ratio (z) = 0.48617 0.34483
#
# Static dielectric constant tensor:
#      x y z
#    x 1.644250 0.000000 0.000000 
#    y 0.000000 1.680900 0.000000 
#    z 0.000000 0.000000 1.624030 
# 
# From -- ./inp_files/26203.got.cif
#   From: 2010.05.17/outbox.cif.g08.bks.cpg/sg59_14_cif.got.tgz:26203.got - 2010.06.03 14:40:33.
