data_PCOD9449769
_publ_section_title
;
Structure prediction by ZEFSAII (Michael W. Deem and Ramdas Pophale) SiO2 
 PCOD9449769
Probable space group: P M M N
;
_chemical_formula_sum "Si O2"
_cell_formula_units_Z 64
_cell_length_a 23.698896
_cell_length_b 8.903229
_cell_length_c 18.484293
_cell_angle_alpha 90.000000
_cell_angle_beta 90.000000
_cell_angle_gamma 90.000000
_cell_volume 3900.124790
_symmetry_space_group_name_H-M "P M M N"
_symmetry_group_IT_number 59
_space_group.IT_coordinate_system_code '2'
_symmetry_cell_setting 'orthorhombic'
loop_
_space_group_symop_operation_xyz
x,y,z
1/2-x,1/2-y,z
1/2+x,-y,-z
-x,1/2+y,-z
-x,-y,-z
1/2+x,1/2+y,-z
1/2-x,y,z
x,1/2-y,z
loop_
_atom_site_type_symbol
_atom_site_label
_atom_site_fract_x
_atom_site_fract_y
_atom_site_fract_z
Si Si1 0.314972 0.933072 0.226848
Si Si2 0.889272 0.429592 0.635962
Si Si3 0.681448 0.578688 0.080303
Si Si4 0.882764 0.571688 0.362807
Si Si5 0.816630 0.071259 0.230422
Si Si6 0.497231 0.570515 0.580509
Si Si7 0.683551 0.927332 0.510739
Si Si8 0.818659 0.423599 0.933344
O O1 0.250000 0.981839 0.239919
O O2 0.313708 0.750000 0.224822
O O3 0.356415 0.976787 0.291239
O O4 0.334027 0.981849 0.146571
O O5 0.897751 0.250000 0.637455
O O6 0.849812 0.474241 0.568550
O O7 0.948324 0.512100 0.623736
O O8 0.750000 0.577068 0.077462
O O9 0.663291 0.750000 0.090645
O O10 0.666064 0.480310 0.149899
O O11 0.661826 0.514716 0.003216
O O12 0.893138 0.750000 0.357422
O O13 0.853071 0.511181 0.290947
O O14 0.940602 0.487110 0.381162
O O15 0.841274 0.546370 0.431033
O O16 0.750000 0.032966 0.239517
O O17 0.822236 0.250000 0.237444
O O18 0.500000 0.500000 0.500000
O O19 0.497735 0.750000 0.574588
O O20 0.750000 0.958253 0.512854
O O21 0.674695 0.750000 0.527416
O O22 0.750000 0.424060 0.933374
O O23 0.836307 0.250000 0.940508
#
# Coordination Sequence:
#
# PCOD9449769 Si02
#       8
#     8   8   8   8   8   8   8   8
#     4   8  15  28  47  74 106 137 170 208 250 299
#     4  11  21  34  54  77 101 134 173 214 257 303
#     4   9  16  26  42  67 100 136 172 208 248 295
#     4  11  22  37  56  76 100 133 170 213 261 304
#     4  10  20  33  50  75 107 140 173 208 250 304
#     4  12  24  40  58  76  97 128 171 219 263 306
#     4  10  21  35  51  73 103 136 167 203 252 307
#     4   8  13  24  43  66  96 134 171 205 243 291
#
# _framework density 16.409731000000001
#
# number of rings (size 3 to 8) (size 9 to 14) (size 15 to 20)
#    0.000    2.125    1.250    4.125    0.000    4.000 
#    0.000    1.250    0.000    3.000    0.000    0.875 
#    0.000    0.000    0.000    0.000    0.000    0.000 
#
# Total GULP energy -357035.596597 kJ/mol
# GULP energy per Si atom -5578.681197 kJ/mol
# Density = 1.637238 g / cm^3
# Si number density = 16.409731 Si / 1000 Ang^3
#
#
#
# Elastic Constant Matrix: (Units=GPa)
#
#
# Indices 1 2 3 4 5 6 
#
# 1 61.7129 36.9413 35.2959 0.0000 0.0000 0.0000
# 2 36.9413 74.6751 46.9024 0.0000 0.0000 0.0000
# 3 35.2959 46.9024 121.2996 0.0000 0.0000 0.0000
# 4 0.0000 0.0000 0.0000 13.1058 0.0000 0.0000
# 5 0.0000 0.0000 0.0000 0.0000 0.1547 0.0000
# 6 0.0000 0.0000 0.0000 0.0000 0.0000 22.9281
#
#
#
# Elastic Compliance Matrix: (Units=1/GPa)
#
#
# Indices 1 2 3 4 5 6 
#
# 1 0.023897 -0.009845 -0.003147 0.000000 0.000000 0.000000
# 2 -0.009845 0.021743 -0.005542 0.000000 0.000000 0.000000
# 3 -0.003147 -0.005542 0.011303 0.000000 0.000000 0.000000
# 4 0.000000 0.000000 0.000000 0.076302 0.000000 0.000000
# 5 0.000000 0.000000 0.000000 0.000000 6.462180 0.000000
# 6 0.000000 0.000000 0.000000 0.000000 0.000000 0.043615
#
#
# Mechanical properties :
#
#
# Convention : Reuss Voigt Hill
#
# Bulk Modulus (GPa) = 50.31753 55.10741 52.71247
# Shear Modulus (GPa) = 0.74820 16.47425 8.61122
#
# Velocity S-wave (km/s) = 0.67597 3.17193 2.29326
# Velocity P-wave (km/s) = 5.59813 6.86075 6.26135
#
# Compressibility (1/GPa) = 0.01987379
#
# Stress axis : x y z
#
# Youngs Moduli (GPa) = 41.84580 45.99198 88.47383
#
# Poissons Ratio (x) = 0.45281 0.27841
# Poissons Ratio (y) = 0.41199 0.49036
# Poissons Ratio (z) = 0.13168 0.25491
#
# Static dielectric constant tensor:
#      x y z
#    x 1.527150 0.000000 0.000000 
#    y 0.000000 1.552990 0.000000 
#    z 0.000000 0.000000 1.549990 
# 
# From -- ./inp_files/28445.got.cif
#   From: 2010.05.17/outbox.cif.g08.bks.cpg/sg59_15_cif.got.tgz:28445.got - 2010.06.03 14:40:33.
