data_PCOD9449260
_publ_section_title
;
Structure prediction by ZEFSAII (Michael W. Deem and Ramdas Pophale) SiO2 
 PCOD9449260
Probable space group: P M M N
;
_chemical_formula_sum "Si O2"
_cell_formula_units_Z 56
_cell_length_a 20.079726
_cell_length_b 15.323768
_cell_length_c 8.430849
_cell_angle_alpha 90.000000
_cell_angle_beta 90.000000
_cell_angle_gamma 90.000000
_cell_volume 2594.147474
_symmetry_space_group_name_H-M "P M M N"
_symmetry_group_IT_number 59
_space_group.IT_coordinate_system_code '2'
_symmetry_cell_setting 'orthorhombic'
loop_
_space_group_symop_operation_xyz
x,y,z
1/2-x,1/2-y,z
1/2+x,-y,-z
-x,1/2+y,-z
-x,-y,-z
1/2+x,1/2+y,-z
1/2-x,y,z
x,1/2-y,z
loop_
_atom_site_type_symbol
_atom_site_label
_atom_site_fract_x
_atom_site_fract_y
_atom_site_fract_z
Si Si1 0.043059 0.937166 0.613686
Si Si2 0.945885 0.655306 0.828352
Si Si3 0.170854 0.154563 0.746452
Si Si4 0.174015 0.115004 0.387347
Si Si5 0.671573 0.348633 0.929587
Si Si6 0.175128 0.908438 0.422937
Si Si7 0.596295 0.515723 0.068572
O O1 0.111149 0.901124 0.535913
O O2 0.061672 0.993962 0.766486
O O3 0.997043 0.861797 0.685420
O O4 0.000000 0.000000 0.500000
O O5 0.958379 0.750000 0.901498
O O6 0.873766 0.652091 0.745644
O O7 0.947304 0.574204 0.949406
O O8 0.250000 0.157338 0.734900
O O9 0.145184 0.250000 0.793131
O O10 0.148662 0.134757 0.565678
O O11 0.153400 0.082302 0.874517
O O12 0.250000 0.145746 0.372424
O O13 0.174402 0.010297 0.372690
O O14 0.750000 0.363111 0.970163
O O15 0.653210 0.250000 0.980935
O O16 0.667351 0.354552 0.738400
O O17 0.626321 0.426476 0.997964
O O18 0.250000 0.891425 0.490869
#
# Coordination Sequence:
#
# PCOD9449260 Si02
#       7
#     8   8   8   8   8   8   8
#     4  12  24  44  67  95 126 175 227 277 331 392
#     4  12  26  42  62  97 137 177 219 271 336 413
#     4  10  20  34  58  95 134 173 217 267 323 392
#     4  10  19  38  66  97 132 173 219 267 321 393
#     4  10  22  41  67  99 133 172 223 285 349 406
#     4  10  20  40  70  98 127 167 222 277 340 401
#     4  12  23  41  64  90 132 180 223 272 338 404
#
# _framework density 21.587053999999998
#
# number of rings (size 3 to 8) (size 9 to 14) (size 15 to 20)
#    0.000    1.143    4.286    1.714    0.000    3.143 
#    0.000    0.714    0.000    1.714    0.000    0.000 
#    0.000    0.000    0.000    0.000    0.000    0.000 
#
# Total GULP energy -312796.191179 kJ/mol
# GULP energy per Si atom -5585.646271 kJ/mol
# Density = 2.153792 g / cm^3
# Si number density = 21.587054 Si / 1000 Ang^3
#
#
#
# Elastic Constant Matrix: (Units=GPa)
#
#
# Indices 1 2 3 4 5 6 
#
# 1 97.0802 29.8187 53.1913 0.0000 0.0000 0.0000
# 2 29.8187 145.4785 40.1224 0.0000 0.0000 0.0000
# 3 53.1913 40.1224 91.7697 0.0000 0.0000 0.0000
# 4 0.0000 0.0000 0.0000 4.6704 0.0000 0.0000
# 5 0.0000 0.0000 0.0000 0.0000 35.4802 0.0000
# 6 0.0000 0.0000 0.0000 0.0000 0.0000 23.1787
#
#
#
# Elastic Compliance Matrix: (Units=1/GPa)
#
#
# Indices 1 2 3 4 5 6 
#
# 1 0.015172 -0.000778 -0.008453 0.000000 0.000000 0.000000
# 2 -0.000778 0.007856 -0.002984 0.000000 0.000000 0.000000
# 3 -0.008453 -0.002984 0.017101 0.000000 0.000000 0.000000
# 4 0.000000 0.000000 0.000000 0.214113 0.000000 0.000000
# 5 0.000000 0.000000 0.000000 0.000000 0.028185 0.000000
# 6 0.000000 0.000000 0.000000 0.000000 0.000000 0.043143
#
#
# Mechanical properties :
#
#
# Convention : Reuss Voigt Hill
#
# Bulk Modulus (GPa) = 63.70206 64.51035 64.10621
# Shear Modulus (GPa) = 14.07526 26.74560 20.41043
#
# Velocity S-wave (km/s) = 2.55624 3.52371 3.07822
# Velocity P-wave (km/s) = 6.18756 6.81939 6.51115
#
# Compressibility (1/GPa) = 0.01569808
#
# Stress axis : x y z
#
# Youngs Moduli (GPa) = 65.91290 127.28650 58.47575
#
# Poissons Ratio (x) = 0.09907 0.49432
# Poissons Ratio (y) = 0.05130 0.17448
# Poissons Ratio (z) = 0.55719 0.37979
#
# Static dielectric constant tensor:
#      x y z
#    x 1.819160 0.000000 0.000000 
#    y 0.000000 1.819030 0.000000 
#    z 0.000000 0.000000 1.779460 
# 
# From -- ./inp_files/11458.got.cif
#   From: 2010.05.17/outbox.cif.g08.bks.cpg/sg59_6_cif.got.tgz:11458.got - 2010.06.03 14:40:33.
