data_PCOD9449861
_publ_section_title
;
Structure prediction by ZEFSAII (Michael W. Deem and Ramdas Pophale) SiO2 
 PCOD9449861
Probable space group: P M M N
;
_chemical_formula_sum "Si O2"
_cell_formula_units_Z 40
_cell_length_a 9.436948
_cell_length_b 7.667405
_cell_length_c 26.683414
_cell_angle_alpha 90.000000
_cell_angle_beta 90.000000
_cell_angle_gamma 90.000000
_cell_volume 1930.729179
_symmetry_space_group_name_H-M "P M M N"
_symmetry_group_IT_number 59
_space_group.IT_coordinate_system_code '2'
_symmetry_cell_setting 'orthorhombic'
loop_
_space_group_symop_operation_xyz
x,y,z
1/2-x,1/2-y,z
1/2+x,-y,-z
-x,1/2+y,-z
-x,-y,-z
1/2+x,1/2+y,-z
1/2-x,y,z
x,1/2-y,z
loop_
_atom_site_type_symbol
_atom_site_label
_atom_site_fract_x
_atom_site_fract_y
_atom_site_fract_z
Si Si1 0.913856 0.460449 0.340643
Si Si2 0.588205 0.459551 0.950211
Si Si3 0.413451 0.463832 0.852994
Si Si4 0.910016 0.457451 0.757308
Si Si5 0.910252 0.459161 0.451260
O O1 0.750000 0.517633 0.333176
O O2 0.912623 0.250000 0.340443
O O3 0.961318 0.519840 0.396303
O O4 0.014032 0.516379 0.295743
O O5 0.750000 0.525874 0.952485
O O6 0.596192 0.250000 0.946123
O O7 0.502661 0.521448 0.901380
O O8 0.500000 0.500000 0.000000
O O9 0.250000 0.520012 0.855019
O O10 0.411951 0.250000 0.853023
O O11 0.491895 0.524042 0.802504
O O12 0.750000 0.528781 0.758087
O O13 0.899489 0.250000 0.765291
O O14 0.750000 0.524928 0.457676
O O15 0.904250 0.250000 0.448043
O O16 0.000000 0.500000 0.500000
#
# Coordination Sequence:
#
# PCOD9449861 Si02
#       5
#     8   8   8   8   8
#     4   9  19  36  54  72  99 135 170 205 249 299
#     4  10  20  34  53  77 105 136 170 210 255 301
#     4   9  17  31  52  75 100 133 170 207 250 299
#     4  10  20  33  51  77 105 131 164 207 251 297
#     4   9  19  35  53  74 101 132 167 207 250 297
#
# _framework density 20.717561
#
# number of rings (size 3 to 8) (size 9 to 14) (size 15 to 20)
#    0.000    2.600    0.000    3.000    0.000    7.200 
#    0.000    7.000    0.000    6.000    0.000    0.000 
#    0.000    0.000    0.000    0.000    0.000    0.000 
#
# Total GULP energy -223280.404341 kJ/mol
# GULP energy per Si atom -5582.010109 kJ/mol
# Density = 2.067041 g / cm^3
# Si number density = 20.717561 Si / 1000 Ang^3
#
#
#
# Elastic Constant Matrix: (Units=GPa)
#
#
# Indices 1 2 3 4 5 6 
#
# 1 195.9580 7.4355 142.5583 0.0000 0.0000 0.0000
# 2 7.4355 33.5857 0.0370 0.0000 0.0000 0.0000
# 3 142.5583 0.0370 228.8287 0.0000 0.0000 0.0000
# 4 0.0000 0.0000 0.0000 26.5226 0.0000 0.0000
# 5 0.0000 0.0000 0.0000 0.0000 42.4791 0.0000
# 6 0.0000 0.0000 0.0000 0.0000 0.0000 17.5386
#
#
#
# Elastic Compliance Matrix: (Units=1/GPa)
#
#
# Indices 1 2 3 4 5 6 
#
# 1 0.009478 -0.002092 -0.005904 0.000000 0.000000 0.000000
# 2 -0.002092 0.030236 0.001298 0.000000 0.000000 0.000000
# 3 -0.005904 0.001298 0.008048 0.000000 0.000000 0.000000
# 4 0.000000 0.000000 0.000000 0.037704 0.000000 0.000000
# 5 0.000000 0.000000 0.000000 0.000000 0.023541 0.000000
# 6 0.000000 0.000000 0.000000 0.000000 0.000000 0.057017
#
#
# Mechanical properties :
#
#
# Convention : Reuss Voigt Hill
#
# Bulk Modulus (GPa) = 29.09793 84.27046 56.68419
# Shear Modulus (GPa) = 26.19514 37.86416 32.02965
#
# Velocity S-wave (km/s) = 3.55969 4.27972 3.93620
# Velocity P-wave (km/s) = 5.56513 8.07376 6.93384
#
# Compressibility (1/GPa) = 0.03436670
#
# Stress axis : x y z
#
# Youngs Moduli (GPa) = 105.50943 33.07289 124.25169
#
# Poissons Ratio (x) = 0.06918 0.73362
# Poissons Ratio (y) = 0.22070 -0.16131
# Poissons Ratio (z) = 0.62296 -0.04294
#
# Static dielectric constant tensor:
#      x y z
#    x 1.720900 0.000000 0.000000 
#    y 0.000000 1.787730 0.000000 
#    z 0.000000 0.000000 1.718210 
# 
# From -- ./inp_files/25265.got.cif
#   From: 2010.05.17/outbox.cif.g08.bks.cpg/sg59_13_cif.got.tgz:25265.got - 2010.06.03 14:40:33.
