data_PCOD9449370
_publ_section_title
;
Structure prediction by ZEFSAII (Michael W. Deem and Ramdas Pophale) SiO2 
 PCOD9449370
Probable space group: P M M N
;
_chemical_formula_sum "Si O2"
_cell_formula_units_Z 64
_cell_length_a 13.643015
_cell_length_b 15.620442
_cell_length_c 17.167836
_cell_angle_alpha 90.000000
_cell_angle_beta 90.000000
_cell_angle_gamma 90.000000
_cell_volume 3658.636234
_symmetry_space_group_name_H-M "P M M N"
_symmetry_group_IT_number 59
_space_group.IT_coordinate_system_code '2'
_symmetry_cell_setting 'orthorhombic'
loop_
_space_group_symop_operation_xyz
x,y,z
1/2-x,1/2-y,z
1/2+x,-y,-z
-x,1/2+y,-z
-x,-y,-z
1/2+x,1/2+y,-z
1/2-x,y,z
x,1/2-y,z
loop_
_atom_site_type_symbol
_atom_site_label
_atom_site_fract_x
_atom_site_fract_y
_atom_site_fract_z
Si Si1 0.634413 0.849333 0.297775
Si Si2 0.007212 0.902594 0.179226
Si Si3 0.869455 0.978785 0.608327
Si Si4 0.634958 0.555876 0.887360
Si Si5 0.867360 0.156036 0.680726
Si Si6 0.637783 0.652745 0.046362
Si Si7 0.131000 0.345953 0.519700
Si Si8 0.132459 0.343533 0.263430
O O1 0.750000 0.859692 0.288455
O O2 0.611231 0.750000 0.274394
O O3 0.576036 0.915965 0.245153
O O4 0.610849 0.856913 0.388970
O O5 0.087182 0.854732 0.233092
O O6 0.945046 0.856796 0.111652
O O7 0.063044 0.981027 0.139500
O O8 0.750000 0.979953 0.605579
O O9 0.903615 0.924960 0.533213
O O10 0.901218 0.920822 0.681951
O O11 0.898094 0.076400 0.626275
O O12 0.750000 0.530595 0.877985
O O13 0.617160 0.632522 0.826234
O O14 0.620979 0.588256 0.974978
O O15 0.750000 0.152180 0.687328
O O16 0.894807 0.250000 0.649913
O O17 0.750000 0.638751 0.076535
O O18 0.635569 0.750000 0.016231
O O19 0.250000 0.344263 0.512617
O O20 0.097667 0.250000 0.495121
O O21 0.250000 0.339979 0.275276
O O22 0.092334 0.250000 0.283315
#
# Coordination Sequence:
#
# PCOD9449370 Si02
#       8
#     8   8   8   8   8   8   8   8
#     4   9  18  32  50  74 102 131 166 209 256 302
#     4  12  20  32  51  73 100 134 169 200 244 297
#     4   9  15  26  44  69  97 128 168 209 248 300
#     4  10  20  34  50  73 104 131 161 204 249 299
#     4  10  20  32  46  67  99 140 178 207 241 292
#     4  10  21  36  54  76  99 126 163 208 259 308
#     4   8  14  26  46  72 100 128 160 206 261 305
#     4   9  15  25  45  70  96 128 160 197 251 305
#
# _framework density 17.492857000000001
#
# number of rings (size 3 to 8) (size 9 to 14) (size 15 to 20)
#    0.000    2.375    1.250    3.750    0.000    4.000 
#    0.000    0.625    0.000    0.000    0.000    0.875 
#    0.000    7.000    0.000    0.000    0.000    0.000 
#
# Total GULP energy -356422.592483 kJ/mol
# GULP energy per Si atom -5569.103008 kJ/mol
# Density = 1.745304 g / cm^3
# Si number density = 17.492857 Si / 1000 Ang^3
#
#
#
# Elastic Constant Matrix: (Units=GPa)
#
#
# Indices 1 2 3 4 5 6 
#
# 1 64.5026 35.9986 24.5242 0.0000 0.0000 0.0000
# 2 35.9986 129.7593 53.3073 0.0000 0.0000 0.0000
# 3 24.5242 53.3073 85.5594 0.0000 0.0000 0.0000
# 4 0.0000 0.0000 0.0000 13.7818 0.0000 0.0000
# 5 0.0000 0.0000 0.0000 0.0000 12.3577 0.0000
# 6 0.0000 0.0000 0.0000 0.0000 0.0000 13.6997
#
#
#
# Elastic Compliance Matrix: (Units=1/GPa)
#
#
# Indices 1 2 3 4 5 6 
#
# 1 0.018858 -0.004047 -0.002884 0.000000 0.000000 0.000000
# 2 -0.004047 0.011226 -0.005834 0.000000 0.000000 0.000000
# 3 -0.002884 -0.005834 0.016150 0.000000 0.000000 0.000000
# 4 0.000000 0.000000 0.000000 0.072560 0.000000 0.000000
# 5 0.000000 0.000000 0.000000 0.000000 0.080921 0.000000
# 6 0.000000 0.000000 0.000000 0.000000 0.000000 0.072994
#
#
# Mechanical properties :
#
#
# Convention : Reuss Voigt Hill
#
# Bulk Modulus (GPa) = 48.30150 56.38685 52.34417
# Shear Modulus (GPa) = 16.38586 19.03392 17.70989
#
# Velocity S-wave (km/s) = 3.06390 3.30221 3.18529
# Velocity P-wave (km/s) = 6.33946 6.84424 6.59668
#
# Compressibility (1/GPa) = 0.02070329
#
# Stress axis : x y z
#
# Youngs Moduli (GPa) = 53.02684 89.07744 61.92133
#
# Poissons Ratio (x) = 0.36050 0.17858
# Poissons Ratio (y) = 0.21460 0.36127
# Poissons Ratio (z) = 0.15293 0.51971
#
# Static dielectric constant tensor:
#      x y z
#    x 1.614820 0.000000 0.000000 
#    y 0.000000 1.620030 0.000000 
#    z 0.000000 0.000000 1.607400 
# 
# From -- ./inp_files/27725.got.cif
#   From: 2010.05.17/outbox.cif.g08.bks.cpg/sg59_14_cif.got.tgz:27725.got - 2010.06.03 14:40:33.
