data_PCOD9449830
_publ_section_title
;
Structure prediction by ZEFSAII (Michael W. Deem and Ramdas Pophale) SiO2 
 PCOD9449830
Probable space group: P M M N
;
_chemical_formula_sum "Si O2"
_cell_formula_units_Z 64
_cell_length_a 22.086411
_cell_length_b 7.587104
_cell_length_c 17.313688
_cell_angle_alpha 90.000000
_cell_angle_beta 90.000000
_cell_angle_gamma 90.000000
_cell_volume 2901.287546
_symmetry_space_group_name_H-M "P M M N"
_symmetry_group_IT_number 59
_space_group.IT_coordinate_system_code '2'
_symmetry_cell_setting 'orthorhombic'
loop_
_space_group_symop_operation_xyz
x,y,z
1/2-x,1/2-y,z
1/2+x,-y,-z
-x,1/2+y,-z
-x,-y,-z
1/2+x,1/2+y,-z
1/2-x,y,z
x,1/2-y,z
loop_
_atom_site_type_symbol
_atom_site_label
_atom_site_fract_x
_atom_site_fract_y
_atom_site_fract_z
Si Si1 0.568834 0.538406 0.910067
Si Si2 0.611869 0.036516 0.651297
Si Si3 0.362109 0.046374 0.653107
Si Si4 0.434304 0.461554 0.913085
Si Si5 0.488194 0.037845 0.590693
Si Si6 0.315721 0.960238 0.493520
Si Si7 0.319172 0.457899 0.192767
Si Si8 0.682497 0.533914 0.182940
O O1 0.574172 0.750000 0.911931
O O2 0.500977 0.501385 0.878853
O O3 0.626945 0.470015 0.862518
O O4 0.568483 0.471930 0.998525
O O5 0.614316 0.250000 0.652495
O O6 0.542211 0.980211 0.647522
O O7 0.636682 0.975024 0.568470
O O8 0.653429 0.975762 0.721314
O O9 0.375057 0.250000 0.672467
O O10 0.425010 0.965862 0.622876
O O11 0.330770 0.974194 0.729324
O O12 0.320946 0.039908 0.577664
O O13 0.430442 0.250000 0.915625
O O14 0.375323 0.524235 0.866983
O O15 0.486334 0.250000 0.593958
O O16 0.500000 0.000000 0.500000
O O17 0.250000 0.993908 0.459318
O O18 0.323068 0.750000 0.502620
O O19 0.250000 0.529388 0.186778
O O20 0.314524 0.250000 0.175573
O O21 0.750000 0.477140 0.158367
O O22 0.683578 0.750000 0.180584
#
# Coordination Sequence:
#
# PCOD9449830 Si02
#       8
#     8   8   8   8   8   8   8   8
#     4   9  19  36  56  82 112 141 173 215 265 313
#     4  10  21  36  54  76 104 138 177 222 268 316
#     4  10  20  33  51  76 104 133 170 217 264 309
#     4   9  18  34  59  84 108 141 179 214 256 315
#     4  10  20  34  53  76 101 132 174 222 269 317
#     4  10  20  34  51  70  97 136 177 215 259 312
#     4  10  22  38  55  79 111 144 180 223 269 320
#     4   9  18  32  52  80 109 136 173 219 261 305
#
# _framework density 22.059170999999999
#
# number of rings (size 3 to 8) (size 9 to 14) (size 15 to 20)
#    0.000    2.375    1.250    0.750    1.750    3.500 
#    0.000    3.125    0.000    1.125    0.000    3.500 
#    0.000    0.000    0.000    0.000    0.000    0.000 
#
# Total GULP energy -356998.359330 kJ/mol
# GULP energy per Si atom -5578.099365 kJ/mol
# Density = 2.200896 g / cm^3
# Si number density = 22.059171 Si / 1000 Ang^3
#
#
#
# Elastic Constant Matrix: (Units=GPa)
#
#
# Indices 1 2 3 4 5 6 
#
# 1 204.4393 9.1020 69.1311 0.0000 0.0000 0.0000
# 2 9.1020 44.8986 -4.8564 0.0000 0.0000 0.0000
# 3 69.1311 -4.8564 84.0882 0.0000 0.0000 0.0000
# 4 0.0000 0.0000 0.0000 -70.0635 0.0000 0.0000
# 5 0.0000 0.0000 0.0000 0.0000 27.7678 0.0000
# 6 0.0000 0.0000 0.0000 0.0000 0.0000 18.1021
#
#
#
# Elastic Compliance Matrix: (Units=1/GPa)
#
#
# Indices 1 2 3 4 5 6 
#
# 1 0.006956 -0.002041 -0.005837 0.000000 0.000000 0.000000
# 2 -0.002041 0.023012 0.003007 0.000000 0.000000 0.000000
# 3 -0.005837 0.003007 0.016864 0.000000 0.000000 0.000000
# 4 0.000000 0.000000 0.000000 -0.014273 0.000000 0.000000
# 5 0.000000 0.000000 0.000000 0.000000 0.036013 0.000000
# 6 0.000000 0.000000 0.000000 0.000000 0.000000 0.055242
#
#
# Mechanical properties :
#
#
# Convention : Reuss Voigt Hill
#
# Bulk Modulus (GPa) = 26.96113 53.35328 40.15721
# Shear Modulus (GPa) = 34.26562 12.49792 23.38177
#
# Velocity S-wave (km/s) = 3.94553 2.38284 3.25923
# Velocity P-wave (km/s) = 5.74500 5.63999 5.69274
#
# Compressibility (1/GPa) = 0.03709043
#
# Stress axis : x y z
#
# Youngs Moduli (GPa) = 143.76185 43.45650 59.29671
#
# Poissons Ratio (x) = 0.08871 0.34609
# Poissons Ratio (y) = 0.29348 -0.17832
# Poissons Ratio (z) = 0.83908 -0.13069
#
# Static dielectric constant tensor:
#      x y z
#    x 1.830170 0.000000 0.000000 
#    y 0.000000 1.851200 0.000000 
#    z 0.000000 0.000000 1.782120 
# 
# From -- ./inp_files/28281.got.cif
#   From: 2010.05.17/outbox.cif.g08.bks.cpg/sg59_15_cif.got.tgz:28281.got - 2010.06.03 14:40:33.
