data_PCOD9449495
_publ_section_title
;
Structure prediction by ZEFSAII (Michael W. Deem and Ramdas Pophale) SiO2 
 PCOD9449495
Probable space group: P M M N
;
_chemical_formula_sum "Si O2"
_cell_formula_units_Z 64
_cell_length_a 20.368757
_cell_length_b 7.701716
_cell_length_c 19.843006
_cell_angle_alpha 90.000000
_cell_angle_beta 90.000000
_cell_angle_gamma 90.000000
_cell_volume 3112.859297
_symmetry_space_group_name_H-M "P M M N"
_symmetry_group_IT_number 59
_space_group.IT_coordinate_system_code '2'
_symmetry_cell_setting 'orthorhombic'
loop_
_space_group_symop_operation_xyz
x,y,z
1/2-x,1/2-y,z
1/2+x,-y,-z
-x,1/2+y,-z
-x,-y,-z
1/2+x,1/2+y,-z
1/2-x,y,z
x,1/2-y,z
loop_
_atom_site_type_symbol
_atom_site_label
_atom_site_fract_x
_atom_site_fract_y
_atom_site_fract_z
Si Si1 0.537971 0.458078 0.205968
Si Si2 0.674612 0.538257 0.415951
Si Si3 0.928437 0.958682 0.527245
Si Si4 0.679600 0.458228 0.908461
Si Si5 0.675078 0.959406 0.262033
Si Si6 0.467758 0.047493 0.070454
Si Si7 0.550427 0.948171 0.675112
Si Si8 0.178213 0.959197 0.249656
O O1 0.527380 0.250000 0.207669
O O2 0.615817 0.488090 0.212972
O O3 0.502258 0.529179 0.138268
O O4 0.502798 0.529223 0.273954
O O5 0.750000 0.489936 0.430357
O O6 0.671741 0.750000 0.415077
O O7 0.625300 0.475314 0.473743
O O8 0.659438 0.481997 0.339067
O O9 0.917893 0.750000 0.530868
O O10 0.931242 0.029657 0.603361
O O11 0.000000 0.000000 0.500000
O O12 0.750000 0.523259 0.936131
O O13 0.681012 0.250000 0.913255
O O14 0.609768 0.514202 0.935895
O O15 0.677937 0.502994 0.829304
O O16 0.750000 0.017428 0.245798
O O17 0.676536 0.750000 0.262769
O O18 0.477062 0.250000 0.078679
O O19 0.500000 0.000000 0.000000
O O20 0.528545 0.750000 0.661163
O O21 0.618062 0.949259 0.715752
O O22 0.250000 0.005283 0.277532
O O23 0.170535 0.750000 0.255037
#
# Coordination Sequence:
#
# PCOD9449495 Si02
#       8
#     8   8   8   8   8   8   8   8
#     4  10  21  36  53  77 109 139 170 216 271 323
#     4   8  15  30  50  72 100 135 177 219 259 308
#     4  10  20  32  49  72 101 137 176 219 267 319
#     4   9  18  35  59  85 113 145 182 221 263 317
#     4   9  18  33  55  80 102 131 177 227 268 315
#     4  11  23  39  59  84 115 149 184 223 272 328
#     4  10  20  33  49  75 107 139 179 224 268 320
#     4   9  18  32  51  77 107 139 176 217 261 312
#
# _framework density 20.559875000000002
#
# number of rings (size 3 to 8) (size 9 to 14) (size 15 to 20)
#    0.000    2.500    1.250    2.625    0.000    3.250 
#    0.000    3.125    0.000    1.875    0.000    0.000 
#    0.000    0.000    0.000    0.000    0.000    0.000 
#
# Total GULP energy -356753.849867 kJ/mol
# GULP energy per Si atom -5574.278904 kJ/mol
# Density = 2.051308 g / cm^3
# Si number density = 20.559875 Si / 1000 Ang^3
#
#
#
# Elastic Constant Matrix: (Units=GPa)
#
#
# Indices 1 2 3 4 5 6 
#
# 1 141.4727 -0.7505 69.7335 0.0000 0.0000 0.0000
# 2 -0.7505 28.2705 7.2054 0.0000 0.0000 0.0000
# 3 69.7335 7.2054 77.5755 0.0000 0.0000 0.0000
# 4 0.0000 0.0000 0.0000 3.9065 0.0000 0.0000
# 5 0.0000 0.0000 0.0000 0.0000 32.1295 0.0000
# 6 0.0000 0.0000 0.0000 0.0000 0.0000 27.0054
#
#
#
# Elastic Compliance Matrix: (Units=1/GPa)
#
#
# Indices 1 2 3 4 5 6 
#
# 1 0.013005 0.003405 -0.012006 0.000000 0.000000 0.000000
# 2 0.003405 0.037122 -0.006509 0.000000 0.000000 0.000000
# 3 -0.012006 -0.006509 0.024288 0.000000 0.000000 0.000000
# 4 0.000000 0.000000 0.000000 0.255983 0.000000 0.000000
# 5 0.000000 0.000000 0.000000 0.000000 0.031124 0.000000
# 6 0.000000 0.000000 0.000000 0.000000 0.000000 0.037030
#
#
# Mechanical properties :
#
#
# Convention : Reuss Voigt Hill
#
# Bulk Modulus (GPa) = 22.62733 44.41061 33.51897
# Shear Modulus (GPa) = 11.27390 24.01698 17.64544
#
# Velocity S-wave (km/s) = 2.34422 3.42153 2.93276
# Velocity P-wave (km/s) = 4.28446 6.10382 5.27320
#
# Compressibility (1/GPa) = 0.04419435
#
# Stress axis : x y z
#
# Youngs Moduli (GPa) = 76.89594 26.93821 41.17293
#
# Poissons Ratio (x) = -0.09173 0.49433
# Poissons Ratio (y) = -0.26186 0.26800
# Poissons Ratio (z) = 0.92323 0.17534
#
# Static dielectric constant tensor:
#      x y z
#    x 1.746920 0.000000 0.000000 
#    y 0.000000 1.783650 0.000000 
#    z 0.000000 0.000000 1.782510 
# 
# From -- ./inp_files/28155.got.cif
#   From: 2010.05.17/outbox.cif.g08.bks.cpg/sg59_15_cif.got.tgz:28155.got - 2010.06.03 14:40:33.
