data_PCOD9449922
_publ_section_title
;
Structure prediction by ZEFSAII (Michael W. Deem and Ramdas Pophale) SiO2 
 PCOD9449922
Probable space group: P M M N
;
_chemical_formula_sum "Si O2"
_cell_formula_units_Z 64
_cell_length_a 7.585097
_cell_length_b 24.496127
_cell_length_c 16.905983
_cell_angle_alpha 90.000000
_cell_angle_beta 90.000000
_cell_angle_gamma 90.000000
_cell_volume 3141.224614
_symmetry_space_group_name_H-M "P M M N"
_symmetry_group_IT_number 59
_space_group.IT_coordinate_system_code '2'
_symmetry_cell_setting 'orthorhombic'
loop_
_space_group_symop_operation_xyz
x,y,z
1/2-x,1/2-y,z
1/2+x,-y,-z
-x,1/2+y,-z
-x,-y,-z
1/2+x,1/2+y,-z
1/2-x,y,z
x,1/2-y,z
loop_
_atom_site_type_symbol
_atom_site_label
_atom_site_fract_x
_atom_site_fract_y
_atom_site_fract_z
Si Si1 0.533647 0.892788 0.949254
Si Si2 0.960445 0.406749 0.288112
Si Si3 0.452004 0.011012 0.148551
Si Si4 0.963398 0.689639 0.079619
Si Si5 0.458816 0.509244 0.591038
Si Si6 0.460262 0.311074 0.189211
Si Si7 0.041548 0.573523 0.270560
Si Si8 0.454790 0.808784 0.263057
O O1 0.750000 0.895113 0.948636
O O2 0.471035 0.953353 0.923973
O O3 0.475170 0.849858 0.881606
O O4 0.479018 0.862943 0.029632
O O5 0.750000 0.412856 0.279121
O O6 0.016087 0.432732 0.371430
O O7 0.047263 0.444249 0.219925
O O8 0.005633 0.344654 0.269176
O O9 0.250000 0.997677 0.127986
O O10 0.533265 0.958575 0.193311
O O11 0.750000 0.687882 0.083949
O O12 0.007597 0.750000 0.044280
O O13 0.037089 0.688873 0.167706
O O14 0.500000 0.500000 0.500000
O O15 0.250000 0.507035 0.598205
O O16 0.527533 0.463875 0.652004
O O17 0.250000 0.307707 0.178383
O O18 0.531794 0.250000 0.188249
O O19 0.250000 0.580213 0.254104
O O20 0.965312 0.633282 0.287344
O O21 0.250000 0.807853 0.288260
O O22 0.533667 0.750000 0.286416
#
# Coordination Sequence:
#
# PCOD9449922 Si02
#       8
#     8   8   8   8   8   8   8   8
#     4   8  13  23  40  61  85 114 153 198 236 270
#     4   9  17  28  42  64  93 119 144 178 219 260
#     4   8  14  26  44  63  84 115 152 188 228 275
#     4   9  16  26  41  60  83 115 156 200 240 276
#     4  10  20  33  52  77 100 119 141 174 217 266
#     4   9  16  26  42  63  87 121 162 194 221 260
#     4   9  17  31  51  71  92 120 154 189 227 276
#     4   9  18  32  48  66  90 121 156 194 236 280
#
# _framework density 20.374220000000001
#
# number of rings (size 3 to 8) (size 9 to 14) (size 15 to 20)
#    0.000    3.125    0.000    1.875    0.000    3.750 
#    0.000    3.125    0.000    3.750    0.000    1.750 
#    0.000    0.000    0.000    0.000    0.000    0.000 
#
# Total GULP energy -356397.837553 kJ/mol
# GULP energy per Si atom -5568.716212 kJ/mol
# Density = 2.032785 g / cm^3
# Si number density = 20.374220 Si / 1000 Ang^3
#
#
#
# Elastic Constant Matrix: (Units=GPa)
#
#
# Indices 1 2 3 4 5 6 
#
# 1 48.8054 0.6359 -9.8228 0.0000 0.0000 0.0000
# 2 0.6359 115.2255 15.1436 0.0000 0.0000 0.0000
# 3 -9.8228 15.1436 32.4490 0.0000 0.0000 0.0000
# 4 0.0000 0.0000 0.0000 18.7226 0.0000 0.0000
# 5 0.0000 0.0000 0.0000 0.0000 14.0313 0.0000
# 6 0.0000 0.0000 0.0000 0.0000 0.0000 3.0412
#
#
#
# Elastic Compliance Matrix: (Units=1/GPa)
#
#
# Indices 1 2 3 4 5 6 
#
# 1 0.021939 -0.001059 0.007136 0.000000 0.000000 0.000000
# 2 -0.001059 0.009297 -0.004659 0.000000 0.000000 0.000000
# 3 0.007136 -0.004659 0.035152 0.000000 0.000000 0.000000
# 4 0.000000 0.000000 0.000000 0.053411 0.000000 0.000000
# 5 0.000000 0.000000 0.000000 0.000000 0.071269 0.000000
# 6 0.000000 0.000000 0.000000 0.000000 0.000000 0.328822
#
#
# Mechanical properties :
#
#
# Convention : Reuss Voigt Hill
#
# Bulk Modulus (GPa) = 14.44601 23.15479 18.80040
# Shear Modulus (GPa) = 9.25703 19.86056 14.55879
#
# Velocity S-wave (km/s) = 2.13386 3.12555 2.67604
# Velocity P-wave (km/s) = 3.63000 4.94114 4.33542
#
# Compressibility (1/GPa) = 0.06922328
#
# Stress axis : x y z
#
# Youngs Moduli (GPa) = 45.57994 107.56354 28.44782
#
# Poissons Ratio (x) = 0.11390 -0.20299
# Poissons Ratio (y) = 0.04826 0.13255
# Poissons Ratio (z) = -0.32524 0.50117
#
# Static dielectric constant tensor:
#      x y z
#    x 1.749540 0.000000 0.000000 
#    y 0.000000 1.811210 0.000000 
#    z 0.000000 0.000000 1.672180 
# 
# From -- ./inp_files/26537.got.cif
#   From: 2010.05.17/outbox.cif.g08.bks.cpg/sg59_14_cif.got.tgz:26537.got - 2010.06.03 14:40:33.
