data_PCOD9449056
_publ_section_title
;
Structure prediction by ZEFSAII (Michael W. Deem and Ramdas Pophale) SiO2 
 PCOD9449056
Probable space group: P M M N
;
_chemical_formula_sum "Si O2"
_cell_formula_units_Z 64
_cell_length_a 8.514564
_cell_length_b 20.676260
_cell_length_c 20.591368
_cell_angle_alpha 90.000000
_cell_angle_beta 90.000000
_cell_angle_gamma 90.000000
_cell_volume 3625.096727
_symmetry_space_group_name_H-M "P M M N"
_symmetry_group_IT_number 59
_space_group.IT_coordinate_system_code '2'
_symmetry_cell_setting 'orthorhombic'
loop_
_space_group_symop_operation_xyz
x,y,z
1/2-x,1/2-y,z
1/2+x,-y,-z
-x,1/2+y,-z
-x,-y,-z
1/2+x,1/2+y,-z
1/2-x,y,z
x,1/2-y,z
loop_
_atom_site_type_symbol
_atom_site_label
_atom_site_fract_x
_atom_site_fract_y
_atom_site_fract_z
Si Si1 0.563314 0.435904 0.688710
Si Si2 0.938099 0.675842 0.404345
Si Si3 0.557884 0.177508 0.069085
Si Si4 0.560157 0.175800 0.450696
Si Si5 0.561791 0.433143 0.969704
Si Si6 0.561998 0.544714 0.169946
Si Si7 0.059661 0.603814 0.805754
Si Si8 0.059547 0.578673 0.662220
O O1 0.750000 0.439424 0.689937
O O2 0.508717 0.377019 0.643758
O O3 0.500686 0.427649 0.762223
O O4 0.498219 0.504696 0.662317
O O5 0.750000 0.672816 0.400890
O O6 0.987224 0.750000 0.389054
O O7 0.991644 0.662629 0.478164
O O8 0.750000 0.177028 0.069531
O O9 0.506149 0.250000 0.054896
O O10 0.505122 0.154276 0.140466
O O11 0.508091 0.125520 0.015615
O O12 0.750000 0.173054 0.454538
O O13 0.517925 0.250000 0.432611
O O14 0.508243 0.123286 0.397598
O O15 0.750000 0.435085 0.970781
O O16 0.504586 0.425809 0.895962
O O17 0.500000 0.500000 0.000000
O O18 0.750000 0.548786 0.169644
O O19 0.518261 0.468458 0.170854
O O20 0.250000 0.607098 0.804712
O O21 0.007604 0.609371 0.731252
O O22 0.250000 0.576899 0.662065
#
# Coordination Sequence:
#
# PCOD9449056 Si02
#       8
#     8   8   8   8   8   8   8   8
#     4  11  22  36  56  83 111 141 176 222 275 329
#     4  10  21  38  59  80 104 140 183 227 279 334
#     4   9  17  29  47  75 108 138 176 223 265 310
#     4   9  18  33  53  79 110 145 187 231 272 321
#     4  11  20  32  53  80 105 140 183 223 271 323
#     4  10  19  35  56  79 105 136 177 225 268 318
#     4   8  14  27  47  72 100 134 173 212 260 309
#     4   9  18  32  52  79 113 147 180 222 268 317
#
# _framework density 17.654700999999999
#
# number of rings (size 3 to 8) (size 9 to 14) (size 15 to 20)
#    0.000    2.375    1.250    3.000    0.000    2.250 
#    0.000    3.125    0.000    3.750    0.000    0.000 
#    0.000    0.000    0.000    0.000    0.000    0.000 
#
# Total GULP energy -356977.154196 kJ/mol
# GULP energy per Si atom -5577.768034 kJ/mol
# Density = 1.761452 g / cm^3
# Si number density = 17.654701 Si / 1000 Ang^3
#
#
#
# Elastic Constant Matrix: (Units=GPa)
#
#
# Indices 1 2 3 4 5 6 
#
# 1 35.9091 29.9926 33.3303 0.0000 0.0000 0.0000
# 2 29.9926 135.6081 109.9149 0.0000 0.0000 0.0000
# 3 33.3303 109.9149 148.2499 0.0000 0.0000 0.0000
# 4 0.0000 0.0000 0.0000 31.4740 0.0000 0.0000
# 5 0.0000 0.0000 0.0000 0.0000 27.2156 0.0000
# 6 0.0000 0.0000 0.0000 0.0000 0.0000 16.0205
#
#
#
# Elastic Compliance Matrix: (Units=1/GPa)
#
#
# Indices 1 2 3 4 5 6 
#
# 1 0.035842 -0.003498 -0.005465 0.000000 0.000000 0.000000
# 2 -0.003498 0.018820 -0.013167 0.000000 0.000000 0.000000
# 3 -0.005465 -0.013167 0.017737 0.000000 0.000000 0.000000
# 4 0.000000 0.000000 0.000000 0.031772 0.000000 0.000000
# 5 0.000000 0.000000 0.000000 0.000000 0.036744 0.000000
# 6 0.000000 0.000000 0.000000 0.000000 0.000000 0.062420
#
#
# Mechanical properties :
#
#
# Convention : Reuss Voigt Hill
#
# Bulk Modulus (GPa) = 35.53804 74.02697 54.78251
# Shear Modulus (GPa) = 19.45720 24.71064 22.08392
#
# Velocity S-wave (km/s) = 3.32339 3.74527 3.54062
# Velocity P-wave (km/s) = 5.90760 7.79257 6.91462
#
# Compressibility (1/GPa) = 0.02813886
#
# Stress axis : x y z
#
# Youngs Moduli (GPa) = 27.90029 53.13390 56.38080
#
# Poissons Ratio (x) = 0.18585 0.30812
# Poissons Ratio (y) = 0.09759 0.74239
# Poissons Ratio (z) = 0.15247 0.69963
#
# Static dielectric constant tensor:
#      x y z
#    x 1.607110 0.000000 0.000000 
#    y 0.000000 1.586940 0.000000 
#    z 0.000000 0.000000 1.595160 
# 
# From -- ./inp_files/26199.got.cif
#   From: 2010.05.17/outbox.cif.g08.bks.cpg/sg59_14_cif.got.tgz:26199.got - 2010.06.03 14:40:33.
