data_PCOD9449575
_publ_section_title
;
Structure prediction by ZEFSAII (Michael W. Deem and Ramdas Pophale) SiO2 
 PCOD9449575
Probable space group: P M M N
;
_chemical_formula_sum "Si O2"
_cell_formula_units_Z 64
_cell_length_a 14.285647
_cell_length_b 8.924679
_cell_length_c 32.567063
_cell_angle_alpha 90.000000
_cell_angle_beta 90.000000
_cell_angle_gamma 90.000000
_cell_volume 4152.131633
_symmetry_space_group_name_H-M "P M M N"
_symmetry_group_IT_number 59
_space_group.IT_coordinate_system_code '2'
_symmetry_cell_setting 'orthorhombic'
loop_
_space_group_symop_operation_xyz
x,y,z
1/2-x,1/2-y,z
1/2+x,-y,-z
-x,1/2+y,-z
-x,-y,-z
1/2+x,1/2+y,-z
1/2-x,y,z
x,1/2-y,z
loop_
_atom_site_type_symbol
_atom_site_label
_atom_site_fract_x
_atom_site_fract_y
_atom_site_fract_z
Si Si1 0.637080 0.424106 0.470319
Si Si2 0.359902 0.570997 0.683704
Si Si3 0.538311 0.928887 0.393629
Si Si4 0.143601 0.430693 0.017168
Si Si5 0.863650 0.577409 0.230906
Si Si6 0.544260 0.069155 0.061238
Si Si7 0.643934 0.067568 0.562312
Si Si8 0.359906 0.569794 0.854492
O O1 0.750000 0.425302 0.468315
O O2 0.607164 0.250000 0.465578
O O3 0.596036 0.521531 0.433814
O O4 0.613087 0.478647 0.516327
O O5 0.250000 0.529133 0.678108
O O6 0.365194 0.750000 0.683785
O O7 0.418707 0.504749 0.646358
O O8 0.392055 0.507989 0.727747
O O9 0.542000 0.750000 0.389076
O O10 0.431956 0.976075 0.404068
O O11 0.250000 0.477057 0.026924
O O12 0.142474 0.250000 0.013775
O O13 0.062790 0.472260 0.049933
O O14 0.109559 0.499689 0.974094
O O15 0.750000 0.572416 0.230508
O O16 0.892764 0.750000 0.232679
O O17 0.892812 0.501991 0.188196
O O18 0.551777 0.250000 0.059011
O O19 0.580102 0.022655 0.106022
O O20 0.750000 0.016468 0.569887
O O21 0.645831 0.250000 0.560856
O O22 0.250000 0.530820 0.861104
O O23 0.364606 0.750000 0.850820
#
# Coordination Sequence:
#
# PCOD9449575 Si02
#       8
#     8   8   8   8   8   8   8   8
#     4   9  17  30  46  62  85 118 148 172 205 252
#     4  10  20  33  47  63  88 120 145 166 203 259
#     4  11  20  28  44  68  89 111 142 180 215 246
#     4   9  17  28  41  59  86 118 151 189 228 258
#     4   9  17  29  45  65  88 111 136 171 213 254
#     4   9  17  28  42  61  85 116 153 186 217 259
#     4   8  16  31  47  62  83 113 147 179 212 251
#     4   9  16  26  41  61  85 113 143 173 209 257
#
# _framework density 15.41377
#
# number of rings (size 3 to 8) (size 9 to 14) (size 15 to 20)
#    0.000    2.750    0.000    3.000    0.000    5.250 
#    0.000    1.875    0.000    3.000    0.000    0.875 
#    0.000    3.000    0.000    0.000    0.000    0.000 
#
# Total GULP energy -356652.499288 kJ/mol
# GULP energy per Si atom -5572.695301 kJ/mol
# Density = 1.537869 g / cm^3
# Si number density = 15.413770 Si / 1000 Ang^3
#
#
#
# Elastic Constant Matrix: (Units=GPa)
#
#
# Indices 1 2 3 4 5 6 
#
# 1 82.8134 26.9914 72.1649 0.0000 0.0000 0.0000
# 2 26.9914 27.8896 43.3115 0.0000 0.0000 0.0000
# 3 72.1649 43.3115 153.0186 0.0000 0.0000 0.0000
# 4 0.0000 0.0000 0.0000 25.7913 0.0000 0.0000
# 5 0.0000 0.0000 0.0000 0.0000 25.2471 0.0000
# 6 0.0000 0.0000 0.0000 0.0000 0.0000 13.9414
#
#
#
# Elastic Compliance Matrix: (Units=1/GPa)
#
#
# Indices 1 2 3 4 5 6 
#
# 1 0.021729 -0.009127 -0.007664 0.000000 0.000000 0.000000
# 2 -0.009127 0.067811 -0.014890 0.000000 0.000000 0.000000
# 3 -0.007664 -0.014890 0.014364 0.000000 0.000000 0.000000
# 4 0.000000 0.000000 0.000000 0.038773 0.000000 0.000000
# 5 0.000000 0.000000 0.000000 0.000000 0.039608 0.000000
# 6 0.000000 0.000000 0.000000 0.000000 0.000000 0.071729
#
#
# Mechanical properties :
#
#
# Convention : Reuss Voigt Hill
#
# Bulk Modulus (GPa) = 24.66507 60.96191 42.81349
# Shear Modulus (GPa) = 15.11079 21.07955 18.09517
#
# Velocity S-wave (km/s) = 3.13444 3.70209 3.43003
# Velocity P-wave (km/s) = 5.39781 7.60987 6.59721
#
# Compressibility (1/GPa) = 0.04054317
#
# Stress axis : x y z
#
# Youngs Moduli (GPa) = 46.02221 14.74681 69.61811
#
# Poissons Ratio (x) = 0.13459 0.53356
# Poissons Ratio (y) = 0.42003 1.03658
# Poissons Ratio (z) = 0.35272 0.21957
#
# Static dielectric constant tensor:
#      x y z
#    x 1.521740 0.000000 0.000000 
#    y 0.000000 1.519930 0.000000 
#    z 0.000000 0.000000 1.495560 
# 
# From -- ./inp_files/33322.got.cif
#   From: 2010.05.17/outbox.cif.g08.bks.cpg/sg59_17_cif.got.tgz:33322.got - 2010.06.03 14:40:33.
