data_PCOD9449832
_publ_section_title
;
Structure prediction by ZEFSAII (Michael W. Deem and Ramdas Pophale) SiO2 
 PCOD9449832
Probable space group: P M M N
;
_chemical_formula_sum "Si O2"
_cell_formula_units_Z 48
_cell_length_a 8.030215
_cell_length_b 9.622400
_cell_length_c 31.953455
_cell_angle_alpha 90.000000
_cell_angle_beta 90.000000
_cell_angle_gamma 90.000000
_cell_volume 2469.041577
_symmetry_space_group_name_H-M "P M M N"
_symmetry_group_IT_number 59
_space_group.IT_coordinate_system_code '2'
_symmetry_cell_setting 'orthorhombic'
loop_
_space_group_symop_operation_xyz
x,y,z
1/2-x,1/2-y,z
1/2+x,-y,-z
-x,1/2+y,-z
-x,-y,-z
1/2+x,1/2+y,-z
1/2-x,y,z
x,1/2-y,z
loop_
_atom_site_type_symbol
_atom_site_label
_atom_site_fract_x
_atom_site_fract_y
_atom_site_fract_z
Si Si1 0.448817 0.591776 0.460759
Si Si2 0.046861 0.088667 0.132357
Si Si3 0.447741 0.090642 0.631534
Si Si4 0.549631 0.908169 0.960846
Si Si5 0.550768 0.907944 0.709513
Si Si6 0.954163 0.089735 0.788292
O O1 0.500000 0.500000 0.500000
O O2 0.250000 0.594660 0.458680
O O3 0.511283 0.750000 0.466269
O O4 0.512777 0.542444 0.415597
O O5 0.250000 0.087543 0.132892
O O6 0.997857 0.250000 0.139235
O O7 0.993177 0.045421 0.085547
O O8 0.991570 0.987819 0.169341
O O9 0.250000 0.095662 0.636537
O O10 0.513192 0.250000 0.636025
O O11 0.517088 0.988805 0.666595
O O12 0.750000 0.905522 0.959373
O O13 0.490414 0.750000 0.966666
O O14 0.500000 0.000000 0.000000
O O15 0.750000 0.898838 0.714566
O O16 0.484867 0.750000 0.709474
O O17 0.488681 0.000606 0.748326
O O18 0.750000 0.090234 0.788081
O O19 0.007588 0.250000 0.786210
#
# Coordination Sequence:
#
# PCOD9449832 Si02
#       6
#     8   8   8   8   8   8
#     4  10  21  37  58  83 110 141 176 214 257 304
#     4   8  14  26  43  64  93 126 159 200 250 301
#     4  10  21  37  56  77 103 137 175 214 256 300
#     4   9  18  31  47  69  97 129 165 205 250 300
#     4  10  20  33  51  76 104 134 167 204 249 300
#     4   9  16  26  44  71  99 126 160 204 251 298
#
# _framework density 19.440742
#
# number of rings (size 3 to 8) (size 9 to 14) (size 15 to 20)
#    0.000    2.667    0.000    3.000    0.000    6.667 
#    0.000    1.667    0.000    1.000    0.000    4.667 
#    0.000    0.000    0.000    0.000    0.000    0.000 
#
# Total GULP energy -267795.056105 kJ/mol
# GULP energy per Si atom -5579.063669 kJ/mol
# Density = 1.939649 g / cm^3
# Si number density = 19.440742 Si / 1000 Ang^3
#
#
#
# Elastic Constant Matrix: (Units=GPa)
#
#
# Indices 1 2 3 4 5 6 
#
# 1 12.1818 8.3205 2.3565 0.0000 0.0000 0.0000
# 2 8.3205 140.0822 130.5873 0.0000 0.0000 0.0000
# 3 2.3565 130.5873 204.9218 0.0000 0.0000 0.0000
# 4 0.0000 0.0000 0.0000 41.4449 0.0000 0.0000
# 5 0.0000 0.0000 0.0000 0.0000 21.5104 0.0000
# 6 0.0000 0.0000 0.0000 0.0000 0.0000 16.3782
#
#
#
# Elastic Compliance Matrix: (Units=1/GPa)
#
#
# Indices 1 2 3 4 5 6 
#
# 1 0.088206 -0.010577 0.005726 0.000000 0.000000 0.000000
# 2 -0.010577 0.018854 -0.011893 0.000000 0.000000 0.000000
# 3 0.005726 -0.011893 0.012393 0.000000 0.000000 0.000000
# 4 0.000000 0.000000 0.000000 0.024128 0.000000 0.000000
# 5 0.000000 0.000000 0.000000 0.000000 0.046489 0.000000
# 6 0.000000 0.000000 0.000000 0.000000 0.000000 0.061057
#
#
# Mechanical properties :
#
#
# Convention : Reuss Voigt Hill
#
# Bulk Modulus (GPa) = 11.63270 71.07940 41.35605
# Shear Modulus (GPa) = 15.96065 30.26147 23.11106
#
# Velocity S-wave (km/s) = 2.86840 3.94966 3.45163
# Velocity P-wave (km/s) = 4.11910 7.57900 6.09951
#
# Compressibility (1/GPa) = 0.08596457
#
# Stress axis : x y z
#
# Youngs Moduli (GPa) = 11.33709 53.03950 80.69077
#
# Poissons Ratio (x) = 0.56100 -0.46203
# Poissons Ratio (y) = 0.11991 0.95966
# Poissons Ratio (z) = -0.06492 0.63080
#
# Static dielectric constant tensor:
#      x y z
#    x 1.708330 0.000000 0.000000 
#    y 0.000000 1.669300 0.000000 
#    z 0.000000 0.000000 1.663420 
# 
# From -- ./inp_files/32827.got.cif
#   From: 2010.05.17/outbox.cif.g08.bks.cpg/sg59_17_cif.got.tgz:32827.got - 2010.06.03 14:40:33.
