data_PCOD9449525
_publ_section_title
;
Structure prediction by ZEFSAII (Michael W. Deem and Ramdas Pophale) SiO2 
 PCOD9449525
Probable space group: P M M N
;
_chemical_formula_sum "Si O2"
_cell_formula_units_Z 56
_cell_length_a 10.119570
_cell_length_b 15.423533
_cell_length_c 19.192941
_cell_angle_alpha 90.000000
_cell_angle_beta 90.000000
_cell_angle_gamma 90.000000
_cell_volume 2995.625054
_symmetry_space_group_name_H-M "P M M N"
_symmetry_group_IT_number 59
_space_group.IT_coordinate_system_code '2'
_symmetry_cell_setting 'orthorhombic'
loop_
_space_group_symop_operation_xyz
x,y,z
1/2-x,1/2-y,z
1/2+x,-y,-z
-x,1/2+y,-z
-x,-y,-z
1/2+x,1/2+y,-z
1/2-x,y,z
x,1/2-y,z
loop_
_atom_site_type_symbol
_atom_site_label
_atom_site_fract_x
_atom_site_fract_y
_atom_site_fract_z
Si Si1 0.600186 0.353140 0.826011
Si Si2 0.898160 0.411207 0.602667
Si Si3 0.602555 0.647928 0.291662
Si Si4 0.598988 0.895451 0.662982
Si Si5 0.905241 0.505354 0.933906
Si Si6 0.589819 0.849696 0.820446
Si Si7 0.101327 0.652490 0.545174
O O1 0.750000 0.365343 0.797684
O O2 0.584975 0.250000 0.840187
O O3 0.491810 0.383745 0.770464
O O4 0.588731 0.414131 0.892780
O O5 0.750000 0.373230 0.613491
O O6 0.898202 0.504449 0.639593
O O7 0.919281 0.411518 0.519714
O O8 0.019114 0.362673 0.638281
O O9 0.750000 0.609552 0.294217
O O10 0.615678 0.750000 0.278966
O O11 0.750000 0.862337 0.657879
O O12 0.553169 0.880616 0.742381
O O13 0.502214 0.853691 0.606951
O O14 0.750000 0.520272 0.952245
O O15 0.948240 0.581700 0.880197
O O16 0.000000 0.500000 0.000000
O O17 0.750000 0.849817 0.821185
O O18 0.546088 0.750000 0.831924
O O19 0.250000 0.637915 0.572345
O O20 0.095772 0.750000 0.515326
#
# Coordination Sequence:
#
# PCOD9449525 Si02
#       7
#     8   8   8   8   8   8   8
#     4   9  18  34  55  76 103 142 181 217 264 325
#     4  10  20  34  52  74 104 144 184 222 273 334
#     4  10  20  32  49  77 108 136 173 222 270 318
#     4  10  20  35  57  80 101 134 185 235 273 318
#     4  10  21  37  57  82 110 139 174 214 260 319
#     4   9  18  34  56  81 109 142 179 219 266 321
#     4  10  21  35  50  72 105 143 181 224 279 337
#
# _framework density 18.693929000000001
#
# number of rings (size 3 to 8) (size 9 to 14) (size 15 to 20)
#    0.000    2.286    0.000    2.571    0.000    6.857 
#    0.000    0.714    0.000    0.857    0.000    0.000 
#    0.000    0.000    0.000    0.000    0.000    0.000 
#
# Total GULP energy -312143.286877 kJ/mol
# GULP energy per Si atom -5573.987266 kJ/mol
# Density = 1.865138 g / cm^3
# Si number density = 18.693929 Si / 1000 Ang^3
#
#
#
# Elastic Constant Matrix: (Units=GPa)
#
#
# Indices 1 2 3 4 5 6 
#
# 1 121.6024 33.2997 78.6055 0.0000 0.0000 0.0000
# 2 33.2997 71.8138 48.2950 0.0000 0.0000 0.0000
# 3 78.6055 48.2950 136.0204 0.0000 0.0000 0.0000
# 4 0.0000 0.0000 0.0000 22.9046 0.0000 0.0000
# 5 0.0000 0.0000 0.0000 0.0000 29.8716 0.0000
# 6 0.0000 0.0000 0.0000 0.0000 0.0000 16.9256
#
#
#
# Elastic Compliance Matrix: (Units=1/GPa)
#
#
# Indices 1 2 3 4 5 6 
#
# 1 0.013220 -0.001303 -0.007177 0.000000 0.000000 0.000000
# 2 -0.001303 0.018421 -0.005787 0.000000 0.000000 0.000000
# 3 -0.007177 -0.005787 0.013554 0.000000 0.000000 0.000000
# 4 0.000000 0.000000 0.000000 0.043659 0.000000 0.000000
# 5 0.000000 0.000000 0.000000 0.000000 0.033477 0.000000
# 6 0.000000 0.000000 0.000000 0.000000 0.000000 0.059082
#
#
# Mechanical properties :
#
#
# Convention : Reuss Voigt Hill
#
# Bulk Modulus (GPa) = 60.02444 72.20411 66.11428
# Shear Modulus (GPa) = 23.20171 25.22280 24.21225
#
# Velocity S-wave (km/s) = 3.52680 3.67720 3.60278
# Velocity P-wave (km/s) = 6.98306 7.53242 7.26293
#
# Compressibility (1/GPa) = 0.01665988
#
# Stress axis : x y z
#
# Youngs Moduli (GPa) = 75.64511 54.28492 73.77847
#
# Poissons Ratio (x) = 0.07076 0.52949
# Poissons Ratio (y) = 0.09860 0.42698
# Poissons Ratio (z) = 0.54289 0.31417
#
# Static dielectric constant tensor:
#      x y z
#    x 1.661970 0.000000 0.000000 
#    y 0.000000 1.691320 0.000000 
#    z 0.000000 0.000000 1.626260 
# 
# From -- ./inp_files/23232.got.cif
#   From: 2010.05.17/outbox.cif.g08.bks.cpg/sg59_12_cif.got.tgz:23232.got - 2010.06.03 14:40:33.
