data_PCOD9449315
_publ_section_title
;
Structure prediction by ZEFSAII (Michael W. Deem and Ramdas Pophale) SiO2 
 PCOD9449315
Probable space group: P M M N
;
_chemical_formula_sum "Si O2"
_cell_formula_units_Z 64
_cell_length_a 22.141715
_cell_length_b 9.154332
_cell_length_c 19.631015
_cell_angle_alpha 90.000000
_cell_angle_beta 90.000000
_cell_angle_gamma 90.000000
_cell_volume 3979.061670
_symmetry_space_group_name_H-M "P M M N"
_symmetry_group_IT_number 59
_space_group.IT_coordinate_system_code '2'
_symmetry_cell_setting 'orthorhombic'
loop_
_space_group_symop_operation_xyz
x,y,z
1/2-x,1/2-y,z
1/2+x,-y,-z
-x,1/2+y,-z
-x,-y,-z
1/2+x,1/2+y,-z
1/2-x,y,z
x,1/2-y,z
loop_
_atom_site_type_symbol
_atom_site_label
_atom_site_fract_x
_atom_site_fract_y
_atom_site_fract_z
Si Si1 0.990863 0.075428 0.316929
Si Si2 0.318062 0.925882 0.466610
Si Si3 0.056754 0.573142 0.539435
Si Si4 0.629082 0.578075 0.661880
Si Si5 0.389801 0.578565 0.087010
Si Si6 0.488481 0.075696 0.828072
Si Si7 0.059606 0.075497 0.968229
Si Si8 0.320436 0.914360 0.215366
O O1 0.988531 0.250000 0.306926
O O2 0.058472 0.039334 0.343032
O O3 0.948168 0.036235 0.380318
O O4 0.980139 0.000784 0.244211
O O5 0.250000 0.970234 0.489126
O O6 0.318519 0.750000 0.463954
O O7 0.377356 0.970098 0.510283
O O8 0.331276 0.989863 0.391995
O O9 0.050651 0.750000 0.532940
O O10 0.000000 0.500000 0.500000
O O11 0.636237 0.750000 0.650369
O O12 0.648380 0.531942 0.737200
O O13 0.396968 0.750000 0.069737
O O14 0.446904 0.539665 0.136287
O O15 0.333120 0.559243 0.136139
O O16 0.389525 0.485848 0.018302
O O17 0.487790 0.250000 0.817703
O O18 0.440517 0.038825 0.887982
O O19 0.054542 0.250000 0.973767
O O20 0.000000 0.000000 0.000000
O O21 0.250000 0.914763 0.229786
O O22 0.344787 0.750000 0.230385
#
# Coordination Sequence:
#
# PCOD9449315 Si02
#       8
#     8   8   8   8   8   8   8   8
#     4  10  20  31  46  70  97 126 158 194 243 291
#     4  10  21  36  54  73  94 128 169 205 245 296
#     4  10  20  35  52  72  99 127 161 203 247 297
#     4  11  21  32  47  70  99 129 164 204 243 287
#     4   9  17  29  44  64  89 120 157 193 233 275
#     4   9  17  29  45  66  91 120 153 188 229 282
#     4   9  17  28  43  65  90 117 149 185 226 274
#     4  10  20  33  47  64  92 131 171 204 236 282
#
# _framework density 16.084195000000001
#
# number of rings (size 3 to 8) (size 9 to 14) (size 15 to 20)
#    0.000    2.250    2.500    1.875    0.000    6.000 
#    0.000    0.000    0.000    0.000    0.000    0.875 
#    0.000    5.000    0.000    0.000    0.000    0.000 
#
# Total GULP energy -356445.587293 kJ/mol
# GULP energy per Si atom -5569.462301 kJ/mol
# Density = 1.604759 g / cm^3
# Si number density = 16.084195 Si / 1000 Ang^3
#
#
#
# Elastic Constant Matrix: (Units=GPa)
#
#
# Indices 1 2 3 4 5 6 
#
# 1 65.9565 22.4585 36.9500 0.0000 0.0000 0.0000
# 2 22.4585 19.3578 31.4087 0.0000 0.0000 0.0000
# 3 36.9500 31.4087 102.8212 0.0000 0.0000 0.0000
# 4 0.0000 0.0000 0.0000 27.8644 0.0000 0.0000
# 5 0.0000 0.0000 0.0000 0.0000 19.8336 0.0000
# 6 0.0000 0.0000 0.0000 0.0000 0.0000 13.7684
#
#
#
# Elastic Compliance Matrix: (Units=1/GPa)
#
#
# Indices 1 2 3 4 5 6 
#
# 1 0.025065 -0.028680 -0.000247 0.000000 0.000000 0.000000
# 2 -0.028680 0.135240 -0.031005 0.000000 0.000000 0.000000
# 3 -0.000247 -0.031005 0.019285 0.000000 0.000000 0.000000
# 4 0.000000 0.000000 0.000000 0.035888 0.000000 0.000000
# 5 0.000000 0.000000 0.000000 0.000000 0.050420 0.000000
# 6 0.000000 0.000000 0.000000 0.000000 0.000000 0.072630
#
#
# Mechanical properties :
#
#
# Convention : Reuss Voigt Hill
#
# Bulk Modulus (GPa) = 16.74294 41.08557 28.91425
# Shear Modulus (GPa) = 10.45367 18.78114 14.61740
#
# Velocity S-wave (km/s) = 2.55215 3.42084 3.01791
# Velocity P-wave (km/s) = 4.37227 6.41890 5.49177
#
# Compressibility (1/GPa) = 0.05972667
#
# Stress axis : x y z
#
# Youngs Moduli (GPa) = 39.89549 7.39428 51.85290
#
# Poissons Ratio (x) = 0.21207 0.01279
# Poissons Ratio (y) = 1.14421 1.60770
# Poissons Ratio (z) = 0.00984 0.22926
#
# Static dielectric constant tensor:
#      x y z
#    x 1.565910 0.000000 0.000000 
#    y 0.000000 1.548830 0.000000 
#    z 0.000000 0.000000 1.555790 
# 
# From -- ./inp_files/28455.got.cif
#   From: 2010.05.17/outbox.cif.g08.bks.cpg/sg59_15_cif.got.tgz:28455.got - 2010.06.03 14:40:33.
