data_PCOD9449039
_publ_section_title
;
Structure prediction by ZEFSAII (Michael W. Deem and Ramdas Pophale) SiO2 
 PCOD9449039
Probable space group: P M M N
;
_chemical_formula_sum "Si O2"
_cell_formula_units_Z 48
_cell_length_a 14.949569
_cell_length_b 7.507131
_cell_length_c 20.501966
_cell_angle_alpha 90.000000
_cell_angle_beta 90.000000
_cell_angle_gamma 90.000000
_cell_volume 2300.902285
_symmetry_space_group_name_H-M "P M M N"
_symmetry_group_IT_number 59
_space_group.IT_coordinate_system_code '2'
_symmetry_cell_setting 'orthorhombic'
loop_
_space_group_symop_operation_xyz
x,y,z
1/2-x,1/2-y,z
1/2+x,-y,-z
-x,1/2+y,-z
-x,-y,-z
1/2+x,1/2+y,-z
1/2-x,y,z
x,1/2-y,z
loop_
_atom_site_type_symbol
_atom_site_label
_atom_site_fract_x
_atom_site_fract_y
_atom_site_fract_z
Si Si1 0.647446 0.534725 0.405614
Si Si2 0.750000 0.468088 0.021546
Si Si3 0.353917 0.466927 0.448211
Si Si4 0.943136 0.036236 0.065152
Si Si5 0.057231 0.039791 0.186500
Si Si6 0.025378 0.458248 0.330310
Si Si7 0.250000 0.963215 0.129301
O O1 0.750000 0.478678 0.394526
O O2 0.646411 0.750000 0.405333
O O3 0.620015 0.474531 0.478717
O O4 0.576949 0.471245 0.352769
O O5 0.750000 0.250000 0.021596
O O6 0.658186 0.528127 0.055109
O O7 0.750000 0.525143 0.945846
O O8 0.250000 0.514389 0.437940
O O9 0.358152 0.250000 0.449219
O O10 0.415522 0.534127 0.389705
O O11 0.938523 0.250000 0.070967
O O12 0.995101 0.965479 0.128525
O O13 0.000000 0.000000 0.000000
O O14 0.036179 0.250000 0.190277
O O15 0.041561 0.964093 0.258683
O O16 0.159917 0.022060 0.164971
O O17 0.050857 0.250000 0.326448
O O18 0.250000 0.750000 0.128089
#
# Coordination Sequence:
#
# PCOD9449039 Si02
#       7
#     8   4   8   8   8   8   4
#     4   9  18  34  54  74  99 137 179 218 262 310
#     4   9  18  33  55  77  99 134 175 216 258 303
#     4   8  15  29  51  76 102 135 174 213 259 314
#     4  10  19  35  55  77 105 136 174 216 259 307
#     4  10  22  36  53  81 112 140 171 214 266 318
#     4  10  20  33  52  79 106 138 174 213 263 313
#     4  11  21  35  57  81 105 140 177 212 260 315
#
# _framework density 20.86138
#
# number of rings (size 3 to 8) (size 9 to 14) (size 15 to 20)
#    0.000    2.500    1.667    1.750    1.167    1.000 
#    1.500    0.417    0.000    1.000    0.000    0.000 
#    0.000    0.000    0.000    0.000    0.000    0.000 
#
# Total GULP energy -268018.594964 kJ/mol
# GULP energy per Si atom -5583.720728 kJ/mol
# Density = 2.081390 g / cm^3
# Si number density = 20.861380 Si / 1000 Ang^3
#
#
#
# Elastic Constant Matrix: (Units=GPa)
#
#
# Indices 1 2 3 4 5 6 
#
# 1 145.0748 -13.4422 99.1754 0.0000 0.0000 0.0000
# 2 -13.4422 53.4526 -1.9827 0.0000 0.0000 0.0000
# 3 99.1754 -1.9827 168.9762 0.0000 0.0000 0.0000
# 4 0.0000 0.0000 0.0000 -1.3420 0.0000 0.0000
# 5 0.0000 0.0000 0.0000 0.0000 -12.8129 0.0000
# 6 0.0000 0.0000 0.0000 0.0000 0.0000 9.6035
#
#
#
# Elastic Compliance Matrix: (Units=1/GPa)
#
#
# Indices 1 2 3 4 5 6 
#
# 1 0.011898 0.002734 -0.006951 0.000000 0.000000 0.000000
# 2 0.002734 0.019345 -0.001378 0.000000 0.000000 0.000000
# 3 -0.006951 -0.001378 0.009982 0.000000 0.000000 0.000000
# 4 0.000000 0.000000 0.000000 -0.745176 0.000000 0.000000
# 5 0.000000 0.000000 0.000000 0.000000 -0.078046 0.000000
# 6 0.000000 0.000000 0.000000 0.000000 0.000000 0.104129
#
#
# Mechanical properties :
#
#
# Convention : Reuss Voigt Hill
#
# Bulk Modulus (GPa) = 33.29438 59.44495 46.36967
# Shear Modulus (GPa) = -7.61420 18.00661 5.19621
#
# Velocity S-wave (km/s) = -1.91254 2.94114 1.57995
# Velocity P-wave (km/s) = 3.33427 6.33173 5.06005
#
# Compressibility (1/GPa) = 0.03003510
#
# Stress axis : x y z
#
# Youngs Moduli (GPa) = 84.04515 51.69383 100.18356
#
# Poissons Ratio (x) = -0.14135 0.69641
# Poissons Ratio (y) = -0.22981 0.13804
# Poissons Ratio (z) = 0.58422 0.07123
#
# Static dielectric constant tensor:
#      x y z
#    x 1.713960 0.000000 0.000000 
#    y 0.000000 1.794690 0.000000 
#    z 0.000000 0.000000 1.742830 
# 
# From -- ./inp_files/27413.got.cif
#   From: 2010.05.17/outbox.cif.g08.bks.cpg/sg59_14_cif.got.tgz:27413.got - 2010.06.03 14:40:33.
