data_PCOD9449262
_publ_section_title
;
Structure prediction by ZEFSAII (Michael W. Deem and Ramdas Pophale) SiO2 
 PCOD9449262
Probable space group: P M M N
;
_chemical_formula_sum "Si O2"
_cell_formula_units_Z 28
_cell_length_a 14.043928
_cell_length_b 10.651923
_cell_length_c 7.923735
_cell_angle_alpha 90.000000
_cell_angle_beta 90.000000
_cell_angle_gamma 90.000000
_cell_volume 1185.349867
_symmetry_space_group_name_H-M "P M M N"
_symmetry_group_IT_number 59
_space_group.IT_coordinate_system_code '2'
_symmetry_cell_setting 'orthorhombic'
loop_
_space_group_symop_operation_xyz
x,y,z
1/2-x,1/2-y,z
1/2+x,-y,-z
-x,1/2+y,-z
-x,-y,-z
1/2+x,1/2+y,-z
1/2-x,y,z
x,1/2-y,z
loop_
_atom_site_type_symbol
_atom_site_label
_atom_site_fract_x
_atom_site_fract_y
_atom_site_fract_z
Si Si1 0.595030 0.250000 0.951233
Si Si2 0.250000 0.881873 0.539190
Si Si3 0.108652 0.025707 0.052875
Si Si4 0.925717 0.250000 0.585478
Si Si5 0.750000 0.885616 0.221830
Si Si6 0.553564 0.750000 0.741162
O O1 0.647792 0.383546 0.938910
O O2 0.535994 0.250000 0.774481
O O3 0.533289 0.250000 0.121804
O O4 0.250000 0.750000 0.647335
O O5 0.349649 0.864163 0.440649
O O6 0.250000 0.004716 0.644894
O O7 0.161142 0.096401 0.902396
O O8 0.109401 0.121842 0.210755
O O9 0.000000 0.000000 0.000000
O O10 0.005850 0.250000 0.442583
O O11 0.750000 0.750000 0.303309
#
# Coordination Sequence:
#
# PCOD9449262 Si02
#       6
#     4   4   8   4   4   4
#     4  10  21  37  66  89 122 171 211 259 323 368
#     4   8  20  36  58  86 124 154 212 267 302 371
#     4  10  22  37  61  96 126 165 215 261 306 384
#     4   9  20  38  63  89 122 165 215 263 313 370
#     4  12  22  38  66  96 126 176 206 255 336 375
#     4  10  19  40  57  88 132 160 214 263 300 381
#
# _framework density 23.621718000000001
#
# number of rings (size 3 to 8) (size 9 to 14) (size 15 to 20)
#    0.857    1.143    1.429    3.429    2.000    3.429 
#    0.000    2.857    3.143    0.000    0.000    0.000 
#    0.000    0.000    0.000    0.000    0.000    0.000 
#
# Total GULP energy -156074.292888 kJ/mol
# GULP energy per Si atom -5574.081889 kJ/mol
# Density = 2.356795 g / cm^3
# Si number density = 23.621718 Si / 1000 Ang^3
#
#
#
# Elastic Constant Matrix: (Units=GPa)
#
#
# Indices 1 2 3 4 5 6 
#
# 1 84.0142 8.8004 -1.9795 0.0000 0.0000 0.0000
# 2 8.8004 198.4877 12.4495 0.0000 0.0000 0.0000
# 3 -1.9795 12.4495 80.5272 0.0000 0.0000 0.0000
# 4 0.0000 0.0000 0.0000 2.9964 0.0000 0.0000
# 5 0.0000 0.0000 0.0000 0.0000 -4.1645 0.0000
# 6 0.0000 0.0000 0.0000 0.0000 0.0000 3.8756
#
#
#
# Elastic Compliance Matrix: (Units=1/GPa)
#
#
# Indices 1 2 3 4 5 6 
#
# 1 0.011970 -0.000555 0.000380 0.000000 0.000000 0.000000
# 2 -0.000555 0.005113 -0.000804 0.000000 0.000000 0.000000
# 3 0.000380 -0.000804 0.012552 0.000000 0.000000 0.000000
# 4 0.000000 0.000000 0.000000 0.333733 0.000000 0.000000
# 5 0.000000 0.000000 0.000000 0.000000 -0.240125 0.000000
# 6 0.000000 0.000000 0.000000 0.000000 0.000000 0.258022
#
#
# Mechanical properties :
#
#
# Convention : Reuss Voigt Hill
#
# Bulk Modulus (GPa) = 36.13061 44.61887 40.37474
# Shear Modulus (GPa) = 12.74056 23.45876 18.09966
#
# Velocity S-wave (km/s) = 2.32493 3.15477 2.77109
# Velocity P-wave (km/s) = 4.74718 5.67451 5.23143
#
# Compressibility (1/GPa) = 0.02767736
#
# Stress axis : x y z
#
# Youngs Moduli (GPa) = 83.54363 195.57539 79.66973
#
# Poissons Ratio (x) = 0.10845 -0.03027
# Poissons Ratio (y) = 0.04633 0.06406
# Poissons Ratio (z) = -0.03174 0.15727
#
# Static dielectric constant tensor:
#      x y z
#    x 1.905090 0.000000 0.000000 
#    y 0.000000 1.999580 0.000000 
#    z 0.000000 0.000000 1.860730 
# 
# From -- ./inp_files/9931.got.cif
#   From: 2010.05.17/outbox.cif.g08.bks.cpg/sg59_5_cif.got.tgz:9931.got - 2010.06.03 14:40:33.
