data_PCOD9449751
_publ_section_title
;
Structure prediction by ZEFSAII (Michael W. Deem and Ramdas Pophale) SiO2 
 PCOD9449751
Probable space group: P M M N
;
_chemical_formula_sum "Si O2"
_cell_formula_units_Z 48
_cell_length_a 7.827811
_cell_length_b 16.702994
_cell_length_c 18.738712
_cell_angle_alpha 90.000000
_cell_angle_beta 90.000000
_cell_angle_gamma 90.000000
_cell_volume 2450.046871
_symmetry_space_group_name_H-M "P M M N"
_symmetry_group_IT_number 59
_space_group.IT_coordinate_system_code '2'
_symmetry_cell_setting 'orthorhombic'
loop_
_space_group_symop_operation_xyz
x,y,z
1/2-x,1/2-y,z
1/2+x,-y,-z
-x,1/2+y,-z
-x,-y,-z
1/2+x,1/2+y,-z
1/2-x,y,z
x,1/2-y,z
loop_
_atom_site_type_symbol
_atom_site_label
_atom_site_fract_x
_atom_site_fract_y
_atom_site_fract_z
Si Si1 0.543648 0.661375 0.331366
Si Si2 0.040581 0.250000 0.215064
Si Si3 0.040996 0.250000 0.049368
Si Si4 0.543780 0.912520 0.031597
Si Si5 0.955735 0.570388 0.192448
Si Si6 0.456042 0.415958 0.280954
Si Si7 0.549147 0.491874 0.581939
O O1 0.750000 0.662741 0.329204
O O2 0.481078 0.750000 0.347064
O O3 0.482928 0.630748 0.253975
O O4 0.492396 0.596148 0.389160
O O5 0.250000 0.250000 0.215235
O O6 0.988663 0.250000 0.132212
O O7 0.982049 0.170190 0.255406
O O8 0.250000 0.250000 0.047605
O O9 0.985030 0.166910 0.011239
O O10 0.750000 0.907961 0.032310
O O11 0.480345 0.911590 0.113373
O O12 0.500000 0.000000 0.000000
O O13 0.750000 0.575847 0.190177
O O14 0.001284 0.482594 0.221603
O O15 0.250000 0.411769 0.285085
O O16 0.524096 0.447823 0.357434
O O17 0.500000 0.500000 0.500000
O O18 0.750000 0.503716 0.584631
#
# Coordination Sequence:
#
# PCOD9449751 Si02
#       7
#     8   4   4   8   8   8   8
#     4   9  18  33  54  78 102 134 172 211 257 308
#     4   9  16  30  51  73  96 125 172 216 243 289
#     4   9  18  30  49  75 102 135 172 214 259 305
#     4  10  20  33  50  74 104 138 176 218 266 315
#     4   9  18  31  50  74 102 133 169 213 258 306
#     4   9  18  33  54  76  98 132 172 209 251 302
#     4  10  20  35  54  77 107 137 167 208 256 309
#
# _framework density 19.591460999999999
#
# number of rings (size 3 to 8) (size 9 to 14) (size 15 to 20)
#    0.000    2.667    0.000    1.500    1.167    3.000 
#    1.500    0.833    0.000    3.000    0.000    0.000 
#    0.000    0.000    0.000    0.000    0.000    0.000 
#
# Total GULP energy -267710.316204 kJ/mol
# GULP energy per Si atom -5577.298254 kJ/mol
# Density = 1.954687 g / cm^3
# Si number density = 19.591461 Si / 1000 Ang^3
#
#
#
# Elastic Constant Matrix: (Units=GPa)
#
#
# Indices 1 2 3 4 5 6 
#
# 1 21.3171 6.1053 11.6494 0.0000 0.0000 0.0000
# 2 6.1053 175.6291 136.1036 0.0000 0.0000 0.0000
# 3 11.6494 136.1036 194.8771 0.0000 0.0000 0.0000
# 4 0.0000 0.0000 0.0000 8.3750 0.0000 0.0000
# 5 0.0000 0.0000 0.0000 0.0000 14.4438 0.0000
# 6 0.0000 0.0000 0.0000 0.0000 0.0000 22.3641
#
#
#
# Elastic Compliance Matrix: (Units=1/GPa)
#
#
# Indices 1 2 3 4 5 6 
#
# 1 0.048616 0.001225 -0.003762 0.000000 0.000000 0.000000
# 2 0.001225 0.012442 -0.008763 0.000000 0.000000 0.000000
# 3 -0.003762 -0.008763 0.011476 0.000000 0.000000 0.000000
# 4 0.000000 0.000000 0.000000 0.119403 0.000000 0.000000
# 5 0.000000 0.000000 0.000000 0.000000 0.069234 0.000000
# 6 0.000000 0.000000 0.000000 0.000000 0.000000 0.044715
#
#
# Mechanical properties :
#
#
# Convention : Reuss Voigt Hill
#
# Bulk Modulus (GPa) = 20.02600 77.72665 48.87633
# Shear Modulus (GPa) = 14.48731 24.90090 19.69411
#
# Velocity S-wave (km/s) = 2.72227 3.56899 3.17399
# Velocity P-wave (km/s) = 4.48609 7.53282 6.19953
#
# Compressibility (1/GPa) = 0.04993507
#
# Stress axis : x y z
#
# Youngs Moduli (GPa) = 20.56952 80.37338 87.13604
#
# Poissons Ratio (x) = -0.09848 0.32780
# Poissons Ratio (y) = -0.02520 0.76355
# Poissons Ratio (z) = 0.07738 0.70429
#
# Static dielectric constant tensor:
#      x y z
#    x 1.685250 0.000000 0.000000 
#    y 0.000000 1.676260 0.000000 
#    z 0.000000 0.000000 1.653250 
# 
# From -- ./inp_files/25528.got.cif
#   From: 2010.05.17/outbox.cif.g08.bks.cpg/sg59_13_cif.got.tgz:25528.got - 2010.06.03 14:40:33.
