data_PCOD9449404
_publ_section_title
;
Structure prediction by ZEFSAII (Michael W. Deem and Ramdas Pophale) SiO2 
 PCOD9449404
Probable space group: P M M N
;
_chemical_formula_sum "Si O2"
_cell_formula_units_Z 40
_cell_length_a 9.461431
_cell_length_b 7.776683
_cell_length_c 27.133789
_cell_angle_alpha 90.000000
_cell_angle_beta 90.000000
_cell_angle_gamma 90.000000
_cell_volume 1996.464840
_symmetry_space_group_name_H-M "P M M N"
_symmetry_group_IT_number 59
_space_group.IT_coordinate_system_code '2'
_symmetry_cell_setting 'orthorhombic'
loop_
_space_group_symop_operation_xyz
x,y,z
1/2-x,1/2-y,z
1/2+x,-y,-z
-x,1/2+y,-z
-x,-y,-z
1/2+x,1/2+y,-z
1/2-x,y,z
x,1/2-y,z
loop_
_atom_site_type_symbol
_atom_site_label
_atom_site_fract_x
_atom_site_fract_y
_atom_site_fract_z
Si Si1 0.586081 0.038992 0.642596
Si Si2 0.577877 0.050904 0.750179
Si Si3 0.908848 0.454296 0.047815
Si Si4 0.411059 0.956900 0.143165
Si Si5 0.089598 0.042911 0.548279
O O1 0.750000 0.989685 0.634799
O O2 0.584346 0.250000 0.643956
O O3 0.538083 0.977115 0.696887
O O4 0.489659 0.981075 0.597523
O O5 0.750000 0.051968 0.750408
O O6 0.530109 0.250000 0.749800
O O7 0.537836 0.975262 0.803349
O O8 0.750000 0.527546 0.045206
O O9 0.897903 0.250000 0.048350
O O10 0.988901 0.505785 0.097580
O O11 0.000000 0.500000 0.000000
O O12 0.250000 0.018459 0.133892
O O13 0.403052 0.750000 0.148059
O O14 0.250000 0.978026 0.544560
O O15 0.095275 0.250000 0.551731
O O16 0.000000 0.000000 0.500000
#
# Coordination Sequence:
#
# PCOD9449404 Si02
#       5
#     8   8   8   8   8
#     4   8  13  24  44  68  94 125 159 196 239 284
#     4   7  11  22  43  71  99 125 155 192 233 279
#     4  11  24  39  54  74 100 130 165 204 244 287
#     4   9  17  31  53  80 106 130 159 196 237 284
#     4  10  20  32  47  69  96 126 162 204 248 294
#
# _framework density 20.035415
#
# number of rings (size 3 to 8) (size 9 to 14) (size 15 to 20)
#    0.000    3.000    0.000    4.200    0.000    5.600 
#    0.000    1.000    0.000    4.800    0.000    2.800 
#    0.000    0.000    0.000    0.000    0.000    0.000 
#
# Total GULP energy -222958.652325 kJ/mol
# GULP energy per Si atom -5573.966308 kJ/mol
# Density = 1.998981 g / cm^3
# Si number density = 20.035415 Si / 1000 Ang^3
#
#
#
# Elastic Constant Matrix: (Units=GPa)
#
#
# Indices 1 2 3 4 5 6 
#
# 1 133.9468 7.4947 121.2235 0.0000 0.0000 0.0000
# 2 7.4947 29.6661 8.4697 0.0000 0.0000 0.0000
# 3 121.2235 8.4697 250.9136 0.0000 0.0000 0.0000
# 4 0.0000 0.0000 0.0000 18.4617 0.0000 0.0000
# 5 0.0000 0.0000 0.0000 0.0000 35.5204 0.0000
# 6 0.0000 0.0000 0.0000 0.0000 0.0000 14.3571
#
#
#
# Elastic Compliance Matrix: (Units=1/GPa)
#
#
# Indices 1 2 3 4 5 6 
#
# 1 0.013336 -0.001545 -0.006391 0.000000 0.000000 0.000000
# 2 -0.001545 0.034215 -0.000409 0.000000 0.000000 0.000000
# 3 -0.006391 -0.000409 0.007087 0.000000 0.000000 0.000000
# 4 0.000000 0.000000 0.000000 0.054166 0.000000 0.000000
# 5 0.000000 0.000000 0.000000 0.000000 0.028153 0.000000
# 6 0.000000 0.000000 0.000000 0.000000 0.000000 0.069652
#
#
# Mechanical properties :
#
#
# Convention : Reuss Voigt Hill
#
# Bulk Modulus (GPa) = 26.35049 76.54470 51.44760
# Shear Modulus (GPa) = 21.19120 32.15709 26.67414
#
# Velocity S-wave (km/s) = 3.25574 4.01061 3.65272
# Velocity P-wave (km/s) = 5.22624 7.72879 6.59727
#
# Compressibility (1/GPa) = 0.03794995
#
# Stress axis : x y z
#
# Youngs Moduli (GPa) = 74.98613 29.22655 141.10745
#
# Poissons Ratio (x) = 0.04514 0.90179
# Poissons Ratio (y) = 0.11582 0.05768
# Poissons Ratio (z) = 0.47922 0.01195
#
# Static dielectric constant tensor:
#      x y z
#    x 1.695270 0.000000 0.000000 
#    y 0.000000 1.765080 0.000000 
#    z 0.000000 0.000000 1.765630 
# 
# From -- ./inp_files/32374.got.cif
#   From: 2010.05.17/outbox.cif.g08.bks.cpg/sg59_17_cif.got.tgz:32374.got - 2010.06.03 14:40:33.
