data_PCOD9449737
_publ_section_title
;
Structure prediction by ZEFSAII (Michael W. Deem and Ramdas Pophale) SiO2 
 PCOD9449737
Probable space group: P M M N
;
_chemical_formula_sum "Si O2"
_cell_formula_units_Z 48
_cell_length_a 8.430097
_cell_length_b 18.918415
_cell_length_c 16.980773
_cell_angle_alpha 90.000000
_cell_angle_beta 90.000000
_cell_angle_gamma 90.000000
_cell_volume 2708.162850
_symmetry_space_group_name_H-M "P M M N"
_symmetry_group_IT_number 59
_space_group.IT_coordinate_system_code '2'
_symmetry_cell_setting 'orthorhombic'
loop_
_space_group_symop_operation_xyz
x,y,z
1/2-x,1/2-y,z
1/2+x,-y,-z
-x,1/2+y,-z
-x,-y,-z
1/2+x,1/2+y,-z
1/2-x,y,z
x,1/2-y,z
loop_
_atom_site_type_symbol
_atom_site_label
_atom_site_fract_x
_atom_site_fract_y
_atom_site_fract_z
Si Si1 0.558110 0.099689 0.178063
Si Si2 0.556959 0.167844 0.017580
Si Si3 0.441710 0.329202 0.334837
Si Si4 0.939256 0.956891 0.261765
Si Si5 0.439119 0.472354 0.416828
Si Si6 0.558565 0.331907 0.841435
O O1 0.750000 0.102717 0.178350
O O2 0.497178 0.151377 0.246697
O O3 0.509223 0.021089 0.204109
O O4 0.501379 0.122369 0.091692
O O5 0.750000 0.165571 0.017228
O O6 0.512837 0.250000 0.029251
O O7 0.505295 0.146187 0.929840
O O8 0.250000 0.329760 0.335837
O O9 0.495096 0.250000 0.356437
O O10 0.497359 0.393747 0.390740
O O11 0.750000 0.958912 0.267970
O O12 0.992499 0.883775 0.224036
O O13 0.009802 0.975348 0.346701
O O14 0.500000 0.500000 0.500000
O O15 0.250000 0.469310 0.419763
O O16 0.750000 0.334811 0.839920
O O17 0.512661 0.250000 0.830115
#
# Coordination Sequence:
#
# PCOD9449737 Si02
#       6
#     8   8   8   8   8   8
#     4   9  17  29  47  72 100 131 167 202 238 288
#     4   8  14  26  45  68  95 130 170 208 244 282
#     4   9  18  32  50  74 103 131 158 193 242 294
#     4  10  20  33  50  74 101 128 161 202 249 299
#     4  10  20  36  57  77 100 130 162 200 246 298
#     4   9  18  33  51  69  93 130 174 213 248 290
#
# _framework density 17.724191000000001
#
# number of rings (size 3 to 8) (size 9 to 14) (size 15 to 20)
#    0.000    2.833    0.000    2.500    0.000    3.333 
#    0.000    1.667    0.000    4.000    0.000    0.000 
#    0.000    0.000    0.000    0.000    0.000    0.000 
#
# Total GULP energy -267568.189405 kJ/mol
# GULP energy per Si atom -5574.337279 kJ/mol
# Density = 1.768385 g / cm^3
# Si number density = 17.724191 Si / 1000 Ang^3
#
#
#
# Elastic Constant Matrix: (Units=GPa)
#
#
# Indices 1 2 3 4 5 6 
#
# 1 13.5808 22.7672 25.7160 0.0000 0.0000 0.0000
# 2 22.7672 106.1580 95.3856 0.0000 0.0000 0.0000
# 3 25.7160 95.3856 149.8314 0.0000 0.0000 0.0000
# 4 0.0000 0.0000 0.0000 19.8827 0.0000 0.0000
# 5 0.0000 0.0000 0.0000 0.0000 22.0158 0.0000
# 6 0.0000 0.0000 0.0000 0.0000 0.0000 19.2459
#
#
#
# Elastic Compliance Matrix: (Units=1/GPa)
#
#
# Indices 1 2 3 4 5 6 
#
# 1 0.120968 -0.017029 -0.009921 0.000000 0.000000 0.000000
# 2 -0.017029 0.024407 -0.012615 0.000000 0.000000 0.000000
# 3 -0.009921 -0.012615 0.016408 0.000000 0.000000 0.000000
# 4 0.000000 0.000000 0.000000 0.050295 0.000000 0.000000
# 5 0.000000 0.000000 0.000000 0.000000 0.045422 0.000000
# 6 0.000000 0.000000 0.000000 0.000000 0.000000 0.051959
#
#
# Mechanical properties :
#
#
# Convention : Reuss Voigt Hill
#
# Bulk Modulus (GPa) = 12.09891 61.92309 37.01100
# Shear Modulus (GPa) = 12.01516 20.60898 16.31207
#
# Velocity S-wave (km/s) = 2.60647 3.41363 3.03698
# Velocity P-wave (km/s) = 3.98739 7.10985 5.76408
#
# Compressibility (1/GPa) = 0.08265207
#
# Stress axis : x y z
#
# Youngs Moduli (GPa) = 8.26668 40.97128 60.94529
#
# Poissons Ratio (x) = 0.69770 0.60464
# Poissons Ratio (y) = 0.14077 0.76885
# Poissons Ratio (z) = 0.08201 0.51687
#
# Static dielectric constant tensor:
#      x y z
#    x 1.604990 0.000000 0.000000 
#    y 0.000000 1.615810 0.000000 
#    z 0.000000 0.000000 1.583680 
# 
# From -- ./inp_files/20366.got.cif
#   From: 2010.05.17/outbox.cif.g08.bks.cpg/sg59_11_cif.got.tgz:20366.got - 2010.06.03 14:40:33.
