data_PCOD9449094
_publ_section_title
;
Structure prediction by ZEFSAII (Michael W. Deem and Ramdas Pophale) SiO2 
 PCOD9449094
Probable space group: P M M N
;
_chemical_formula_sum "Si O2"
_cell_formula_units_Z 40
_cell_length_a 13.788353
_cell_length_b 26.348719
_cell_length_c 5.217669
_cell_angle_alpha 90.000000
_cell_angle_beta 90.000000
_cell_angle_gamma 90.000000
_cell_volume 1895.607525
_symmetry_space_group_name_H-M "P M M N"
_symmetry_group_IT_number 59
_space_group.IT_coordinate_system_code '2'
_symmetry_cell_setting 'orthorhombic'
loop_
_space_group_symop_operation_xyz
x,y,z
1/2-x,1/2-y,z
1/2+x,-y,-z
-x,1/2+y,-z
-x,-y,-z
1/2+x,1/2+y,-z
1/2-x,y,z
x,1/2-y,z
loop_
_atom_site_type_symbol
_atom_site_label
_atom_site_fract_x
_atom_site_fract_y
_atom_site_fract_z
Si Si1 0.863098 0.690579 0.704184
Si Si2 0.859520 0.494187 0.773826
Si Si3 0.139524 0.617644 0.477825
Si Si4 0.984841 0.435846 0.142232
Si Si5 0.961179 0.852607 0.203464
O O1 0.750000 0.679097 0.751820
O O2 0.872273 0.750000 0.638230
O O3 0.900618 0.659143 0.459118
O O4 0.921720 0.679913 0.965784
O O5 0.750000 0.512958 0.792284
O O6 0.857956 0.440737 0.624575
O O7 0.935444 0.536572 0.683086
O O8 0.906344 0.476404 0.043761
O O9 0.250000 0.634344 0.512238
O O10 0.076406 0.609398 0.731954
O O11 0.073983 0.651742 0.290961
O O12 0.042305 0.409994 0.907010
#
# Coordination Sequence:
#
# PCOD9449094 Si02
#       5
#     8   8   8   8   8
#     4  11  24  44  69  95 125 159 194 243 316 392
#     4   9  19  32  52  84 122 171 217 259 311 361
#     4  10  20  37  61  87 123 172 218 258 308 365
#     4  10  19  35  57  85 129 165 213 267 307 360
#     4  11  22  41  64  97 124 160 206 255 302 373
#
# _framework density 21.101414999999999
#
# number of rings (size 3 to 8) (size 9 to 14) (size 15 to 20)
#    0.000    1.800    2.000    2.400    0.000    4.000 
#    0.000    0.000    0.000    3.600    0.000    0.000 
#    0.000    0.000    0.000    0.000    0.000    0.000 
#
# Total GULP energy -222931.027917 kJ/mol
# GULP energy per Si atom -5573.275698 kJ/mol
# Density = 2.105339 g / cm^3
# Si number density = 21.101415 Si / 1000 Ang^3
#
#
#
# Elastic Constant Matrix: (Units=GPa)
#
#
# Indices 1 2 3 4 5 6 
#
# 1 159.5456 40.8216 60.3281 0.0000 0.0000 0.0000
# 2 40.8216 43.1573 26.9276 0.0000 0.0000 0.0000
# 3 60.3281 26.9276 112.4873 0.0000 0.0000 0.0000
# 4 0.0000 0.0000 0.0000 30.7575 0.0000 0.0000
# 5 0.0000 0.0000 0.0000 0.0000 24.8373 0.0000
# 6 0.0000 0.0000 0.0000 0.0000 0.0000 28.6331
#
#
#
# Elastic Compliance Matrix: (Units=1/GPa)
#
#
# Indices 1 2 3 4 5 6 
#
# 1 0.009239 -0.006639 -0.003366 0.000000 0.000000 0.000000
# 2 -0.006639 0.032010 -0.004102 0.000000 0.000000 0.000000
# 3 -0.003366 -0.004102 0.011677 0.000000 0.000000 0.000000
# 4 0.000000 0.000000 0.000000 0.032512 0.000000 0.000000
# 5 0.000000 0.000000 0.000000 0.000000 0.040262 0.000000
# 6 0.000000 0.000000 0.000000 0.000000 0.000000 0.034925
#
#
# Mechanical properties :
#
#
# Convention : Reuss Voigt Hill
#
# Bulk Modulus (GPa) = 40.46540 63.48276 51.97408
# Shear Modulus (GPa) = 25.37079 29.31976 27.34528
#
# Velocity S-wave (km/s) = 3.47122 3.73160 3.60376
# Velocity P-wave (km/s) = 5.94004 6.97971 6.48076
#
# Compressibility (1/GPa) = 0.02471247
#
# Stress axis : x y z
#
# Youngs Moduli (GPa) = 108.23474 31.23993 85.63857
#
# Poissons Ratio (x) = 0.20740 0.28824
# Poissons Ratio (y) = 0.71858 0.35130
# Poissons Ratio (z) = 0.36429 0.12815
#
# Static dielectric constant tensor:
#      x y z
#    x 1.776430 0.000000 0.000000 
#    y 0.000000 1.784920 0.000000 
#    z 0.000000 0.000000 1.854400 
# 
# From -- ./inp_files/1501.got.cif
#   From: 2010.05.17/outbox.cif.g08.bks.cpg/sg59_1_cif.got.tgz:1501.got - 2010.06.03 14:40:33.
