data_PCOD9449469
_publ_section_title
;
Structure prediction by ZEFSAII (Michael W. Deem and Ramdas Pophale) SiO2 
 PCOD9449469
Probable space group: P M M N
;
_chemical_formula_sum "Si O2"
_cell_formula_units_Z 64
_cell_length_a 7.912687
_cell_length_b 14.759323
_cell_length_c 23.952661
_cell_angle_alpha 90.000000
_cell_angle_beta 90.000000
_cell_angle_gamma 90.000000
_cell_volume 2797.333150
_symmetry_space_group_name_H-M "P M M N"
_symmetry_group_IT_number 59
_space_group.IT_coordinate_system_code '2'
_symmetry_cell_setting 'orthorhombic'
loop_
_space_group_symop_operation_xyz
x,y,z
1/2-x,1/2-y,z
1/2+x,-y,-z
-x,1/2+y,-z
-x,-y,-z
1/2+x,1/2+y,-z
1/2-x,y,z
x,1/2-y,z
loop_
_atom_site_type_symbol
_atom_site_label
_atom_site_fract_x
_atom_site_fract_y
_atom_site_fract_z
Si Si1 0.449439 0.646510 0.963353
Si Si2 0.564123 0.354862 0.337727
Si Si3 0.548170 0.948615 0.074882
Si Si4 0.553769 0.850954 0.780698
Si Si5 0.048490 0.851770 0.303156
Si Si6 0.441408 0.395432 0.572508
Si Si7 0.950787 0.594654 0.543984
Si Si8 0.455365 0.540080 0.194914
O O1 0.250000 0.650554 0.950469
O O2 0.516598 0.750000 0.952328
O O3 0.517394 0.553329 0.933988
O O4 0.473446 0.618026 0.028082
O O5 0.750000 0.399998 0.338541
O O6 0.588540 0.250000 0.326323
O O7 0.455183 0.382249 0.284541
O O8 0.478730 0.357431 0.397559
O O9 0.750000 0.950642 0.066994
O O10 0.505174 0.914972 0.136862
O O11 0.750000 0.844594 0.796092
O O12 0.480772 0.750000 0.789461
O O13 0.473721 0.937387 0.809653
O O14 0.250000 0.848017 0.295707
O O15 0.979304 0.750000 0.299277
O O16 0.983371 0.912500 0.251974
O O17 0.022675 0.883931 0.367086
O O18 0.250000 0.363670 0.578899
O O19 0.511045 0.357388 0.513276
O O20 0.453020 0.500954 0.555994
O O21 0.750000 0.578626 0.537706
O O22 0.250000 0.535785 0.197599
#
# Coordination Sequence:
#
# PCOD9449469 Si02
#       8
#     8   8   8   8   8   8   8   8
#     4   9  19  38  62  86 118 159 193 224 271 330
#     4  10  20  32  48  73 103 134 171 217 269 326
#     4  10  21  36  57  89 121 149 190 238 279 323
#     4   9  18  33  53  77 106 143 187 233 284 343
#     4  10  22  39  57  77 105 147 196 238 279 333
#     4  10  21  36  55  78 102 130 171 226 284 339
#     4  10  20  34  53  76 102 134 171 215 276 348
#     4  10  21  37  56  79 111 151 191 231 277 331
#
# _framework density 22.878934000000001
#
# number of rings (size 3 to 8) (size 9 to 14) (size 15 to 20)
#    0.000    2.250    0.000    2.250    0.000    6.750 
#    0.000    3.750    0.000    0.000    0.000    0.000 
#    0.000    0.000    0.000    0.000    0.000    0.000 
#
# Total GULP energy -356440.544649 kJ/mol
# GULP energy per Si atom -5569.383510 kJ/mol
# Density = 2.282686 g / cm^3
# Si number density = 22.878934 Si / 1000 Ang^3
#
#
#
# Elastic Constant Matrix: (Units=GPa)
#
#
# Indices 1 2 3 4 5 6 
#
# 1 34.8532 3.5074 -16.6925 0.0000 0.0000 0.0000
# 2 3.5074 75.9939 16.2624 0.0000 0.0000 0.0000
# 3 -16.6925 16.2624 105.7124 0.0000 0.0000 0.0000
# 4 0.0000 0.0000 0.0000 -24.4981 0.0000 0.0000
# 5 0.0000 0.0000 0.0000 0.0000 17.3722 0.0000
# 6 0.0000 0.0000 0.0000 0.0000 0.0000 6.9302
#
#
#
# Elastic Compliance Matrix: (Units=1/GPa)
#
#
# Indices 1 2 3 4 5 6 
#
# 1 0.031531 -0.002607 0.005380 0.000000 0.000000 0.000000
# 2 -0.002607 0.013822 -0.002538 0.000000 0.000000 0.000000
# 3 0.005380 -0.002538 0.010700 0.000000 0.000000 0.000000
# 4 0.000000 0.000000 0.000000 -0.040820 0.000000 0.000000
# 5 0.000000 0.000000 0.000000 0.000000 0.057563 0.000000
# 6 0.000000 0.000000 0.000000 0.000000 0.000000 0.144295
#
#
# Mechanical properties :
#
#
# Convention : Reuss Voigt Hill
#
# Bulk Modulus (GPa) = 17.69181 24.74601 21.21891
# Shear Modulus (GPa) = 21.23483 14.19300 17.71391
#
# Velocity S-wave (km/s) = 3.04984 2.49339 2.78555
# Velocity P-wave (km/s) = 4.48906 4.37366 4.43173
#
# Compressibility (1/GPa) = 0.05652332
#
# Stress axis : x y z
#
# Youngs Moduli (GPa) = 31.71509 72.34644 93.46174
#
# Poissons Ratio (x) = 0.18857 -0.50281
# Poissons Ratio (y) = 0.08267 0.23720
# Poissons Ratio (z) = -0.17062 0.18361
#
# Static dielectric constant tensor:
#      x y z
#    x 1.841770 0.000000 0.000000 
#    y 0.000000 1.945890 0.000000 
#    z 0.000000 0.000000 1.911590 
# 
# From -- ./inp_files/31404.got.cif
#   From: 2010.05.17/outbox.cif.g08.bks.cpg/sg59_16_cif.got.tgz:31404.got - 2010.06.03 14:40:33.
