data_PCOD9449304
_publ_section_title
;
Structure prediction by ZEFSAII (Michael W. Deem and Ramdas Pophale) SiO2 
 PCOD9449304
Probable space group: P M M N
;
_chemical_formula_sum "Si O2"
_cell_formula_units_Z 64
_cell_length_a 19.145562
_cell_length_b 7.500087
_cell_length_c 21.040746
_cell_angle_alpha 90.000000
_cell_angle_beta 90.000000
_cell_angle_gamma 90.000000
_cell_volume 3021.311850
_symmetry_space_group_name_H-M "P M M N"
_symmetry_group_IT_number 59
_space_group.IT_coordinate_system_code '2'
_symmetry_cell_setting 'orthorhombic'
loop_
_space_group_symop_operation_xyz
x,y,z
1/2-x,1/2-y,z
1/2+x,-y,-z
-x,1/2+y,-z
-x,-y,-z
1/2+x,1/2+y,-z
1/2-x,y,z
x,1/2-y,z
loop_
_atom_site_type_symbol
_atom_site_label
_atom_site_fract_x
_atom_site_fract_y
_atom_site_fract_z
Si Si1 0.672736 0.960667 0.006095
Si Si2 0.406473 0.535029 0.119922
Si Si3 0.330704 0.468150 0.627554
Si Si4 0.582587 0.464530 0.737963
Si Si5 0.434662 0.032302 0.889193
Si Si6 0.582221 0.536162 0.495240
Si Si7 0.923197 0.967224 0.254824
Si Si8 0.171254 0.038126 0.385960
O O1 0.750000 0.036675 0.014381
O O2 0.676670 0.750000 0.019447
O O3 0.615642 0.033250 0.055301
O O4 0.646781 0.979499 0.934117
O O5 0.406564 0.750000 0.120812
O O6 0.393167 0.473976 0.192138
O O7 0.485051 0.475591 0.102219
O O8 0.250000 0.524170 0.621485
O O9 0.330392 0.250000 0.627408
O O10 0.379064 0.527179 0.568677
O O11 0.367102 0.525740 0.693278
O O12 0.580196 0.250000 0.740118
O O13 0.502321 0.524055 0.727761
O O14 0.633015 0.513948 0.680986
O O15 0.435604 0.250000 0.890069
O O16 0.410781 0.979396 0.818261
O O17 0.500000 0.500000 0.500000
O O18 0.588688 0.750000 0.494350
O O19 0.623241 0.466634 0.557056
O O20 0.922909 0.750000 0.255579
O O21 0.250000 0.965577 0.386181
O O22 0.176584 0.250000 0.396358
#
# Coordination Sequence:
#
# PCOD9449304 Si02
#       8
#     8   8   8   8   8   8   8   8
#     4  10  20  31  45  69  99 126 153 192 241 288
#     4   9  18  33  52  70  91 124 163 200 236 279
#     4   9  16  26  44  71  99 125 153 188 233 282
#     4   9  18  33  52  73  95 122 161 204 240 278
#     4   8  15  29  47  67  93 124 157 193 234 280
#     4  10  20  34  52  73  98 128 163 201 236 275
#     4   8  14  26  46  71  96 121 153 195 237 277
#     4  10  21  35  50  71 101 133 161 195 243 292
#
# _framework density 21.182852
#
# number of rings (size 3 to 8) (size 9 to 14) (size 15 to 20)
#    0.000    2.875    0.000    3.000    0.000    5.000 
#    0.000    5.000    0.000    1.875    0.000    0.000 
#    0.000    0.000    0.000    0.000    0.000    0.000 
#
# Total GULP energy -357270.527256 kJ/mol
# GULP energy per Si atom -5582.351988 kJ/mol
# Density = 2.113464 g / cm^3
# Si number density = 21.182852 Si / 1000 Ang^3
#
#
#
# Elastic Constant Matrix: (Units=GPa)
#
#
# Indices 1 2 3 4 5 6 
#
# 1 96.3594 -3.5311 45.5005 0.0000 0.0000 0.0000
# 2 -3.5311 54.7552 -7.3390 0.0000 0.0000 0.0000
# 3 45.5005 -7.3390 76.2520 0.0000 0.0000 0.0000
# 4 0.0000 0.0000 0.0000 10.4141 0.0000 0.0000
# 5 0.0000 0.0000 0.0000 0.0000 -7.9389 0.0000
# 6 0.0000 0.0000 0.0000 0.0000 0.0000 13.5336
#
#
#
# Elastic Compliance Matrix: (Units=1/GPa)
#
#
# Indices 1 2 3 4 5 6 
#
# 1 0.014452 -0.000227 -0.008645 0.000000 0.000000 0.000000
# 2 -0.000227 0.018505 0.001916 0.000000 0.000000 0.000000
# 3 -0.008645 0.001916 0.018458 0.000000 0.000000 0.000000
# 4 0.000000 0.000000 0.000000 0.096024 0.000000 0.000000
# 5 0.000000 0.000000 0.000000 0.000000 -0.125962 0.000000
# 6 0.000000 0.000000 0.000000 0.000000 0.000000 0.073890
#
#
# Mechanical properties :
#
#
# Convention : Reuss Voigt Hill
#
# Bulk Modulus (GPa) = 26.66436 32.95861 29.81148
# Shear Modulus (GPa) = 41.05772 16.05083 28.55427
#
# Velocity S-wave (km/s) = 4.40734 2.75567 3.67548
# Velocity P-wave (km/s) = 6.20601 5.07128 5.66711
#
# Compressibility (1/GPa) = 0.03750325
#
# Stress axis : x y z
#
# Youngs Moduli (GPa) = 69.19538 54.03846 54.17801
#
# Poissons Ratio (x) = 0.01225 0.46839
# Poissons Ratio (y) = 0.01569 -0.10383
# Poissons Ratio (z) = 0.59822 -0.10356
#
# Static dielectric constant tensor:
#      x y z
#    x 1.731680 0.000000 0.000000 
#    y 0.000000 1.845430 0.000000 
#    z 0.000000 0.000000 1.739460 
# 
# From -- ./inp_files/30839.got.cif
#   From: 2010.05.17/outbox.cif.g08.bks.cpg/sg59_16_cif.got.tgz:30839.got - 2010.06.03 14:40:33.
