data_PCOD9449318
_publ_section_title
;
Structure prediction by ZEFSAII (Michael W. Deem and Ramdas Pophale) SiO2 
 PCOD9449318
Probable space group: P M M N
;
_chemical_formula_sum "Si O2"
_cell_formula_units_Z 64
_cell_length_a 9.100437
_cell_length_b 24.537829
_cell_length_c 16.321094
_cell_angle_alpha 90.000000
_cell_angle_beta 90.000000
_cell_angle_gamma 90.000000
_cell_volume 3644.581356
_symmetry_space_group_name_H-M "P M M N"
_symmetry_group_IT_number 59
_space_group.IT_coordinate_system_code '2'
_symmetry_cell_setting 'orthorhombic'
loop_
_space_group_symop_operation_xyz
x,y,z
1/2-x,1/2-y,z
1/2+x,-y,-z
-x,1/2+y,-z
-x,-y,-z
1/2+x,1/2+y,-z
1/2-x,y,z
x,1/2-y,z
loop_
_atom_site_type_symbol
_atom_site_label
_atom_site_fract_x
_atom_site_fract_y
_atom_site_fract_z
Si Si1 0.926033 0.308512 0.646340
Si Si2 0.926703 0.077125 0.722058
Si Si3 0.084295 0.157142 0.485969
Si Si4 0.580019 0.184521 0.323572
Si Si5 0.427755 0.686021 0.865847
Si Si6 0.582886 0.537186 0.436089
Si Si7 0.424534 0.026568 0.880214
Si Si8 0.924901 0.581663 0.943317
O O1 0.750000 0.310869 0.640265
O O2 0.969102 0.250000 0.682374
O O3 0.971146 0.360654 0.699574
O O4 0.989601 0.312397 0.554804
O O5 0.750000 0.073713 0.725152
O O6 0.991141 0.042104 0.647140
O O7 0.998356 0.056586 0.805142
O O8 0.250000 0.178824 0.483205
O O9 0.088578 0.096181 0.521203
O O10 0.014736 0.159355 0.396151
O O11 0.750000 0.167481 0.332579
O O12 0.574426 0.250000 0.333499
O O13 0.534296 0.173701 0.229670
O O14 0.250000 0.682175 0.873013
O O15 0.466168 0.750000 0.882314
O O16 0.504586 0.640085 0.921105
O O17 0.500000 0.500000 0.500000
O O18 0.750000 0.519200 0.419806
O O19 0.250000 0.020610 0.867106
O O20 0.496870 0.967110 0.893132
O O21 0.446218 0.062573 0.962490
O O22 0.750000 0.582593 0.926974
#
# Coordination Sequence:
#
# PCOD9449318 Si02
#       8
#     8   8   8   8   8   8   8   8
#     4   9  18  33  52  73 100 136 175 214 259 312
#     4  10  20  35  56  80 106 137 176 222 268 316
#     4  10  20  31  46  71  99 129 169 215 258 301
#     4   9  18  32  49  70  98 133 171 207 245 296
#     4   9  19  36  56  79 110 147 183 219 265 321
#     4  10  21  36  51  70 101 138 175 215 261 313
#     4  10  21  38  59  82 109 140 175 217 267 322
#     4  10  21  37  59  85 110 138 175 219 266 318
#
# _framework density 17.560314999999999
#
# number of rings (size 3 to 8) (size 9 to 14) (size 15 to 20)
#    0.000    2.375    0.000    3.000    0.000    7.250 
#    0.000    4.375    0.000    2.250    0.000    0.000 
#    0.000    0.000    0.000    0.000    0.000    0.000 
#
# Total GULP energy -356891.940798 kJ/mol
# GULP energy per Si atom -5576.436575 kJ/mol
# Density = 1.752035 g / cm^3
# Si number density = 17.560315 Si / 1000 Ang^3
#
#
#
# Elastic Constant Matrix: (Units=GPa)
#
#
# Indices 1 2 3 4 5 6 
#
# 1 75.9819 55.2472 60.1614 0.0000 0.0000 0.0000
# 2 55.2472 96.1388 64.1234 0.0000 0.0000 0.0000
# 3 60.1614 64.1234 94.8429 0.0000 0.0000 0.0000
# 4 0.0000 0.0000 0.0000 13.2638 0.0000 0.0000
# 5 0.0000 0.0000 0.0000 0.0000 31.6531 0.0000
# 6 0.0000 0.0000 0.0000 0.0000 0.0000 22.2045
#
#
#
# Elastic Compliance Matrix: (Units=1/GPa)
#
#
# Indices 1 2 3 4 5 6 
#
# 1 0.029588 -0.008168 -0.013246 0.000000 0.000000 0.000000
# 2 -0.008168 0.021200 -0.009152 0.000000 0.000000 0.000000
# 3 -0.013246 -0.009152 0.025134 0.000000 0.000000 0.000000
# 4 0.000000 0.000000 0.000000 0.075393 0.000000 0.000000
# 5 0.000000 0.000000 0.000000 0.000000 0.031592 0.000000
# 6 0.000000 0.000000 0.000000 0.000000 0.000000 0.045036
#
#
# Mechanical properties :
#
#
# Convention : Reuss Voigt Hill
#
# Bulk Modulus (GPa) = 67.61614 69.55863 68.58738
# Shear Modulus (GPa) = 17.00648 19.25307 18.12978
#
# Velocity S-wave (km/s) = 3.11539 3.31478 3.21663
# Velocity P-wave (km/s) = 7.17841 7.37208 7.27589
#
# Compressibility (1/GPa) = 0.01478937
#
# Stress axis : x y z
#
# Youngs Moduli (GPa) = 33.79709 47.17038 39.78733
#
# Poissons Ratio (x) = 0.38530 0.52703
# Poissons Ratio (y) = 0.27606 0.36413
# Poissons Ratio (z) = 0.44768 0.43169
#
# Static dielectric constant tensor:
#      x y z
#    x 1.597660 0.000000 0.000000 
#    y 0.000000 1.660670 0.000000 
#    z 0.000000 0.000000 1.575050 
# 
# From -- ./inp_files/21535.got.cif
#   From: 2010.05.17/outbox.cif.g08.bks.cpg/sg59_11_cif.got.tgz:21535.got - 2010.06.03 14:40:33.
