data_PCOD9449415
_publ_section_title
;
Structure prediction by ZEFSAII (Michael W. Deem and Ramdas Pophale) SiO2 
 PCOD9449415
Probable space group: P M M N
;
_chemical_formula_sum "Si O2"
_cell_formula_units_Z 64
_cell_length_a 24.686079
_cell_length_b 9.115995
_cell_length_c 16.377872
_cell_angle_alpha 90.000000
_cell_angle_beta 90.000000
_cell_angle_gamma 90.000000
_cell_volume 3685.646388
_symmetry_space_group_name_H-M "P M M N"
_symmetry_group_IT_number 59
_space_group.IT_coordinate_system_code '2'
_symmetry_cell_setting 'orthorhombic'
loop_
_space_group_symop_operation_xyz
x,y,z
1/2-x,1/2-y,z
1/2+x,-y,-z
-x,1/2+y,-z
-x,-y,-z
1/2+x,1/2+y,-z
1/2-x,y,z
x,1/2-y,z
loop_
_atom_site_type_symbol
_atom_site_label
_atom_site_fract_x
_atom_site_fract_y
_atom_site_fract_z
Si Si1 0.421841 0.574712 0.442853
Si Si2 0.037897 0.917172 0.937416
Si Si3 0.971107 0.424757 0.380012
Si Si4 0.157208 0.916692 0.014878
Si Si5 0.422545 0.426118 0.778882
Si Si6 0.812564 0.073346 0.648377
Si Si7 0.191504 0.425141 0.853961
Si Si8 0.184919 0.419561 0.178880
O O1 0.428341 0.750000 0.429061
O O2 0.436142 0.546996 0.537697
O O3 0.468678 0.489264 0.393954
O O4 0.360960 0.534736 0.414429
O O5 0.020319 0.750000 0.921572
O O6 0.096313 0.912449 0.980767
O O7 0.043604 0.007073 0.853941
O O8 0.000000 0.000000 0.000000
O O9 0.973822 0.250000 0.367723
O O10 0.943117 0.503624 0.304228
O O11 0.177034 0.750000 0.024683
O O12 0.188070 0.000168 0.942439
O O13 0.160458 0.999658 0.100577
O O14 0.427020 0.250000 0.776927
O O15 0.360123 0.467154 0.799647
O O16 0.750000 0.031234 0.626416
O O17 0.812825 0.250000 0.657039
O O18 0.826068 0.000482 0.735606
O O19 0.250000 0.460109 0.816484
O O20 0.188046 0.250000 0.866088
O O21 0.250000 0.422768 0.168021
O O22 0.167570 0.250000 0.182496
#
# Coordination Sequence:
#
# PCOD9449415 Si02
#       8
#     8   8   8   8   8   8   8   8
#     4   9  19  36  57  80 105 134 169 209 256 310
#     4  10  21  36  52  72 100 133 170 211 255 304
#     4  10  20  35  56  81 107 135 171 214 257 304
#     4  10  20  32  48  71  97 128 168 211 252 296
#     4  10  20  35  55  77 104 138 173 213 260 307
#     4   9  18  34  55  77 103 135 170 210 257 308
#     4   9  18  33  52  73  99 133 172 212 255 304
#     4  10  20  32  47  70 100 132 166 203 243 292
#
# _framework density 17.364661000000002
#
# number of rings (size 3 to 8) (size 9 to 14) (size 15 to 20)
#    0.000    2.375    0.000    2.250    0.000    6.500 
#    0.000    1.875    0.000    0.750    0.000    0.000 
#    0.000    0.000    0.000    0.000    0.000    0.000 
#
# Total GULP energy -356893.373651 kJ/mol
# GULP energy per Si atom -5576.458963 kJ/mol
# Density = 1.732514 g / cm^3
# Si number density = 17.364661 Si / 1000 Ang^3
#
#
#
# Elastic Constant Matrix: (Units=GPa)
#
#
# Indices 1 2 3 4 5 6 
#
# 1 97.2163 52.2760 76.4633 0.0000 0.0000 0.0000
# 2 52.2760 67.0060 60.6778 0.0000 0.0000 0.0000
# 3 76.4633 60.6778 116.9680 0.0000 0.0000 0.0000
# 4 0.0000 0.0000 0.0000 30.4716 0.0000 0.0000
# 5 0.0000 0.0000 0.0000 0.0000 12.0228 0.0000
# 6 0.0000 0.0000 0.0000 0.0000 0.0000 20.3150
#
#
#
# Elastic Compliance Matrix: (Units=1/GPa)
#
#
# Indices 1 2 3 4 5 6 
#
# 1 0.023389 -0.008301 -0.010983 0.000000 0.000000 0.000000
# 2 -0.008301 0.031092 -0.010703 0.000000 0.000000 0.000000
# 3 -0.010983 -0.010703 0.021281 0.000000 0.000000 0.000000
# 4 0.000000 0.000000 0.000000 0.032817 0.000000 0.000000
# 5 0.000000 0.000000 0.000000 0.000000 0.083176 0.000000
# 6 0.000000 0.000000 0.000000 0.000000 0.000000 0.049225
#
#
# Mechanical properties :
#
#
# Convention : Reuss Voigt Hill
#
# Bulk Modulus (GPa) = 63.33892 73.33606 68.33749
# Shear Modulus (GPa) = 16.32829 18.68008 17.50418
#
# Velocity S-wave (km/s) = 3.06979 3.28343 3.17840
# Velocity P-wave (km/s) = 7.00855 7.52988 7.27389
#
# Compressibility (1/GPa) = 0.01578808
#
# Stress axis : x y z
#
# Youngs Moduli (GPa) = 42.75558 32.16222 46.98975
#
# Poissons Ratio (x) = 0.26699 0.51610
# Poissons Ratio (y) = 0.35493 0.50292
# Poissons Ratio (z) = 0.46959 0.34422
#
# Static dielectric constant tensor:
#      x y z
#    x 1.625970 0.000000 0.000000 
#    y 0.000000 1.589490 0.000000 
#    z 0.000000 0.000000 1.551310 
# 
# From -- ./inp_files/24683.got.cif
#   From: 2010.05.17/outbox.cif.g08.bks.cpg/sg59_13_cif.got.tgz:24683.got - 2010.06.03 14:40:33.
