data_PCOD9449372
_publ_section_title
;
Structure prediction by ZEFSAII (Michael W. Deem and Ramdas Pophale) SiO2 
 PCOD9449372
Probable space group: P M M N
;
_chemical_formula_sum "Si O2"
_cell_formula_units_Z 56
_cell_length_a 18.613092
_cell_length_b 8.747831
_cell_length_c 19.702605
_cell_angle_alpha 90.000000
_cell_angle_beta 90.000000
_cell_angle_gamma 90.000000
_cell_volume 3208.060566
_symmetry_space_group_name_H-M "P M M N"
_symmetry_group_IT_number 59
_space_group.IT_coordinate_system_code '2'
_symmetry_cell_setting 'orthorhombic'
loop_
_space_group_symop_operation_xyz
x,y,z
1/2-x,1/2-y,z
1/2+x,-y,-z
-x,1/2+y,-z
-x,-y,-z
1/2+x,1/2+y,-z
1/2-x,y,z
x,1/2-y,z
loop_
_atom_site_type_symbol
_atom_site_label
_atom_site_fract_x
_atom_site_fract_y
_atom_site_fract_z
Si Si1 0.609971 0.432617 0.272571
Si Si2 0.472018 0.933526 0.929647
Si Si3 0.075578 0.934577 0.581536
Si Si4 0.915462 0.065378 0.569285
Si Si5 0.668966 0.065753 0.701660
Si Si6 0.169044 0.432569 0.862871
Si Si7 0.954387 0.931695 0.791511
O O1 0.623183 0.250000 0.266934
O O2 0.617920 0.482205 0.350716
O O3 0.655299 0.516280 0.214923
O O4 0.526339 0.459122 0.252800
O O5 0.470796 0.750000 0.931966
O O6 0.524603 0.980055 0.867597
O O7 0.393114 0.991700 0.908123
O O8 0.500000 0.000000 0.000000
O O9 0.071032 0.750000 0.584416
O O10 0.106143 0.977910 0.507651
O O11 0.994665 0.999267 0.583059
O O12 0.920069 0.250000 0.571375
O O13 0.862014 0.014932 0.628537
O O14 0.750000 0.010495 0.712545
O O15 0.670086 0.250000 0.701046
O O16 0.613284 0.012477 0.758484
O O17 0.250000 0.476746 0.882885
O O18 0.162300 0.250000 0.867474
O O19 0.941964 0.750000 0.791466
#
# Coordination Sequence:
#
# PCOD9449372 Si02
#       7
#     8   8   8   8   8   8   8
#     4   9  17  30  50  75 102 132 171 218 262 311
#     4  10  21  38  61  87 112 139 171 211 256 307
#     4   9  16  28  46  69  96 126 168 219 266 314
#     4   9  17  28  44  67  95 129 170 217 268 312
#     4  10  20  32  46  68 100 136 176 220 263 308
#     4  10  21  36  55  81 112 144 176 213 259 311
#     4   9  18  33  52  75 101 129 166 209 250 299
#
# _framework density 17.456029999999998
#
# number of rings (size 3 to 8) (size 9 to 14) (size 15 to 20)
#    0.000    2.571    1.429    1.714    0.000    4.857 
#    0.000    1.429    0.000    3.429    0.000    0.000 
#    0.000    0.000    0.000    0.000    0.000    0.000 
#
# Total GULP energy -312171.736532 kJ/mol
# GULP energy per Si atom -5574.495295 kJ/mol
# Density = 1.741630 g / cm^3
# Si number density = 17.456030 Si / 1000 Ang^3
#
#
#
# Elastic Constant Matrix: (Units=GPa)
#
#
# Indices 1 2 3 4 5 6 
#
# 1 103.0249 32.3692 62.8337 0.0000 0.0000 0.0000
# 2 32.3692 19.9449 35.7217 0.0000 0.0000 0.0000
# 3 62.8337 35.7217 150.9374 0.0000 0.0000 0.0000
# 4 0.0000 0.0000 0.0000 26.1048 0.0000 0.0000
# 5 0.0000 0.0000 0.0000 0.0000 15.3947 0.0000
# 6 0.0000 0.0000 0.0000 0.0000 0.0000 22.1561
#
#
#
# Elastic Compliance Matrix: (Units=1/GPa)
#
#
# Indices 1 2 3 4 5 6 
#
# 1 0.019912 -0.030323 -0.001113 0.000000 0.000000 0.000000
# 2 -0.030323 0.133203 -0.018901 0.000000 0.000000 0.000000
# 3 -0.001113 -0.018901 0.011562 0.000000 0.000000 0.000000
# 4 0.000000 0.000000 0.000000 0.038307 0.000000 0.000000
# 5 0.000000 0.000000 0.000000 0.000000 0.064957 0.000000
# 6 0.000000 0.000000 0.000000 0.000000 0.000000 0.045134
#
#
# Mechanical properties :
#
#
# Convention : Reuss Voigt Hill
#
# Bulk Modulus (GPa) = 15.62436 59.52849 37.57643
# Shear Modulus (GPa) = 11.49201 22.26330 16.87765
#
# Velocity S-wave (km/s) = 2.56860 3.57514 3.11282
# Velocity P-wave (km/s) = 4.21510 7.15669 5.87304
#
# Compressibility (1/GPa) = 0.06400260
#
# Stress axis : x y z
#
# Youngs Moduli (GPa) = 50.22040 7.50732 86.49133
#
# Poissons Ratio (x) = 0.22765 0.09625
# Poissons Ratio (y) = 1.52284 1.63481
# Poissons Ratio (z) = 0.05589 0.14190
#
# Static dielectric constant tensor:
#      x y z
#    x 1.570590 0.000000 0.000000 
#    y 0.000000 1.589920 0.000000 
#    z 0.000000 0.000000 1.612840 
# 
# From -- ./inp_files/30597.got.cif
#   From: 2010.05.17/outbox.cif.g08.bks.cpg/sg59_16_cif.got.tgz:30597.got - 2010.06.03 14:40:33.
