data_PCOD9449729
_publ_section_title
;
Structure prediction by ZEFSAII (Michael W. Deem and Ramdas Pophale) SiO2 
 PCOD9449729
Probable space group: P M M N
;
_chemical_formula_sum "Si O2"
_cell_formula_units_Z 40
_cell_length_a 7.636318
_cell_length_b 9.273935
_cell_length_c 26.549493
_cell_angle_alpha 90.000000
_cell_angle_beta 90.000000
_cell_angle_gamma 90.000000
_cell_volume 1880.201025
_symmetry_space_group_name_H-M "P M M N"
_symmetry_group_IT_number 59
_space_group.IT_coordinate_system_code '2'
_symmetry_cell_setting 'orthorhombic'
loop_
_space_group_symop_operation_xyz
x,y,z
1/2-x,1/2-y,z
1/2+x,-y,-z
-x,1/2+y,-z
-x,-y,-z
1/2+x,1/2+y,-z
1/2-x,y,z
x,1/2-y,z
loop_
_atom_site_type_symbol
_atom_site_label
_atom_site_fract_x
_atom_site_fract_y
_atom_site_fract_z
Si Si1 0.964231 0.916250 0.350121
Si Si2 0.460427 0.914085 0.550838
Si Si3 0.958447 0.912970 0.151320
Si Si4 0.964454 0.083816 0.249440
Si Si5 0.541854 0.913345 0.949320
O O1 0.750000 0.915908 0.350473
O O2 0.020435 0.750000 0.350129
O O3 0.023905 0.999916 0.400052
O O4 0.018399 0.999267 0.299633
O O5 0.250000 0.906603 0.555245
O O6 0.527233 0.750000 0.548893
O O7 0.500000 0.000000 0.500000
O O8 0.750000 0.901254 0.158869
O O9 0.029268 0.750000 0.148322
O O10 0.026003 0.001754 0.199307
O O11 0.983795 0.999192 0.099738
O O12 0.750000 0.084582 0.249026
O O13 0.020576 0.250000 0.250019
O O14 0.750000 0.902890 0.946423
O O15 0.469546 0.750000 0.950385
O O16 0.500000 0.000000 0.000000
#
# Coordination Sequence:
#
# PCOD9449729 Si02
#       5
#     8   8   8   8   8
#     4   9  16  27  45  70 100 133 170 213 258 304
#     4  10  20  33  50  73 101 134 173 216 262 313
#     4  10  20  34  54  81 110 139 173 212 255 305
#     4   9  16  27  46  73 104 136 170 210 255 302
#     4  11  24  40  58  81 108 139 176 216 258 306
#
# _framework density 21.274318999999998
#
# number of rings (size 3 to 8) (size 9 to 14) (size 15 to 20)
#    0.000    2.200    0.000    3.600    0.000   11.200 
#    0.000    0.000    0.000    1.200    0.000    0.000 
#    0.000    0.000    0.000    0.000    0.000    0.000 
#
# Total GULP energy -223570.438179 kJ/mol
# GULP energy per Si atom -5589.260954 kJ/mol
# Density = 2.122590 g / cm^3
# Si number density = 21.274319 Si / 1000 Ang^3
#
#
#
# Elastic Constant Matrix: (Units=GPa)
#
#
# Indices 1 2 3 4 5 6 
#
# 1 41.1506 6.6753 -4.0385 0.0000 0.0000 0.0000
# 2 6.6753 274.8150 163.0614 0.0000 0.0000 0.0000
# 3 -4.0385 163.0614 250.4396 0.0000 0.0000 0.0000
# 4 0.0000 0.0000 0.0000 46.0400 0.0000 0.0000
# 5 0.0000 0.0000 0.0000 0.0000 18.7211 0.0000
# 6 0.0000 0.0000 0.0000 0.0000 0.0000 11.5787
#
#
#
# Elastic Compliance Matrix: (Units=1/GPa)
#
#
# Indices 1 2 3 4 5 6 
#
# 1 0.024648 -0.001360 0.001283 0.000000 0.000000 0.000000
# 2 -0.001360 0.006005 -0.003932 0.000000 0.000000 0.000000
# 3 0.001283 -0.003932 0.006573 0.000000 0.000000 0.000000
# 4 0.000000 0.000000 0.000000 0.021720 0.000000 0.000000
# 5 0.000000 0.000000 0.000000 0.000000 0.053416 0.000000
# 6 0.000000 0.000000 0.000000 0.000000 0.000000 0.086366
#
#
# Mechanical properties :
#
#
# Convention : Reuss Voigt Hill
#
# Bulk Modulus (GPa) = 34.23659 99.75574 66.99616
# Shear Modulus (GPa) = 23.09678 41.98176 32.53927
#
# Velocity S-wave (km/s) = 3.29852 4.44706 3.91514
# Velocity P-wave (km/s) = 5.53487 8.56508 7.21094
#
# Compressibility (1/GPa) = 0.02920852
#
# Stress axis : x y z
#
# Youngs Moduli (GPa) = 40.57207 166.53832 152.12601
#
# Poissons Ratio (x) = 0.22647 -0.19516
# Poissons Ratio (y) = 0.05517 0.59809
# Poissons Ratio (z) = -0.05205 0.65475
#
# Static dielectric constant tensor:
#      x y z
#    x 1.823620 0.000000 0.000000 
#    y 0.000000 1.749910 0.000000 
#    z 0.000000 0.000000 1.249110 
# 
# From -- ./inp_files/31137.got.cif
#   From: 2010.05.17/outbox.cif.g08.bks.cpg/sg59_16_cif.got.tgz:31137.got - 2010.06.03 14:40:33.
