data_PCOD9449791
_publ_section_title
;
Structure prediction by ZEFSAII (Michael W. Deem and Ramdas Pophale) SiO2 
 PCOD9449791
Probable space group: P M M N
;
_chemical_formula_sum "Si O2"
_cell_formula_units_Z 56
_cell_length_a 8.858333
_cell_length_b 18.453862
_cell_length_c 20.039570
_cell_angle_alpha 90.000000
_cell_angle_beta 90.000000
_cell_angle_gamma 90.000000
_cell_volume 3275.877621
_symmetry_space_group_name_H-M "P M M N"
_symmetry_group_IT_number 59
_space_group.IT_coordinate_system_code '2'
_symmetry_cell_setting 'orthorhombic'
loop_
_space_group_symop_operation_xyz
x,y,z
1/2-x,1/2-y,z
1/2+x,-y,-z
-x,1/2+y,-z
-x,-y,-z
1/2+x,1/2+y,-z
1/2-x,y,z
x,1/2-y,z
loop_
_atom_site_type_symbol
_atom_site_label
_atom_site_fract_x
_atom_site_fract_y
_atom_site_fract_z
Si Si1 0.928328 0.463532 0.565572
Si Si2 0.069949 0.977113 0.700676
Si Si3 0.568767 0.562694 0.953291
Si Si4 0.429239 0.166646 0.340218
Si Si5 0.422845 0.665388 0.519578
Si Si6 0.067917 0.470489 0.844307
Si Si7 0.566738 0.667537 0.066708
O O1 0.750000 0.479242 0.568810
O O2 0.951927 0.379508 0.546947
O O3 0.000000 0.500000 0.500000
O O4 0.004242 0.487696 0.633659
O O5 0.250000 0.974839 0.696165
O O6 0.007918 0.895008 0.703242
O O7 0.027876 0.022087 0.766743
O O8 0.750000 0.557803 0.951310
O O9 0.501136 0.540119 0.882375
O O10 0.500000 0.500000 0.000000
O O11 0.528843 0.636492 0.992748
O O12 0.250000 0.163142 0.331808
O O13 0.478964 0.250000 0.327992
O O14 0.471203 0.149302 0.417405
O O15 0.250000 0.647906 0.540940
O O16 0.433106 0.750000 0.506396
O O17 0.250000 0.473721 0.850876
O O18 0.018639 0.395162 0.880408
O O19 0.750000 0.669388 0.070406
O O20 0.512673 0.750000 0.077732
#
# Coordination Sequence:
#
# PCOD9449791 Si02
#       7
#     8   8   8   8   8   8   8
#     4  11  21  33  52  76 101 131 172 221 266 317
#     4  11  22  35  51  73 104 141 177 214 262 319
#     4   9  16  28  50  76 101 130 164 203 246 295
#     4  10  20  33  51  74  96 122 164 216 264 314
#     4   9  18  33  52  72  95 126 163 208 266 321
#     4   9  19  34  51  73 102 138 177 213 251 303
#     4   8  14  28  52  79 103 130 167 208 248 291
#
# _framework density 17.094654999999999
#
# number of rings (size 3 to 8) (size 9 to 14) (size 15 to 20)
#    0.000    2.429    1.429    2.571    0.000    2.571 
#    0.000    1.429    0.000   14.143    0.000    0.000 
#    0.000    0.000    0.000    0.000    0.000    0.000 
#
# Total GULP energy -311846.958568 kJ/mol
# GULP energy per Si atom -5568.695689 kJ/mol
# Density = 1.705575 g / cm^3
# Si number density = 17.094655 Si / 1000 Ang^3
#
#
#
# Elastic Constant Matrix: (Units=GPa)
#
#
# Indices 1 2 3 4 5 6 
#
# 1 35.3178 25.5881 31.8895 0.0000 0.0000 0.0000
# 2 25.5881 103.1261 56.1950 0.0000 0.0000 0.0000
# 3 31.8895 56.1950 113.7342 0.0000 0.0000 0.0000
# 4 0.0000 0.0000 0.0000 22.7807 0.0000 0.0000
# 5 0.0000 0.0000 0.0000 0.0000 24.1672 0.0000
# 6 0.0000 0.0000 0.0000 0.0000 0.0000 20.9169
#
#
#
# Elastic Compliance Matrix: (Units=1/GPa)
#
#
# Indices 1 2 3 4 5 6 
#
# 1 0.039851 -0.005199 -0.008605 0.000000 0.000000 0.000000
# 2 -0.005199 0.013948 -0.005434 0.000000 0.000000 0.000000
# 3 -0.008605 -0.005434 0.013890 0.000000 0.000000 0.000000
# 4 0.000000 0.000000 0.000000 0.043897 0.000000 0.000000
# 5 0.000000 0.000000 0.000000 0.000000 0.041378 0.000000
# 6 0.000000 0.000000 0.000000 0.000000 0.000000 0.047808
#
#
# Mechanical properties :
#
#
# Convention : Reuss Voigt Hill
#
# Bulk Modulus (GPa) = 34.23116 53.28036 43.75576
# Shear Modulus (GPa) = 20.08157 22.80665 21.44411
#
# Velocity S-wave (km/s) = 3.43115 3.65655 3.54564
# Velocity P-wave (km/s) = 5.98038 7.00447 6.51259
#
# Compressibility (1/GPa) = 0.02921315
#
# Stress axis : x y z
#
# Youngs Moduli (GPa) = 25.09374 71.69590 71.99506
#
# Poissons Ratio (x) = 0.37275 0.61950
# Poissons Ratio (y) = 0.13046 0.39120
# Poissons Ratio (z) = 0.21593 0.38958
#
# Static dielectric constant tensor:
#      x y z
#    x 1.586950 0.000000 0.000000 
#    y 0.000000 1.634840 0.000000 
#    z 0.000000 0.000000 1.665130 
# 
# From -- ./inp_files/29318.got.cif
#   From: 2010.05.17/outbox.cif.g08.bks.cpg/sg59_15_cif.got.tgz:29318.got - 2010.06.03 14:40:33.
