data_PCOD9449819
_publ_section_title
;
Structure prediction by ZEFSAII (Michael W. Deem and Ramdas Pophale) SiO2 
 PCOD9449819
Probable space group: P M M N
;
_chemical_formula_sum "Si O2"
_cell_formula_units_Z 48
_cell_length_a 9.320236
_cell_length_b 8.633823
_cell_length_c 32.241287
_cell_angle_alpha 90.000000
_cell_angle_beta 90.000000
_cell_angle_gamma 90.000000
_cell_volume 2594.432762
_symmetry_space_group_name_H-M "P M M N"
_symmetry_group_IT_number 59
_space_group.IT_coordinate_system_code '2'
_symmetry_cell_setting 'orthorhombic'
loop_
_space_group_symop_operation_xyz
x,y,z
1/2-x,1/2-y,z
1/2+x,-y,-z
-x,1/2+y,-z
-x,-y,-z
1/2+x,1/2+y,-z
1/2-x,y,z
x,1/2-y,z
loop_
_atom_site_type_symbol
_atom_site_label
_atom_site_fract_x
_atom_site_fract_y
_atom_site_fract_z
Si Si1 0.416564 0.434207 0.282618
Si Si2 0.083598 0.562760 0.460685
Si Si3 0.583594 0.937418 0.039801
Si Si4 0.915396 0.439042 0.877425
Si Si5 0.585046 0.937053 0.204553
Si Si6 0.575505 0.429719 0.629997
O O1 0.250000 0.487025 0.278373
O O2 0.418990 0.250000 0.278610
O O3 0.511135 0.507866 0.246669
O O4 0.467213 0.480265 0.328753
O O5 0.250000 0.515742 0.464088
O O6 0.078884 0.750000 0.460324
O O7 0.026886 0.511778 0.415243
O O8 0.000000 0.500000 0.500000
O O9 0.750000 0.986494 0.039696
O O10 0.580992 0.750000 0.038806
O O11 0.503142 0.987366 0.081857
O O12 0.500000 0.000000 0.000000
O O13 0.750000 0.489847 0.878868
O O14 0.915050 0.250000 0.877211
O O15 0.994271 0.489927 0.835416
O O16 0.750000 0.989063 0.201801
O O17 0.584779 0.750000 0.204084
O O18 0.750000 0.433901 0.628103
O O19 0.533518 0.250000 0.634616
#
# Coordination Sequence:
#
# PCOD9449819 Si02
#       6
#     8   8   8   8   8   8
#     4  10  20  33  51  76 102 128 162 205 252 301
#     4   9  18  32  50  74 102 131 166 207 250 298
#     4  10  20  34  53  78 108 140 174 213 256 303
#     4   9  17  31  53  78 102 131 169 212 255 299
#     4  10  20  34  53  76 101 131 167 205 247 298
#     4   8  15  30  51  72  96 129 169 210 248 291
#
# _framework density 18.501152999999999
#
# number of rings (size 3 to 8) (size 9 to 14) (size 15 to 20)
#    0.000    2.667    0.000    3.000    0.000    6.000 
#    0.000    3.333    0.000    6.000    0.000    0.000 
#    0.000    0.000    0.000    0.000    0.000    0.000 
#
# Total GULP energy -267708.228072 kJ/mol
# GULP energy per Si atom -5577.254752 kJ/mol
# Density = 1.845904 g / cm^3
# Si number density = 18.501153 Si / 1000 Ang^3
#
#
#
# Elastic Constant Matrix: (Units=GPa)
#
#
# Indices 1 2 3 4 5 6 
#
# 1 130.7344 21.2081 101.7782 0.0000 0.0000 0.0000
# 2 21.2081 4.5515 22.7079 0.0000 0.0000 0.0000
# 3 101.7782 22.7079 202.9233 0.0000 0.0000 0.0000
# 4 0.0000 0.0000 0.0000 30.3092 0.0000 0.0000
# 5 0.0000 0.0000 0.0000 0.0000 34.4651 0.0000
# 6 0.0000 0.0000 0.0000 0.0000 0.0000 19.1519
#
#
#
# Elastic Compliance Matrix: (Units=1/GPa)
#
#
# Indices 1 2 3 4 5 6 
#
# 1 0.031514 -0.153911 0.001417 0.000000 0.000000 0.000000
# 2 -0.153911 1.249105 -0.062584 0.000000 0.000000 0.000000
# 3 0.001417 -0.062584 0.011220 0.000000 0.000000 0.000000
# 4 0.000000 0.000000 0.000000 0.032993 0.000000 0.000000
# 5 0.000000 0.000000 0.000000 0.000000 0.029015 0.000000
# 6 0.000000 0.000000 0.000000 0.000000 0.000000 0.052214
#
#
# Mechanical properties :
#
#
# Convention : Reuss Voigt Hill
#
# Bulk Modulus (GPa) = 1.16052 69.95529 35.55790
# Shear Modulus (GPa) = 2.35467 29.61956 15.98711
#
# Velocity S-wave (km/s) = 1.12937 4.00554 2.94277
# Velocity P-wave (km/s) = 1.52619 7.69973 5.55046
#
# Compressibility (1/GPa) = 0.86168374
#
# Stress axis : x y z
#
# Youngs Moduli (GPa) = 31.73230 0.80057 89.12261
#
# Poissons Ratio (x) = 0.12322 -0.12631
# Poissons Ratio (y) = 4.88395 5.57762
# Poissons Ratio (z) = -0.04497 0.05010
#
# Static dielectric constant tensor:
#      x y z
#    x 1.628410 0.000000 0.000000 
#    y 0.000000 1.638210 0.000000 
#    z 0.000000 0.000000 1.627470 
# 
# From -- ./inp_files/32844.got.cif
#   From: 2010.05.17/outbox.cif.g08.bks.cpg/sg59_17_cif.got.tgz:32844.got - 2010.06.03 14:40:33.
