data_PCOD9449386
_publ_section_title
;
Structure prediction by ZEFSAII (Michael W. Deem and Ramdas Pophale) SiO2 
 PCOD9449386
Probable space group: P M M N
;
_chemical_formula_sum "Si O2"
_cell_formula_units_Z 64
_cell_length_a 7.586885
_cell_length_b 15.133789
_cell_length_c 27.304180
_cell_angle_alpha 90.000000
_cell_angle_beta 90.000000
_cell_angle_gamma 90.000000
_cell_volume 3135.019988
_symmetry_space_group_name_H-M "P M M N"
_symmetry_group_IT_number 59
_space_group.IT_coordinate_system_code '2'
_symmetry_cell_setting 'orthorhombic'
loop_
_space_group_symop_operation_xyz
x,y,z
1/2-x,1/2-y,z
1/2+x,-y,-z
-x,1/2+y,-z
-x,-y,-z
1/2+x,1/2+y,-z
1/2-x,y,z
x,1/2-y,z
loop_
_atom_site_type_symbol
_atom_site_label
_atom_site_fract_x
_atom_site_fract_y
_atom_site_fract_z
Si Si1 0.534810 0.851201 0.130699
Si Si2 0.042451 0.493050 0.313383
Si Si3 0.961705 0.500044 0.057204
Si Si4 0.537121 0.648410 0.240737
Si Si5 0.038018 0.502201 0.423467
Si Si6 0.538265 0.351636 0.499826
Si Si7 0.962315 0.851008 0.762995
Si Si8 0.039173 0.849449 0.872385
O O1 0.750000 0.851937 0.130804
O O2 0.480231 0.750000 0.123018
O O3 0.480167 0.878479 0.185710
O O4 0.473364 0.915586 0.087925
O O5 0.250000 0.473913 0.319293
O O6 0.968971 0.500789 0.368076
O O7 0.968352 0.415038 0.279213
O O8 0.025558 0.582467 0.282335
O O9 0.750000 0.500199 0.061883
O O10 0.029460 0.413892 0.085813
O O11 0.000000 0.500000 0.000000
O O12 0.750000 0.646925 0.241138
O O13 0.481725 0.750000 0.248576
O O14 0.250000 0.511461 0.421982
O O15 0.971994 0.585587 0.455706
O O16 0.999889 0.410759 0.451823
O O17 0.750000 0.346547 0.504183
O O18 0.472737 0.250000 0.498961
O O19 0.750000 0.848972 0.759993
O O20 0.026810 0.750000 0.758686
O O21 0.006885 0.884021 0.817507
O O22 0.250000 0.844128 0.878077
O O23 0.966901 0.750000 0.875117
#
# Coordination Sequence:
#
# PCOD9449386 Si02
#       8
#     8   8   8   8   8   8   8   8
#     4   8  15  30  50  68  88 119 158 193 226 272
#     4  10  20  32  49  75 106 135 160 195 244 293
#     4  10  20  32  47  68  92 118 150 191 237 283
#     4   9  18  33  53  75  98 128 166 203 239 284
#     4   9  19  34  51  74 102 133 168 202 243 297
#     4   9  18  34  54  73  96 129 170 214 252 285
#     4   9  18  32  49  71  99 129 162 199 238 284
#     4   9  18  33  51  69  91 122 159 196 236 284
#
# _framework density 20.414542000000001
#
# number of rings (size 3 to 8) (size 9 to 14) (size 15 to 20)
#    0.000    2.875    0.000    1.500    0.000    4.500 
#    0.000    3.125    0.000    2.250    0.000    0.000 
#    0.000    0.000    0.000    0.000    0.000    0.000 
#
# Total GULP energy -357048.599231 kJ/mol
# GULP energy per Si atom -5578.884363 kJ/mol
# Density = 2.036808 g / cm^3
# Si number density = 20.414542 Si / 1000 Ang^3
#
#
#
# Elastic Constant Matrix: (Units=GPa)
#
#
# Indices 1 2 3 4 5 6 
#
# 1 43.1111 0.0221 -0.3726 0.0000 0.0000 0.0000
# 2 0.0221 143.9891 118.0039 0.0000 0.0000 0.0000
# 3 -0.3726 118.0039 217.6674 0.0000 0.0000 0.0000
# 4 0.0000 0.0000 0.0000 -285.4609 0.0000 0.0000
# 5 0.0000 0.0000 0.0000 0.0000 2.8446 0.0000
# 6 0.0000 0.0000 0.0000 0.0000 0.0000 11.3646
#
#
#
# Elastic Compliance Matrix: (Units=1/GPa)
#
#
# Indices 1 2 3 4 5 6 
#
# 1 0.023197 -0.000065 0.000075 0.000000 0.000000 0.000000
# 2 -0.000065 0.012498 -0.006775 0.000000 0.000000 0.000000
# 3 0.000075 -0.006775 0.008267 0.000000 0.000000 0.000000
# 4 0.000000 0.000000 0.000000 -0.003503 0.000000 0.000000
# 5 0.000000 0.000000 0.000000 0.000000 0.351543 0.000000
# 6 0.000000 0.000000 0.000000 0.000000 0.000000 0.087993
#
#
# Mechanical properties :
#
#
# Convention : Reuss Voigt Hill
#
# Bulk Modulus (GPa) = 32.86153 71.11938 51.99045
# Shear Modulus (GPa) = 9.92716 -35.10939 -12.59112
#
# Velocity S-wave (km/s) = 2.20757 -4.15157 -2.48618
# Velocity P-wave (km/s) = 4.75708 3.45434 4.15706
#
# Compressibility (1/GPa) = 0.03043072
#
# Stress axis : x y z
#
# Youngs Moduli (GPa) = 43.10981 80.01457 120.95569
#
# Poissons Ratio (x) = 0.00520 -0.00906
# Poissons Ratio (y) = 0.00280 0.81953
# Poissons Ratio (z) = -0.00323 0.54214
#
# Static dielectric constant tensor:
#      x y z
#    x 1.772570 0.000000 0.000000 
#    y 0.000000 1.726510 0.000000 
#    z 0.000000 0.000000 1.704950 
# 
# From -- ./inp_files/31453.got.cif
#   From: 2010.05.17/outbox.cif.g08.bks.cpg/sg59_16_cif.got.tgz:31453.got - 2010.06.03 14:40:33.
