data_PCOD9449509
_publ_section_title
;
Structure prediction by ZEFSAII (Michael W. Deem and Ramdas Pophale) SiO2 
 PCOD9449509
Probable space group: P M M N
;
_chemical_formula_sum "Si O2"
_cell_formula_units_Z 48
_cell_length_a 9.522397
_cell_length_b 15.181630
_cell_length_c 16.038410
_cell_angle_alpha 90.000000
_cell_angle_beta 90.000000
_cell_angle_gamma 90.000000
_cell_volume 2318.600889
_symmetry_space_group_name_H-M "P M M N"
_symmetry_group_IT_number 59
_space_group.IT_coordinate_system_code '2'
_symmetry_cell_setting 'orthorhombic'
loop_
_space_group_symop_operation_xyz
x,y,z
1/2-x,1/2-y,z
1/2+x,-y,-z
-x,1/2+y,-z
-x,-y,-z
1/2+x,1/2+y,-z
1/2-x,y,z
x,1/2-y,z
loop_
_atom_site_type_symbol
_atom_site_label
_atom_site_fract_x
_atom_site_fract_y
_atom_site_fract_z
Si Si1 0.094394 0.645507 0.826741
Si Si2 0.581113 0.592652 0.485856
Si Si3 0.910117 0.400636 0.672492
Si Si4 0.593776 0.887317 0.668672
Si Si5 0.411263 0.143910 0.833283
Si Si6 0.588295 0.857686 0.980169
O O1 0.250000 0.607046 0.823184
O O2 0.105701 0.750000 0.841470
O O3 0.015980 0.635968 0.739280
O O4 0.006321 0.609171 0.904482
O O5 0.500000 0.500000 0.500000
O O6 0.750000 0.580596 0.473984
O O7 0.507191 0.632231 0.404082
O O8 0.562574 0.642196 0.574081
O O9 0.750000 0.366914 0.668430
O O10 0.902172 0.506537 0.665181
O O11 0.985084 0.382757 0.759987
O O12 0.750000 0.856289 0.692299
O O13 0.250000 0.114583 0.817964
O O14 0.408222 0.250000 0.834563
O O15 0.455217 0.115321 0.926474
O O16 0.750000 0.883801 0.967553
O O17 0.586073 0.750000 0.978836
#
# Coordination Sequence:
#
# PCOD9449509 Si02
#       6
#     8   8   8   8   8   8
#     4  10  20  32  49  75 101 125 159 203 247 290
#     4   9  17  31  51  73  97 128 166 204 242 290
#     4  10  20  33  51  76 102 129 164 204 246 292
#     4   9  19  34  51  72  97 128 165 200 238 290
#     4   9  18  33  53  76 100 129 166 203 242 292
#     4   8  15  30  51  71  94 128 165 198 237 290
#
# _framework density 20.702138999999999
#
# number of rings (size 3 to 8) (size 9 to 14) (size 15 to 20)
#    0.000    2.833    0.000    3.500    0.000    6.000 
#    0.000    3.333    0.000    1.000    0.000    0.000 
#    0.000    0.000    0.000    0.000    0.000    0.000 
#
# Total GULP energy -267681.781049 kJ/mol
# GULP energy per Si atom -5576.703772 kJ/mol
# Density = 2.065502 g / cm^3
# Si number density = 20.702139 Si / 1000 Ang^3
#
#
#
# Elastic Constant Matrix: (Units=GPa)
#
#
# Indices 1 2 3 4 5 6 
#
# 1 171.4860 5.7174 141.8667 0.0000 0.0000 0.0000
# 2 5.7174 36.7795 1.5594 0.0000 0.0000 0.0000
# 3 141.8667 1.5594 194.7735 0.0000 0.0000 0.0000
# 4 0.0000 0.0000 0.0000 22.3401 0.0000 0.0000
# 5 0.0000 0.0000 0.0000 0.0000 34.5658 0.0000
# 6 0.0000 0.0000 0.0000 0.0000 0.0000 15.0403
#
#
#
# Elastic Compliance Matrix: (Units=1/GPa)
#
#
# Indices 1 2 3 4 5 6 
#
# 1 0.014796 -0.001844 -0.010762 0.000000 0.000000 0.000000
# 2 -0.001844 0.027428 0.001123 0.000000 0.000000 0.000000
# 3 -0.010762 0.001123 0.012964 0.000000 0.000000 0.000000
# 4 0.000000 0.000000 0.000000 0.044763 0.000000 0.000000
# 5 0.000000 0.000000 0.000000 0.000000 0.028930 0.000000
# 6 0.000000 0.000000 0.000000 0.000000 0.000000 0.066488
#
#
# Mechanical properties :
#
#
# Convention : Reuss Voigt Hill
#
# Bulk Modulus (GPa) = 31.03389 77.92514 54.47951
# Shear Modulus (GPa) = 21.82679 31.31560 26.57119
#
# Velocity S-wave (km/s) = 3.25056 3.89353 3.58648
# Velocity P-wave (km/s) = 5.39550 7.61154 6.59723
#
# Compressibility (1/GPa) = 0.03222284
#
# Stress axis : x y z
#
# Youngs Moduli (GPa) = 67.58395 36.45905 77.13547
#
# Poissons Ratio (x) = 0.06722 0.83017
# Poissons Ratio (y) = 0.12461 -0.08665
# Poissons Ratio (z) = 0.72737 -0.04096
#
# Static dielectric constant tensor:
#      x y z
#    x 1.732830 0.000000 0.000000 
#    y 0.000000 1.792710 0.000000 
#    z 0.000000 0.000000 1.749730 
# 
# From -- ./inp_files/20355.got.cif
#   From: 2010.05.17/outbox.cif.g08.bks.cpg/sg59_11_cif.got.tgz:20355.got - 2010.06.03 14:40:33.
