data_PCOD9449738
_publ_section_title
;
Structure prediction by ZEFSAII (Michael W. Deem and Ramdas Pophale) SiO2 
 PCOD9449738
Probable space group: P M M N
;
_chemical_formula_sum "Si O2"
_cell_formula_units_Z 48
_cell_length_a 14.768370
_cell_length_b 7.726764
_cell_length_c 21.823658
_cell_angle_alpha 90.000000
_cell_angle_beta 90.000000
_cell_angle_gamma 90.000000
_cell_volume 2490.334925
_symmetry_space_group_name_H-M "P M M N"
_symmetry_group_IT_number 59
_space_group.IT_coordinate_system_code '2'
_symmetry_cell_setting 'orthorhombic'
loop_
_space_group_symop_operation_xyz
x,y,z
1/2-x,1/2-y,z
1/2+x,-y,-z
-x,1/2+y,-z
-x,-y,-z
1/2+x,1/2+y,-z
1/2-x,y,z
x,1/2-y,z
loop_
_atom_site_type_symbol
_atom_site_label
_atom_site_fract_x
_atom_site_fract_y
_atom_site_fract_z
Si Si1 0.853154 0.961697 0.167158
Si Si2 0.498843 0.041426 0.734025
Si Si3 0.148742 0.454369 0.493781
Si Si4 0.489280 0.954494 0.592192
Si Si5 0.499355 0.542603 0.071155
Si Si6 0.353399 0.961708 0.168703
O O1 0.750000 0.022059 0.167128
O O2 0.851322 0.750000 0.166947
O O3 0.911473 0.014814 0.226496
O O4 0.911760 0.017916 0.108196
O O5 0.499168 0.250000 0.734871
O O6 0.587674 0.984903 0.772094
O O7 0.495847 0.985643 0.664097
O O8 0.250000 0.528227 0.491825
O O9 0.156251 0.250000 0.481195
O O10 0.100196 0.473160 0.559448
O O11 0.077067 0.526469 0.444207
O O12 0.486377 0.750000 0.581227
O O13 0.499082 0.750000 0.076265
O O14 0.411238 0.482177 0.109221
O O15 0.500000 0.500000 0.000000
O O16 0.250000 0.021588 0.169091
O O17 0.351662 0.750000 0.168552
#
# Coordination Sequence:
#
# PCOD9449738 Si02
#       6
#     8   8   8   8   8   8
#     4   8  15  29  47  65  87 118 155 189 219 262
#     4   9  17  30  49  70  90 119 159 193 225 274
#     4   9  19  36  54  70  93 129 167 195 225 277
#     4  10  20  33  50  74 102 126 152 195 245 283
#     4   9  17  29  46  67  90 117 150 188 230 274
#     4   8  15  29  47  66  90 121 157 194 229 272
#
# _framework density 19.274515000000001
#
# number of rings (size 3 to 8) (size 9 to 14) (size 15 to 20)
#    0.000    3.167    0.000    2.500    0.000    3.000 
#    0.000    5.000    0.000    2.000    0.000    0.000 
#    0.000    0.000    0.000    0.000    0.000    0.000 
#
# Total GULP energy -267559.900581 kJ/mol
# GULP energy per Si atom -5574.164595 kJ/mol
# Density = 1.923064 g / cm^3
# Si number density = 19.274515 Si / 1000 Ang^3
#
#
#
# Elastic Constant Matrix: (Units=GPa)
#
#
# Indices 1 2 3 4 5 6 
#
# 1 192.3650 5.3363 78.0879 0.0000 0.0000 0.0000
# 2 5.3363 25.9753 -8.6519 0.0000 0.0000 0.0000
# 3 78.0879 -8.6519 150.6822 0.0000 0.0000 0.0000
# 4 0.0000 0.0000 0.0000 20.9508 0.0000 0.0000
# 5 0.0000 0.0000 0.0000 0.0000 7.6684 0.0000
# 6 0.0000 0.0000 0.0000 0.0000 0.0000 2.9417
#
#
#
# Elastic Compliance Matrix: (Units=1/GPa)
#
#
# Indices 1 2 3 4 5 6 
#
# 1 0.006752 -0.002602 -0.003648 0.000000 0.000000 0.000000
# 2 -0.002602 0.040252 0.003660 0.000000 0.000000 0.000000
# 3 -0.003648 0.003660 0.008737 0.000000 0.000000 0.000000
# 4 0.000000 0.000000 0.000000 0.047731 0.000000 0.000000
# 5 0.000000 0.000000 0.000000 0.000000 0.130406 0.000000
# 6 0.000000 0.000000 0.000000 0.000000 0.000000 0.339937
#
#
# Mechanical properties :
#
#
# Convention : Reuss Voigt Hill
#
# Bulk Modulus (GPa) = 19.77884 57.61854 38.69869
# Shear Modulus (GPa) = 8.39139 25.92887 17.16013
#
# Velocity S-wave (km/s) = 2.08880 3.67173 2.98703
# Velocity P-wave (km/s) = 4.01265 6.92344 5.65842
#
# Compressibility (1/GPa) = 0.05055907
#
# Stress axis : x y z
#
# Youngs Moduli (GPa) = 148.11282 24.84365 114.45219
#
# Poissons Ratio (x) = 0.06465 0.41756
# Poissons Ratio (y) = 0.38542 -0.41886
# Poissons Ratio (z) = 0.54036 -0.09092
#
# Static dielectric constant tensor:
#      x y z
#    x 1.678400 0.000000 0.000000 
#    y 0.000000 1.713530 0.000000 
#    z 0.000000 0.000000 1.644590 
# 
# From -- ./inp_files/28820.got.cif
#   From: 2010.05.17/outbox.cif.g08.bks.cpg/sg59_15_cif.got.tgz:28820.got - 2010.06.03 14:40:33.
