data_PCOD9449535
_publ_section_title
;
Structure prediction by ZEFSAII (Michael W. Deem and Ramdas Pophale) SiO2 
 PCOD9449535
Probable space group: P M M N
;
_chemical_formula_sum "Si O2"
_cell_formula_units_Z 48
_cell_length_a 15.587379
_cell_length_b 8.745422
_cell_length_c 17.915957
_cell_angle_alpha 90.000000
_cell_angle_beta 90.000000
_cell_angle_gamma 90.000000
_cell_volume 2442.271139
_symmetry_space_group_name_H-M "P M M N"
_symmetry_group_IT_number 59
_space_group.IT_coordinate_system_code '2'
_symmetry_cell_setting 'orthorhombic'
loop_
_space_group_symop_operation_xyz
x,y,z
1/2-x,1/2-y,z
1/2+x,-y,-z
-x,1/2+y,-z
-x,-y,-z
1/2+x,1/2+y,-z
1/2-x,y,z
x,1/2-y,z
loop_
_atom_site_type_symbol
_atom_site_label
_atom_site_fract_x
_atom_site_fract_y
_atom_site_fract_z
Si Si1 0.617846 0.576151 0.342070
Si Si2 0.250000 0.065176 0.089526
Si Si3 0.587459 0.078440 0.653158
Si Si4 0.103053 0.435312 0.820473
Si Si5 0.250000 0.932654 0.924103
Si Si6 0.087561 0.067875 0.191738
Si Si7 0.649737 0.924403 0.504138
O O1 0.652696 0.750000 0.344509
O O2 0.515209 0.584642 0.341191
O O3 0.638968 0.510645 0.260895
O O4 0.641138 0.504025 0.421472
O O5 0.250000 0.250000 0.080455
O O6 0.164224 0.024477 0.135858
O O7 0.250000 0.986072 0.009573
O O8 0.622176 0.250000 0.660229
O O9 0.615033 0.978970 0.724201
O O10 0.607900 0.012317 0.572243
O O11 0.104217 0.250000 0.820387
O O12 0.165820 0.499751 0.883145
O O13 0.004174 0.489954 0.826786
O O14 0.250000 0.750000 0.918607
O O15 0.075590 0.250000 0.188762
O O16 0.750000 0.915753 0.520792
O O17 0.614418 0.750000 0.500891
#
# Coordination Sequence:
#
# PCOD9449535 Si02
#       7
#     8   4   8   8   4   8   8
#     4   8  17  34  56  80 106 147 197 240 289 347
#     4  10  24  44  66  91 120 159 200 245 302 365
#     4  10  20  35  54  79 113 152 195 241 296 354
#     4  10  21  40  66  93 124 162 203 248 304 362
#     4  12  26  42  64  95 126 159 198 245 300 361
#     4  10  21  40  65  92 122 157 203 252 302 361
#     4  10  20  32  50  77 109 148 196 243 288 340
#
# _framework density 19.653838
#
# number of rings (size 3 to 8) (size 9 to 14) (size 15 to 20)
#    0.000    2.167    0.000    3.750    2.333    2.333 
#    0.000    4.167    0.000    0.000    0.000    0.000 
#    0.000    0.000    0.000    0.000    0.000    0.000 
#
# Total GULP energy -267772.727628 kJ/mol
# GULP energy per Si atom -5578.598492 kJ/mol
# Density = 1.960910 g / cm^3
# Si number density = 19.653838 Si / 1000 Ang^3
#
#
#
# Elastic Constant Matrix: (Units=GPa)
#
#
# Indices 1 2 3 4 5 6 
#
# 1 89.1008 37.8468 70.4415 0.0000 0.0000 0.0000
# 2 37.8468 62.7433 47.4364 0.0000 0.0000 0.0000
# 3 70.4415 47.4364 154.6043 0.0000 0.0000 0.0000
# 4 0.0000 0.0000 0.0000 23.6412 0.0000 0.0000
# 5 0.0000 0.0000 0.0000 0.0000 39.6381 0.0000
# 6 0.0000 0.0000 0.0000 0.0000 0.0000 7.4970
#
#
#
# Elastic Compliance Matrix: (Units=1/GPa)
#
#
# Indices 1 2 3 4 5 6 
#
# 1 0.019403 -0.006537 -0.006835 0.000000 0.000000 0.000000
# 2 -0.006537 0.022954 -0.004065 0.000000 0.000000 0.000000
# 3 -0.006835 -0.004065 0.010829 0.000000 0.000000 0.000000
# 4 0.000000 0.000000 0.000000 0.042299 0.000000 0.000000
# 5 0.000000 0.000000 0.000000 0.000000 0.025228 0.000000
# 6 0.000000 0.000000 0.000000 0.000000 0.000000 0.133387
#
#
# Mechanical properties :
#
#
# Convention : Reuss Voigt Hill
#
# Bulk Modulus (GPa) = 54.60233 68.65532 61.62882
# Shear Modulus (GPa) = 16.94464 24.20349 20.57406
#
# Velocity S-wave (km/s) = 2.93943 3.51307 3.23897
# Velocity P-wave (km/s) = 6.27397 7.17381 6.73893
#
# Compressibility (1/GPa) = 0.01831424
#
# Stress axis : x y z
#
# Youngs Moduli (GPa) = 51.53720 43.56585 92.34055
#
# Poissons Ratio (x) = 0.28477 0.63116
# Poissons Ratio (y) = 0.33688 0.37532
# Poissons Ratio (z) = 0.35226 0.17708
#
# Static dielectric constant tensor:
#      x y z
#    x 1.679190 0.000000 0.000000 
#    y 0.000000 1.693070 0.000000 
#    z 0.000000 0.000000 1.702830 
# 
# From -- ./inp_files/27483.got.cif
#   From: 2010.05.17/outbox.cif.g08.bks.cpg/sg59_14_cif.got.tgz:27483.got - 2010.06.03 14:40:33.
