data_PCOD9449277
_publ_section_title
;
Structure prediction by ZEFSAII (Michael W. Deem and Ramdas Pophale) SiO2 
 PCOD9449277
Probable space group: P M M N
;
_chemical_formula_sum "Si O2"
_cell_formula_units_Z 64
_cell_length_a 8.542012
_cell_length_b 14.546747
_cell_length_c 23.661549
_cell_angle_alpha 90.000000
_cell_angle_beta 90.000000
_cell_angle_gamma 90.000000
_cell_volume 2940.148289
_symmetry_space_group_name_H-M "P M M N"
_symmetry_group_IT_number 59
_space_group.IT_coordinate_system_code '2'
_symmetry_cell_setting 'orthorhombic'
loop_
_space_group_symop_operation_xyz
x,y,z
1/2-x,1/2-y,z
1/2+x,-y,-z
-x,1/2+y,-z
-x,-y,-z
1/2+x,1/2+y,-z
1/2-x,y,z
x,1/2-y,z
loop_
_atom_site_type_symbol
_atom_site_label
_atom_site_fract_x
_atom_site_fract_y
_atom_site_fract_z
Si Si1 0.562097 0.446023 0.693892
Si Si2 0.063493 0.051227 0.811871
Si Si3 0.061615 0.579793 0.430576
Si Si4 0.930274 0.118696 0.449254
Si Si5 0.567306 0.649849 0.836964
Si Si6 0.934449 0.847356 0.667513
Si Si7 0.074830 0.882943 0.952685
Si Si8 0.071281 0.102753 0.932072
O O1 0.750000 0.447914 0.699531
O O2 0.492025 0.409812 0.752048
O O3 0.527714 0.394797 0.634478
O O4 0.505050 0.552767 0.686783
O O5 0.250000 0.052855 0.815421
O O6 0.011008 0.944122 0.815787
O O7 0.005826 0.104525 0.868224
O O8 0.250000 0.556540 0.432077
O O9 0.036310 0.642845 0.485468
O O10 0.956511 0.490749 0.443198
O O11 0.750000 0.141822 0.436861
O O12 0.039777 0.154598 0.399894
O O13 0.750000 0.644321 0.822493
O O14 0.507453 0.750000 0.817439
O O15 0.543708 0.648858 0.904642
O O16 0.750000 0.848104 0.680022
O O17 0.000606 0.750000 0.689333
O O18 0.250000 0.851446 0.939170
O O19 0.078156 0.993575 0.946011
O O20 0.026638 0.857690 0.016065
O O21 0.250000 0.137496 0.933223
#
# Coordination Sequence:
#
# PCOD9449277 Si02
#       8
#     8   8   8   8   8   8   8   8
#     4   9  17  29  43  58  80 112 145 172 201 244
#     4  10  20  31  43  61  84 110 141 178 212 238
#     4   8  15  27  41  58  80 105 131 163 209 257
#     4   9  15  24  41  62  80  99 130 172 211 246
#     4  10  20  32  45  60  81 113 147 173 202 244
#     4   9  18  31  43  56  80 114 146 173 205 247
#     4   9  16  26  43  64  82 102 131 170 211 244
#     4   8  15  27  41  58  81 106 131 163 207 254
#
# _framework density 21.767607999999999
#
# number of rings (size 3 to 8) (size 9 to 14) (size 15 to 20)
#    0.000    3.000    0.000    3.000    0.000    7.750 
#    0.000    1.250    0.000    0.000    0.000    0.000 
#    0.000    1.000    0.000    6.500    0.000    5.375 
#
# Total GULP energy -356458.932935 kJ/mol
# GULP energy per Si atom -5569.670827 kJ/mol
# Density = 2.171806 g / cm^3
# Si number density = 21.767608 Si / 1000 Ang^3
#
#
#
# Elastic Constant Matrix: (Units=GPa)
#
#
# Indices 1 2 3 4 5 6 
#
# 1 23.1332 0.1382 22.9079 0.0000 0.0000 0.0000
# 2 0.1382 27.3779 -5.1558 0.0000 0.0000 0.0000
# 3 22.9079 -5.1558 192.7484 0.0000 0.0000 0.0000
# 4 0.0000 0.0000 0.0000 -20.9704 0.0000 0.0000
# 5 0.0000 0.0000 0.0000 0.0000 29.8215 0.0000
# 6 0.0000 0.0000 0.0000 0.0000 0.0000 -14.5349
#
#
#
# Elastic Compliance Matrix: (Units=1/GPa)
#
#
# Indices 1 2 3 4 5 6 
#
# 1 0.049044 -0.001352 -0.005865 0.000000 0.000000 0.000000
# 2 -0.001352 0.036748 0.001144 0.000000 0.000000 0.000000
# 3 -0.005865 0.001144 0.005916 0.000000 0.000000 0.000000
# 4 0.000000 0.000000 0.000000 -0.047686 0.000000 0.000000
# 5 0.000000 0.000000 0.000000 0.000000 0.033533 0.000000
# 6 0.000000 0.000000 0.000000 0.000000 0.000000 -0.068800
#
#
# Mechanical properties :
#
#
# Convention : Reuss Voigt Hill
#
# Bulk Modulus (GPa) = 12.56898 31.00445 21.78672
# Shear Modulus (GPa) = 105.43787 13.88785 59.66286
#
# Velocity S-wave (km/s) = 6.96729 2.52862 5.24104
# Velocity P-wave (km/s) = 8.39707 4.77488 6.83046
#
# Compressibility (1/GPa) = 0.07956094
#
# Stress axis : x y z
#
# Youngs Moduli (GPa) = 20.38991 27.21233 169.04044
#
# Poissons Ratio (x) = 0.03679 0.99142
# Poissons Ratio (y) = 0.02757 -0.19332
# Poissons Ratio (z) = 0.11959 -0.03112
#
# Static dielectric constant tensor:
#      x y z
#    x 1.753750 0.000000 0.000000 
#    y 0.000000 1.870640 0.000000 
#    z 0.000000 0.000000 1.855100 
# 
# From -- ./inp_files/31797.got.cif
#   From: 2010.05.17/outbox.cif.g08.bks.cpg/sg59_16_cif.got.tgz:31797.got - 2010.06.03 14:40:33.
