data_PCOD9449045
_publ_section_title
;
Structure prediction by ZEFSAII (Michael W. Deem and Ramdas Pophale) SiO2 
 PCOD9449045
Probable space group: P M M N
;
_chemical_formula_sum "Si O2"
_cell_formula_units_Z 64
_cell_length_a 15.729496
_cell_length_b 14.004788
_cell_length_c 16.801939
_cell_angle_alpha 90.000000
_cell_angle_beta 90.000000
_cell_angle_gamma 90.000000
_cell_volume 3701.269854
_symmetry_space_group_name_H-M "P M M N"
_symmetry_group_IT_number 59
_space_group.IT_coordinate_system_code '2'
_symmetry_cell_setting 'orthorhombic'
loop_
_space_group_symop_operation_xyz
x,y,z
1/2-x,1/2-y,z
1/2+x,-y,-z
-x,1/2+y,-z
-x,-y,-z
1/2+x,1/2+y,-z
1/2-x,y,z
x,1/2-y,z
loop_
_atom_site_type_symbol
_atom_site_label
_atom_site_fract_x
_atom_site_fract_y
_atom_site_fract_z
Si Si1 0.936118 0.640509 0.422189
Si Si2 0.653992 0.471989 0.342413
Si Si3 0.650646 0.861141 0.030885
Si Si4 0.846704 0.950794 0.717782
Si Si5 0.060705 0.639888 0.272454
Si Si6 0.923702 0.522493 0.175652
Si Si7 0.512105 0.863030 0.602304
Si Si8 0.558289 0.862575 0.863854
O O1 0.905708 0.750000 0.422525
O O2 0.864652 0.567373 0.393482
O O3 0.011589 0.634087 0.357126
O O4 0.971431 0.617262 0.509386
O O5 0.750000 0.438034 0.353848
O O6 0.636401 0.497691 0.250186
O O7 0.579510 0.400631 0.369762
O O8 0.750000 0.873808 0.011386
O O9 0.638951 0.750000 0.055223
O O10 0.594821 0.877503 0.952177
O O11 0.623892 0.930564 0.101849
O O12 0.750000 0.930472 0.695637
O O13 0.872578 0.898228 0.799529
O O14 0.915151 0.914072 0.653786
O O15 0.863232 0.064008 0.727414
O O16 0.082790 0.750000 0.257450
O O17 0.992868 0.598510 0.209081
O O18 0.976032 0.428075 0.151260
O O19 0.517724 0.750000 0.615170
O O20 0.541625 0.750000 0.852367
#
# Coordination Sequence:
#
# PCOD9449045 Si02
#       8
#     8   8   8   8   8   8   8   8
#     4   9  19  37  59  78 107 147 183 230 283 329
#     4  11  22  36  57  84 115 148 186 230 279 337
#     4  10  20  33  53  82 111 139 179 231 280 331
#     4  11  22  35  56  82 107 142 186 231 278 324
#     4   9  18  35  56  79 109 142 179 223 278 336
#     4  10  19  35  55  82 110 146 185 224 276 334
#     4  11  22  39  57  78 111 148 190 233 275 328
#     4  10  20  36  56  78 108 146 186 229 277 324
#
# _framework density 17.291361999999999
#
# number of rings (size 3 to 8) (size 9 to 14) (size 15 to 20)
#    0.000    1.875    3.750    2.250    0.000    3.250 
#    0.000    1.250    0.000    3.375    0.000    0.000 
#    0.000    0.000    0.000    0.000    0.000    0.000 
#
# Total GULP energy -357135.523028 kJ/mol
# GULP energy per Si atom -5580.242547 kJ/mol
# Density = 1.725201 g / cm^3
# Si number density = 17.291362 Si / 1000 Ang^3
#
#
#
# Elastic Constant Matrix: (Units=GPa)
#
#
# Indices 1 2 3 4 5 6 
#
# 1 96.4413 33.7515 22.2423 0.0000 0.0000 0.0000
# 2 33.7515 104.3314 42.0926 0.0000 0.0000 0.0000
# 3 22.2423 42.0926 81.4189 0.0000 0.0000 0.0000
# 4 0.0000 0.0000 0.0000 28.3601 0.0000 0.0000
# 5 0.0000 0.0000 0.0000 0.0000 10.0050 0.0000
# 6 0.0000 0.0000 0.0000 0.0000 0.0000 3.3773
#
#
#
# Elastic Compliance Matrix: (Units=1/GPa)
#
#
# Indices 1 2 3 4 5 6 
#
# 1 0.011853 -0.003194 -0.001587 0.000000 0.000000 0.000000
# 2 -0.003194 0.012972 -0.005834 0.000000 0.000000 0.000000
# 3 -0.001587 -0.005834 0.015732 0.000000 0.000000 0.000000
# 4 0.000000 0.000000 0.000000 0.035261 0.000000 0.000000
# 5 0.000000 0.000000 0.000000 0.000000 0.099951 0.000000
# 6 0.000000 0.000000 0.000000 0.000000 0.000000 0.296091
#
#
# Mechanical properties :
#
#
# Convention : Reuss Voigt Hill
#
# Bulk Modulus (GPa) = 51.74085 53.15159 52.44622
# Shear Modulus (GPa) = 10.00941 20.62216 15.31578
#
# Velocity S-wave (km/s) = 2.40858 3.45719 2.97938
# Velocity P-wave (km/s) = 6.14190 6.83680 6.49864
#
# Compressibility (1/GPa) = 0.01932709
#
# Stress axis : x y z
#
# Youngs Moduli (GPa) = 84.36807 77.09040 63.56671
#
# Poissons Ratio (x) = 0.24625 0.10085
# Poissons Ratio (y) = 0.26950 0.37082
# Poissons Ratio (z) = 0.13386 0.44972
#
# Static dielectric constant tensor:
#      x y z
#    x 1.559920 0.000000 0.000000 
#    y 0.000000 1.593150 0.000000 
#    z 0.000000 0.000000 1.577170 
# 
# From -- ./inp_files/27734.got.cif
#   From: 2010.05.17/outbox.cif.g08.bks.cpg/sg59_14_cif.got.tgz:27734.got - 2010.06.03 14:40:33.
