data_PCOD9449537
_publ_section_title
;
Structure prediction by ZEFSAII (Michael W. Deem and Ramdas Pophale) SiO2 
 PCOD9449537
Probable space group: P M M N
;
_chemical_formula_sum "Si O2"
_cell_formula_units_Z 56
_cell_length_a 13.940093
_cell_length_b 8.843728
_cell_length_c 26.025243
_cell_angle_alpha 90.000000
_cell_angle_beta 90.000000
_cell_angle_gamma 90.000000
_cell_volume 3208.454178
_symmetry_space_group_name_H-M "P M M N"
_symmetry_group_IT_number 59
_space_group.IT_coordinate_system_code '2'
_symmetry_cell_setting 'orthorhombic'
loop_
_space_group_symop_operation_xyz
x,y,z
1/2-x,1/2-y,z
1/2+x,-y,-z
-x,1/2+y,-z
-x,-y,-z
1/2+x,1/2+y,-z
1/2-x,y,z
x,1/2-y,z
loop_
_atom_site_type_symbol
_atom_site_label
_atom_site_fract_x
_atom_site_fract_y
_atom_site_fract_z
Si Si1 0.639353 0.433030 0.680337
Si Si2 0.987615 0.426779 0.055186
Si Si3 0.485224 0.927412 0.223392
Si Si4 0.139717 0.567226 0.849146
Si Si5 0.641203 0.432042 0.470620
Si Si6 0.637536 0.578066 0.859145
Si Si7 0.560165 0.931117 0.575329
O O1 0.750000 0.479384 0.691561
O O2 0.638435 0.250000 0.679446
O O3 0.562935 0.482866 0.723692
O O4 0.605824 0.495670 0.625630
O O5 0.966621 0.250000 0.047374
O O6 0.909480 0.484646 0.097043
O O7 0.086537 0.442040 0.086461
O O8 0.000000 0.500000 0.000000
O O9 0.505236 0.750000 0.228210
O O10 0.577663 0.008581 0.198975
O O11 0.404167 0.959367 0.180721
O O12 0.250000 0.519943 0.846403
O O13 0.135397 0.750000 0.849080
O O14 0.750000 0.472957 0.454760
O O15 0.638447 0.250000 0.477368
O O16 0.552895 0.470869 0.432678
O O17 0.614873 0.508699 0.524805
O O18 0.750000 0.567258 0.863261
O O19 0.611740 0.750000 0.841613
O O20 0.568157 0.750000 0.577867
#
# Coordination Sequence:
#
# PCOD9449537 Si02
#       7
#     8   8   8   8   8   8   8
#     4  10  21  36  52  72 103 138 164 195 250 309
#     4   9  18  31  47  71 101 130 162 201 245 293
#     4  10  20  34  53  77 102 127 163 210 252 295
#     4   9  19  37  57  74  98 135 173 207 249 302
#     4   9  18  34  53  71  99 138 170 201 250 304
#     4   9  18  33  51  70  96 130 163 197 243 297
#     4  10  20  32  50  78 104 128 169 216 248 288
#
# _framework density 17.453887000000002
#
# number of rings (size 3 to 8) (size 9 to 14) (size 15 to 20)
#    0.000    2.571    0.000    2.571    0.000    8.000 
#    0.000    0.714    0.000    2.571    0.000    0.000 
#    0.000    0.000    0.000    0.000    0.000    0.000 
#
# Total GULP energy -312038.162358 kJ/mol
# GULP energy per Si atom -5572.110042 kJ/mol
# Density = 1.741416 g / cm^3
# Si number density = 17.453887 Si / 1000 Ang^3
#
#
#
# Elastic Constant Matrix: (Units=GPa)
#
#
# Indices 1 2 3 4 5 6 
#
# 1 114.9585 10.1398 30.3560 0.0000 0.0000 0.0000
# 2 10.1398 5.9484 15.0913 0.0000 0.0000 0.0000
# 3 30.3560 15.0913 84.2173 0.0000 0.0000 0.0000
# 4 0.0000 0.0000 0.0000 28.1418 0.0000 0.0000
# 5 0.0000 0.0000 0.0000 0.0000 5.4310 0.0000
# 6 0.0000 0.0000 0.0000 0.0000 0.0000 24.0699
#
#
#
# Elastic Compliance Matrix: (Units=1/GPa)
#
#
# Indices 1 2 3 4 5 6 
#
# 1 0.010287 -0.014904 -0.001037 0.000000 0.000000 0.000000
# 2 -0.014904 0.329841 -0.053733 0.000000 0.000000 0.000000
# 3 -0.001037 -0.053733 0.021877 0.000000 0.000000 0.000000
# 4 0.000000 0.000000 0.000000 0.035534 0.000000 0.000000
# 5 0.000000 0.000000 0.000000 0.000000 0.184127 0.000000
# 6 0.000000 0.000000 0.000000 0.000000 0.000000 0.041546
#
#
# Mechanical properties :
#
#
# Convention : Reuss Voigt Hill
#
# Bulk Modulus (GPa) = 4.49127 35.14426 19.81776
# Shear Modulus (GPa) = 5.97528 21.49767 13.73648
#
# Velocity S-wave (km/s) = 1.85227 3.51334 2.80842
# Velocity P-wave (km/s) = 2.67457 6.05288 4.67924
#
# Compressibility (1/GPa) = 0.22265439
#
# Stress axis : x y z
#
# Youngs Moduli (GPa) = 97.20705 3.03177 45.71081
#
# Poissons Ratio (x) = 0.04519 0.04741
# Poissons Ratio (y) = 1.44881 2.45620
# Poissons Ratio (z) = 0.10083 0.16291
#
# Static dielectric constant tensor:
#      x y z
#    x 1.612370 0.000000 0.000000 
#    y 0.000000 1.607540 0.000000 
#    z 0.000000 0.000000 1.566590 
# 
# From -- ./inp_files/30363.got.cif
#   From: 2010.05.17/outbox.cif.g08.bks.cpg/sg59_16_cif.got.tgz:30363.got - 2010.06.03 14:40:33.
