data_PCOD9449180
_publ_section_title
;
Structure prediction by ZEFSAII (Michael W. Deem and Ramdas Pophale) SiO2 
 PCOD9449180
Probable space group: P M M N
;
_chemical_formula_sum "Si O2"
_cell_formula_units_Z 48
_cell_length_a 29.056245
_cell_length_b 8.585895
_cell_length_c 10.586509
_cell_angle_alpha 90.000000
_cell_angle_beta 90.000000
_cell_angle_gamma 90.000000
_cell_volume 2641.057356
_symmetry_space_group_name_H-M "P M M N"
_symmetry_group_IT_number 59
_space_group.IT_coordinate_system_code '2'
_symmetry_cell_setting 'orthorhombic'
loop_
_space_group_symop_operation_xyz
x,y,z
1/2-x,1/2-y,z
1/2+x,-y,-z
-x,1/2+y,-z
-x,-y,-z
1/2+x,1/2+y,-z
1/2-x,y,z
x,1/2-y,z
loop_
_atom_site_type_symbol
_atom_site_label
_atom_site_fract_x
_atom_site_fract_y
_atom_site_fract_z
Si Si1 0.056478 0.563411 0.239272
Si Si2 0.697965 0.063671 0.104695
Si Si3 0.894984 0.563465 0.010456
Si Si4 0.801702 0.937841 0.388258
Si Si5 0.450575 0.439564 0.740378
Si Si6 0.895763 0.561580 0.510798
O O1 0.056260 0.750000 0.234244
O O2 0.084325 0.508307 0.361694
O O3 0.003420 0.509242 0.250600
O O4 0.079620 0.499351 0.112707
O O5 0.750000 0.015592 0.068355
O O6 0.695510 0.250000 0.100754
O O7 0.657451 0.993001 0.021309
O O8 0.690876 0.007578 0.249024
O O9 0.895810 0.750000 0.008833
O O10 0.921710 0.509427 0.137213
O O11 0.750000 0.980694 0.430109
O O12 0.803620 0.750000 0.375538
O O13 0.843193 0.984238 0.479666
O O14 0.450029 0.250000 0.740789
O O15 0.426343 0.487830 0.610149
O O16 0.897620 0.750000 0.519075
#
# Coordination Sequence:
#
# PCOD9449180 Si02
#       6
#     8   8   8   8   8   8
#     4  11  23  37  53  80 116 150 185 231 285 335
#     4  10  20  34  55  85 116 142 175 224 278 329
#     4  11  21  38  60  82 109 147 189 230 275 328
#     4   9  17  32  57  84 109 141 182 227 272 323
#     4   9  19  36  58  82 109 142 189 238 277 324
#     4  10  19  36  57  81 112 146 186 231 274 330
#
# _framework density 18.17454
#
# number of rings (size 3 to 8) (size 9 to 14) (size 15 to 20)
#    0.000    2.000    1.667    2.500    0.000    1.667 
#    0.000    4.167    0.000    3.000    0.000    0.000 
#    0.000    0.000    0.000    0.000    0.000    0.000 
#
# Total GULP energy -268001.138340 kJ/mol
# GULP energy per Si atom -5583.357049 kJ/mol
# Density = 1.813317 g / cm^3
# Si number density = 18.174540 Si / 1000 Ang^3
#
#
#
# Elastic Constant Matrix: (Units=GPa)
#
#
# Indices 1 2 3 4 5 6 
#
# 1 128.0743 29.4423 34.3633 0.0000 0.0000 0.0000
# 2 29.4423 24.3999 17.8328 0.0000 0.0000 0.0000
# 3 34.3633 17.8328 80.4096 0.0000 0.0000 0.0000
# 4 0.0000 0.0000 0.0000 22.4584 0.0000 0.0000
# 5 0.0000 0.0000 0.0000 0.0000 -9.2690 0.0000
# 6 0.0000 0.0000 0.0000 0.0000 0.0000 21.5221
#
#
#
# Elastic Compliance Matrix: (Units=1/GPa)
#
#
# Indices 1 2 3 4 5 6 
#
# 1 0.011099 -0.011846 -0.002116 0.000000 0.000000 0.000000
# 2 -0.011846 0.061555 -0.008589 0.000000 0.000000 0.000000
# 3 -0.002116 -0.008589 0.015245 0.000000 0.000000 0.000000
# 4 0.000000 0.000000 0.000000 0.044527 0.000000 0.000000
# 5 0.000000 0.000000 0.000000 0.000000 -0.107887 0.000000
# 6 0.000000 0.000000 0.000000 0.000000 0.000000 0.046464
#
#
# Mechanical properties :
#
#
# Convention : Reuss Voigt Hill
#
# Bulk Modulus (GPa) = 23.36585 44.01783 33.69184
# Shear Modulus (GPa) = 38.35203 17.02533 27.68868
#
# Velocity S-wave (km/s) = 4.59868 3.06399 3.90742
# Velocity P-wave (km/s) = 6.40948 6.06543 6.23983
#
# Compressibility (1/GPa) = 0.04279751
#
# Stress axis : x y z
#
# Youngs Moduli (GPa) = 90.09870 16.24559 65.59353
#
# Poissons Ratio (x) = 0.19245 0.13880
# Poissons Ratio (y) = 1.06732 0.56338
# Poissons Ratio (z) = 0.19065 0.13953
#
# Static dielectric constant tensor:
#      x y z
#    x 1.637970 0.000000 0.000000 
#    y 0.000000 1.616750 0.000000 
#    z 0.000000 0.000000 1.576480 
# 
# From -- ./inp_files/6193.got.cif
#   From: 2010.05.17/outbox.cif.g08.bks.cpg/sg59_4_cif.got.tgz:6193.got - 2010.06.03 14:40:33.
