data_PCOD9449158
_publ_section_title
;
Structure prediction by ZEFSAII (Michael W. Deem and Ramdas Pophale) SiO2 
 PCOD9449158
Probable space group: P M M N
;
_chemical_formula_sum "Si O2"
_cell_formula_units_Z 64
_cell_length_a 8.677773
_cell_length_b 24.086228
_cell_length_c 15.700854
_cell_angle_alpha 90.000000
_cell_angle_beta 90.000000
_cell_angle_gamma 90.000000
_cell_volume 3281.711157
_symmetry_space_group_name_H-M "P M M N"
_symmetry_group_IT_number 59
_space_group.IT_coordinate_system_code '2'
_symmetry_cell_setting 'orthorhombic'
loop_
_space_group_symop_operation_xyz
x,y,z
1/2-x,1/2-y,z
1/2+x,-y,-z
-x,1/2+y,-z
-x,-y,-z
1/2+x,1/2+y,-z
1/2-x,y,z
x,1/2-y,z
loop_
_atom_site_type_symbol
_atom_site_label
_atom_site_fract_x
_atom_site_fract_y
_atom_site_fract_z
Si Si1 0.568073 0.890726 0.907928
Si Si2 0.930952 0.992720 0.143968
Si Si3 0.568362 0.122962 0.914397
Si Si4 0.433114 0.508477 0.652978
Si Si5 0.567012 0.314860 0.240366
Si Si6 0.064355 0.185144 0.752350
Si Si7 0.062432 0.111694 0.591439
Si Si8 0.433648 0.125552 0.401241
O O1 0.750000 0.899411 0.906371
O O2 0.485180 0.950163 0.898113
O O3 0.517493 0.852371 0.829449
O O4 0.516209 0.864368 0.997059
O O5 0.750000 0.983166 0.126971
O O6 0.950901 0.999020 0.245795
O O7 0.024482 0.940030 0.111057
O O8 0.750000 0.128296 0.926065
O O9 0.510849 0.161301 0.837484
O O10 0.250000 0.517263 0.637130
O O11 0.484611 0.452140 0.606295
O O12 0.525018 0.562395 0.624065
O O13 0.750000 0.323449 0.231062
O O14 0.532297 0.250000 0.228643
O O15 0.515610 0.335045 0.333469
O O16 0.250000 0.178561 0.759598
O O17 0.030803 0.250000 0.740736
O O18 0.012586 0.149408 0.670592
O O19 0.250000 0.111411 0.592457
O O20 0.015122 0.133382 0.498947
O O21 0.250000 0.133659 0.395917
#
# Coordination Sequence:
#
# PCOD9449158 Si02
#       8
#     8   8   8   8   8   8   8   8
#     4  12  25  42  66  94 124 157 201 251 305 367
#     4  11  21  38  65  93 126 163 202 246 301 365
#     4  12  25  41  63  92 128 163 201 249 304 366
#     4  10  19  35  61  87 124 165 200 244 304 365
#     4  11  25  45  65  86 119 163 208 254 306 361
#     4  10  21  41  66  88 117 161 212 260 307 360
#     4   9  19  37  60  91 124 162 204 250 303 358
#     4  11  22  36  61  94 127 158 202 252 302 363
#
# _framework density 19.502020999999999
#
# number of rings (size 3 to 8) (size 9 to 14) (size 15 to 20)
#    0.000    1.250    2.500    4.125    0.000    2.750 
#    0.000    3.125    0.000    0.000    0.000    0.000 
#    0.000    0.000    0.000    0.000    0.000    0.000 
#
# Total GULP energy -357973.721760 kJ/mol
# GULP energy per Si atom -5593.339403 kJ/mol
# Density = 1.945763 g / cm^3
# Si number density = 19.502021 Si / 1000 Ang^3
#
#
#
# Elastic Constant Matrix: (Units=GPa)
#
#
# Indices 1 2 3 4 5 6 
#
# 1 13.3700 1.5416 0.5906 0.0000 0.0000 0.0000
# 2 1.5416 38.9883 -8.6842 0.0000 0.0000 0.0000
# 3 0.5906 -8.6842 65.9711 0.0000 0.0000 0.0000
# 4 0.0000 0.0000 0.0000 -8.2432 0.0000 0.0000
# 5 0.0000 0.0000 0.0000 0.0000 22.8624 0.0000
# 6 0.0000 0.0000 0.0000 0.0000 0.0000 4.1367
#
#
#
# Elastic Compliance Matrix: (Units=1/GPa)
#
#
# Indices 1 2 3 4 5 6 
#
# 1 0.075214 -0.003218 -0.001097 0.000000 0.000000 0.000000
# 2 -0.003218 0.026561 0.003525 0.000000 0.000000 0.000000
# 3 -0.001097 0.003525 0.015632 0.000000 0.000000 0.000000
# 4 0.000000 0.000000 0.000000 -0.121313 0.000000 0.000000
# 5 0.000000 0.000000 0.000000 0.000000 0.043740 0.000000
# 6 0.000000 0.000000 0.000000 0.000000 0.000000 0.241739
#
#
# Mechanical properties :
#
#
# Convention : Reuss Voigt Hill
#
# Bulk Modulus (GPa) = 8.63356 11.69171 10.16264
# Shear Modulus (GPa) = 15.53941 12.07660 13.80801
#
# Velocity S-wave (km/s) = 2.82584 2.49117 2.66377
# Velocity P-wave (km/s) = 3.88379 3.77925 3.83188
#
# Compressibility (1/GPa) = 0.11582704
#
# Stress axis : x y z
#
# Youngs Moduli (GPa) = 13.29539 37.64894 63.97121
#
# Poissons Ratio (x) = 0.12117 0.07018
# Poissons Ratio (y) = 0.04279 -0.22551
# Poissons Ratio (z) = 0.01459 -0.13272
#
# Static dielectric constant tensor:
#      x y z
#    x 1.660900 0.000000 0.000000 
#    y 0.000000 1.652710 0.000000 
#    z 0.000000 0.000000 1.679990 
# 
# From -- ./inp_files/21449.got.cif
#   From: 2010.05.17/outbox.cif.g08.bks.cpg/sg59_11_cif.got.tgz:21449.got - 2010.06.03 14:40:33.
