data_PCOD9449768
_publ_section_title
;
Structure prediction by ZEFSAII (Michael W. Deem and Ramdas Pophale) SiO2 
 PCOD9449768
Probable space group: P M M N
;
_chemical_formula_sum "Si O2"
_cell_formula_units_Z 48
_cell_length_a 23.945860
_cell_length_b 7.484665
_cell_length_c 11.055948
_cell_angle_alpha 90.000000
_cell_angle_beta 90.000000
_cell_angle_gamma 90.000000
_cell_volume 1981.521520
_symmetry_space_group_name_H-M "P M M N"
_symmetry_group_IT_number 59
_space_group.IT_coordinate_system_code '2'
_symmetry_cell_setting 'orthorhombic'
loop_
_space_group_symop_operation_xyz
x,y,z
1/2-x,1/2-y,z
1/2+x,-y,-z
-x,1/2+y,-z
-x,-y,-z
1/2+x,1/2+y,-z
1/2-x,y,z
x,1/2-y,z
loop_
_atom_site_type_symbol
_atom_site_label
_atom_site_fract_x
_atom_site_fract_y
_atom_site_fract_z
Si Si1 0.186719 0.033898 0.198239
Si Si2 0.425867 0.957145 0.084676
Si Si3 0.874737 0.968382 0.554119
Si Si4 0.015421 0.452370 0.330642
Si Si5 0.312911 0.463807 0.686361
Si Si6 0.080748 0.964228 0.820156
O O1 0.250000 0.973015 0.179903
O O2 0.186574 0.250000 0.194104
O O3 0.163066 0.981871 0.330352
O O4 0.140822 0.968300 0.103819
O O5 0.442197 0.750000 0.092004
O O6 0.452994 0.051950 0.199935
O O7 0.438379 0.030518 0.951481
O O8 0.877097 0.750000 0.552528
O O9 0.938216 0.031984 0.579743
O O10 0.844603 0.032026 0.433386
O O11 0.005449 0.250000 0.371283
O O12 0.956787 0.537321 0.290759
O O13 0.250000 0.532374 0.698676
O O14 0.309235 0.250000 0.673101
O O15 0.354709 0.500010 0.795871
O O16 0.073082 0.750000 0.821566
#
# Coordination Sequence:
#
# PCOD9449768 Si02
#       6
#     8   8   8   8   8   8
#     4   9  17  31  53  77 101 134 175 217 261 309
#     4  10  20  33  50  75 107 138 168 210 261 306
#     4   8  15  31  55  79 101 127 164 213 263 304
#     4   9  18  35  58  80 102 131 169 212 258 311
#     4  10  21  36  54  76 102 135 175 213 249 298
#     4  10  22  37  52  74 106 141 172 206 254 307
#
# _framework density 24.223808999999999
#
# number of rings (size 3 to 8) (size 9 to 14) (size 15 to 20)
#    0.000    2.667    0.000    2.500    0.000    6.000 
#    0.000    6.667    0.000    4.000    0.000    0.000 
#    0.000    0.000    0.000    0.000    0.000    0.000 
#
# Total GULP energy -268272.420879 kJ/mol
# GULP energy per Si atom -5589.008768 kJ/mol
# Density = 2.416867 g / cm^3
# Si number density = 24.223809 Si / 1000 Ang^3
#
#
#
# Elastic Constant Matrix: (Units=GPa)
#
#
# Indices 1 2 3 4 5 6 
#
# 1 156.6089 9.8352 33.5006 0.0000 0.0000 0.0000
# 2 9.8352 83.9615 6.7465 0.0000 0.0000 0.0000
# 3 33.5006 6.7465 90.7826 0.0000 0.0000 0.0000
# 4 0.0000 0.0000 0.0000 10.2962 0.0000 0.0000
# 5 0.0000 0.0000 0.0000 0.0000 30.2328 0.0000
# 6 0.0000 0.0000 0.0000 0.0000 0.0000 17.8146
#
#
#
# Elastic Compliance Matrix: (Units=1/GPa)
#
#
# Indices 1 2 3 4 5 6 
#
# 1 0.006964 -0.000613 -0.002524 0.000000 0.000000 0.000000
# 2 -0.000613 0.012036 -0.000668 0.000000 0.000000 0.000000
# 3 -0.002524 -0.000668 0.011996 0.000000 0.000000 0.000000
# 4 0.000000 0.000000 0.000000 0.097123 0.000000 0.000000
# 5 0.000000 0.000000 0.000000 0.000000 0.033077 0.000000
# 6 0.000000 0.000000 0.000000 0.000000 0.000000 0.056134
#
#
# Mechanical properties :
#
#
# Convention : Reuss Voigt Hill
#
# Bulk Modulus (GPa) = 42.76211 47.94640 45.35425
# Shear Modulus (GPa) = 21.48361 30.42009 25.95185
#
# Velocity S-wave (km/s) = 2.98128 3.54756 3.27668
# Velocity P-wave (km/s) = 5.43525 6.05114 5.75145
#
# Compressibility (1/GPa) = 0.02338519
#
# Stress axis : x y z
#
# Youngs Moduli (GPa) = 143.59996 83.08609 83.35775
#
# Poissons Ratio (x) = 0.05092 0.21041
# Poissons Ratio (y) = 0.08801 0.05570
# Poissons Ratio (z) = 0.36248 0.05552
#
# Static dielectric constant tensor:
#      x y z
#    x 1.953890 0.000000 0.000000 
#    y 0.000000 1.943110 0.000000 
#    z 0.000000 0.000000 1.918610 
# 
# From -- ./inp_files/18588.got.cif
#   From: 2010.05.17/outbox.cif.g08.bks.cpg/sg59_10_cif.got.tgz:18588.got - 2010.06.03 14:40:33.
