data_PCOD9449835
_publ_section_title
;
Structure prediction by ZEFSAII (Michael W. Deem and Ramdas Pophale) SiO2 
 PCOD9449835
Probable space group: P M M N
;
_chemical_formula_sum "Si O2"
_cell_formula_units_Z 48
_cell_length_a 9.693133
_cell_length_b 8.452197
_cell_length_c 31.661926
_cell_angle_alpha 90.000000
_cell_angle_beta 90.000000
_cell_angle_gamma 90.000000
_cell_volume 2594.006811
_symmetry_space_group_name_H-M "P M M N"
_symmetry_group_IT_number 59
_space_group.IT_coordinate_system_code '2'
_symmetry_cell_setting 'orthorhombic'
loop_
_space_group_symop_operation_xyz
x,y,z
1/2-x,1/2-y,z
1/2+x,-y,-z
-x,1/2+y,-z
-x,-y,-z
1/2+x,1/2+y,-z
1/2-x,y,z
x,1/2-y,z
loop_
_atom_site_type_symbol
_atom_site_label
_atom_site_fract_x
_atom_site_fract_y
_atom_site_fract_z
Si Si1 0.908642 0.058927 0.286291
Si Si2 0.592625 0.061021 0.789946
Si Si3 0.590935 0.941672 0.539103
Si Si4 0.091427 0.940601 0.961737
Si Si5 0.907717 0.442692 0.382514
Si Si6 0.589758 0.058893 0.133000
O O1 0.750000 0.012001 0.276800
O O2 0.912901 0.250000 0.285206
O O3 0.939927 0.008408 0.334468
O O4 0.012647 0.994783 0.251754
O O5 0.750000 0.001001 0.790596
O O6 0.595739 0.250000 0.790111
O O7 0.508361 0.004521 0.830766
O O8 0.750000 0.994743 0.536422
O O9 0.590973 0.750000 0.538918
O O10 0.515778 0.995080 0.582249
O O11 0.500000 0.000000 0.500000
O O12 0.250000 0.991501 0.967485
O O13 0.089250 0.750000 0.961780
O O14 0.047891 0.991612 0.914480
O O15 0.000000 0.000000 0.000000
O O16 0.750000 0.491637 0.392596
O O17 0.907950 0.250000 0.382578
O O18 0.750000 0.011502 0.139743
O O19 0.586888 0.250000 0.134288
#
# Coordination Sequence:
#
# PCOD9449835 Si02
#       6
#     8   8   8   8   8   8
#     4   9  18  34  57  81 101 127 167 210 252 303
#     4  11  24  37  49  73 108 139 168 207 255 303
#     4  10  20  33  51  76 104 135 172 211 252 301
#     4   9  19  35  54  78 107 136 168 209 254 300
#     4   8  15  30  52  76 101 129 164 208 254 299
#     4   9  19  37  58  77  99 132 175 216 252 297
#
# _framework density 18.504192
#
# number of rings (size 3 to 8) (size 9 to 14) (size 15 to 20)
#    0.000    2.667    0.000    3.500    0.000    7.333 
#    0.000    7.500    0.000    1.000    0.000    0.000 
#    0.000    0.000    0.000    0.000    0.000    0.000 
#
# Total GULP energy -267777.476085 kJ/mol
# GULP energy per Si atom -5578.697418 kJ/mol
# Density = 1.846208 g / cm^3
# Si number density = 18.504192 Si / 1000 Ang^3
#
#
#
# Elastic Constant Matrix: (Units=GPa)
#
#
# Indices 1 2 3 4 5 6 
#
# 1 161.5698 26.2323 140.2427 0.0000 0.0000 0.0000
# 2 26.2323 9.2324 25.1272 0.0000 0.0000 0.0000
# 3 140.2427 25.1272 185.4521 0.0000 0.0000 0.0000
# 4 0.0000 0.0000 0.0000 27.7180 0.0000 0.0000
# 5 0.0000 0.0000 0.0000 0.0000 39.2111 0.0000
# 6 0.0000 0.0000 0.0000 0.0000 0.0000 25.9067
#
#
#
# Elastic Compliance Matrix: (Units=1/GPa)
#
#
# Indices 1 2 3 4 5 6 
#
# 1 0.021485 -0.026656 -0.012636 0.000000 0.000000 0.000000
# 2 -0.026656 0.204662 -0.007572 0.000000 0.000000 0.000000
# 3 -0.012636 -0.007572 0.015973 0.000000 0.000000 0.000000
# 4 0.000000 0.000000 0.000000 0.036078 0.000000 0.000000
# 5 0.000000 0.000000 0.000000 0.000000 0.025503 0.000000
# 6 0.000000 0.000000 0.000000 0.000000 0.000000 0.038600
#
#
# Mechanical properties :
#
#
# Convention : Reuss Voigt Hill
#
# Bulk Modulus (GPa) = 6.73888 82.16207 44.45047
# Shear Modulus (GPa) = 10.29883 29.54397 19.92140
#
# Velocity S-wave (km/s) = 2.36173 4.00009 3.28470
# Velocity P-wave (km/s) = 3.32967 8.11373 6.20159
#
# Compressibility (1/GPa) = 0.14839255
#
# Stress axis : x y z
#
# Youngs Moduli (GPa) = 46.54462 4.88611 62.60386
#
# Poissons Ratio (x) = 0.13024 0.79103
# Poissons Ratio (y) = 1.24069 0.47405
# Poissons Ratio (z) = 0.58812 0.03700
#
# Static dielectric constant tensor:
#      x y z
#    x 1.624050 0.000000 0.000000 
#    y 0.000000 1.645630 0.000000 
#    z 0.000000 0.000000 1.626260 
# 
# From -- ./inp_files/32800.got.cif
#   From: 2010.05.17/outbox.cif.g08.bks.cpg/sg59_17_cif.got.tgz:32800.got - 2010.06.03 14:40:33.
