data_PCOD9449299
_publ_section_title
;
Structure prediction by ZEFSAII (Michael W. Deem and Ramdas Pophale) SiO2 
 PCOD9449299
Probable space group: P M M N
;
_chemical_formula_sum "Si O2"
_cell_formula_units_Z 64
_cell_length_a 26.331402
_cell_length_b 8.277656
_cell_length_c 17.885842
_cell_angle_alpha 90.000000
_cell_angle_beta 90.000000
_cell_angle_gamma 90.000000
_cell_volume 3898.439041
_symmetry_space_group_name_H-M "P M M N"
_symmetry_group_IT_number 59
_space_group.IT_coordinate_system_code '2'
_symmetry_cell_setting 'orthorhombic'
loop_
_space_group_symop_operation_xyz
x,y,z
1/2-x,1/2-y,z
1/2+x,-y,-z
-x,1/2+y,-z
-x,-y,-z
1/2+x,1/2+y,-z
1/2-x,y,z
x,1/2-y,z
loop_
_atom_site_type_symbol
_atom_site_label
_atom_site_fract_x
_atom_site_fract_y
_atom_site_fract_z
Si Si1 0.402575 0.943016 0.179200
Si Si2 0.441990 0.554373 0.336900
Si Si3 0.499794 0.443377 0.085389
Si Si4 0.692260 0.555108 0.084876
Si Si5 0.692323 0.555126 0.914300
Si Si6 0.559244 0.054433 0.337779
Si Si7 0.558642 0.444989 0.500393
Si Si8 0.597676 0.444876 0.179618
O O1 0.403609 0.750000 0.180634
O O2 0.411912 0.002986 0.263922
O O3 0.449460 0.000594 0.128323
O O4 0.350053 0.997190 0.142621
O O5 0.441831 0.750000 0.336690
O O6 0.500572 0.499226 0.330044
O O7 0.421447 0.500055 0.418430
O O8 0.500582 0.250000 0.086165
O O9 0.549850 0.502339 0.129702
O O10 0.500000 0.500000 0.000000
O O11 0.750000 0.502660 0.102283
O O12 0.691964 0.750000 0.084877
O O13 0.649920 0.496144 0.141710
O O14 0.680368 0.502139 0.999580
O O15 0.750000 0.502392 0.896863
O O16 0.692081 0.750000 0.914592
O O17 0.559613 0.250000 0.337550
O O18 0.579127 0.999661 0.419547
O O19 0.589512 0.998023 0.264799
O O20 0.500000 0.500000 0.500000
O O21 0.560639 0.250000 0.500305
O O22 0.595917 0.250000 0.180314
#
# Coordination Sequence:
#
# PCOD9449299 Si02
#       8
#     8   8   8   8   8   8   8   8
#     4  11  21  31  46  70  98 125 154 188 231 279
#     4   9  17  28  42  65  94 123 154 185 221 270
#     4  11  22  34  46  64  94 127 159 190 227 277
#     4   9  19  35  52  68  86 113 151 193 235 276
#     4   9  19  36  54  69  87 116 157 201 241 278
#     4   9  16  28  44  64  91 122 154 187 225 267
#     4   8  14  25  42  61  86 120 153 185 220 262
#     4  10  20  31  45  68  94 120 151 188 228 269
#
# _framework density 16.416827000000001
#
# number of rings (size 3 to 8) (size 9 to 14) (size 15 to 20)
#    0.000    2.500    1.250    2.250    0.000    5.000 
#    0.000    1.250    0.000    0.000    0.000    0.875 
#    0.000    7.000    0.000    0.000    0.000    0.000 
#
# Total GULP energy -356613.368177 kJ/mol
# GULP energy per Si atom -5572.083878 kJ/mol
# Density = 1.637946 g / cm^3
# Si number density = 16.416827 Si / 1000 Ang^3
#
#
#
# Elastic Constant Matrix: (Units=GPa)
#
#
# Indices 1 2 3 4 5 6 
#
# 1 91.3794 10.6956 90.4568 0.0000 0.0000 0.0000
# 2 10.6956 9.9619 19.1943 0.0000 0.0000 0.0000
# 3 90.4568 19.1943 200.4905 0.0000 0.0000 0.0000
# 4 0.0000 0.0000 0.0000 16.2304 0.0000 0.0000
# 5 0.0000 0.0000 0.0000 0.0000 18.6425 0.0000
# 6 0.0000 0.0000 0.0000 0.0000 0.0000 22.6668
#
#
#
# Elastic Compliance Matrix: (Units=1/GPa)
#
#
# Indices 1 2 3 4 5 6 
#
# 1 0.019977 -0.005005 -0.008534 0.000000 0.000000 0.000000
# 2 -0.005005 0.124342 -0.009646 0.000000 0.000000 0.000000
# 3 -0.008534 -0.009646 0.009762 0.000000 0.000000 0.000000
# 4 0.000000 0.000000 0.000000 0.061613 0.000000 0.000000
# 5 0.000000 0.000000 0.000000 0.000000 0.053641 0.000000
# 6 0.000000 0.000000 0.000000 0.000000 0.000000 0.044117
#
#
# Mechanical properties :
#
#
# Convention : Reuss Voigt Hill
#
# Bulk Modulus (GPa) = 9.28418 60.28057 34.78238
# Shear Modulus (GPa) = 12.63504 23.60695 18.12099
#
# Velocity S-wave (km/s) = 2.77725 3.79618 3.32596
# Velocity P-wave (km/s) = 3.99396 7.48419 5.99853
#
# Compressibility (1/GPa) = 0.10771009
#
# Stress axis : x y z
#
# Youngs Moduli (GPa) = 50.05731 8.04235 102.44250
#
# Poissons Ratio (x) = 0.04026 0.87425
# Poissons Ratio (y) = 0.25056 0.98813
# Poissons Ratio (z) = 0.42719 0.07757
#
# Static dielectric constant tensor:
#      x y z
#    x 1.511130 0.000000 0.000000 
#    y 0.000000 1.578310 0.000000 
#    z 0.000000 0.000000 1.601900 
# 
# From -- ./inp_files/26450.got.cif
#   From: 2010.05.17/outbox.cif.g08.bks.cpg/sg59_14_cif.got.tgz:26450.got - 2010.06.03 14:40:33.
