data_PCOD9449656
_publ_section_title
;
Structure prediction by ZEFSAII (Michael W. Deem and Ramdas Pophale) SiO2 
 PCOD9449656
Probable space group: P M M N
;
_chemical_formula_sum "Si O2"
_cell_formula_units_Z 48
_cell_length_a 13.651834
_cell_length_b 9.424272
_cell_length_c 18.861034
_cell_angle_alpha 90.000000
_cell_angle_beta 90.000000
_cell_angle_gamma 90.000000
_cell_volume 2426.634171
_symmetry_space_group_name_H-M "P M M N"
_symmetry_group_IT_number 59
_space_group.IT_coordinate_system_code '2'
_symmetry_cell_setting 'orthorhombic'
loop_
_space_group_symop_operation_xyz
x,y,z
1/2-x,1/2-y,z
1/2+x,-y,-z
-x,1/2+y,-z
-x,-y,-z
1/2+x,1/2+y,-z
1/2-x,y,z
x,1/2-y,z
loop_
_atom_site_type_symbol
_atom_site_label
_atom_site_fract_x
_atom_site_fract_y
_atom_site_fract_z
Si Si1 0.130483 0.913431 0.029657
Si Si2 0.055743 0.079433 0.741176
Si Si3 0.862792 0.417074 0.549903
Si Si4 0.132569 0.411818 0.893438
Si Si5 0.550285 0.083391 0.395315
Si Si6 0.860151 0.078000 0.812204
O O1 0.250000 0.914185 0.029793
O O2 0.100480 0.750000 0.021508
O O3 0.097765 0.002927 0.962027
O O4 0.106033 0.967293 0.108837
O O5 0.066835 0.250000 0.733144
O O6 0.105046 0.035279 0.815320
O O7 0.941033 0.044228 0.754122
O O8 0.092398 0.998189 0.672488
O O9 0.750000 0.453004 0.566300
O O10 0.878094 0.250000 0.568065
O O11 0.945423 0.511826 0.586758
O O12 0.883472 0.431818 0.465662
O O13 0.250000 0.409461 0.897299
O O14 0.096251 0.250000 0.897327
O O15 0.539099 0.250000 0.380930
O O16 0.750000 0.027069 0.797804
O O17 0.856286 0.250000 0.816154
#
# Coordination Sequence:
#
# PCOD9449656 Si02
#       6
#     8   8   8   8   8   8
#     4   8  14  27  47  67  87 117 163 215 256 291
#     4  10  20  33  49  70  99 136 170 198 240 302
#     4   9  19  38  62  82 102 135 172 200 239 301
#     4   9  18  31  45  65  96 131 166 206 252 300
#     4  10  21  36  54  81 112 133 161 211 255 289
#     4   8  15  29  48  68  90 121 165 211 249 291
#
# _framework density 19.780486
#
# number of rings (size 3 to 8) (size 9 to 14) (size 15 to 20)
#    0.000    3.000    0.000    1.500    0.000    3.667 
#    0.000    2.500    0.000    1.000    0.000    0.000 
#    0.000    0.000    0.000    0.000    0.000    0.000 
#
# Total GULP energy -267762.095564 kJ/mol
# GULP energy per Si atom -5578.376991 kJ/mol
# Density = 1.973546 g / cm^3
# Si number density = 19.780486 Si / 1000 Ang^3
#
#
#
# Elastic Constant Matrix: (Units=GPa)
#
#
# Indices 1 2 3 4 5 6 
#
# 1 42.0375 -1.4139 -14.2344 0.0000 0.0000 0.0000
# 2 -1.4139 37.8906 29.8505 0.0000 0.0000 0.0000
# 3 -14.2344 29.8505 76.6920 0.0000 0.0000 0.0000
# 4 0.0000 0.0000 0.0000 26.0719 0.0000 0.0000
# 5 0.0000 0.0000 0.0000 0.0000 13.4819 0.0000
# 6 0.0000 0.0000 0.0000 0.0000 0.0000 14.4812
#
#
#
# Elastic Compliance Matrix: (Units=1/GPa)
#
#
# Indices 1 2 3 4 5 6 
#
# 1 0.025808 -0.004054 0.006368 0.000000 0.000000 0.000000
# 2 -0.004054 0.038700 -0.015815 0.000000 0.000000 0.000000
# 3 0.006368 -0.015815 0.020377 0.000000 0.000000 0.000000
# 4 0.000000 0.000000 0.000000 0.038355 0.000000 0.000000
# 5 0.000000 0.000000 0.000000 0.000000 0.074174 0.000000
# 6 0.000000 0.000000 0.000000 0.000000 0.000000 0.069055
#
#
# Mechanical properties :
#
#
# Convention : Reuss Voigt Hill
#
# Bulk Modulus (GPa) = 17.27631 20.55828 18.91729
# Shear Modulus (GPa) = 15.98641 20.30152 18.14396
#
# Velocity S-wave (km/s) = 2.84595 3.20713 3.03193
# Velocity P-wave (km/s) = 4.42179 4.91223 4.67345
#
# Compressibility (1/GPa) = 0.05788275
#
# Stress axis : x y z
#
# Youngs Moduli (GPa) = 38.74738 25.83982 49.07533
#
# Poissons Ratio (x) = 0.10475 -0.31251
# Poissons Ratio (y) = 0.15707 0.77615
# Poissons Ratio (z) = -0.24674 0.40867
#
# Static dielectric constant tensor:
#      x y z
#    x 1.746250 0.000000 0.000000 
#    y 0.000000 1.662110 0.000000 
#    z 0.000000 0.000000 1.698870 
# 
# From -- ./inp_files/25468.got.cif
#   From: 2010.05.17/outbox.cif.g08.bks.cpg/sg59_13_cif.got.tgz:25468.got - 2010.06.03 14:40:33.
