data_PCOD9449023
_publ_section_title
;
Structure prediction by ZEFSAII (Michael W. Deem and Ramdas Pophale) SiO2 
 PCOD9449023
Probable space group: P M M N
;
_chemical_formula_sum "Si O2"
_cell_formula_units_Z 48
_cell_length_a 15.474005
_cell_length_b 8.665232
_cell_length_c 19.490082
_cell_angle_alpha 90.000000
_cell_angle_beta 90.000000
_cell_angle_gamma 90.000000
_cell_volume 2613.344081
_symmetry_space_group_name_H-M "P M M N"
_symmetry_group_IT_number 59
_space_group.IT_coordinate_system_code '2'
_symmetry_cell_setting 'orthorhombic'
loop_
_space_group_symop_operation_xyz
x,y,z
1/2-x,1/2-y,z
1/2+x,-y,-z
-x,1/2+y,-z
-x,-y,-z
1/2+x,1/2+y,-z
1/2-x,y,z
x,1/2-y,z
loop_
_atom_site_type_symbol
_atom_site_label
_atom_site_fract_x
_atom_site_fract_y
_atom_site_fract_z
Si Si1 0.849914 0.565022 0.172641
Si Si2 0.849586 0.063875 0.830018
Si Si3 0.403341 0.564858 0.678984
Si Si4 0.750000 0.438347 0.578470
Si Si5 0.092386 0.936301 0.324974
Si Si6 0.750000 0.062163 0.421563
Si Si7 0.501220 0.433680 0.076452
O O1 0.750000 0.523849 0.159049
O O2 0.858002 0.750000 0.171716
O O3 0.875906 0.505137 0.247910
O O4 0.915624 0.495000 0.117798
O O5 0.750000 0.019458 0.842137
O O6 0.855536 0.250000 0.836001
O O7 0.876186 0.024103 0.751967
O O8 0.916728 0.988861 0.882038
O O9 0.400820 0.750000 0.684353
O O10 0.499566 0.509955 0.662121
O O11 0.334452 0.515276 0.621368
O O12 0.750000 0.250000 0.578336
O O13 0.835034 0.485350 0.620610
O O14 0.750000 0.491789 0.499979
O O15 0.084806 0.750000 0.327741
O O16 0.750000 0.250000 0.423321
O O17 0.503449 0.250000 0.074260
O O18 0.500000 0.500000 0.000000
#
# Coordination Sequence:
#
# PCOD9449023 Si02
#       7
#     8   8   8   4   8   4   8
#     4  11  23  40  64  91 119 155 202 254 299 356
#     4  10  20  37  62  91 121 157 202 250 296 354
#     4  11  21  35  57  87 120 159 199 246 303 360
#     4   9  18  36  59  85 118 163 204 245 299 358
#     4  10  19  34  60  88 114 153 204 249 292 353
#     4   9  20  36  55  83 124 161 200 247 301 362
#     4  12  26  43  64  91 125 162 196 245 301 357
#
# _framework density 18.367272
#
# number of rings (size 3 to 8) (size 9 to 14) (size 15 to 20)
#    0.000    1.500    3.333    2.500    0.000    2.667 
#    0.000    0.417    0.000    3.000    0.000    0.000 
#    0.000    0.000    0.000    0.000    0.000    0.000 
#
# Total GULP energy -268254.495386 kJ/mol
# GULP energy per Si atom -5588.635321 kJ/mol
# Density = 1.832547 g / cm^3
# Si number density = 18.367272 Si / 1000 Ang^3
#
#
#
# Elastic Constant Matrix: (Units=GPa)
#
#
# Indices 1 2 3 4 5 6 
#
# 1 221.2189 65.2438 122.4000 0.0000 0.0000 0.0000
# 2 65.2438 48.6799 53.3691 0.0000 0.0000 0.0000
# 3 122.4000 53.3691 194.5903 0.0000 0.0000 0.0000
# 4 0.0000 0.0000 0.0000 18.5251 0.0000 0.0000
# 5 0.0000 0.0000 0.0000 0.0000 32.7415 0.0000
# 6 0.0000 0.0000 0.0000 0.0000 0.0000 13.7837
#
#
#
# Elastic Compliance Matrix: (Units=1/GPa)
#
#
# Indices 1 2 3 4 5 6 
#
# 1 0.008714 -0.008108 -0.003258 0.000000 0.000000 0.000000
# 2 -0.008108 0.036918 -0.005026 0.000000 0.000000 0.000000
# 3 -0.003258 -0.005026 0.008566 0.000000 0.000000 0.000000
# 4 0.000000 0.000000 0.000000 0.053981 0.000000 0.000000
# 5 0.000000 0.000000 0.000000 0.000000 0.030542 0.000000
# 6 0.000000 0.000000 0.000000 0.000000 0.000000 0.072549
#
#
# Mechanical properties :
#
#
# Convention : Reuss Voigt Hill
#
# Bulk Modulus (GPa) = 46.69145 105.16831 75.92988
# Shear Modulus (GPa) = 19.90510 27.90848 23.90679
#
# Velocity S-wave (km/s) = 3.29557 3.90226 3.61168
# Velocity P-wave (km/s) = 6.32117 8.81399 7.66954
#
# Compressibility (1/GPa) = 0.02141720
#
# Stress axis : x y z
#
# Youngs Moduli (GPa) = 114.75765 27.08676 116.73521
#
# Poissons Ratio (x) = 0.21961 0.38028
# Poissons Ratio (y) = 0.93042 0.58666
# Poissons Ratio (z) = 0.37383 0.13613
#
# Static dielectric constant tensor:
#      x y z
#    x 1.616560 0.000000 0.000000 
#    y 0.000000 1.622520 0.000000 
#    z 0.000000 0.000000 1.600600 
# 
# From -- ./inp_files/27440.got.cif
#   From: 2010.05.17/outbox.cif.g08.bks.cpg/sg59_14_cif.got.tgz:27440.got - 2010.06.03 14:40:33.
