data_PCOD9449344
_publ_section_title
;
Structure prediction by ZEFSAII (Michael W. Deem and Ramdas Pophale) SiO2 
 PCOD9449344
Probable space group: P M M N
;
_chemical_formula_sum "Si O2"
_cell_formula_units_Z 40
_cell_length_a 7.634504
_cell_length_b 20.012341
_cell_length_c 13.485256
_cell_angle_alpha 90.000000
_cell_angle_beta 90.000000
_cell_angle_gamma 90.000000
_cell_volume 2060.335363
_symmetry_space_group_name_H-M "P M M N"
_symmetry_group_IT_number 59
_space_group.IT_coordinate_system_code '2'
_symmetry_cell_setting 'orthorhombic'
loop_
_space_group_symop_operation_xyz
x,y,z
1/2-x,1/2-y,z
1/2+x,-y,-z
-x,1/2+y,-z
-x,-y,-z
1/2+x,1/2+y,-z
1/2-x,y,z
x,1/2-y,z
loop_
_atom_site_type_symbol
_atom_site_label
_atom_site_fract_x
_atom_site_fract_y
_atom_site_fract_z
Si Si1 0.965468 0.327216 0.290803
Si Si2 0.047022 0.831277 0.491987
Si Si3 0.538251 0.173508 0.723028
Si Si4 0.542500 0.923739 0.096859
Si Si5 0.044792 0.573374 0.877802
O O1 0.750000 0.326918 0.292828
O O2 0.017323 0.250000 0.274785
O O3 0.026819 0.349854 0.400539
O O4 0.027186 0.375909 0.203811
O O5 0.250000 0.853166 0.492630
O O6 0.046462 0.750000 0.490860
O O7 0.971357 0.850952 0.385052
O O8 0.750000 0.175458 0.716260
O O9 0.478659 0.250000 0.739066
O O10 0.491136 0.126258 0.813552
O O11 0.750000 0.929939 0.082712
O O12 0.470347 0.998016 0.120897
O O13 0.470244 0.900900 0.990497
O O14 0.250000 0.566807 0.853818
#
# Coordination Sequence:
#
# PCOD9449344 Si02
#       5
#     8   8   8   8   8
#     4   8  13  24  46  72  91 109 142 188 228 262
#     4   7  11  22  42  68  92 111 137 179 227 266
#     4   9  17  30  49  70  90 115 150 188 222 264
#     4  10  20  32  45  63  92 126 154 185 227 271
#     4   9  18  32  48  66  90 121 155 188 225 271
#
# _framework density 19.414314999999998
#
# number of rings (size 3 to 8) (size 9 to 14) (size 15 to 20)
#    0.000    3.400    0.000    3.000    0.000    2.000 
#    0.000    3.000    0.000    1.200    0.000    2.800 
#    0.000    0.000    0.000    0.000    0.000    0.000 
#
# Total GULP energy -222726.173771 kJ/mol
# GULP energy per Si atom -5568.154344 kJ/mol
# Density = 1.937013 g / cm^3
# Si number density = 19.414315 Si / 1000 Ang^3
#
#
#
# Elastic Constant Matrix: (Units=GPa)
#
#
# Indices 1 2 3 4 5 6 
#
# 1 33.8871 -1.0965 -13.0941 0.0000 0.0000 0.0000
# 2 -1.0965 65.2164 88.6777 0.0000 0.0000 0.0000
# 3 -13.0941 88.6777 191.3411 0.0000 0.0000 0.0000
# 4 0.0000 0.0000 0.0000 -43.1334 0.0000 0.0000
# 5 0.0000 0.0000 0.0000 0.0000 4.9189 0.0000
# 6 0.0000 0.0000 0.0000 0.0000 0.0000 8.3053
#
#
#
# Elastic Compliance Matrix: (Units=1/GPa)
#
#
# Indices 1 2 3 4 5 6 
#
# 1 0.031283 -0.006449 0.005130 0.000000 0.000000 0.000000
# 2 -0.006449 0.042791 -0.020273 0.000000 0.000000 0.000000
# 3 0.005130 -0.020273 0.014973 0.000000 0.000000 0.000000
# 4 0.000000 0.000000 0.000000 -0.023184 0.000000 0.000000
# 5 0.000000 0.000000 0.000000 0.000000 0.203299 0.000000
# 6 0.000000 0.000000 0.000000 0.000000 0.000000 0.120405
#
#
# Mechanical properties :
#
#
# Convention : Reuss Voigt Hill
#
# Bulk Modulus (GPa) = 21.80433 48.82432 35.31433
# Shear Modulus (GPa) = 11.15971 8.41533 9.78752
#
# Velocity S-wave (km/s) = 2.40014 2.08423 2.24774
# Velocity P-wave (km/s) = 4.35159 5.56734 4.99658
#
# Compressibility (1/GPa) = 0.04586245
#
# Stress axis : x y z
#
# Youngs Moduli (GPa) = 31.96607 23.36916 66.78703
#
# Poissons Ratio (x) = 0.15071 -0.34259
# Poissons Ratio (y) = 0.20615 1.35398
# Poissons Ratio (z) = -0.16397 0.47377
#
# Static dielectric constant tensor:
#      x y z
#    x 1.744310 0.000000 0.000000 
#    y 0.000000 1.659760 0.000000 
#    z 0.000000 0.000000 1.703720 
# 
# From -- ./inp_files/13852.got.cif
#   From: 2010.05.17/outbox.cif.g08.bks.cpg/sg59_7_cif.got.tgz:13852.got - 2010.06.03 14:40:33.
