data_PCOD9449219
_publ_section_title
;
Structure prediction by ZEFSAII (Michael W. Deem and Ramdas Pophale) SiO2 
 PCOD9449219
Probable space group: P M M N
;
_chemical_formula_sum "Si O2"
_cell_formula_units_Z 58
_cell_length_a 7.414911
_cell_length_b 25.749801
_cell_length_c 12.075956
_cell_angle_alpha 90.000000
_cell_angle_beta 90.000000
_cell_angle_gamma 90.000000
_cell_volume 2305.692260
_symmetry_space_group_name_H-M "P M M N"
_symmetry_group_IT_number 59
_space_group.IT_coordinate_system_code '2'
_symmetry_cell_setting 'orthorhombic'
loop_
_space_group_symop_operation_xyz
x,y,z
1/2-x,1/2-y,z
1/2+x,-y,-z
-x,1/2+y,-z
-x,-y,-z
1/2+x,1/2+y,-z
1/2-x,y,z
x,1/2-y,z
loop_
_atom_site_type_symbol
_atom_site_label
_atom_site_fract_x
_atom_site_fract_y
_atom_site_fract_z
Si Si1 0.967024 0.860683 0.012282
Si Si2 0.542625 0.328589 0.213123
Si Si3 0.955756 0.516166 0.334555
Si Si4 0.533328 0.092637 0.391413
Si Si5 0.531963 0.628583 0.264895
Si Si6 0.037535 0.808073 0.471195
Si Si7 0.535217 0.964069 0.895311
Si Si8 0.750000 0.750000 0.704480
O O1 0.750000 0.862885 0.017598
O O2 0.030723 0.861744 0.138623
O O3 0.037350 0.910468 0.945838
O O4 0.011958 0.818783 0.917662
O O5 0.750000 0.317629 0.238372
O O6 0.504402 0.385529 0.267140
O O7 0.406811 0.293898 0.280435
O O8 0.750000 0.523428 0.371596
O O9 0.036279 0.466373 0.400706
O O10 0.036346 0.573967 0.318961
O O11 0.952625 0.492678 0.210173
O O12 0.750000 0.088859 0.408253
O O13 0.465681 0.139487 0.469101
O O14 0.750000 0.624369 0.261313
O O15 0.482715 0.676692 0.342761
O O16 0.250000 0.805328 0.497979
O O17 0.958976 0.750000 0.492814
O O18 0.750000 0.959391 0.875108
O O19 0.500000 0.000000 0.000000
#
# Coordination Sequence:
#
# PCOD9449219 Si02
#       8
#     8   8   8   8   8   8   8   2
#     4  10  20  38  59  87 133 172 209 271 325 381
#     4  11  23  41  67  96 130 176 221 269 345 404
#     4  10  19  36  60  92 131 164 200 256 322 390
#     4   9  20  39  67  96 125 163 211 267 328 399
#     4  10  22  40  62  91 130 172 210 261 327 387
#     4  10  23  45  66  86 119 163 219 281 326 375
#     4  11  20  31  54  88 129 173 209 248 310 383
#     4  12  26  44  60  94 142 172 218 292 326 392
#
# _framework density 25.155137
#
# number of rings (size 3 to 8) (size 9 to 14) (size 15 to 20)
#    0.000    1.793    3.448    0.621    0.966    2.483 
#    2.483    0.000    0.000    0.000    0.000    0.000 
#    0.000    0.000    0.000    0.000    0.000    0.000 
#
# Total GULP energy -323269.398673 kJ/mol
# GULP energy per Si atom -5573.610322 kJ/mol
# Density = 2.509788 g / cm^3
# Si number density = 25.155137 Si / 1000 Ang^3
#
#
#
# Elastic Constant Matrix: (Units=GPa)
#
#
# Indices 1 2 3 4 5 6 
#
# 1 101.8999 2.2639 -2.0987 0.0000 0.0000 0.0000
# 2 2.2639 109.6989 64.1774 0.0000 0.0000 0.0000
# 3 -2.0987 64.1774 154.7337 0.0000 0.0000 0.0000
# 4 0.0000 0.0000 0.0000 15.6109 0.0000 0.0000
# 5 0.0000 0.0000 0.0000 0.0000 -49.6352 0.0000
# 6 0.0000 0.0000 0.0000 0.0000 0.0000 18.2151
#
#
#
# Elastic Compliance Matrix: (Units=1/GPa)
#
#
# Indices 1 2 3 4 5 6 
#
# 1 0.009828 -0.000371 0.000287 0.000000 0.000000 0.000000
# 2 -0.000371 0.012050 -0.005003 0.000000 0.000000 0.000000
# 3 0.000287 -0.005003 0.008542 0.000000 0.000000 0.000000
# 4 0.000000 0.000000 0.000000 0.064058 0.000000 0.000000
# 5 0.000000 0.000000 0.000000 0.000000 -0.020147 0.000000
# 6 0.000000 0.000000 0.000000 0.000000 0.000000 0.054899
#
#
# Mechanical properties :
#
#
# Convention : Reuss Voigt Hill
#
# Bulk Modulus (GPa) = 49.39173 55.00198 52.19685
# Shear Modulus (GPa) = 34.21086 16.97082 25.59084
#
# Velocity S-wave (km/s) = 3.69181 2.60021 3.19301
# Velocity P-wave (km/s) = 6.15224 5.56124 5.86419
#
# Compressibility (1/GPa) = 0.02024631
#
# Stress axis : x y z
#
# Youngs Moduli (GPa) = 101.75323 82.98423 117.07280
#
# Poissons Ratio (x) = 0.03077 -0.03361
# Poissons Ratio (y) = 0.03773 0.58573
# Poissons Ratio (z) = -0.02921 0.41518
#
# Static dielectric constant tensor:
#      x y z
#    x 1.882150 0.000000 0.000000 
#    y 0.000000 2.140920 0.000000 
#    z 0.000000 0.000000 2.064180 
# 
# From -- ./inp_files/14662.got.cif
#   From: 2010.05.17/outbox.cif.g08.bks.cpg/sg59_8_cif.got.tgz:14662.got - 2010.06.03 14:40:33.
