data_PCOD9449813
_publ_section_title
;
Structure prediction by ZEFSAII (Michael W. Deem and Ramdas Pophale) SiO2 
 PCOD9449813
Probable space group: P M M N
;
_chemical_formula_sum "Si O2"
_cell_formula_units_Z 48
_cell_length_a 7.355657
_cell_length_b 18.099219
_cell_length_c 15.771291
_cell_angle_alpha 90.000000
_cell_angle_beta 90.000000
_cell_angle_gamma 90.000000
_cell_volume 2099.657945
_symmetry_space_group_name_H-M "P M M N"
_symmetry_group_IT_number 59
_space_group.IT_coordinate_system_code '2'
_symmetry_cell_setting 'orthorhombic'
loop_
_space_group_symop_operation_xyz
x,y,z
1/2-x,1/2-y,z
1/2+x,-y,-z
-x,1/2+y,-z
-x,-y,-z
1/2+x,1/2+y,-z
1/2-x,y,z
x,1/2-y,z
loop_
_atom_site_type_symbol
_atom_site_label
_atom_site_fract_x
_atom_site_fract_y
_atom_site_fract_z
Si Si1 0.464354 0.908671 0.308676
Si Si2 0.458386 0.057893 0.386389
Si Si3 0.029229 0.835866 0.767957
Si Si4 0.031225 0.169079 0.523497
Si Si5 0.035810 0.839580 0.953032
Si Si6 0.027371 0.836227 0.137671
O O1 0.250000 0.922442 0.295548
O O2 0.485825 0.845358 0.378866
O O3 0.536155 0.883439 0.217716
O O4 0.542956 0.982391 0.351794
O O5 0.250000 0.040583 0.410221
O O6 0.460534 0.114686 0.308224
O O7 0.539906 0.102165 0.465612
O O8 0.250000 0.838130 0.767348
O O9 0.976743 0.750000 0.757534
O O10 0.965226 0.863154 0.861009
O O11 0.250000 0.169213 0.515100
O O12 0.966214 0.250000 0.495663
O O13 0.250000 0.857249 0.952651
O O14 0.020944 0.750000 0.953100
O O15 0.964672 0.863568 0.044823
O O16 0.250000 0.836923 0.136721
O O17 0.975992 0.750000 0.147927
#
# Coordination Sequence:
#
# PCOD9449813 Si02
#       6
#     8   8   8   8   8   8
#     4  10  20  33  51  75  99 125 161 201 237 280
#     4  10  21  35  49  69 101 135 159 187 239 298
#     4   9  17  30  50  74  95 121 164 208 237 271
#     4  10  21  36  52  69  92 126 163 197 242 296
#     4   7  11  22  42  68  95 121 153 196 241 279
#     4   8  13  24  45  71  96 122 155 198 243 280
#
# _framework density 22.860866999999999
#
# number of rings (size 3 to 8) (size 9 to 14) (size 15 to 20)
#    0.000    3.000    0.000    3.500    0.000    3.333 
#    0.000    0.833    0.000    1.000    0.000    2.333 
#    0.000    0.000    0.000    0.000    0.000    0.000 
#
# Total GULP energy -267885.796906 kJ/mol
# GULP energy per Si atom -5580.954102 kJ/mol
# Density = 2.280884 g / cm^3
# Si number density = 22.860867 Si / 1000 Ang^3
#
#
#
# Elastic Constant Matrix: (Units=GPa)
#
#
# Indices 1 2 3 4 5 6 
#
# 1 83.8458 -5.7238 -7.2979 0.0000 0.0000 0.0000
# 2 -5.7238 46.4524 15.7089 0.0000 0.0000 0.0000
# 3 -7.2979 15.7089 130.4018 0.0000 0.0000 0.0000
# 4 0.0000 0.0000 0.0000 139.9348 0.0000 0.0000
# 5 0.0000 0.0000 0.0000 0.0000********** 0.0000
# 6 0.0000 0.0000 0.0000 0.0000 0.0000 -21.3416
#
#
#
# Elastic Compliance Matrix: (Units=1/GPa)
#
#
# Indices 1 2 3 4 5 6 
#
# 1 0.012061 0.001311 0.000517 0.000000 0.000000 0.000000
# 2 0.001311 0.022584 -0.002647 0.000000 0.000000 0.000000
# 3 0.000517 -0.002647 0.008016 0.000000 0.000000 0.000000
# 4 0.000000 0.000000 0.000000 0.007146 0.000000 0.000000
# 5 0.000000 0.000000 0.000000 0.000000 -0.000057 0.000000
# 6 0.000000 0.000000 0.000000 0.000000 0.000000 -0.046857
#
#
# Mechanical properties :
#
#
# Convention : Reuss Voigt Hill
#
# Bulk Modulus (GPa) = 24.37591 29.56380 26.96986
# Shear Modulus (GPa) = 274.62207 -3475.13865 -1600.25829
#
# Velocity S-wave (km/s) = 10.97216 -39.03108 -26.48620
# Velocity P-wave (km/s) = 13.08448 44.92520 30.38972
#
# Compressibility (1/GPa) = 0.04102411
#
# Stress axis : x y z
#
# Youngs Moduli (GPa) = 82.91065 44.27869 124.74370
#
# Poissons Ratio (x) = -0.05806 -0.06450
# Poissons Ratio (y) = -0.10872 0.33022
# Poissons Ratio (z) = -0.04287 0.11722
#
# Static dielectric constant tensor:
#      x y z
#    x 1.850380 0.000000 0.000000 
#    y 0.000000 1.828560 0.000000 
#    z 0.000000 0.000000 1.855360 
# 
# From -- ./inp_files/20431.got.cif
#   From: 2010.05.17/outbox.cif.g08.bks.cpg/sg59_11_cif.got.tgz:20431.got - 2010.06.03 14:40:33.
