data_PCOD9449728
_publ_section_title
;
Structure prediction by ZEFSAII (Michael W. Deem and Ramdas Pophale) SiO2 
 PCOD9449728
Probable space group: P M M N
;
_chemical_formula_sum "Si O2"
_cell_formula_units_Z 48
_cell_length_a 9.354164
_cell_length_b 7.932421
_cell_length_c 31.987171
_cell_angle_alpha 90.000000
_cell_angle_beta 90.000000
_cell_angle_gamma 90.000000
_cell_volume 2373.485416
_symmetry_space_group_name_H-M "P M M N"
_symmetry_group_IT_number 59
_space_group.IT_coordinate_system_code '2'
_symmetry_cell_setting 'orthorhombic'
loop_
_space_group_symop_operation_xyz
x,y,z
1/2-x,1/2-y,z
1/2+x,-y,-z
-x,1/2+y,-z
-x,-y,-z
1/2+x,1/2+y,-z
1/2-x,y,z
x,1/2-y,z
loop_
_atom_site_type_symbol
_atom_site_label
_atom_site_fract_x
_atom_site_fract_y
_atom_site_fract_z
Si Si1 0.914709 0.043532 0.293497
Si Si2 0.912156 0.049121 0.040672
Si Si3 0.913760 0.046639 0.458503
Si Si4 0.086382 0.050100 0.868059
Si Si5 0.584963 0.956198 0.623576
Si Si6 0.588438 0.548697 0.787236
O O1 0.750000 0.988871 0.295119
O O2 0.913443 0.250000 0.293231
O O3 0.003264 0.991626 0.334366
O O4 0.993248 0.984737 0.251366
O O5 0.750000 0.981618 0.037087
O O6 0.906589 0.250000 0.042491
O O7 0.969909 0.988290 0.085407
O O8 0.000000 0.000000 0.000000
O O9 0.750000 0.984689 0.459678
O O10 0.908397 0.250000 0.456201
O O11 0.998689 0.987450 0.417409
O O12 0.000000 0.000000 0.500000
O O13 0.250000 0.982186 0.865386
O O14 0.093090 0.250000 0.863227
O O15 0.989214 0.981809 0.831080
O O16 0.750000 0.010868 0.622937
O O17 0.585787 0.750000 0.623314
O O18 0.750000 0.480495 0.786780
O O19 0.597907 0.750000 0.781555
#
# Coordination Sequence:
#
# PCOD9449728 Si02
#       6
#     8   8   8   8   8   8
#     4   9  16  27  46  72 101 132 167 209 255 303
#     4  10  21  37  58  83 110 141 177 217 262 311
#     4  10  20  33  50  73 101 134 173 215 260 312
#     4  10  21  37  56  77 103 138 178 217 258 306
#     4   9  16  27  45  70 100 132 167 210 258 307
#     4  10  20  33  51  77 106 135 169 210 256 305
#
# _framework density 20.223423
#
# number of rings (size 3 to 8) (size 9 to 14) (size 15 to 20)
#    0.000    2.333    0.000    3.000    0.000    8.667 
#    0.000    0.000    0.000    1.000    0.000    0.000 
#    0.000    0.000    0.000    0.000    0.000    0.000 
#
# Total GULP energy -268059.007251 kJ/mol
# GULP energy per Si atom -5584.562651 kJ/mol
# Density = 2.017739 g / cm^3
# Si number density = 20.223423 Si / 1000 Ang^3
#
#
#
# Elastic Constant Matrix: (Units=GPa)
#
#
# Indices 1 2 3 4 5 6 
#
# 1 189.0570 6.8166 130.4156 0.0000 0.0000 0.0000
# 2 6.8166 18.1879 -2.2614 0.0000 0.0000 0.0000
# 3 130.4156 -2.2614 212.7172 0.0000 0.0000 0.0000
# 4 0.0000 0.0000 0.0000 21.1719 0.0000 0.0000
# 5 0.0000 0.0000 0.0000 0.0000 41.5456 0.0000
# 6 0.0000 0.0000 0.0000 0.0000 0.0000 14.1365
#
#
#
# Elastic Compliance Matrix: (Units=1/GPa)
#
#
# Indices 1 2 3 4 5 6 
#
# 1 0.009488 -0.004285 -0.005863 0.000000 0.000000 0.000000
# 2 -0.004285 0.056990 0.003233 0.000000 0.000000 0.000000
# 3 -0.005863 0.003233 0.008330 0.000000 0.000000 0.000000
# 4 0.000000 0.000000 0.000000 0.047232 0.000000 0.000000
# 5 0.000000 0.000000 0.000000 0.000000 0.024070 0.000000
# 6 0.000000 0.000000 0.000000 0.000000 0.000000 0.070739
#
#
# Mechanical properties :
#
#
# Convention : Reuss Voigt Hill
#
# Bulk Modulus (GPa) = 16.39933 76.65596 46.52765
# Shear Modulus (GPa) = 19.92000 34.37021 27.14510
#
# Velocity S-wave (km/s) = 3.14187 4.12700 3.66766
# Velocity P-wave (km/s) = 4.61394 7.79079 6.40253
#
# Compressibility (1/GPa) = 0.06097810
#
# Stress axis : x y z
#
# Youngs Moduli (GPa) = 105.39536 17.54708 120.05096
#
# Poissons Ratio (x) = 0.07519 0.70382
# Poissons Ratio (y) = 0.45161 -0.38812
# Poissons Ratio (z) = 0.61789 -0.05673
#
# Static dielectric constant tensor:
#      x y z
#    x 1.710630 0.000000 0.000000 
#    y 0.000000 1.744470 0.000000 
#    z 0.000000 0.000000 1.684670 
# 
# From -- ./inp_files/32872.got.cif
#   From: 2010.05.17/outbox.cif.g08.bks.cpg/sg59_17_cif.got.tgz:32872.got - 2010.06.03 14:40:33.
