data_PCOD9449235
_publ_section_title
;
Structure prediction by ZEFSAII (Michael W. Deem and Ramdas Pophale) SiO2 
 PCOD9449235
Probable space group: P M M N
;
_chemical_formula_sum "Si O2"
_cell_formula_units_Z 32
_cell_length_a 17.334872
_cell_length_b 13.988187
_cell_length_c 5.217139
_cell_angle_alpha 90.000000
_cell_angle_beta 90.000000
_cell_angle_gamma 90.000000
_cell_volume 1265.069766
_symmetry_space_group_name_H-M "P M M N"
_symmetry_group_IT_number 59
_space_group.IT_coordinate_system_code '2'
_symmetry_cell_setting 'orthorhombic'
loop_
_space_group_symop_operation_xyz
x,y,z
1/2-x,1/2-y,z
1/2+x,-y,-z
-x,1/2+y,-z
-x,-y,-z
1/2+x,1/2+y,-z
1/2-x,y,z
x,1/2-y,z
loop_
_atom_site_type_symbol
_atom_site_label
_atom_site_fract_x
_atom_site_fract_y
_atom_site_fract_z
Si Si1 0.336674 0.861075 0.850551
Si Si2 0.364445 0.358877 0.695454
Si Si3 0.131278 0.034102 0.198680
Si Si4 0.505784 0.140601 0.389167
O O1 0.250000 0.877327 0.753334
O O2 0.342037 0.750000 0.927894
O O3 0.404177 0.878202 0.642570
O O4 0.351839 0.930017 0.090702
O O5 0.340812 0.250000 0.653252
O O6 0.336623 0.428145 0.468142
O O7 0.458516 0.360578 0.655630
O O8 0.341685 0.396999 0.969425
O O9 0.040931 0.060798 0.233294
O O10 0.492304 0.250000 0.291611
#
# Coordination Sequence:
#
# PCOD9449235 Si02
#       4
#     8   8   8   8
#     4  10  21  39  59  86 126 167 205 244 294 359
#     4   9  18  34  64  96 119 144 191 256 308 353
#     4  10  19  36  64  90 121 156 199 250 299 353
#     4   8  17  34  61  93 119 151 197 252 304 353
#
# _framework density 25.295048000000001
#
# number of rings (size 3 to 8) (size 9 to 14) (size 15 to 20)
#    1.500    1.250    0.000    2.250    0.000    1.000 
#    0.000    2.500    0.000   11.250    0.000    0.000 
#    0.000    0.000    0.000    0.000    0.000    0.000 
#
# Total GULP energy -178650.458680 kJ/mol
# GULP energy per Si atom -5582.826834 kJ/mol
# Density = 2.523748 g / cm^3
# Si number density = 25.295048 Si / 1000 Ang^3
#
#
#
# Elastic Constant Matrix: (Units=GPa)
#
#
# Indices 1 2 3 4 5 6 
#
# 1 166.6663 49.0790 -3.0133 0.0000 0.0000 0.0000
# 2 49.0790 134.9627 11.9339 0.0000 0.0000 0.0000
# 3 -3.0133 11.9339 47.0007 0.0000 0.0000 0.0000
# 4 0.0000 0.0000 0.0000 25.0375 0.0000 0.0000
# 5 0.0000 0.0000 0.0000 0.0000 -8.6017 0.0000
# 6 0.0000 0.0000 0.0000 0.0000 0.0000 16.6664
#
#
#
# Elastic Compliance Matrix: (Units=1/GPa)
#
#
# Indices 1 2 3 4 5 6 
#
# 1 0.006773 -0.002559 0.001084 0.000000 0.000000 0.000000
# 2 -0.002559 0.008546 -0.002334 0.000000 0.000000 0.000000
# 3 0.001084 -0.002334 0.021938 0.000000 0.000000 0.000000
# 4 0.000000 0.000000 0.000000 0.039940 0.000000 0.000000
# 5 0.000000 0.000000 0.000000 0.000000 -0.116256 0.000000
# 6 0.000000 0.000000 0.000000 0.000000 0.000000 0.060001
#
#
# Mechanical properties :
#
#
# Convention : Reuss Voigt Hill
#
# Bulk Modulus (GPa) = 33.73824 51.62544 42.68184
# Shear Modulus (GPa) = 130.06934 25.99577 78.03256
#
# Velocity S-wave (km/s) = 7.17861 3.20926 5.56021
# Velocity P-wave (km/s) = 9.05963 5.84688 7.62440
#
# Compressibility (1/GPa) = 0.02963996
#
# Stress axis : x y z
#
# Youngs Moduli (GPa) = 147.64198 117.00857 45.58214
#
# Poissons Ratio (x) = 0.29941 -0.04941
# Poissons Ratio (y) = 0.37780 0.10639
# Poissons Ratio (z) = -0.16004 0.27311
#
# Static dielectric constant tensor:
#      x y z
#    x 2.120170 0.000000 0.000000 
#    y 0.000000 1.977700 0.000000 
#    z 0.000000 0.000000 1.949270 
# 
# From -- ./inp_files/2497.got.cif
#   From: 2010.05.17/outbox.cif.g08.bks.cpg/sg59_2_cif.got.tgz:2497.got - 2010.06.03 14:40:33.
