data_PCOD9449800
_publ_section_title
;
Structure prediction by ZEFSAII (Michael W. Deem and Ramdas Pophale) SiO2 
 PCOD9449800
Probable space group: P M M N
;
_chemical_formula_sum "Si O2"
_cell_formula_units_Z 40
_cell_length_a 7.576343
_cell_length_b 9.539878
_cell_length_c 26.331295
_cell_angle_alpha 90.000000
_cell_angle_beta 90.000000
_cell_angle_gamma 90.000000
_cell_volume 1903.157223
_symmetry_space_group_name_H-M "P M M N"
_symmetry_group_IT_number 59
_space_group.IT_coordinate_system_code '2'
_symmetry_cell_setting 'orthorhombic'
loop_
_space_group_symop_operation_xyz
x,y,z
1/2-x,1/2-y,z
1/2+x,-y,-z
-x,1/2+y,-z
-x,-y,-z
1/2+x,1/2+y,-z
1/2-x,y,z
x,1/2-y,z
loop_
_atom_site_type_symbol
_atom_site_label
_atom_site_fract_x
_atom_site_fract_y
_atom_site_fract_z
Si Si1 0.959793 0.091771 0.356018
Si Si2 0.537979 0.591640 0.950493
Si Si3 0.462725 0.909501 0.258799
Si Si4 0.965400 0.411059 0.855832
Si Si5 0.462105 0.409522 0.549911
O O1 0.750000 0.102149 0.364547
O O2 0.031875 0.250000 0.357259
O O3 0.031039 0.992413 0.400759
O O4 0.984555 0.017305 0.302036
O O5 0.750000 0.599096 0.945933
O O6 0.470235 0.750000 0.955503
O O7 0.471860 0.513787 0.899877
O O8 0.500000 0.500000 0.000000
O O9 0.250000 0.906061 0.257849
O O10 0.523290 0.750000 0.270222
O O11 0.521595 0.946592 0.201607
O O12 0.750000 0.413656 0.856047
O O13 0.017090 0.250000 0.866322
O O14 0.500000 0.500000 0.500000
O O15 0.250000 0.400350 0.554565
O O16 0.529601 0.250000 0.546367
#
# Coordination Sequence:
#
# PCOD9449800 Si02
#       5
#     8   8   8   8   8
#     4  10  21  36  53  75 105 139 172 207 250 298
#     4  10  20  33  51  75 101 131 168 208 252 302
#     4   9  18  33  54  79 103 130 168 210 251 299
#     4   8  15  30  51  73  99 131 166 206 252 299
#     4  10  21  37  57  79 103 134 171 209 252 301
#
# _framework density 21.017706
#
# number of rings (size 3 to 8) (size 9 to 14) (size 15 to 20)
#    0.000    2.600    0.000    3.000    0.000    5.600 
#    0.000    3.000    0.000    1.200    0.000    0.000 
#    0.000    0.000    0.000    0.000    0.000    0.000 
#
# Total GULP energy -223371.496749 kJ/mol
# GULP energy per Si atom -5584.287419 kJ/mol
# Density = 2.096987 g / cm^3
# Si number density = 21.017706 Si / 1000 Ang^3
#
#
#
# Elastic Constant Matrix: (Units=GPa)
#
#
# Indices 1 2 3 4 5 6 
#
# 1 47.0343 8.2350 -1.2593 0.0000 0.0000 0.0000
# 2 8.2350 223.7497 150.6515 0.0000 0.0000 0.0000
# 3 -1.2593 150.6515 182.5818 0.0000 0.0000 0.0000
# 4 0.0000 0.0000 0.0000 42.2828 0.0000 0.0000
# 5 0.0000 0.0000 0.0000 0.0000 26.2058 0.0000
# 6 0.0000 0.0000 0.0000 0.0000 0.0000 17.5244
#
#
#
# Elastic Compliance Matrix: (Units=1/GPa)
#
#
# Indices 1 2 3 4 5 6 
#
# 1 0.021663 -0.002020 0.001816 0.000000 0.000000 0.000000
# 2 -0.002020 0.010244 -0.008467 0.000000 0.000000 0.000000
# 3 0.001816 -0.008467 0.012476 0.000000 0.000000 0.000000
# 4 0.000000 0.000000 0.000000 0.023650 0.000000 0.000000
# 5 0.000000 0.000000 0.000000 0.000000 0.038160 0.000000
# 6 0.000000 0.000000 0.000000 0.000000 0.000000 0.057063
#
#
# Mechanical properties :
#
#
# Convention : Reuss Voigt Hill
#
# Bulk Modulus (GPa) = 36.97937 85.40223 61.19080
# Shear Modulus (GPa) = 26.36974 36.91852 31.64413
#
# Velocity S-wave (km/s) = 3.54594 4.19566 3.88441
# Velocity P-wave (km/s) = 5.86494 8.01206 7.02106
#
# Compressibility (1/GPa) = 0.02704210
#
# Stress axis : x y z
#
# Youngs Moduli (GPa) = 46.16073 97.61555 80.15698
#
# Poissons Ratio (x) = 0.19721 -0.14560
# Poissons Ratio (y) = 0.09326 0.67866
# Poissons Ratio (z) = -0.08385 0.82648
#
# Static dielectric constant tensor:
#      x y z
#    x 1.812170 0.000000 0.000000 
#    y 0.000000 1.738690 0.000000 
#    z 0.000000 0.000000 1.716530 
# 
# From -- ./inp_files/28726.got.cif
#   From: 2010.05.17/outbox.cif.g08.bks.cpg/sg59_15_cif.got.tgz:28726.got - 2010.06.03 14:40:33.
