data_PCOD9449199
_publ_section_title
;
Structure prediction by ZEFSAII (Michael W. Deem and Ramdas Pophale) SiO2 
 PCOD9449199
Probable space group: P M M N
;
_chemical_formula_sum "Si O2"
_cell_formula_units_Z 56
_cell_length_a 21.395824
_cell_length_b 7.803512
_cell_length_c 16.068039
_cell_angle_alpha 90.000000
_cell_angle_beta 90.000000
_cell_angle_gamma 90.000000
_cell_volume 2682.761076
_symmetry_space_group_name_H-M "P M M N"
_symmetry_group_IT_number 59
_space_group.IT_coordinate_system_code '2'
_symmetry_cell_setting 'orthorhombic'
loop_
_space_group_symop_operation_xyz
x,y,z
1/2-x,1/2-y,z
1/2+x,-y,-z
-x,1/2+y,-z
-x,-y,-z
1/2+x,1/2+y,-z
1/2-x,y,z
x,1/2-y,z
loop_
_atom_site_type_symbol
_atom_site_label
_atom_site_fract_x
_atom_site_fract_y
_atom_site_fract_z
Si Si1 0.819133 0.454093 0.651361
Si Si2 0.895557 0.943583 0.796705
Si Si3 0.527026 0.944082 0.232312
Si Si4 0.319910 0.544016 0.545162
Si Si5 0.819402 0.958595 0.952623
Si Si6 0.538997 0.552203 0.416499
Si Si7 0.939152 0.542496 0.056143
O O1 0.750000 0.500338 0.681568
O O2 0.828184 0.250000 0.662360
O O3 0.869651 0.551653 0.703996
O O4 0.821140 0.488168 0.553721
O O5 0.914056 0.750000 0.820585
O O6 0.841426 0.000890 0.859148
O O7 0.955857 0.059620 0.798984
O O8 0.551862 0.750000 0.242280
O O9 0.525578 0.026961 0.324540
O O10 0.559800 0.024231 0.151364
O O11 0.250000 0.486956 0.575111
O O12 0.322430 0.750000 0.557829
O O13 0.385859 0.468641 0.575054
O O14 0.750000 0.022634 0.971224
O O15 0.817276 0.750000 0.957724
O O16 0.876049 0.016436 0.010864
O O17 0.500000 0.500000 0.500000
O O18 0.521230 0.750000 0.408623
O O19 0.938016 0.750000 0.060836
O O20 0.000000 0.500000 0.000000
#
# Coordination Sequence:
#
# PCOD9449199 Si02
#       7
#     8   8   8   8   8   8   8
#     4   9  18  32  49  71 103 142 179 217 272 339
#     4  11  20  30  49  78 108 139 179 225 272 327
#     4  10  22  37  54  78 109 144 185 229 279 335
#     4   9  19  37  58  78 105 146 191 235 288 345
#     4   9  18  32  51  78 110 140 174 220 272 322
#     4  11  23  38  56  83 116 150 192 243 291 338
#     4  10  19  36  59  80 106 143 183 224 269 323
#
# _framework density 20.874016000000001
#
# number of rings (size 3 to 8) (size 9 to 14) (size 15 to 20)
#    0.000    2.143    1.429    3.000    0.000    6.286 
#    0.000    2.143    0.000    3.857    0.000    0.000 
#    0.000    0.000    0.000    0.000    0.000    0.000 
#
# Total GULP energy -312023.555829 kJ/mol
# GULP energy per Si atom -5571.849211 kJ/mol
# Density = 2.082651 g / cm^3
# Si number density = 20.874016 Si / 1000 Ang^3
#
#
#
# Elastic Constant Matrix: (Units=GPa)
#
#
# Indices 1 2 3 4 5 6 
#
# 1 117.7920 -2.8641 40.4238 0.0000 0.0000 0.0000
# 2 -2.8641 18.5552 7.9902 0.0000 0.0000 0.0000
# 3 40.4238 7.9902 105.0270 0.0000 0.0000 0.0000
# 4 0.0000 0.0000 0.0000 5.8473 0.0000 0.0000
# 5 0.0000 0.0000 0.0000 0.0000 34.8500 0.0000
# 6 0.0000 0.0000 0.0000 0.0000 0.0000 19.6126
#
#
#
# Elastic Compliance Matrix: (Units=1/GPa)
#
#
# Indices 1 2 3 4 5 6 
#
# 1 0.009973 0.003301 -0.004090 0.000000 0.000000 0.000000
# 2 0.003301 0.056811 -0.005592 0.000000 0.000000 0.000000
# 3 -0.004090 -0.005592 0.011521 0.000000 0.000000 0.000000
# 4 0.000000 0.000000 0.000000 0.171019 0.000000 0.000000
# 5 0.000000 0.000000 0.000000 0.000000 0.028694 0.000000
# 6 0.000000 0.000000 0.000000 0.000000 0.000000 0.050988
#
#
# Mechanical properties :
#
#
# Convention : Reuss Voigt Hill
#
# Bulk Modulus (GPa) = 15.25739 36.94156 26.09948
# Shear Modulus (GPa) = 13.75073 25.11693 19.43383
#
# Velocity S-wave (km/s) = 2.56939 3.47257 3.05455
# Velocity P-wave (km/s) = 4.01591 5.81499 4.99708
#
# Compressibility (1/GPa) = 0.06554201
#
# Stress axis : x y z
#
# Youngs Moduli (GPa) = 100.26771 17.60223 86.79866
#
# Poissons Ratio (x) = -0.05810 0.35498
# Poissons Ratio (y) = -0.33094 0.48541
# Poissons Ratio (z) = 0.41007 0.09844
#
# Static dielectric constant tensor:
#      x y z
#    x 1.816890 0.000000 0.000000 
#    y 0.000000 1.783870 0.000000 
#    z 0.000000 0.000000 1.786440 
# 
# From -- ./inp_files/24189.got.cif
#   From: 2010.05.17/outbox.cif.g08.bks.cpg/sg59_13_cif.got.tgz:24189.got - 2010.06.03 14:40:33.
