data_PCOD9449188
_publ_section_title
;
Structure prediction by ZEFSAII (Michael W. Deem and Ramdas Pophale) SiO2 
 PCOD9449188
Probable space group: P M M N
;
_chemical_formula_sum "Si O2"
_cell_formula_units_Z 64
_cell_length_a 14.648652
_cell_length_b 22.349689
_cell_length_c 9.660602
_cell_angle_alpha 90.000000
_cell_angle_beta 90.000000
_cell_angle_gamma 90.000000
_cell_volume 3162.811698
_symmetry_space_group_name_H-M "P M M N"
_symmetry_group_IT_number 59
_space_group.IT_coordinate_system_code '2'
_symmetry_cell_setting 'orthorhombic'
loop_
_space_group_symop_operation_xyz
x,y,z
1/2-x,1/2-y,z
1/2+x,-y,-z
-x,1/2+y,-z
-x,-y,-z
1/2+x,1/2+y,-z
1/2-x,y,z
x,1/2-y,z
loop_
_atom_site_type_symbol
_atom_site_label
_atom_site_fract_x
_atom_site_fract_y
_atom_site_fract_z
Si Si1 0.141061 0.683811 0.190791
Si Si2 0.923962 0.499978 0.835093
Si Si3 0.143620 0.319456 0.422071
Si Si4 0.055526 0.819919 0.892080
Si Si5 0.435790 0.407622 0.960708
Si Si6 0.973972 0.402347 0.335158
Si Si7 0.143172 0.315652 0.754419
Si Si8 0.855987 0.080941 0.603725
O O1 0.250000 0.682257 0.197046
O O2 0.108238 0.750000 0.227227
O O3 0.109322 0.637143 0.304940
O O4 0.114609 0.672898 0.031640
O O5 0.863183 0.473440 0.712734
O O6 0.975971 0.446114 0.913080
O O7 0.999244 0.540963 0.758234
O O8 0.879803 0.543712 0.949991
O O9 0.250000 0.334215 0.386759
O O10 0.127071 0.250000 0.377811
O O11 0.136330 0.319820 0.589121
O O12 0.066635 0.365305 0.370159
O O13 0.046719 0.750000 0.863212
O O14 0.086435 0.856961 0.758172
O O15 0.962677 0.853302 0.937375
O O16 0.397197 0.373416 0.828969
O O17 0.920600 0.423298 0.471186
O O18 0.250000 0.314776 0.789467
O O19 0.104816 0.250000 0.797750
O O20 0.750000 0.088973 0.564014
#
# Coordination Sequence:
#
# PCOD9449188 Si02
#       8
#     8   8   8   8   8   8   8   8
#     4   9  19  36  58  83 112 149 194 242 294 354
#     4  10  22  38  56  79 113 156 205 244 289 346
#     4   9  19  36  59  88 121 157 196 240 302 374
#     4  10  20  35  59  88 114 147 188 236 305 366
#     4  10  19  36  58  80 112 150 193 242 292 349
#     4  11  23  38  59  88 122 157 201 250 301 354
#     4   9  18  33  56  86 114 142 183 236 297 361
#     4  11  23  40  60  85 119 159 205 250 295 353
#
# _framework density 20.23516
#
# number of rings (size 3 to 8) (size 9 to 14) (size 15 to 20)
#    0.000    2.125    1.250    2.625    0.000    2.500 
#    0.000    3.750    0.000    6.750    0.000    0.000 
#    0.000    0.000    0.000    0.000    0.000    0.000 
#
# Total GULP energy -356727.116840 kJ/mol
# GULP energy per Si atom -5573.861201 kJ/mol
# Density = 2.018910 g / cm^3
# Si number density = 20.235160 Si / 1000 Ang^3
#
#
#
# Elastic Constant Matrix: (Units=GPa)
#
#
# Indices 1 2 3 4 5 6 
#
# 1 45.6251 13.6347 14.1400 0.0000 0.0000 0.0000
# 2 13.6347 92.4482 27.7737 0.0000 0.0000 0.0000
# 3 14.1400 27.7737 67.0462 0.0000 0.0000 0.0000
# 4 0.0000 0.0000 0.0000 29.6314 0.0000 0.0000
# 5 0.0000 0.0000 0.0000 0.0000 8.8581 0.0000
# 6 0.0000 0.0000 0.0000 0.0000 0.0000 21.0610
#
#
#
# Elastic Compliance Matrix: (Units=1/GPa)
#
#
# Indices 1 2 3 4 5 6 
#
# 1 0.023869 -0.002293 -0.004084 0.000000 0.000000 0.000000
# 2 -0.002293 0.012575 -0.004725 0.000000 0.000000 0.000000
# 3 -0.004084 -0.004725 0.017734 0.000000 0.000000 0.000000
# 4 0.000000 0.000000 0.000000 0.033748 0.000000 0.000000
# 5 0.000000 0.000000 0.000000 0.000000 0.112891 0.000000
# 6 0.000000 0.000000 0.000000 0.000000 0.000000 0.047481
#
#
# Mechanical properties :
#
#
# Convention : Reuss Voigt Hill
#
# Bulk Modulus (GPa) = 31.27731 35.13516 33.20624
# Shear Modulus (GPa) = 17.78348 21.88152 19.83250
#
# Velocity S-wave (km/s) = 2.96774 3.29197 3.13405
# Velocity P-wave (km/s) = 5.21860 5.64363 5.43527
#
# Compressibility (1/GPa) = 0.03197205
#
# Stress axis : x y z
#
# Youngs Moduli (GPa) = 41.89576 79.52466 56.38934
#
# Poissons Ratio (x) = 0.18238 0.23029
# Poissons Ratio (y) = 0.09608 0.26646
# Poissons Ratio (z) = 0.17110 0.37578
#
# Static dielectric constant tensor:
#      x y z
#    x 1.741970 0.000000 0.000000 
#    y 0.000000 1.752040 0.000000 
#    z 0.000000 0.000000 1.729870 
# 
# From -- ./inp_files/10723.got.cif
#   From: 2010.05.17/outbox.cif.g08.bks.cpg/sg59_6_cif.got.tgz:10723.got - 2010.06.03 14:40:33.
