data_PCOD9449429
_publ_section_title
;
Structure prediction by ZEFSAII (Michael W. Deem and Ramdas Pophale) SiO2 
 PCOD9449429
Probable space group: P M M N
;
_chemical_formula_sum "Si O2"
_cell_formula_units_Z 64
_cell_length_a 9.055052
_cell_length_b 19.886683
_cell_length_c 20.702325
_cell_angle_alpha 90.000000
_cell_angle_beta 90.000000
_cell_angle_gamma 90.000000
_cell_volume 3727.970112
_symmetry_space_group_name_H-M "P M M N"
_symmetry_group_IT_number 59
_space_group.IT_coordinate_system_code '2'
_symmetry_cell_setting 'orthorhombic'
loop_
_space_group_symop_operation_xyz
x,y,z
1/2-x,1/2-y,z
1/2+x,-y,-z
-x,1/2+y,-z
-x,-y,-z
1/2+x,1/2+y,-z
1/2-x,y,z
x,1/2-y,z
loop_
_atom_site_type_symbol
_atom_site_label
_atom_site_fract_x
_atom_site_fract_y
_atom_site_fract_z
Si Si1 0.572235 0.174559 0.662265
Si Si2 0.572039 0.431095 0.260015
Si Si3 0.072456 0.328716 0.894991
Si Si4 0.919239 0.168385 0.028713
Si Si5 0.573000 0.091174 0.543227
Si Si6 0.573789 0.829372 0.838102
Si Si7 0.072454 0.416170 0.770741
Si Si8 0.927659 0.045792 0.406791
O O1 0.750000 0.172087 0.668894
O O2 0.521988 0.250000 0.677038
O O3 0.535600 0.153584 0.588853
O O4 0.500756 0.121880 0.710850
O O5 0.750000 0.423144 0.256540
O O6 0.495048 0.373758 0.218481
O O7 0.534624 0.505054 0.231967
O O8 0.527376 0.430808 0.335589
O O9 0.250000 0.331235 0.902069
O O10 0.033389 0.250000 0.881950
O O11 0.029272 0.376845 0.835916
O O12 0.997885 0.350642 0.961950
O O13 0.750000 0.145243 0.030764
O O14 0.919055 0.250000 0.028777
O O15 0.005511 0.148120 0.093214
O O16 0.750000 0.081923 0.546293
O O17 0.533307 0.093544 0.467529
O O18 0.497761 0.025768 0.574690
O O19 0.750000 0.836180 0.839954
O O20 0.538857 0.750000 0.829485
O O21 0.250000 0.411337 0.764567
O O22 0.750000 0.038142 0.405135
#
# Coordination Sequence:
#
# PCOD9449429 Si02
#       8
#     8   8   8   8   8   8   8   8
#     4  10  20  32  47  71 105 141 177 218 261 307
#     4  10  20  34  53  78 106 134 170 215 259 308
#     4   9  17  30  49  73 102 137 174 210 250 297
#     4   9  17  31  53  78 102 130 167 211 256 303
#     4   9  17  30  49  72  98 131 172 214 257 303
#     4  10  21  37  57  79 102 130 166 209 259 316
#     4  10  20  34  51  74 105 140 177 215 255 305
#     4   9  17  31  51  74  99 129 169 214 257 303
#
# _framework density 17.16752
#
# number of rings (size 3 to 8) (size 9 to 14) (size 15 to 20)
#    0.000    2.500    1.250    1.125    0.000    4.500 
#    0.000    2.500    0.000    2.250    0.000    0.000 
#    0.000    0.000    0.000    0.000    0.000    0.000 
#
# Total GULP energy -356759.099056 kJ/mol
# GULP energy per Si atom -5574.360923 kJ/mol
# Density = 1.712845 g / cm^3
# Si number density = 17.167520 Si / 1000 Ang^3
#
#
#
# Elastic Constant Matrix: (Units=GPa)
#
#
# Indices 1 2 3 4 5 6 
#
# 1 25.6065 33.0331 46.8586 0.0000 0.0000 0.0000
# 2 33.0331 71.4052 62.0893 0.0000 0.0000 0.0000
# 3 46.8586 62.0893 164.4816 0.0000 0.0000 0.0000
# 4 0.0000 0.0000 0.0000 29.3472 0.0000 0.0000
# 5 0.0000 0.0000 0.0000 0.0000 26.0232 0.0000
# 6 0.0000 0.0000 0.0000 0.0000 0.0000 19.5325
#
#
#
# Elastic Compliance Matrix: (Units=1/GPa)
#
#
# Indices 1 2 3 4 5 6 
#
# 1 0.136084 -0.043533 -0.022335 0.000000 0.000000 0.000000
# 2 -0.043533 0.034774 -0.000725 0.000000 0.000000 0.000000
# 3 -0.022335 -0.000725 0.012716 0.000000 0.000000 0.000000
# 4 0.000000 0.000000 0.000000 0.034075 0.000000 0.000000
# 5 0.000000 0.000000 0.000000 0.000000 0.038427 0.000000
# 6 0.000000 0.000000 0.000000 0.000000 0.000000 0.051197
#
#
# Mechanical properties :
#
#
# Convention : Reuss Voigt Hill
#
# Bulk Modulus (GPa) = 19.84606 60.60611 40.22609
# Shear Modulus (GPa) = 10.93485 22.94808 16.94147
#
# Velocity S-wave (km/s) = 2.52652 3.66008 3.14480
# Velocity P-wave (km/s) = 4.48290 7.29664 6.05547
#
# Compressibility (1/GPa) = 0.05038784
#
# Stress axis : x y z
#
# Youngs Moduli (GPa) = 7.34842 28.75749 78.63946
#
# Poissons Ratio (x) = 1.25190 1.75644
# Poissons Ratio (y) = 0.31990 0.05698
# Poissons Ratio (z) = 0.16413 0.02084
#
# Static dielectric constant tensor:
#      x y z
#    x 1.575260 0.000000 0.000000 
#    y 0.000000 1.562410 0.000000 
#    z 0.000000 0.000000 1.586830 
# 
# From -- ./inp_files/29570.got.cif
#   From: 2010.05.17/outbox.cif.g08.bks.cpg/sg59_15_cif.got.tgz:29570.got - 2010.06.03 14:40:33.
