data_PCOD9449950
_publ_section_title
;
Structure prediction by ZEFSAII (Michael W. Deem and Ramdas Pophale) SiO2 
 PCOD9449950
Probable space group: P M M N
;
_chemical_formula_sum "Si O2"
_cell_formula_units_Z 40
_cell_length_a 9.537736
_cell_length_b 15.058235
_cell_length_c 13.130035
_cell_angle_alpha 90.000000
_cell_angle_beta 90.000000
_cell_angle_gamma 90.000000
_cell_volume 1885.754929
_symmetry_space_group_name_H-M "P M M N"
_symmetry_group_IT_number 59
_space_group.IT_coordinate_system_code '2'
_symmetry_cell_setting 'orthorhombic'
loop_
_space_group_symop_operation_xyz
x,y,z
1/2-x,1/2-y,z
1/2+x,-y,-z
-x,1/2+y,-z
-x,-y,-z
1/2+x,1/2+y,-z
1/2-x,y,z
x,1/2-y,z
loop_
_atom_site_type_symbol
_atom_site_label
_atom_site_fract_x
_atom_site_fract_y
_atom_site_fract_z
Si Si1 0.092689 0.144122 0.282420
Si Si2 0.089065 0.641446 0.529740
Si Si3 0.588362 0.142729 0.701143
Si Si4 0.591664 0.899633 0.104685
Si Si5 0.091144 0.610855 0.917004
O O1 0.250000 0.107904 0.268989
O O2 0.104432 0.250000 0.296449
O O3 0.015076 0.108728 0.382989
O O4 0.997347 0.131225 0.183628
O O5 0.250000 0.614684 0.550704
O O6 0.088069 0.750000 0.531512
O O7 0.051935 0.615345 0.414359
O O8 0.750000 0.116271 0.721918
O O9 0.584682 0.250000 0.703665
O O10 0.483837 0.109266 0.786982
O O11 0.750000 0.863447 0.105397
O O12 0.601565 0.004059 0.079892
O O13 0.493996 0.858931 0.016599
O O14 0.250000 0.645596 0.913012
#
# Coordination Sequence:
#
# PCOD9449950 Si02
#       5
#     8   8   8   8   8
#     4  10  20  33  52  79 106 131 165 210 255 297
#     4   8  15  30  51  74 102 135 168 202 244 296
#     4   9  18  33  54  79 105 135 170 205 246 300
#     4  10  21  36  54  76 101 131 169 212 256 299
#     4  10  21  37  55  73  98 135 173 207 251 306
#
# _framework density 21.211663999999999
#
# number of rings (size 3 to 8) (size 9 to 14) (size 15 to 20)
#    0.000    2.600    0.000    3.000    0.000    5.600 
#    0.000    3.000    0.000    0.000    0.000    0.000 
#    0.000    0.000    0.000    0.000    0.000    0.000 
#
# Total GULP energy -223378.749282 kJ/mol
# GULP energy per Si atom -5584.468732 kJ/mol
# Density = 2.116339 g / cm^3
# Si number density = 21.211664 Si / 1000 Ang^3
#
#
#
# Elastic Constant Matrix: (Units=GPa)
#
#
# Indices 1 2 3 4 5 6 
#
# 1 209.5907 1.0436 138.7387 0.0000 0.0000 0.0000
# 2 1.0436 40.7199 -8.0507 0.0000 0.0000 0.0000
# 3 138.7387 -8.0507 168.8675 0.0000 0.0000 0.0000
# 4 0.0000 0.0000 0.0000 29.7073 0.0000 0.0000
# 5 0.0000 0.0000 0.0000 0.0000-2643.0457 0.0000
# 6 0.0000 0.0000 0.0000 0.0000 0.0000 16.4834
#
#
#
# Elastic Compliance Matrix: (Units=1/GPa)
#
#
# Indices 1 2 3 4 5 6 
#
# 1 0.010621 -0.002016 -0.008822 0.000000 0.000000 0.000000
# 2 -0.002016 0.025175 0.002857 0.000000 0.000000 0.000000
# 3 -0.008822 0.002857 0.013306 0.000000 0.000000 0.000000
# 4 0.000000 0.000000 0.000000 0.033662 0.000000 0.000000
# 5 0.000000 0.000000 0.000000 0.000000 -0.000378 0.000000
# 6 0.000000 0.000000 0.000000 0.000000 0.000000 0.060667
#
#
# Mechanical properties :
#
#
# Convention : Reuss Voigt Hill
#
# Bulk Modulus (GPa) = 30.17666 75.84903 53.01285
# Shear Modulus (GPa) = 29.40097 -500.20789 -235.40346
#
# Velocity S-wave (km/s) = 3.72704 -15.37301 -10.54605
# Velocity P-wave (km/s) = 5.72525 16.71137 11.10161
#
# Compressibility (1/GPa) = 0.03313819
#
# Stress axis : x y z
#
# Youngs Moduli (GPa) = 94.15147 39.72269 75.15254
#
# Poissons Ratio (x) = 0.08010 0.66302
# Poissons Ratio (y) = 0.18985 -0.21470
# Poissons Ratio (z) = 0.83063 -0.11348
#
# Static dielectric constant tensor:
#      x y z
#    x 1.754050 0.000000 0.000000 
#    y 0.000000 1.815210 0.000000 
#    z 0.000000 0.000000 1.724360 
# 
# From -- ./inp_files/13861.got.cif
#   From: 2010.05.17/outbox.cif.g08.bks.cpg/sg59_7_cif.got.tgz:13861.got - 2010.06.03 14:40:33.
