data_PCOD9449170
_publ_section_title
;
Structure prediction by ZEFSAII (Michael W. Deem and Ramdas Pophale) SiO2 
 PCOD9449170
Probable space group: P M M N
;
_chemical_formula_sum "Si O2"
_cell_formula_units_Z 52
_cell_length_a 13.752647
_cell_length_b 19.176785
_cell_length_c 8.827356
_cell_angle_alpha 90.000000
_cell_angle_beta 90.000000
_cell_angle_gamma 90.000000
_cell_volume 2328.052322
_symmetry_space_group_name_H-M "P M M N"
_symmetry_group_IT_number 59
_space_group.IT_coordinate_system_code '2'
_symmetry_cell_setting 'orthorhombic'
loop_
_space_group_symop_operation_xyz
x,y,z
1/2-x,1/2-y,z
1/2+x,-y,-z
-x,1/2+y,-z
-x,-y,-z
1/2+x,1/2+y,-z
1/2-x,y,z
x,1/2-y,z
loop_
_atom_site_type_symbol
_atom_site_label
_atom_site_fract_x
_atom_site_fract_y
_atom_site_fract_z
Si Si1 0.571330 0.857457 0.831445
Si Si2 0.137685 0.126736 0.489602
Si Si3 0.499900 0.875616 0.257172
Si Si4 0.362632 0.965701 0.465216
Si Si5 0.141033 0.606872 0.795928
Si Si6 0.636593 0.533966 0.043659
Si Si7 0.470749 0.250000 0.935521
O O1 0.623303 0.840966 0.675229
O O2 0.455343 0.846992 0.807047
O O3 0.599872 0.935643 0.883869
O O4 0.594068 0.809757 0.973681
O O5 0.250000 0.127098 0.534308
O O6 0.071127 0.159396 0.617988
O O7 0.102698 0.045830 0.474589
O O8 0.418297 0.917272 0.347470
O O9 0.566959 0.930697 0.167234
O O10 0.468812 0.813019 0.149110
O O11 0.250000 0.969868 0.420074
O O12 0.366287 0.932666 0.633927
O O13 0.250000 0.637939 0.804333
O O14 0.131800 0.548536 0.927604
O O15 0.750000 0.553070 0.065051
#
# Coordination Sequence:
#
# PCOD9449170 Si02
#       7
#     8   8   8   8   8   8   4
#     4  11  22  41  57  85 122 163 203 251 293 338
#     4  11  21  36  66  99 122 148 198 257 311 370
#     4  11  20  41  62  86 120 169 202 245 298 356
#     4  10  20  36  64 103 127 145 190 258 322 372
#     4  10  19  35  62  94 122 153 190 243 315 377
#     4  10  20  35  58  90 128 157 187 237 311 374
#     4  10  28  44  58  78 120 172 216 246 282 362
#
# _framework density 22.336268
#
# number of rings (size 3 to 8) (size 9 to 14) (size 15 to 20)
#    0.000    1.538    3.077    2.769    0.000    1.846 
#    0.000   22.308    0.000    1.846    0.000    0.000 
#    0.000    0.000    0.000    0.000    0.000    0.000 
#
# Total GULP energy -289510.867636 kJ/mol
# GULP energy per Si atom -5567.516685 kJ/mol
# Density = 2.228543 g / cm^3
# Si number density = 22.336268 Si / 1000 Ang^3
#
#
#
# Elastic Constant Matrix: (Units=GPa)
#
#
# Indices 1 2 3 4 5 6 
#
# 1 75.5590 6.1219 -10.7671 0.0000 0.0000 0.0000
# 2 6.1219 42.9298 -9.9970 0.0000 0.0000 0.0000
# 3 -10.7671 -9.9970 41.5598 0.0000 0.0000 0.0000
# 4 0.0000 0.0000 0.0000 -157.0294 0.0000 0.0000
# 5 0.0000 0.0000 0.0000 0.0000 22.3485 0.0000
# 6 0.0000 0.0000 0.0000 0.0000 0.0000 0.6373
#
#
#
# Elastic Compliance Matrix: (Units=1/GPa)
#
#
# Indices 1 2 3 4 5 6 
#
# 1 0.013800 -0.001203 0.003286 0.000000 0.000000 0.000000
# 2 -0.001203 0.024781 0.005649 0.000000 0.000000 0.000000
# 3 0.003286 0.005649 0.026272 0.000000 0.000000 0.000000
# 4 0.000000 0.000000 0.000000 -0.006368 0.000000 0.000000
# 5 0.000000 0.000000 0.000000 0.000000 0.044746 0.000000
# 6 0.000000 0.000000 0.000000 0.000000 0.000000 1.569161
#
#
# Mechanical properties :
#
#
# Convention : Reuss Voigt Hill
#
# Bulk Modulus (GPa) = 12.45046 14.52937 13.48992
# Shear Modulus (GPa) = 2.96965 -15.16266 -6.09651
#
# Velocity S-wave (km/s) = 1.15430 -2.60827 -1.65389
# Velocity P-wave (km/s) = 2.71344 1.59745 1.55095
#
# Compressibility (1/GPa) = 0.08031829
#
# Stress axis : x y z
#
# Youngs Moduli (GPa) = 72.46176 40.35371 38.06346
#
# Poissons Ratio (x) = 0.04854 -0.12508
# Poissons Ratio (y) = 0.08715 -0.21503
# Poissons Ratio (z) = -0.23811 -0.22797
#
# Static dielectric constant tensor:
#      x y z
#    x 1.833120 0.000000 0.000000 
#    y 0.000000 1.808390 0.000000 
#    z 0.000000 0.000000 1.894460 
# 
# From -- ./inp_files/9287.got.cif
#   From: 2010.05.17/outbox.cif.g08.bks.cpg/sg59_5_cif.got.tgz:9287.got - 2010.06.03 14:40:33.
