data_PCOD9449465
_publ_section_title
;
Structure prediction by ZEFSAII (Michael W. Deem and Ramdas Pophale) SiO2 
 PCOD9449465
Probable space group: P M M N
;
_chemical_formula_sum "Si O2"
_cell_formula_units_Z 48
_cell_length_a 9.699956
_cell_length_b 7.593260
_cell_length_c 31.948411
_cell_angle_alpha 90.000000
_cell_angle_beta 90.000000
_cell_angle_gamma 90.000000
_cell_volume 2353.137462
_symmetry_space_group_name_H-M "P M M N"
_symmetry_group_IT_number 59
_space_group.IT_coordinate_system_code '2'
_symmetry_cell_setting 'orthorhombic'
loop_
_space_group_symop_operation_xyz
x,y,z
1/2-x,1/2-y,z
1/2+x,-y,-z
-x,1/2+y,-z
-x,-y,-z
1/2+x,1/2+y,-z
1/2-x,y,z
x,1/2-y,z
loop_
_atom_site_type_symbol
_atom_site_label
_atom_site_fract_x
_atom_site_fract_y
_atom_site_fract_z
Si Si1 0.091030 0.465922 0.289045
Si Si2 0.090083 0.535281 0.632434
Si Si3 0.405080 0.539041 0.039237
Si Si4 0.091283 0.537494 0.132456
Si Si5 0.906150 0.458945 0.211673
Si Si6 0.905256 0.460945 0.460713
O O1 0.250000 0.522568 0.287221
O O2 0.092399 0.250000 0.288722
O O3 0.012312 0.522603 0.331158
O O4 0.002231 0.527319 0.249198
O O5 0.250000 0.483499 0.639743
O O6 0.088877 0.750000 0.633171
O O7 0.049089 0.477463 0.585506
O O8 0.250000 0.472487 0.031908
O O9 0.398314 0.750000 0.042238
O O10 0.449345 0.477084 0.085559
O O11 0.500000 0.500000 0.000000
O O12 0.250000 0.479236 0.140497
O O13 0.093398 0.750000 0.132584
O O14 0.985808 0.482469 0.168109
O O15 0.750000 0.530594 0.211220
O O16 0.894689 0.250000 0.218937
O O17 0.750000 0.527656 0.467797
O O18 0.898214 0.250000 0.457654
O O19 0.000000 0.500000 0.500000
#
# Coordination Sequence:
#
# PCOD9449465 Si02
#       6
#     8   8   8   8   8   8
#     4   9  16  26  43  68  95 122 155 196 239 282
#     4   8  14  26  43  63  90 122 154 192 239 287
#     4   9  19  35  53  74 100 129 162 200 241 285
#     4   9  19  36  54  71  96 131 166 199 238 284
#     4  10  20  32  48  73 102 129 158 195 239 284
#     4   9  18  31  47  69  96 126 160 197 239 287
#
# _framework density 20.398299999999999
#
# number of rings (size 3 to 8) (size 9 to 14) (size 15 to 20)
#    0.000    3.000    0.000    3.000    0.000    6.000 
#    0.000    6.667    0.000    1.000    0.000    4.667 
#    0.000    0.000    0.000    0.000    0.000    0.000 
#
# Total GULP energy -267728.224770 kJ/mol
# GULP energy per Si atom -5577.671349 kJ/mol
# Density = 2.035187 g / cm^3
# Si number density = 20.398300 Si / 1000 Ang^3
#
#
#
# Elastic Constant Matrix: (Units=GPa)
#
#
# Indices 1 2 3 4 5 6 
#
# 1 170.5263 5.8258 154.6395 0.0000 0.0000 0.0000
# 2 5.8258 39.8920 2.0475 0.0000 0.0000 0.0000
# 3 154.6395 2.0475 227.8972 0.0000 0.0000 0.0000
# 4 0.0000 0.0000 0.0000 18.8975 0.0000 0.0000
# 5 0.0000 0.0000 0.0000 0.0000 42.3822 0.0000
# 6 0.0000 0.0000 0.0000 0.0000 0.0000 14.2473
#
#
#
# Elastic Compliance Matrix: (Units=1/GPa)
#
#
# Indices 1 2 3 4 5 6 
#
# 1 0.015360 -0.001709 -0.010407 0.000000 0.000000 0.000000
# 2 -0.001709 0.025269 0.000933 0.000000 0.000000 0.000000
# 3 -0.010407 0.000933 0.011442 0.000000 0.000000 0.000000
# 4 0.000000 0.000000 0.000000 0.052917 0.000000 0.000000
# 5 0.000000 0.000000 0.000000 0.000000 0.023595 0.000000
# 6 0.000000 0.000000 0.000000 0.000000 0.000000 0.070189
#
#
# Mechanical properties :
#
#
# Convention : Reuss Voigt Hill
#
# Bulk Modulus (GPa) = 33.66591 84.81568 59.24079
# Shear Modulus (GPa) = 21.64119 33.49225 27.56672
#
# Velocity S-wave (km/s) = 3.26073 4.05645 3.68016
# Velocity P-wave (km/s) = 5.54225 7.97557 6.86754
#
# Compressibility (1/GPa) = 0.02970363
#
# Stress axis : x y z
#
# Youngs Moduli (GPa) = 65.10220 39.57357 87.40077
#
# Poissons Ratio (x) = 0.06763 0.90962
# Poissons Ratio (y) = 0.11126 -0.08152
# Poissons Ratio (z) = 0.67755 -0.03691
#
# Static dielectric constant tensor:
#      x y z
#    x 1.704050 0.000000 0.000000 
#    y 0.000000 1.791200 0.000000 
#    z 0.000000 0.000000 1.717400 
# 
# From -- ./inp_files/32481.got.cif
#   From: 2010.05.17/outbox.cif.g08.bks.cpg/sg59_17_cif.got.tgz:32481.got - 2010.06.03 14:40:33.
