data_PCOD9449128
_publ_section_title
;
Structure prediction by ZEFSAII (Michael W. Deem and Ramdas Pophale) SiO2 
 PCOD9449128
Probable space group: P M M N
;
_chemical_formula_sum "Si O2"
_cell_formula_units_Z 48
_cell_length_a 16.323396
_cell_length_b 8.631693
_cell_length_c 17.394086
_cell_angle_alpha 90.000000
_cell_angle_beta 90.000000
_cell_angle_gamma 90.000000
_cell_volume 2450.801374
_symmetry_space_group_name_H-M "P M M N"
_symmetry_group_IT_number 59
_space_group.IT_coordinate_system_code '2'
_symmetry_cell_setting 'orthorhombic'
loop_
_space_group_symop_operation_xyz
x,y,z
1/2-x,1/2-y,z
1/2+x,-y,-z
-x,1/2+y,-z
-x,-y,-z
1/2+x,1/2+y,-z
1/2-x,y,z
x,1/2-y,z
loop_
_atom_site_type_symbol
_atom_site_label
_atom_site_fract_x
_atom_site_fract_y
_atom_site_fract_z
Si Si1 0.750000 0.434616 0.772508
Si Si2 0.655698 0.062923 0.183527
Si Si3 0.750000 0.436923 0.950928
Si Si4 0.846387 0.432563 0.499492
Si Si5 0.585589 0.565407 0.032444
Si Si6 0.576192 0.061388 0.341492
Si Si7 0.890049 0.934527 0.664723
O O1 0.750000 0.250000 0.770982
O O2 0.750000 0.483723 0.861249
O O3 0.671242 0.493267 0.726067
O O4 0.750000 0.023264 0.166585
O O5 0.647612 0.250000 0.177857
O O6 0.633153 0.016325 0.270315
O O7 0.597554 0.985421 0.120914
O O8 0.750000 0.250000 0.957420
O O9 0.666418 0.498789 0.989583
O O10 0.750000 0.443552 0.482129
O O11 0.865624 0.250000 0.510864
O O12 0.895240 0.492897 0.425361
O O13 0.864828 0.518926 0.578463
O O14 0.585387 0.750000 0.025469
O O15 0.500000 0.500000 0.000000
O O16 0.578846 0.250000 0.345169
O O17 0.483554 0.014185 0.324142
O O18 0.886101 0.750000 0.672145
#
# Coordination Sequence:
#
# PCOD9449128 Si02
#       7
#     4   8   4   8   8   8   8
#     4  11  25  43  63  86 117 156 203 251 308 371
#     4  10  20  39  66  93 126 164 208 259 312 374
#     4  11  25  47  71  98 129 166 215 267 324 389
#     4  10  19  35  59  84 118 162 205 244 297 362
#     4  12  26  44  68  98 133 172 214 263 321 386
#     4   9  20  36  58  90 120 159 206 249 301 365
#     4  11  22  37  58  86 122 157 201 253 305 362
#
# _framework density 19.585429999999999
#
# number of rings (size 3 to 8) (size 9 to 14) (size 15 to 20)
#    0.000    1.500    1.667    3.500    2.333    3.333 
#    0.000    2.500    0.000    2.000    0.000    0.000 
#    0.000    0.000    0.000    0.000    0.000    0.000 
#
# Total GULP energy -268262.539303 kJ/mol
# GULP energy per Si atom -5588.802902 kJ/mol
# Density = 1.954085 g / cm^3
# Si number density = 19.585430 Si / 1000 Ang^3
#
#
#
# Elastic Constant Matrix: (Units=GPa)
#
#
# Indices 1 2 3 4 5 6 
#
# 1 87.0553 24.3579 22.7761 0.0000 0.0000 0.0000
# 2 24.3579 41.0336 16.0338 0.0000 0.0000 0.0000
# 3 22.7761 16.0338 100.6871 0.0000 0.0000 0.0000
# 4 0.0000 0.0000 0.0000 6.0915 0.0000 0.0000
# 5 0.0000 0.0000 0.0000 0.0000 131.9757 0.0000
# 6 0.0000 0.0000 0.0000 0.0000 0.0000 19.3753
#
#
#
# Elastic Compliance Matrix: (Units=1/GPa)
#
#
# Indices 1 2 3 4 5 6 
#
# 1 0.014137 -0.007616 -0.001985 0.000000 0.000000 0.000000
# 2 -0.007616 0.030091 -0.003069 0.000000 0.000000 0.000000
# 3 -0.001985 -0.003069 0.010870 0.000000 0.000000 0.000000
# 4 0.000000 0.000000 0.000000 0.164163 0.000000 0.000000
# 5 0.000000 0.000000 0.000000 0.000000 0.007577 0.000000
# 6 0.000000 0.000000 0.000000 0.000000 0.000000 0.051612
#
#
# Mechanical properties :
#
#
# Convention : Reuss Voigt Hill
#
# Bulk Modulus (GPa) = 33.60582 39.45684 36.53133
# Shear Modulus (GPa) = 15.93830 42.52904 29.23367
#
# Velocity S-wave (km/s) = 2.85578 4.66495 3.86764
# Velocity P-wave (km/s) = 5.29810 7.01466 6.21592
#
# Compressibility (1/GPa) = 0.02975675
#
# Stress axis : x y z
#
# Youngs Moduli (GPa) = 70.73458 33.23297 92.00054
#
# Poissons Ratio (x) = 0.25312 0.18263
# Poissons Ratio (y) = 0.53874 0.28234
# Poissons Ratio (z) = 0.14042 0.10199
#
# Static dielectric constant tensor:
#      x y z
#    x 1.676250 0.000000 0.000000 
#    y 0.000000 1.670010 0.000000 
#    z 0.000000 0.000000 1.672000 
# 
# From -- ./inp_files/25530.got.cif
#   From: 2010.05.17/outbox.cif.g08.bks.cpg/sg59_13_cif.got.tgz:25530.got - 2010.06.03 14:40:33.
