data_PCOD9449009
_publ_section_title
;
Structure prediction by ZEFSAII (Michael W. Deem and Ramdas Pophale) SiO2 
 PCOD9449009
Probable space group: P M M N
;
_chemical_formula_sum "Si O2"
_cell_formula_units_Z 48
_cell_length_a 14.134900
_cell_length_b 11.666105
_cell_length_c 14.572680
_cell_angle_alpha 90.000000
_cell_angle_beta 90.000000
_cell_angle_gamma 90.000000
_cell_volume 2403.023676
_symmetry_space_group_name_H-M "P M M N"
_symmetry_group_IT_number 59
_space_group.IT_coordinate_system_code '2'
_symmetry_cell_setting 'orthorhombic'
loop_
_space_group_symop_operation_xyz
x,y,z
1/2-x,1/2-y,z
1/2+x,-y,-z
-x,1/2+y,-z
-x,-y,-z
1/2+x,1/2+y,-z
1/2-x,y,z
x,1/2-y,z
loop_
_atom_site_type_symbol
_atom_site_label
_atom_site_fract_x
_atom_site_fract_y
_atom_site_fract_z
Si Si1 0.643704 0.114274 0.769155
Si Si2 0.134361 0.998618 0.417456
Si Si3 0.634237 0.119081 0.392547
Si Si4 0.134200 0.250000 0.436835
Si Si5 0.506667 0.892075 0.071564
Si Si6 0.364213 0.250000 0.643724
Si Si7 0.637082 0.536483 0.231868
O O1 0.750000 0.066427 0.781168
O O2 0.650163 0.250000 0.761292
O O3 0.605084 0.072411 0.671304
O O4 0.580424 0.092020 0.857709
O O5 0.250000 0.994081 0.420741
O O6 0.104323 0.954500 0.518136
O O7 0.104591 0.128766 0.397618
O O8 0.750000 0.113768 0.392499
O O9 0.606274 0.250000 0.406530
O O10 0.605331 0.073016 0.292002
O O11 0.250000 0.250000 0.435782
O O12 0.099954 0.250000 0.541499
O O13 0.509809 0.750000 0.047448
O O14 0.595495 0.927673 0.134619
O O15 0.500000 0.000000 0.000000
O O16 0.250000 0.250000 0.636289
O O17 0.389838 0.139597 0.700534
O O18 0.750000 0.530240 0.223438
#
# Coordination Sequence:
#
# PCOD9449009 Si02
#       7
#     8   8   8   4   8   4   8
#     4   9  19  38  61  82 110 152 193 226 271 335
#     4   9  15  26  48  79 114 152 191 227 266 319
#     4   9  16  26  47  82 120 155 189 225 268 323
#     4   9  14  22  44  79 117 154 187 223 269 317
#     4  11  25  44  64  85 110 142 186 241 297 347
#     4   9  14  26  50  79 108 144 181 213 260 325
#     4  10  19  34  59  86 113 146 184 226 278 338
#
# _framework density 19.974834000000001
#
# number of rings (size 3 to 8) (size 9 to 14) (size 15 to 20)
#    0.000    2.500    2.500    0.500    0.000    3.333 
#    1.500    0.833    0.000    0.000    0.000    0.000 
#    0.000    0.000    0.000    0.000    0.000    0.000 
#
# Total GULP energy -267354.851611 kJ/mol
# GULP energy per Si atom -5569.892742 kJ/mol
# Density = 1.992937 g / cm^3
# Si number density = 19.974834 Si / 1000 Ang^3
#
#
#
# Elastic Constant Matrix: (Units=GPa)
#
#
# Indices 1 2 3 4 5 6 
#
# 1 63.7404 22.0642 24.5593 0.0000 0.0000 0.0000
# 2 22.0642 104.2977 54.3666 0.0000 0.0000 0.0000
# 3 24.5593 54.3666 98.8645 0.0000 0.0000 0.0000
# 4 0.0000 0.0000 0.0000 48.5526 0.0000 0.0000
# 5 0.0000 0.0000 0.0000 0.0000 35.0477 0.0000
# 6 0.0000 0.0000 0.0000 0.0000 0.0000 51.2116
#
#
#
# Elastic Compliance Matrix: (Units=1/GPa)
#
#
# Indices 1 2 3 4 5 6 
#
# 1 0.017651 -0.002030 -0.003268 0.000000 0.000000 0.000000
# 2 -0.002030 0.013674 -0.007015 0.000000 0.000000 0.000000
# 3 -0.003268 -0.007015 0.014784 0.000000 0.000000 0.000000
# 4 0.000000 0.000000 0.000000 0.020596 0.000000 0.000000
# 5 0.000000 0.000000 0.000000 0.000000 0.028533 0.000000
# 6 0.000000 0.000000 0.000000 0.000000 0.000000 0.019527
#
#
# Mechanical properties :
#
#
# Convention : Reuss Voigt Hill
#
# Bulk Modulus (GPa) = 46.55099 52.09809 49.32454
# Shear Modulus (GPa) = 34.11730 38.02321 36.07026
#
# Velocity S-wave (km/s) = 4.13730 4.36771 4.25406
# Velocity P-wave (km/s) = 6.79547 7.18153 6.99116
#
# Compressibility (1/GPa) = 0.02148182
#
# Stress axis : x y z
#
# Youngs Moduli (GPa) = 56.65494 73.13006 67.63869
#
# Poissons Ratio (x) = 0.14849 0.22105
# Poissons Ratio (y) = 0.11504 0.47450
# Poissons Ratio (z) = 0.18515 0.51302
#
# Static dielectric constant tensor:
#      x y z
#    x 1.835950 0.000000 0.000000 
#    y 0.000000 1.735720 0.000000 
#    z 0.000000 0.000000 1.669430 
# 
# From -- ./inp_files/23181.got.cif
#   From: 2010.05.17/outbox.cif.g08.bks.cpg/sg59_12_cif.got.tgz:23181.got - 2010.06.03 14:40:33.
