data_PCOD9449502
_publ_section_title
;
Structure prediction by ZEFSAII (Michael W. Deem and Ramdas Pophale) SiO2 
 PCOD9449502
Probable space group: P M M N
;
_chemical_formula_sum "Si O2"
_cell_formula_units_Z 48
_cell_length_a 9.078498
_cell_length_b 33.535126
_cell_length_c 9.309966
_cell_angle_alpha 90.000000
_cell_angle_beta 90.000000
_cell_angle_gamma 90.000000
_cell_volume 2834.405876
_symmetry_space_group_name_H-M "P M M N"
_symmetry_group_IT_number 59
_space_group.IT_coordinate_system_code '2'
_symmetry_cell_setting 'orthorhombic'
loop_
_space_group_symop_operation_xyz
x,y,z
1/2-x,1/2-y,z
1/2+x,-y,-z
-x,1/2+y,-z
-x,-y,-z
1/2+x,1/2+y,-z
1/2-x,y,z
x,1/2-y,z
loop_
_atom_site_type_symbol
_atom_site_label
_atom_site_fract_x
_atom_site_fract_y
_atom_site_fract_z
Si Si1 0.918865 0.836986 0.639540
Si Si2 0.925005 0.130206 0.927071
Si Si3 0.072073 0.459778 0.442711
Si Si4 0.925350 0.383934 0.593561
Si Si5 0.081370 0.416983 0.163098
Si Si6 0.427760 0.204995 0.080009
O O1 0.750000 0.829771 0.593810
O O2 0.918453 0.877037 0.737987
O O3 0.019751 0.847192 0.504700
O O4 0.966949 0.803461 0.752834
O O5 0.750000 0.133323 0.944154
O O6 0.958991 0.123087 0.760369
O O7 0.999045 0.170843 0.984221
O O8 0.984095 0.094215 0.026745
O O9 0.250000 0.460529 0.451687
O O10 0.033433 0.450975 0.275166
O O11 0.000000 0.500000 0.500000
O O12 0.009140 0.422882 0.534672
O O13 0.750000 0.389302 0.576588
O O14 0.250000 0.424299 0.118343
O O15 0.250000 0.200629 0.071698
O O16 0.467369 0.250000 0.038874
#
# Coordination Sequence:
#
# PCOD9449502 Si02
#       6
#     8   8   8   8   8   8
#     4   8  15  29  49  71  93 121 160 201 238 281
#     4  10  20  32  49  74 102 132 165 201 242 290
#     4  10  20  34  53  76  99 126 162 204 248 291
#     4  10  20  33  49  72 101 130 162 199 239 288
#     4   8  16  31  50  71  95 125 162 199 235 284
#     4   9  18  33  52  73  97 126 162 203 244 288
#
# _framework density 16.934766
#
# number of rings (size 3 to 8) (size 9 to 14) (size 15 to 20)
#    0.000    2.833    0.000    3.500    0.000    9.667 
#    0.000    1.667    0.000    3.000    0.000    0.000 
#    0.000    0.000    0.000    0.000    0.000    0.000 
#
# Total GULP energy -267385.738666 kJ/mol
# GULP energy per Si atom -5570.536222 kJ/mol
# Density = 1.689622 g / cm^3
# Si number density = 16.934766 Si / 1000 Ang^3
#
#
#
# Elastic Constant Matrix: (Units=GPa)
#
#
# Indices 1 2 3 4 5 6 
#
# 1 59.5579 28.2975 62.7910 0.0000 0.0000 0.0000
# 2 28.2975 56.7171 30.6738 0.0000 0.0000 0.0000
# 3 62.7910 30.6738 114.6187 0.0000 0.0000 0.0000
# 4 0.0000 0.0000 0.0000 15.6939 0.0000 0.0000
# 5 0.0000 0.0000 0.0000 0.0000 29.7845 0.0000
# 6 0.0000 0.0000 0.0000 0.0000 0.0000 17.7287
#
#
#
# Elastic Compliance Matrix: (Units=1/GPa)
#
#
# Indices 1 2 3 4 5 6 
#
# 1 0.044571 -0.010561 -0.021591 0.000000 0.000000 0.000000
# 2 -0.010561 0.023117 -0.000401 0.000000 0.000000 0.000000
# 3 -0.021591 -0.000401 0.020660 0.000000 0.000000 0.000000
# 4 0.000000 0.000000 0.000000 0.063719 0.000000 0.000000
# 5 0.000000 0.000000 0.000000 0.000000 0.033574 0.000000
# 6 0.000000 0.000000 0.000000 0.000000 0.000000 0.056406
#
#
# Mechanical properties :
#
#
# Convention : Reuss Voigt Hill
#
# Bulk Modulus (GPa) = 43.02415 52.71316 47.86865
# Shear Modulus (GPa) = 15.87804 19.91687 17.89746
#
# Velocity S-wave (km/s) = 3.06535 3.43314 3.25445
# Velocity P-wave (km/s) = 6.16356 6.84909 6.51535
#
# Compressibility (1/GPa) = 0.02324276
#
# Stress axis : x y z
#
# Youngs Moduli (GPa) = 22.43611 43.25764 48.40282
#
# Poissons Ratio (x) = 0.45683 1.04506
# Poissons Ratio (y) = 0.23694 0.01941
# Poissons Ratio (z) = 0.48442 0.01735
#
# Static dielectric constant tensor:
#      x y z
#    x 1.565380 0.000000 0.000000 
#    y 0.000000 1.583900 0.000000 
#    z 0.000000 0.000000 1.573960 
# 
# From -- ./inp_files/6324.got.cif
#   From: 2010.05.17/outbox.cif.g08.bks.cpg/sg59_4_cif.got.tgz:6324.got - 2010.06.03 14:40:33.
