data_PCOD9449329
_publ_section_title
;
Structure prediction by ZEFSAII (Michael W. Deem and Ramdas Pophale) SiO2 
 PCOD9449329
Probable space group: P M M N
;
_chemical_formula_sum "Si O2"
_cell_formula_units_Z 64
_cell_length_a 7.884008
_cell_length_b 15.177312
_cell_length_c 25.560248
_cell_angle_alpha 90.000000
_cell_angle_beta 90.000000
_cell_angle_gamma 90.000000
_cell_volume 3058.489413
_symmetry_space_group_name_H-M "P M M N"
_symmetry_group_IT_number 59
_space_group.IT_coordinate_system_code '2'
_symmetry_cell_setting 'orthorhombic'
loop_
_space_group_symop_operation_xyz
x,y,z
1/2-x,1/2-y,z
1/2+x,-y,-z
-x,1/2+y,-z
-x,-y,-z
1/2+x,1/2+y,-z
1/2-x,y,z
x,1/2-y,z
loop_
_atom_site_type_symbol
_atom_site_label
_atom_site_fract_x
_atom_site_fract_y
_atom_site_fract_z
Si Si1 0.954003 0.400018 0.990595
Si Si2 0.044525 0.006486 0.419300
Si Si3 0.546076 0.648378 0.495109
Si Si4 0.948468 0.649073 0.237901
Si Si5 0.547234 0.350107 0.212560
Si Si6 0.941372 0.146473 0.102394
Si Si7 0.446510 0.484229 0.301675
Si Si8 0.443300 0.855649 0.123620
O O1 0.750000 0.380914 0.987897
O O2 0.021048 0.377622 0.932887
O O3 0.020377 0.358706 0.044759
O O4 0.000000 0.500000 0.000000
O O5 0.250000 0.008597 0.419040
O O6 0.985423 0.087695 0.456082
O O7 0.979994 0.016015 0.360137
O O8 0.995239 0.913096 0.445235
O O9 0.750000 0.653259 0.498930
O O10 0.483297 0.750000 0.493674
O O11 0.750000 0.649537 0.250442
O O12 0.012748 0.750000 0.241850
O O13 0.035946 0.580388 0.275995
O O14 0.968004 0.618496 0.177511
O O15 0.750000 0.345372 0.204885
O O16 0.484454 0.250000 0.222605
O O17 0.477776 0.386945 0.156566
O O18 0.518847 0.414224 0.260777
O O19 0.750000 0.107690 0.097278
O O20 0.926427 0.250000 0.112925
O O21 0.250000 0.461758 0.306758
O O22 0.250000 0.890306 0.125343
O O23 0.436494 0.750000 0.124523
#
# Coordination Sequence:
#
# PCOD9449329 Si02
#       8
#     8   8   8   8   8   8   8   8
#     4  10  20  31  47  74 102 129 165 211 265 330
#     4   9  20  37  55  82 117 151 187 224 268 321
#     4   9  18  35  60  86 114 149 186 225 267 313
#     4  10  22  39  58  79 105 142 188 235 285 339
#     4   9  19  36  57  81 109 144 188 233 276 327
#     4   8  15  31  53  72  93 128 171 212 261 322
#     4  11  23  37  57  83 115 153 188 228 275 326
#     4   9  18  34  54  74  99 132 172 220 273 332
#
# _framework density 20.925363999999998
#
# number of rings (size 3 to 8) (size 9 to 14) (size 15 to 20)
#    0.000    2.625    0.000    1.875    1.750    5.250 
#    0.000    3.750    0.000    1.875    0.000    0.000 
#    0.000    0.000    0.000    0.000    0.000    0.000 
#
# Total GULP energy -356567.861735 kJ/mol
# GULP energy per Si atom -5571.372840 kJ/mol
# Density = 2.087774 g / cm^3
# Si number density = 20.925364 Si / 1000 Ang^3
#
#
#
# Elastic Constant Matrix: (Units=GPa)
#
#
# Indices 1 2 3 4 5 6 
#
# 1 21.2368 -3.0252 -2.1792 0.0000 0.0000 0.0000
# 2 -3.0252 77.4118 21.8238 0.0000 0.0000 0.0000
# 3 -2.1792 21.8238 119.2090 0.0000 0.0000 0.0000
# 4 0.0000 0.0000 0.0000 23.1526 0.0000 0.0000
# 5 0.0000 0.0000 0.0000 0.0000 -18.1776 0.0000
# 6 0.0000 0.0000 0.0000 0.0000 0.0000 5.9762
#
#
#
# Elastic Compliance Matrix: (Units=1/GPa)
#
#
# Indices 1 2 3 4 5 6 
#
# 1 0.047387 0.001695 0.000556 0.000000 0.000000 0.000000
# 2 0.001695 0.013682 -0.002474 0.000000 0.000000 0.000000
# 3 0.000556 -0.002474 0.008852 0.000000 0.000000 0.000000
# 4 0.000000 0.000000 0.000000 0.043192 0.000000 0.000000
# 5 0.000000 0.000000 0.000000 0.000000 -0.055013 0.000000
# 6 0.000000 0.000000 0.000000 0.000000 0.000000 0.167331
#
#
# Mechanical properties :
#
#
# Convention : Reuss Voigt Hill
#
# Bulk Modulus (GPa) = 14.39377 27.89959 21.14668
# Shear Modulus (GPa) = 20.07763 15.60611 17.84187
#
# Velocity S-wave (km/s) = 3.10092 2.73389 2.92317
# Velocity P-wave (km/s) = 4.44010 4.82985 4.63907
#
# Compressibility (1/GPa) = 0.06947449
#
# Stress axis : x y z
#
# Youngs Moduli (GPa) = 21.10301 73.09104 112.97316
#
# Poissons Ratio (x) = -0.12390 -0.06280
# Poissons Ratio (y) = -0.03577 0.27946
# Poissons Ratio (z) = -0.01173 0.18081
#
# Static dielectric constant tensor:
#      x y z
#    x 1.795060 0.000000 0.000000 
#    y 0.000000 1.734690 0.000000 
#    z 0.000000 0.000000 1.822080 
# 
# From -- ./inp_files/31523.got.cif
#   From: 2010.05.17/outbox.cif.g08.bks.cpg/sg59_16_cif.got.tgz:31523.got - 2010.06.03 14:40:33.
