data_PCOD9449700
_publ_section_title
;
Structure prediction by ZEFSAII (Michael W. Deem and Ramdas Pophale) SiO2 
 PCOD9449700
Probable space group: P M M N
;
_chemical_formula_sum "Si O2"
_cell_formula_units_Z 48
_cell_length_a 24.605866
_cell_length_b 7.353622
_cell_length_c 10.056064
_cell_angle_alpha 90.000000
_cell_angle_beta 90.000000
_cell_angle_gamma 90.000000
_cell_volume 1819.566721
_symmetry_space_group_name_H-M "P M M N"
_symmetry_group_IT_number 59
_space_group.IT_coordinate_system_code '2'
_symmetry_cell_setting 'orthorhombic'
loop_
_space_group_symop_operation_xyz
x,y,z
1/2-x,1/2-y,z
1/2+x,-y,-z
-x,1/2+y,-z
-x,-y,-z
1/2+x,1/2+y,-z
1/2-x,y,z
x,1/2-y,z
loop_
_atom_site_type_symbol
_atom_site_label
_atom_site_fract_x
_atom_site_fract_y
_atom_site_fract_z
Si Si1 0.307945 0.463810 0.118533
Si Si2 0.069018 0.027263 0.760346
Si Si3 0.461708 0.957200 0.348129
Si Si4 0.345014 0.531350 0.416463
Si Si5 0.075250 0.029416 0.052366
Si Si6 0.309409 0.041378 0.702798
O O1 0.250000 0.543965 0.081940
O O2 0.306121 0.250000 0.089727
O O3 0.317974 0.483988 0.276248
O O4 0.361747 0.531728 0.048191
O O5 0.069549 0.250000 0.754648
O O6 0.130941 0.964420 0.738625
O O7 0.022674 0.964305 0.656785
O O8 0.051617 0.974498 0.910362
O O9 0.466275 0.750000 0.393135
O O10 0.407555 0.039099 0.413449
O O11 0.446522 0.954796 0.190754
O O12 0.346751 0.750000 0.424676
O O13 0.313018 0.459895 0.542592
O O14 0.073206 0.250000 0.061754
O O15 0.250000 0.964056 0.741090
O O16 0.309697 0.250000 0.751612
#
# Coordination Sequence:
#
# PCOD9449700 Si02
#       6
#     8   8   8   8   8   8
#     4   9  17  29  47  72  99 126 159 200 243 286
#     4   9  18  33  52  73  99 130 161 195 238 288
#     4   9  18  33  52  74 100 128 158 196 243 290
#     4  10  20  33  50  72  97 126 162 203 245 287
#     4   9  17  30  50  75 100 127 160 198 239 284
#     4  10  21  36  53  72  96 129 166 201 239 285
#
# _framework density 26.379908
#
# number of rings (size 3 to 8) (size 9 to 14) (size 15 to 20)
#    0.000    2.667    0.000    1.500    0.000    4.667 
#    0.000    5.000    0.000    0.000    0.000    2.333 
#    0.000    0.000    0.000    0.000    0.000    0.000 
#
# Total GULP energy -268301.046244 kJ/mol
# GULP energy per Si atom -5589.605130 kJ/mol
# Density = 2.631987 g / cm^3
# Si number density = 26.379908 Si / 1000 Ang^3
#
#
#
# Elastic Constant Matrix: (Units=GPa)
#
#
# Indices 1 2 3 4 5 6 
#
# 1 198.8490 9.5038 18.5317 0.0000 0.0000 0.0000
# 2 9.5038 115.3694 7.6602 0.0000 0.0000 0.0000
# 3 18.5317 7.6602 74.7503 0.0000 0.0000 0.0000
# 4 0.0000 0.0000 0.0000 -51.9161 0.0000 0.0000
# 5 0.0000 0.0000 0.0000 0.0000 58.3915 0.0000
# 6 0.0000 0.0000 0.0000 0.0000 0.0000 -1.2739
#
#
#
# Elastic Compliance Matrix: (Units=1/GPa)
#
#
# Indices 1 2 3 4 5 6 
#
# 1 0.005161 -0.000343 -0.001244 0.000000 0.000000 0.000000
# 2 -0.000343 0.008750 -0.000812 0.000000 0.000000 0.000000
# 3 -0.001244 -0.000812 0.013770 0.000000 0.000000 0.000000
# 4 0.000000 0.000000 0.000000 -0.019262 0.000000 0.000000
# 5 0.000000 0.000000 0.000000 0.000000 0.017126 0.000000
# 6 0.000000 0.000000 0.000000 0.000000 0.000000 -0.784970
#
#
# Mechanical properties :
#
#
# Convention : Reuss Voigt Hill
#
# Bulk Modulus (GPa) = 43.70000 51.15112 47.42556
# Shear Modulus (GPa) = -6.69344 24.59185 8.94920
#
# Velocity S-wave (km/s) = -1.59463 3.05654 1.84385
# Velocity P-wave (km/s) = 3.63472 5.64702 4.74868
#
# Compressibility (1/GPa) = 0.02288330
#
# Stress axis : x y z
#
# Youngs Moduli (GPa) = 193.75001 114.28674 72.62392
#
# Poissons Ratio (x) = 0.03915 0.09038
# Poissons Ratio (y) = 0.06637 0.05895
# Poissons Ratio (z) = 0.24111 0.09277
#
# Static dielectric constant tensor:
#      x y z
#    x 2.118330 0.000000 0.000000 
#    y 0.000000 2.000460 0.000000 
#    z 0.000000 0.000000 2.008760 
# 
# From -- ./inp_files/14304.got.cif
#   From: 2010.05.17/outbox.cif.g08.bks.cpg/sg59_8_cif.got.tgz:14304.got - 2010.06.03 14:40:33.
