data_PCOD9449926
_publ_section_title
;
Structure prediction by ZEFSAII (Michael W. Deem and Ramdas Pophale) SiO2 
 PCOD9449926
Probable space group: P M M N
;
_chemical_formula_sum "Si O2"
_cell_formula_units_Z 48
_cell_length_a 32.026008
_cell_length_b 9.323141
_cell_length_c 7.517088
_cell_angle_alpha 90.000000
_cell_angle_beta 90.000000
_cell_angle_gamma 90.000000
_cell_volume 2244.474598
_symmetry_space_group_name_H-M "P M M N"
_symmetry_group_IT_number 59
_space_group.IT_coordinate_system_code '2'
_symmetry_cell_setting 'orthorhombic'
loop_
_space_group_symop_operation_xyz
x,y,z
1/2-x,1/2-y,z
1/2+x,-y,-z
-x,1/2+y,-z
-x,-y,-z
1/2+x,1/2+y,-z
1/2-x,y,z
x,1/2-y,z
loop_
_atom_site_type_symbol
_atom_site_label
_atom_site_fract_x
_atom_site_fract_y
_atom_site_fract_z
Si Si1 0.250000 0.915866 0.709461
Si Si2 0.329870 0.090032 0.275199
Si Si3 0.496990 0.422394 0.807852
Si Si4 0.250000 0.586431 0.273279
Si Si5 0.410971 0.910357 0.201058
Si Si6 0.584040 0.085723 0.227599
Si Si7 0.168442 0.412946 0.699341
O O1 0.250000 0.750000 0.765603
O O2 0.250000 0.914368 0.491205
O O3 0.291537 0.999778 0.768554
O O4 0.327507 0.250000 0.201448
O O5 0.325047 0.098364 0.487699
O O6 0.291686 0.993200 0.210796
O O7 0.374674 0.020397 0.242025
O O8 0.491151 0.250000 0.827070
O O9 0.542936 0.444700 0.724486
O O10 0.457168 0.496847 0.717770
O O11 0.500000 0.500000 0.000000
O O12 0.250000 0.750000 0.215676
O O13 0.398750 0.750000 0.260397
O O14 0.415868 0.906641 0.987529
O O15 0.583453 0.250000 0.293896
O O16 0.626069 0.001758 0.275115
O O17 0.165312 0.250000 0.769100
#
# Coordination Sequence:
#
# PCOD9449926 Si02
#       7
#     4   8   8   4   8   8   8
#     4   9  17  31  52  75  98 131 170 204 244 299
#     4  10  20  33  52  77 103 131 167 207 248 296
#     4   9  17  31  51  74 100 132 169 207 247 298
#     4   9  17  31  52  73  98 133 168 202 246 297
#     4   9  19  34  52  75 102 131 166 206 249 296
#     4  10  20  34  53  77 102 132 170 210 251 298
#     4  10  20  34  52  76 104 133 166 207 251 297
#
# _framework density 21.385852
#
# number of rings (size 3 to 8) (size 9 to 14) (size 15 to 20)
#    0.000    2.500    0.000    3.500    0.000    8.000 
#    0.000    1.667    0.000    5.000    0.000    0.000 
#    0.000    0.000    0.000    0.000    0.000    0.000 
#
# Total GULP energy -267985.292434 kJ/mol
# GULP energy per Si atom -5583.026926 kJ/mol
# Density = 2.133718 g / cm^3
# Si number density = 21.385852 Si / 1000 Ang^3
#
#
#
# Elastic Constant Matrix: (Units=GPa)
#
#
# Indices 1 2 3 4 5 6 
#
# 1 196.5549 151.4382 -6.5407 0.0000 0.0000 0.0000
# 2 151.4382 233.5622 7.9002 0.0000 0.0000 0.0000
# 3 -6.5407 7.9002 47.4725 0.0000 0.0000 0.0000
# 4 0.0000 0.0000 0.0000 13.9187 0.0000 0.0000
# 5 0.0000 0.0000 0.0000 0.0000 22.4948 0.0000
# 6 0.0000 0.0000 0.0000 0.0000 0.0000 45.3376
#
#
#
# Elastic Compliance Matrix: (Units=1/GPa)
#
#
# Indices 1 2 3 4 5 6 
#
# 1 0.010473 -0.006878 0.002588 0.000000 0.000000 0.000000
# 2 -0.006878 0.008823 -0.002416 0.000000 0.000000 0.000000
# 3 0.002588 -0.002416 0.021823 0.000000 0.000000 0.000000
# 4 0.000000 0.000000 0.000000 0.071846 0.000000 0.000000
# 5 0.000000 0.000000 0.000000 0.000000 0.044455 0.000000
# 6 0.000000 0.000000 0.000000 0.000000 0.000000 0.022057
#
#
# Mechanical properties :
#
#
# Convention : Reuss Voigt Hill
#
# Bulk Modulus (GPa) = 36.09267 87.02057 61.55662
# Shear Modulus (GPa) = 24.73715 38.00301 31.37008
#
# Velocity S-wave (km/s) = 3.40473 4.22004 3.83412
# Velocity P-wave (km/s) = 5.68944 8.03269 6.96038
#
# Compressibility (1/GPa) = 0.02770646
#
# Stress axis : x y z
#
# Youngs Moduli (GPa) = 95.48312 113.34158 45.82240
#
# Poissons Ratio (x) = 0.77957 -0.11857
# Poissons Ratio (y) = 0.65674 0.11070
# Poissons Ratio (z) = -0.24707 0.27383
#
# Static dielectric constant tensor:
#      x y z
#    x 1.756460 0.000000 0.000000 
#    y 0.000000 1.794100 0.000000 
#    z 0.000000 0.000000 1.831330 
# 
# From -- ./inp_files/13072.got.cif
#   From: 2010.05.17/outbox.cif.g08.bks.cpg/sg59_7_cif.got.tgz:13072.got - 2010.06.03 14:40:33.
