data_PCOD9449442
_publ_section_title
;
Structure prediction by ZEFSAII (Michael W. Deem and Ramdas Pophale) SiO2 
 PCOD9449442
Probable space group: P M M N
;
_chemical_formula_sum "Si O2"
_cell_formula_units_Z 40
_cell_length_a 8.079185
_cell_length_b 30.135067
_cell_length_c 7.362272
_cell_angle_alpha 90.000000
_cell_angle_beta 90.000000
_cell_angle_gamma 90.000000
_cell_volume 1792.468667
_symmetry_space_group_name_H-M "P M M N"
_symmetry_group_IT_number 59
_space_group.IT_coordinate_system_code '2'
_symmetry_cell_setting 'orthorhombic'
loop_
_space_group_symop_operation_xyz
x,y,z
1/2-x,1/2-y,z
1/2+x,-y,-z
-x,1/2+y,-z
-x,-y,-z
1/2+x,1/2+y,-z
1/2-x,y,z
x,1/2-y,z
loop_
_atom_site_type_symbol
_atom_site_label
_atom_site_fract_x
_atom_site_fract_y
_atom_site_fract_z
Si Si1 0.934956 0.357821 0.485319
Si Si2 0.568597 0.357256 0.040546
Si Si3 0.564987 0.950310 0.972571
Si Si4 0.250000 0.198943 0.043565
Si Si5 0.945534 0.046379 0.417547
Si Si6 0.750000 0.698964 0.513113
O O1 0.750000 0.344149 0.542347
O O2 0.932935 0.357832 0.262720
O O3 0.962508 0.409370 0.537163
O O4 0.084556 0.326853 0.544507
O O5 0.750000 0.341077 0.985807
O O6 0.541960 0.407686 0.971960
O O7 0.414409 0.327169 0.985041
O O8 0.750000 0.946381 0.046245
O O9 0.561132 0.946377 0.755144
O O10 0.500000 0.000000 0.000000
O O11 0.250000 0.250000 0.986312
O O12 0.250000 0.198522 0.265169
O O13 0.750000 0.044352 0.364414
O O14 0.000000 0.000000 0.500000
O O15 0.750000 0.750000 0.455686
#
# Coordination Sequence:
#
# PCOD9449442 Si02
#       6
#     8   8   8   4   8   4
#     4   8  16  27  40  59  88 119 152 191 236 283
#     4   9  16  28  42  61  89 122 156 195 241 289
#     4  11  20  32  49  70  98 132 167 205 244 295
#     4   9  16  26  40  62  87 121 161 195 238 291
#     4  10  20  32  48  71  96 131 167 200 244 292
#     4   9  16  24  40  60  83 119 159 191 234 285
#
# _framework density 22.315591000000001
#
# number of rings (size 3 to 8) (size 9 to 14) (size 15 to 20)
#    0.000    2.600    1.000    3.600    5.600    0.800 
#    0.000    4.000    0.000    0.000    0.000    0.000 
#    0.000    3.200    0.000    5.800    0.000    7.800 
#
# Total GULP energy -223281.933175 kJ/mol
# GULP energy per Si atom -5582.048329 kJ/mol
# Density = 2.226480 g / cm^3
# Si number density = 22.315591 Si / 1000 Ang^3
#
#
#
# Elastic Constant Matrix: (Units=GPa)
#
#
# Indices 1 2 3 4 5 6 
#
# 1 203.7454 117.5133 -1.6809 0.0000 0.0000 0.0000
# 2 117.5133 179.0969 -0.6161 0.0000 0.0000 0.0000
# 3 -1.6809 -0.6161 59.0517 0.0000 0.0000 0.0000
# 4 0.0000 0.0000 0.0000 8.9198 0.0000 0.0000
# 5 0.0000 0.0000 0.0000 0.0000 -1.2372 0.0000
# 6 0.0000 0.0000 0.0000 0.0000 0.0000 32.9433
#
#
#
# Elastic Compliance Matrix: (Units=1/GPa)
#
#
# Indices 1 2 3 4 5 6 
#
# 1 0.007898 -0.005182 0.000171 0.000000 0.000000 0.000000
# 2 -0.005182 0.008983 -0.000054 0.000000 0.000000 0.000000
# 3 0.000171 -0.000054 0.016939 0.000000 0.000000 0.000000
# 4 0.000000 0.000000 0.000000 0.112110 0.000000 0.000000
# 5 0.000000 0.000000 0.000000 0.000000 -0.808309 0.000000
# 6 0.000000 0.000000 0.000000 0.000000 0.000000 0.030355
#
#
# Mechanical properties :
#
#
# Convention : Reuss Voigt Hill
#
# Bulk Modulus (GPa) = 42.21081 74.70295 58.45688
# Shear Modulus (GPa) = -8.14336 29.90371 10.88018
#
# Velocity S-wave (km/s) = -1.91235 3.66462 2.21047
# Velocity P-wave (km/s) = 3.75237 7.17316 5.72427
#
# Compressibility (1/GPa) = 0.02369062
#
# Stress axis : x y z
#
# Youngs Moduli (GPa) = 126.61222 111.31722 59.03671
#
# Poissons Ratio (x) = 0.57681 -0.01008
# Poissons Ratio (y) = 0.65607 0.00317
# Poissons Ratio (z) = -0.02162 0.00599
#
# Static dielectric constant tensor:
#      x y z
#    x 1.792010 0.000000 0.000000 
#    y 0.000000 1.815860 0.000000 
#    z 0.000000 0.000000 1.995600 
# 
# From -- ./inp_files/5910.got.cif
#   From: 2010.05.17/outbox.cif.g08.bks.cpg/sg59_3_cif.got.tgz:5910.got - 2010.06.03 14:40:33.
