data_PCOD9449594
_publ_section_title
;
Structure prediction by ZEFSAII (Michael W. Deem and Ramdas Pophale) SiO2 
 PCOD9449594
Probable space group: P M M N
;
_chemical_formula_sum "Si O2"
_cell_formula_units_Z 56
_cell_length_a 9.007953
_cell_length_b 25.734347
_cell_length_c 15.329097
_cell_angle_alpha 90.000000
_cell_angle_beta 90.000000
_cell_angle_gamma 90.000000
_cell_volume 3553.496046
_symmetry_space_group_name_H-M "P M M N"
_symmetry_group_IT_number 59
_space_group.IT_coordinate_system_code '2'
_symmetry_cell_setting 'orthorhombic'
loop_
_space_group_symop_operation_xyz
x,y,z
1/2-x,1/2-y,z
1/2+x,-y,-z
-x,1/2+y,-z
-x,-y,-z
1/2+x,1/2+y,-z
1/2-x,y,z
x,1/2-y,z
loop_
_atom_site_type_symbol
_atom_site_label
_atom_site_fract_x
_atom_site_fract_y
_atom_site_fract_z
Si Si1 0.079020 0.750000 0.600657
Si Si2 0.080207 0.564884 0.917617
Si Si3 0.427036 0.555762 0.270468
Si Si4 0.078934 0.750000 0.388863
Si Si5 0.425956 0.141971 0.609634
Si Si6 0.419113 0.061375 0.908838
Si Si7 0.570994 0.442100 0.277114
Si Si8 0.074051 0.357999 0.400687
O O1 0.250000 0.750000 0.630315
O O2 0.080385 0.750000 0.494772
O O3 0.994525 0.802491 0.626508
O O4 0.250000 0.581738 0.931647
O O5 0.081054 0.501684 0.915846
O O6 0.031777 0.579254 0.819871
O O7 0.980225 0.581382 0.998854
O O8 0.250000 0.552220 0.275073
O O9 0.491154 0.596221 0.339968
O O10 0.478650 0.573533 0.173856
O O11 0.499423 0.499094 0.285839
O O12 0.250000 0.750000 0.359323
O O13 0.994157 0.802473 0.363088
O O14 0.250000 0.140431 0.627120
O O15 0.446874 0.136534 0.505143
O O16 0.250000 0.077803 0.892766
O O17 0.750000 0.446580 0.280611
O O18 0.508883 0.403620 0.349715
O O19 0.250000 0.359403 0.383469
#
# Coordination Sequence:
#
# PCOD9449594 Si02
#       8
#     4   8   8   4   8   8   8   8
#     4   9  17  31  51  71  92 119 154 197 239 277
#     4   8  15  27  43  64  89 119 154 191 230 273
#     4  11  21  32  47  68  96 128 161 196 234 281
#     4   9  17  31  51  73  92 115 154 199 239 277
#     4  10  20  34  50  69  95 126 159 196 237 279
#     4   9  16  27  44  65  90 120 153 191 233 276
#     4  10  20  33  48  68  97 129 160 194 234 283
#     4  10  20  33  50  71  95 124 159 198 237 278
#
# _framework density 15.759128
#
# number of rings (size 3 to 8) (size 9 to 14) (size 15 to 20)
#    0.000    2.429    0.000    4.286    0.000    8.000 
#    0.000    0.000    0.000    0.000    0.000    1.000 
#    0.000    5.714    0.000    0.000    0.000    0.000 
#
# Total GULP energy -312152.718054 kJ/mol
# GULP energy per Si atom -5574.155680 kJ/mol
# Density = 1.572326 g / cm^3
# Si number density = 15.759128 Si / 1000 Ang^3
#
#
#
# Elastic Constant Matrix: (Units=GPa)
#
#
# Indices 1 2 3 4 5 6 
#
# 1 131.3141 61.5490 63.9824 0.0000 0.0000 0.0000
# 2 61.5490 87.1607 49.8911 0.0000 0.0000 0.0000
# 3 63.9824 49.8911 66.1162 0.0000 0.0000 0.0000
# 4 0.0000 0.0000 0.0000 -2.9889 0.0000 0.0000
# 5 0.0000 0.0000 0.0000 0.0000 26.3159 0.0000
# 6 0.0000 0.0000 0.0000 0.0000 0.0000 26.1097
#
#
#
# Elastic Compliance Matrix: (Units=1/GPa)
#
#
# Indices 1 2 3 4 5 6 
#
# 1 0.015188 -0.004070 -0.011627 0.000000 0.000000 0.000000
# 2 -0.004070 0.021287 -0.012125 0.000000 0.000000 0.000000
# 3 -0.011627 -0.012125 0.035526 0.000000 0.000000 0.000000
# 4 0.000000 0.000000 0.000000 -0.334569 0.000000 0.000000
# 5 0.000000 0.000000 0.000000 0.000000 0.038000 0.000000
# 6 0.000000 0.000000 0.000000 0.000000 0.000000 0.038300
#
#
# Mechanical properties :
#
#
# Convention : Reuss Voigt Hill
#
# Bulk Modulus (GPa) = 61.13137 70.60399 65.86768
# Shear Modulus (GPa) = -39.94494 17.16523 -11.38985
#
# Velocity S-wave (km/s) = -5.04006 3.30392 -2.69131
# Velocity P-wave (km/s) = 2.23734 7.71063 5.67712
#
# Compressibility (1/GPa) = 0.01635821
#
# Stress axis : x y z
#
# Youngs Moduli (GPa) = 65.84119 46.97626 28.14861
#
# Poissons Ratio (x) = 0.19119 0.32728
# Poissons Ratio (y) = 0.26797 0.34130
# Poissons Ratio (z) = 0.76552 0.56958
#
# Static dielectric constant tensor:
#      x y z
#    x 1.529000 0.000000 0.000000 
#    y 0.000000 1.497780 0.000000 
#    z 0.000000 0.000000 1.530660 
# 
# From -- ./inp_files/21205.got.cif
#   From: 2010.05.17/outbox.cif.g08.bks.cpg/sg59_11_cif.got.tgz:21205.got - 2010.06.03 14:40:33.
