data_PCOD9449517
_publ_section_title
;
Structure prediction by ZEFSAII (Michael W. Deem and Ramdas Pophale) SiO2 
 PCOD9449517
Probable space group: P M M N
;
_chemical_formula_sum "Si O2"
_cell_formula_units_Z 56
_cell_length_a 19.226530
_cell_length_b 8.982728
_cell_length_c 18.549219
_cell_angle_alpha 90.000000
_cell_angle_beta 90.000000
_cell_angle_gamma 90.000000
_cell_volume 3203.574204
_symmetry_space_group_name_H-M "P M M N"
_symmetry_group_IT_number 59
_space_group.IT_coordinate_system_code '2'
_symmetry_cell_setting 'orthorhombic'
loop_
_space_group_symop_operation_xyz
x,y,z
1/2-x,1/2-y,z
1/2+x,-y,-z
-x,1/2+y,-z
-x,-y,-z
1/2+x,1/2+y,-z
1/2-x,y,z
x,1/2-y,z
loop_
_atom_site_type_symbol
_atom_site_label
_atom_site_fract_x
_atom_site_fract_y
_atom_site_fract_z
Si Si1 0.580282 0.928258 0.865683
Si Si2 0.577957 0.071248 0.713159
Si Si3 0.331380 0.929712 0.006409
Si Si4 0.082253 0.571170 0.865255
Si Si5 0.333417 0.573917 0.582985
Si Si6 0.330182 0.568641 0.422206
Si Si7 0.085627 0.073438 0.713443
O O1 0.585343 0.750000 0.866121
O O2 0.498839 0.969231 0.878491
O O3 0.599403 0.992000 0.787135
O O4 0.628461 0.997534 0.926970
O O5 0.586347 0.250000 0.721527
O O6 0.621939 0.021415 0.643959
O O7 0.496259 0.040778 0.701678
O O8 0.250000 0.969808 0.005284
O O9 0.336223 0.750000 0.012357
O O10 0.370036 0.973778 0.932387
O O11 0.085449 0.750000 0.858369
O O12 0.105006 0.499904 0.789807
O O13 0.250000 0.557240 0.587875
O O14 0.348850 0.750000 0.588881
O O15 0.353753 0.521843 0.502277
O O16 0.370956 0.489535 0.647080
O O17 0.250000 0.522721 0.411621
O O18 0.330558 0.750000 0.423443
O O19 0.094083 0.250000 0.718482
#
# Coordination Sequence:
#
# PCOD9449517 Si02
#       7
#     8   8   8   8   8   8   8
#     4  10  20  34  53  76 103 134 166 204 251 300
#     4   9  18  33  52  75 103 133 168 208 247 294
#     4  10  21  36  54  76 100 128 166 209 250 296
#     4   9  19  36  55  74  99 134 173 207 243 294
#     4   9  18  33  52  72  96 130 171 211 250 296
#     4   8  15  30  52  74  95 127 172 212 245 289
#     4  10  20  32  49  76 106 133 163 204 254 302
#
# _framework density 17.480474000000001
#
# number of rings (size 3 to 8) (size 9 to 14) (size 15 to 20)
#    0.000    2.714    0.000    2.143    0.000    4.000 
#    0.000    3.571    0.000    0.857    0.000    0.000 
#    0.000    0.000    0.000    0.000    0.000    0.000 
#
# Total GULP energy -312340.336473 kJ/mol
# GULP energy per Si atom -5577.506008 kJ/mol
# Density = 1.744069 g / cm^3
# Si number density = 17.480474 Si / 1000 Ang^3
#
#
#
# Elastic Constant Matrix: (Units=GPa)
#
#
# Indices 1 2 3 4 5 6 
#
# 1 69.8071 35.6310 95.6252 0.0000 0.0000 0.0000
# 2 35.6310 20.1300 53.4022 0.0000 0.0000 0.0000
# 3 95.6252 53.4022 199.0832 0.0000 0.0000 0.0000
# 4 0.0000 0.0000 0.0000 20.1319 0.0000 0.0000
# 5 0.0000 0.0000 0.0000 0.0000 176.0215 0.0000
# 6 0.0000 0.0000 0.0000 0.0000 0.0000 23.2064
#
#
#
# Elastic Compliance Matrix: (Units=1/GPa)
#
#
# Indices 1 2 3 4 5 6 
#
# 1 0.148869 -0.255934 -0.002854 0.000000 0.000000 0.000000
# 2 -0.255934 0.612253 -0.041299 0.000000 0.000000 0.000000
# 3 -0.002854 -0.041299 0.017472 0.000000 0.000000 0.000000
# 4 0.000000 0.000000 0.000000 0.049672 0.000000 0.000000
# 5 0.000000 0.000000 0.000000 0.000000 0.005681 0.000000
# 6 0.000000 0.000000 0.000000 0.000000 0.000000 0.043092
#
#
# Mechanical properties :
#
#
# Convention : Reuss Voigt Hill
#
# Bulk Modulus (GPa) = 5.60474 73.14858 39.37666
# Shear Modulus (GPa) = 3.25375 50.82942 27.04159
#
# Velocity S-wave (km/s) = 1.36580 5.39824 3.93741
# Velocity P-wave (km/s) = 2.38756 8.98840 6.57616
#
# Compressibility (1/GPa) = 0.17842041
#
# Stress axis : x y z
#
# Youngs Moduli (GPa) = 6.71732 1.63331 57.23423
#
# Poissons Ratio (x) = 0.41802 0.16335
# Poissons Ratio (y) = 1.71919 2.36373
# Poissons Ratio (z) = 0.01917 0.06745
#
# Static dielectric constant tensor:
#      x y z
#    x 1.583220 0.000000 0.000000 
#    y 0.000000 1.580620 0.000000 
#    z 0.000000 0.000000 1.573660 
# 
# From -- ./inp_files/24181.got.cif
#   From: 2010.05.17/outbox.cif.g08.bks.cpg/sg59_13_cif.got.tgz:24181.got - 2010.06.03 14:40:33.
