data_PCOD9449356
_publ_section_title
;
Structure prediction by ZEFSAII (Michael W. Deem and Ramdas Pophale) SiO2 
 PCOD9449356
Probable space group: P M M N
;
_chemical_formula_sum "Si O2"
_cell_formula_units_Z 56
_cell_length_a 7.481767
_cell_length_b 20.077288
_cell_length_c 18.306342
_cell_angle_alpha 90.000000
_cell_angle_beta 90.000000
_cell_angle_gamma 90.000000
_cell_volume 2749.861366
_symmetry_space_group_name_H-M "P M M N"
_symmetry_group_IT_number 59
_space_group.IT_coordinate_system_code '2'
_symmetry_cell_setting 'orthorhombic'
loop_
_space_group_symop_operation_xyz
x,y,z
1/2-x,1/2-y,z
1/2+x,-y,-z
-x,1/2+y,-z
-x,-y,-z
1/2+x,1/2+y,-z
1/2-x,y,z
x,1/2-y,z
loop_
_atom_site_type_symbol
_atom_site_label
_atom_site_fract_x
_atom_site_fract_y
_atom_site_fract_z
Si Si1 0.462599 0.429901 0.284471
Si Si2 0.965260 0.086114 0.869050
Si Si3 0.031426 0.920978 0.297137
Si Si4 0.039193 0.325178 0.005124
Si Si5 0.968638 0.565274 0.880535
Si Si6 0.535936 0.174731 0.410295
Si Si7 0.032080 0.827105 0.427425
O O1 0.250000 0.436191 0.277402
O O2 0.527451 0.502782 0.308696
O O3 0.525990 0.416235 0.201975
O O4 0.496114 0.374275 0.344357
O O5 0.750000 0.084579 0.868573
O O6 0.023112 0.097723 0.785380
O O7 0.020893 0.142714 0.925192
O O8 0.024890 0.011620 0.893278
O O9 0.250000 0.919335 0.298086
O O10 0.968949 0.873103 0.361519
O O11 0.250000 0.320196 0.021011
O O12 0.965542 0.250000 0.009867
O O13 0.966177 0.380285 0.061683
O O14 0.750000 0.564926 0.883366
O O15 0.750000 0.178552 0.415026
O O16 0.469289 0.250000 0.397285
O O17 0.473703 0.152159 0.490905
O O18 0.250000 0.829140 0.426497
O O19 0.981140 0.750000 0.417329
#
# Coordination Sequence:
#
# PCOD9449356 Si02
#       7
#     8   8   8   8   8   8   8
#     4   9  17  30  49  71  92 115 149 192 230 265
#     4   9  17  31  51  71  91 116 150 193 231 263
#     4   8  15  28  46  70  95 116 146 189 229 266
#     4  10  20  32  46  66  93 123 153 184 222 273
#     4   8  16  32  50  67  90 122 155 183 220 274
#     4   9  18  31  45  64  92 123 154 187 222 265
#     4   8  14  26  44  64  89 124 157 180 215 273
#
# _framework density 20.364661999999999
#
# number of rings (size 3 to 8) (size 9 to 14) (size 15 to 20)
#    0.000    3.286    0.000    3.000    0.000    2.286 
#    0.000    6.429    0.000    0.857    0.000    0.000 
#    0.000    0.000    0.000    0.000    0.000    0.000 
#
# Total GULP energy -312262.487629 kJ/mol
# GULP energy per Si atom -5576.115851 kJ/mol
# Density = 2.031831 g / cm^3
# Si number density = 20.364662 Si / 1000 Ang^3
#
#
#
# Elastic Constant Matrix: (Units=GPa)
#
#
# Indices 1 2 3 4 5 6 
#
# 1 51.9614 -3.8763 -8.2214 0.0000 0.0000 0.0000
# 2 -3.8763 86.5188 61.1054 0.0000 0.0000 0.0000
# 3 -8.2214 61.1054 87.4081 0.0000 0.0000 0.0000
# 4 0.0000 0.0000 0.0000 -305.5683 0.0000 0.0000
# 5 0.0000 0.0000 0.0000 0.0000 141.1165 0.0000
# 6 0.0000 0.0000 0.0000 0.0000 0.0000 12.4631
#
#
#
# Elastic Compliance Matrix: (Units=1/GPa)
#
#
# Indices 1 2 3 4 5 6 
#
# 1 0.019566 -0.000836 0.002425 0.000000 0.000000 0.000000
# 2 -0.000836 0.022866 -0.016064 0.000000 0.000000 0.000000
# 3 0.002425 -0.016064 0.022899 0.000000 0.000000 0.000000
# 4 0.000000 0.000000 0.000000 -0.003273 0.000000 0.000000
# 5 0.000000 0.000000 0.000000 0.000000 0.007086 0.000000
# 6 0.000000 0.000000 0.000000 0.000000 0.000000 0.080237
#
#
# Mechanical properties :
#
#
# Convention : Reuss Voigt Hill
#
# Bulk Modulus (GPa) = 27.48692 35.98930 31.73811
# Shear Modulus (GPa) = 26.25235 -18.60571 3.82332
#
# Velocity S-wave (km/s) = 3.59432 -3.02591 1.37168
# Velocity P-wave (km/s) = 5.54546 2.34577 4.25763
#
# Compressibility (1/GPa) = 0.03638094
#
# Stress axis : x y z
#
# Youngs Moduli (GPa) = 51.10822 43.73276 43.67070
#
# Poissons Ratio (x) = 0.03655 -0.10589
# Poissons Ratio (y) = 0.04272 0.70152
# Poissons Ratio (z) = -0.12392 0.70252
#
# Static dielectric constant tensor:
#      x y z
#    x 1.789880 0.000000 0.000000 
#    y 0.000000 1.709020 0.000000 
#    z 0.000000 0.000000 1.712810 
# 
# From -- ./inp_files/26113.got.cif
#   From: 2010.05.17/outbox.cif.g08.bks.cpg/sg59_14_cif.got.tgz:26113.got - 2010.06.03 14:40:33.
