data_PCOD9449724
_publ_section_title
;
Structure prediction by ZEFSAII (Michael W. Deem and Ramdas Pophale) SiO2 
 PCOD9449724
Probable space group: P M M N
;
_chemical_formula_sum "Si O2"
_cell_formula_units_Z 56
_cell_length_a 14.313525
_cell_length_b 30.741054
_cell_length_c 7.181823
_cell_angle_alpha 90.000000
_cell_angle_beta 90.000000
_cell_angle_gamma 90.000000
_cell_volume 3160.094370
_symmetry_space_group_name_H-M "P M M N"
_symmetry_group_IT_number 59
_space_group.IT_coordinate_system_code '2'
_symmetry_cell_setting 'orthorhombic'
loop_
_space_group_symop_operation_xyz
x,y,z
1/2-x,1/2-y,z
1/2+x,-y,-z
-x,1/2+y,-z
-x,-y,-z
1/2+x,1/2+y,-z
1/2-x,y,z
x,1/2-y,z
loop_
_atom_site_type_symbol
_atom_site_label
_atom_site_fract_x
_atom_site_fract_y
_atom_site_fract_z
Si Si1 0.645422 0.929806 0.457830
Si Si2 0.359971 0.697924 0.585929
Si Si3 0.992101 0.299732 0.749136
Si Si4 0.516169 0.947957 0.787347
Si Si5 0.504077 0.654470 0.858386
Si Si6 0.641723 0.988480 0.105278
Si Si7 0.142877 0.172636 0.463169
O O1 0.750000 0.941887 0.528896
O O2 0.562749 0.948252 0.584396
O O3 0.640116 0.877743 0.469888
O O4 0.637901 0.948832 0.252125
O O5 0.250000 0.689413 0.585576
O O6 0.374704 0.750000 0.610827
O O7 0.407971 0.686221 0.388483
O O8 0.413789 0.672354 0.747714
O O9 0.975488 0.250000 0.808365
O O10 0.082262 0.301948 0.614866
O O11 0.003859 0.328845 0.931115
O O12 0.508158 0.897664 0.847414
O O13 0.417521 0.972077 0.806836
O O14 0.588537 0.972887 0.921465
O O15 0.590865 0.672986 0.736141
O O16 0.750000 0.999353 0.072800
O O17 0.250000 0.186635 0.450598
#
# Coordination Sequence:
#
# PCOD9449724 Si02
#       7
#     8   8   8   8   8   8   8
#     4   9  17  32  54  74  94 127 169 207 249 302
#     4   9  19  36  56  77 101 130 167 212 259 307
#     4  10  20  34  52  75 103 135 170 207 250 302
#     4  10  20  33  51  74 103 133 166 209 253 296
#     4  10  20  34  54  78 104 135 173 214 256 305
#     4  10  20  33  50  73 101 133 168 206 250 302
#     4   9  19  34  51  74 103 134 171 214 255 298
#
# _framework density 17.72099
#
# number of rings (size 3 to 8) (size 9 to 14) (size 15 to 20)
#    0.000    2.429    0.000    2.143    0.000    3.143 
#    0.000    1.429    0.000    0.000    0.000    0.000 
#    0.000    0.000    0.000    0.000    0.000    0.000 
#
# Total GULP energy -312335.675179 kJ/mol
# GULP energy per Si atom -5577.422771 kJ/mol
# Density = 1.768066 g / cm^3
# Si number density = 17.720990 Si / 1000 Ang^3
#
#
#
# Elastic Constant Matrix: (Units=GPa)
#
#
# Indices 1 2 3 4 5 6 
#
# 1 118.2950 10.7110 15.6268 0.0000 0.0000 0.0000
# 2 10.7110 18.8064 1.7176 0.0000 0.0000 0.0000
# 3 15.6268 1.7176 35.6306 0.0000 0.0000 0.0000
# 4 0.0000 0.0000 0.0000 26.7063 0.0000 0.0000
# 5 0.0000 0.0000 0.0000 0.0000 14.0019 0.0000
# 6 0.0000 0.0000 0.0000 0.0000 0.0000 22.1773
#
#
#
# Elastic Compliance Matrix: (Units=1/GPa)
#
#
# Indices 1 2 3 4 5 6 
#
# 1 0.009421 -0.005010 -0.003890 0.000000 0.000000 0.000000
# 2 -0.005010 0.056073 -0.000506 0.000000 0.000000 0.000000
# 3 -0.003890 -0.000506 0.029796 0.000000 0.000000 0.000000
# 4 0.000000 0.000000 0.000000 0.037444 0.000000 0.000000
# 5 0.000000 0.000000 0.000000 0.000000 0.071419 0.000000
# 6 0.000000 0.000000 0.000000 0.000000 0.000000 0.045091
#
#
# Mechanical properties :
#
#
# Convention : Reuss Voigt Hill
#
# Bulk Modulus (GPa) = 13.07566 25.42699 19.25132
# Shear Modulus (GPa) = 17.03286 22.22219 19.62752
#
# Velocity S-wave (km/s) = 3.10364 3.54503 3.33165
# Velocity P-wave (km/s) = 4.49867 5.57997 5.06824
#
# Compressibility (1/GPa) = 0.07647800
#
# Stress axis : x y z
#
# Youngs Moduli (GPa) = 106.14558 17.83386 33.56113
#
# Poissons Ratio (x) = 0.08935 0.13056
# Poissons Ratio (y) = 0.53183 0.01697
# Poissons Ratio (z) = 0.41294 0.00902
#
# Static dielectric constant tensor:
#      x y z
#    x 1.603660 0.000000 0.000000 
#    y 0.000000 1.598510 0.000000 
#    z 0.000000 0.000000 1.579720 
# 
# From -- ./inp_files/2333.got.cif
#   From: 2010.05.17/outbox.cif.g08.bks.cpg/sg59_2_cif.got.tgz:2333.got - 2010.06.03 14:40:33.
