data_PCOD9449513
_publ_section_title
;
Structure prediction by ZEFSAII (Michael W. Deem and Ramdas Pophale) SiO2 
 PCOD9449513
Probable space group: P M M N
;
_chemical_formula_sum "Si O2"
_cell_formula_units_Z 64
_cell_length_a 16.840238
_cell_length_b 7.817015
_cell_length_c 22.964199
_cell_angle_alpha 90.000000
_cell_angle_beta 90.000000
_cell_angle_gamma 90.000000
_cell_volume 3023.016182
_symmetry_space_group_name_H-M "P M M N"
_symmetry_group_IT_number 59
_space_group.IT_coordinate_system_code '2'
_symmetry_cell_setting 'orthorhombic'
loop_
_space_group_symop_operation_xyz
x,y,z
1/2-x,1/2-y,z
1/2+x,-y,-z
-x,1/2+y,-z
-x,-y,-z
1/2+x,1/2+y,-z
1/2-x,y,z
x,1/2-y,z
loop_
_atom_site_type_symbol
_atom_site_label
_atom_site_fract_x
_atom_site_fract_y
_atom_site_fract_z
Si Si1 0.337820 0.957494 0.994169
Si Si2 0.494609 0.049119 0.567337
Si Si3 0.840572 0.043417 0.227622
Si Si4 0.380559 0.947168 0.119879
Si Si5 0.844335 0.057198 0.755720
Si Si6 0.840906 0.552666 0.627549
Si Si7 0.558844 0.040792 0.114739
Si Si8 0.341892 0.045696 0.639468
O O1 0.250000 0.996948 0.973008
O O2 0.345336 0.750000 0.998332
O O3 0.397883 0.012788 0.944667
O O4 0.347895 0.023351 0.059910
O O5 0.482998 0.250000 0.570832
O O6 0.415602 0.975841 0.600399
O O7 0.500000 0.000000 0.500000
O O8 0.581579 0.015121 0.594722
O O9 0.750000 0.986551 0.217130
O O10 0.841310 0.250000 0.228335
O O11 0.894948 0.990552 0.173547
O O12 0.862785 0.984490 0.292499
O O13 0.350864 0.750000 0.124122
O O14 0.364348 0.027847 0.182763
O O15 0.474111 0.954844 0.113727
O O16 0.750000 0.073122 0.756271
O O17 0.879695 0.250000 0.752930
O O18 0.862332 0.963477 0.695887
O O19 0.750000 0.478586 0.619278
O O20 0.834640 0.750000 0.611264
O O21 0.552070 0.250000 0.114638
O O22 0.250000 0.979733 0.629886
O O23 0.336970 0.250000 0.630453
#
# Coordination Sequence:
#
# PCOD9449513 Si02
#       8
#     8   8   8   8   8   8   8   8
#     4   9  17  32  53  72  95 134 183 229 273 327
#     4  11  24  41  63  92 124 159 198 238 286 346
#     4   9  18  33  53  78 106 139 182 228 274 328
#     4  10  20  32  50  76 104 137 178 226 278 335
#     4   9  18  34  55  79 107 141 185 234 283 338
#     4  10  22  40  62  88 120 158 199 245 296 347
#     4  10  20  32  49  75 105 138 175 223 279 332
#     4   9  20  39  61  85 116 153 191 234 284 338
#
# _framework density 21.170909000000002
#
# number of rings (size 3 to 8) (size 9 to 14) (size 15 to 20)
#    0.000    2.375    0.000    1.875    1.750    6.250 
#    0.000    1.250    0.000    3.000    0.000    0.000 
#    0.000    0.000    0.000    0.000    0.000    0.000 
#
# Total GULP energy -356735.368654 kJ/mol
# GULP energy per Si atom -5573.990135 kJ/mol
# Density = 2.112272 g / cm^3
# Si number density = 21.170909 Si / 1000 Ang^3
#
#
#
# Elastic Constant Matrix: (Units=GPa)
#
#
# Indices 1 2 3 4 5 6 
#
# 1 95.6227 9.7687 71.7020 0.0000 0.0000 0.0000
# 2 9.7687 29.4726 4.0012 0.0000 0.0000 0.0000
# 3 71.7020 4.0012 129.0379 0.0000 0.0000 0.0000
# 4 0.0000 0.0000 0.0000 -8.1844 0.0000 0.0000
# 5 0.0000 0.0000 0.0000 0.0000 44.5775 0.0000
# 6 0.0000 0.0000 0.0000 0.0000 0.0000 19.6501
#
#
#
# Elastic Compliance Matrix: (Units=1/GPa)
#
#
# Indices 1 2 3 4 5 6 
#
# 1 0.018573 -0.004775 -0.010173 0.000000 0.000000 0.000000
# 2 -0.004775 0.035301 0.001559 0.000000 0.000000 0.000000
# 3 -0.010173 0.001559 0.013354 0.000000 0.000000 0.000000
# 4 0.000000 0.000000 0.000000 -0.122184 0.000000 0.000000
# 5 0.000000 0.000000 0.000000 0.000000 0.022433 0.000000
# 6 0.000000 0.000000 0.000000 0.000000 0.000000 0.050890
#
#
# Mechanical properties :
#
#
# Convention : Reuss Voigt Hill
#
# Bulk Modulus (GPa) = 24.72166 47.23079 35.97622
# Shear Modulus (GPa) = 85.28189 22.45272 53.86731
#
# Velocity S-wave (km/s) = 6.35374 3.26014 5.04968
# Velocity P-wave (km/s) = 8.09501 6.04392 7.14347
#
# Compressibility (1/GPa) = 0.04045036
#
# Stress axis : x y z
#
# Youngs Moduli (GPa) = 53.84043 28.32787 74.88472
#
# Poissons Ratio (x) = 0.13527 0.76177
# Poissons Ratio (y) = 0.25710 -0.11673
# Poissons Ratio (z) = 0.54769 -0.04416
#
# Static dielectric constant tensor:
#      x y z
#    x 1.769340 0.000000 0.000000 
#    y 0.000000 1.800090 0.000000 
#    z 0.000000 0.000000 1.756110 
# 
# From -- ./inp_files/30639.got.cif
#   From: 2010.05.17/outbox.cif.g08.bks.cpg/sg59_16_cif.got.tgz:30639.got - 2010.06.03 14:40:33.
