data_PCOD9449385
_publ_section_title
;
Structure prediction by ZEFSAII (Michael W. Deem and Ramdas Pophale) SiO2 
 PCOD9449385
Probable space group: P M M N
;
_chemical_formula_sum "Si O2"
_cell_formula_units_Z 56
_cell_length_a 9.695884
_cell_length_b 14.335576
_cell_length_c 18.714788
_cell_angle_alpha 90.000000
_cell_angle_beta 90.000000
_cell_angle_gamma 90.000000
_cell_volume 2601.282207
_symmetry_space_group_name_H-M "P M M N"
_symmetry_group_IT_number 59
_space_group.IT_coordinate_system_code '2'
_symmetry_cell_setting 'orthorhombic'
loop_
_space_group_symop_operation_xyz
x,y,z
1/2-x,1/2-y,z
1/2+x,-y,-z
-x,1/2+y,-z
-x,-y,-z
1/2+x,1/2+y,-z
1/2-x,y,z
x,1/2-y,z
loop_
_atom_site_type_symbol
_atom_site_label
_atom_site_fract_x
_atom_site_fract_y
_atom_site_fract_z
Si Si1 0.916835 0.359368 0.236424
Si Si2 0.093762 0.383584 0.952628
Si Si3 0.595730 0.140515 0.814761
Si Si4 0.408372 0.364222 0.686404
Si Si5 0.090555 0.635630 0.607711
Si Si6 0.408984 0.363851 0.525289
Si Si7 0.593748 0.100172 0.078472
O O1 0.750000 0.365525 0.240247
O O2 0.953007 0.250000 0.230891
O O3 0.964541 0.394145 0.314185
O O4 0.956275 0.402828 0.160530
O O5 0.250000 0.348423 0.945748
O O6 0.106427 0.495267 0.949540
O O7 0.995771 0.362188 0.885823
O O8 0.015555 0.354704 0.024860
O O9 0.750000 0.100698 0.824260
O O10 0.611715 0.250000 0.798311
O O11 0.509030 0.101164 0.748270
O O12 0.250000 0.393881 0.700146
O O13 0.406701 0.250000 0.687640
O O14 0.448574 0.392099 0.605911
O O15 0.250000 0.607383 0.600161
O O16 0.089057 0.750000 0.609025
O O17 0.004291 0.604208 0.539447
O O18 0.250000 0.390559 0.513806
O O19 0.413437 0.250000 0.524905
O O20 0.750000 0.140799 0.076827
#
# Coordination Sequence:
#
# PCOD9449385 Si02
#       7
#     8   8   8   8   8   8   8
#     4   8  14  26  45  68  92 117 147 184 222 259
#     4  10  20  33  49  68  91 119 150 187 229 271
#     4  10  20  32  47  68  92 118 150 188 229 273
#     4   8  14  25  40  59  86 118 148 179 218 263
#     4   8  13  21  35  57  84 113 144 177 212 250
#     4   8  13  21  34  54  83 118 148 173 209 258
#     4   9  18  33  51  69  90 119 155 188 220 267
#
# _framework density 21.527846
#
# number of rings (size 3 to 8) (size 9 to 14) (size 15 to 20)
#    0.000    3.286    0.000    2.571    0.000    2.571 
#    0.000    5.000    0.000    0.857    0.000    1.000 
#    0.000    0.000    0.000    0.000    0.000    0.000 
#
# Total GULP energy -312341.678775 kJ/mol
# GULP energy per Si atom -5577.529978 kJ/mol
# Density = 2.147885 g / cm^3
# Si number density = 21.527846 Si / 1000 Ang^3
#
#
#
# Elastic Constant Matrix: (Units=GPa)
#
#
# Indices 1 2 3 4 5 6 
#
# 1 134.6940 8.6758 125.0923 0.0000 0.0000 0.0000
# 2 8.6758 53.4065 5.9221 0.0000 0.0000 0.0000
# 3 125.0923 5.9221 220.8758 0.0000 0.0000 0.0000
# 4 0.0000 0.0000 0.0000 26.1546 0.0000 0.0000
# 5 0.0000 0.0000 0.0000 0.0000-2250.8085 0.0000
# 6 0.0000 0.0000 0.0000 0.0000 0.0000 -1.1798
#
#
#
# Elastic Compliance Matrix: (Units=1/GPa)
#
#
# Indices 1 2 3 4 5 6 
#
# 1 0.015794 -0.001579 -0.008902 0.000000 0.000000 0.000000
# 2 -0.001579 0.018938 0.000386 0.000000 0.000000 0.000000
# 3 -0.008902 0.000386 0.009559 0.000000 0.000000 0.000000
# 4 0.000000 0.000000 0.000000 0.038234 0.000000 0.000000
# 5 0.000000 0.000000 0.000000 0.000000 -0.000444 0.000000
# 6 0.000000 0.000000 0.000000 0.000000 0.000000 -0.847572
#
#
# Mechanical properties :
#
#
# Convention : Reuss Voigt Hill
#
# Bulk Modulus (GPa) = 41.49173 76.48407 58.98790
# Shear Modulus (GPa) = -6.78179 -427.21434 -216.99807
#
# Velocity S-wave (km/s) = -1.77682 -14.10242 -10.05075
# Velocity P-wave (km/s) = 3.88663 15.15143 10.35519
#
# Compressibility (1/GPa) = 0.02410119
#
# Stress axis : x y z
#
# Youngs Moduli (GPa) = 63.31649 52.80408 104.61449
#
# Poissons Ratio (x) = 0.08335 0.93132
# Poissons Ratio (y) = 0.09995 -0.04040
# Poissons Ratio (z) = 0.56367 -0.02039
#
# Static dielectric constant tensor:
#      x y z
#    x 1.763530 0.000000 0.000000 
#    y 0.000000 1.872150 0.000000 
#    z 0.000000 0.000000 1.767900 
# 
# From -- ./inp_files/26106.got.cif
#   From: 2010.05.17/outbox.cif.g08.bks.cpg/sg59_14_cif.got.tgz:26106.got - 2010.06.03 14:40:33.
