data_PCOD9449929
_publ_section_title
;
Structure prediction by ZEFSAII (Michael W. Deem and Ramdas Pophale) SiO2 
 PCOD9449929
Probable space group: P M M N
;
_chemical_formula_sum "Si O2"
_cell_formula_units_Z 64
_cell_length_a 27.587784
_cell_length_b 9.601502
_cell_length_c 13.391968
_cell_angle_alpha 90.000000
_cell_angle_beta 90.000000
_cell_angle_gamma 90.000000
_cell_volume 3547.320238
_symmetry_space_group_name_H-M "P M M N"
_symmetry_group_IT_number 59
_space_group.IT_coordinate_system_code '2'
_symmetry_cell_setting 'orthorhombic'
loop_
_space_group_symop_operation_xyz
x,y,z
1/2-x,1/2-y,z
1/2+x,-y,-z
-x,1/2+y,-z
-x,-y,-z
1/2+x,1/2+y,-z
1/2-x,y,z
x,1/2-y,z
loop_
_atom_site_type_symbol
_atom_site_label
_atom_site_fract_x
_atom_site_fract_y
_atom_site_fract_z
Si Si1 0.546402 0.097529 0.234275
Si Si2 0.014938 0.914170 0.096204
Si Si3 0.839331 0.413603 0.263752
Si Si4 0.872313 0.417580 0.855155
Si Si5 0.307286 0.413448 0.542940
Si Si6 0.524879 0.904147 0.580218
Si Si7 0.805413 0.080978 0.042992
Si Si8 0.368595 0.081984 0.345755
O O1 0.542056 0.250000 0.181011
O O2 0.602506 0.078270 0.258253
O O3 0.513821 0.106915 0.331938
O O4 0.523370 0.970070 0.175960
O O5 0.011275 0.750000 0.081027
O O6 0.070517 0.945397 0.126817
O O7 0.000000 0.000000 0.000000
O O8 0.825795 0.250000 0.274846
O O9 0.821363 0.498752 0.359326
O O10 0.819773 0.463511 0.155485
O O11 0.866495 0.250000 0.841868
O O12 0.856461 0.499840 0.755701
O O13 0.841911 0.460475 0.953990
O O14 0.250000 0.427330 0.525777
O O15 0.318281 0.250000 0.561332
O O16 0.335647 0.453631 0.441687
O O17 0.534158 0.750000 0.537508
O O18 0.576106 0.954052 0.623654
O O19 0.500000 0.000000 0.500000
O O20 0.750000 0.039315 0.021507
O O21 0.807340 0.250000 0.045210
O O22 0.365990 0.250000 0.329208
#
# Coordination Sequence:
#
# PCOD9449929 Si02
#       8
#     8   8   8   8   8   8   8   8
#     4  10  20  35  54  80 112 145 182 226 280 337
#     4  11  22  35  54  80 112 149 187 231 279 337
#     4  10  20  36  60  87 115 146 188 242 291 346
#     4  10  21  37  57  83 113 147 190 238 280 332
#     4  10  22  39  58  82 115 153 192 239 292 344
#     4  10  20  33  52  77 108 144 181 224 272 329
#     4   9  18  34  56  81 110 144 182 232 293 341
#     4  10  21  38  57  79 113 154 190 230 283 340
#
# _framework density 18.041789000000001
#
# number of rings (size 3 to 8) (size 9 to 14) (size 15 to 20)
#    0.000    2.000    1.250    2.250    0.000    5.750 
#    0.000    0.625    0.000    0.750    0.000    0.000 
#    0.000    0.000    0.000    0.000    0.000    0.000 
#
# Total GULP energy -356919.029112 kJ/mol
# GULP energy per Si atom -5576.859830 kJ/mol
# Density = 1.800073 g / cm^3
# Si number density = 18.041789 Si / 1000 Ang^3
#
#
#
# Elastic Constant Matrix: (Units=GPa)
#
#
# Indices 1 2 3 4 5 6 
#
# 1 78.2362 31.8843 43.8089 0.0000 0.0000 0.0000
# 2 31.8843 51.8883 60.3240 0.0000 0.0000 0.0000
# 3 43.8089 60.3240 139.9211 0.0000 0.0000 0.0000
# 4 0.0000 0.0000 0.0000 38.2985 0.0000 0.0000
# 5 0.0000 0.0000 0.0000 0.0000 31.3982 0.0000
# 6 0.0000 0.0000 0.0000 0.0000 0.0000 36.3530
#
#
#
# Elastic Compliance Matrix: (Units=1/GPa)
#
#
# Indices 1 2 3 4 5 6 
#
# 1 0.017243 -0.008659 -0.001666 0.000000 0.000000 0.000000
# 2 -0.008659 0.042987 -0.015822 0.000000 0.000000 0.000000
# 3 -0.001666 -0.015822 0.014490 0.000000 0.000000 0.000000
# 4 0.000000 0.000000 0.000000 0.026111 0.000000 0.000000
# 5 0.000000 0.000000 0.000000 0.000000 0.031849 0.000000
# 6 0.000000 0.000000 0.000000 0.000000 0.000000 0.027508
#
#
# Mechanical properties :
#
#
# Convention : Reuss Voigt Hill
#
# Bulk Modulus (GPa) = 44.58963 60.23109 52.41036
# Shear Modulus (GPa) = 22.73174 30.14517 26.43846
#
# Velocity S-wave (km/s) = 3.55343 4.09204 3.83221
# Velocity P-wave (km/s) = 6.45012 7.46881 6.97808
#
# Compressibility (1/GPa) = 0.02242674
#
# Stress axis : x y z
#
# Youngs Moduli (GPa) = 57.99289 23.26281 69.01516
#
# Poissons Ratio (x) = 0.20144 0.11495
# Poissons Ratio (y) = 0.50218 1.09194
# Poissons Ratio (z) = 0.09659 0.36806
#
# Static dielectric constant tensor:
#      x y z
#    x 1.607730 0.000000 0.000000 
#    y 0.000000 1.645780 0.000000 
#    z 0.000000 0.000000 1.606590 
# 
# From -- ./inp_files/19293.got.cif
#   From: 2010.05.17/outbox.cif.g08.bks.cpg/sg59_10_cif.got.tgz:19293.got - 2010.06.03 14:40:33.
