data_PCOD9449339
_publ_section_title
;
Structure prediction by ZEFSAII (Michael W. Deem and Ramdas Pophale) SiO2 
 PCOD9449339
Probable space group: P M M N
;
_chemical_formula_sum "Si O2"
_cell_formula_units_Z 64
_cell_length_a 9.077856
_cell_length_b 25.498787
_cell_length_c 19.208831
_cell_angle_alpha 90.000000
_cell_angle_beta 90.000000
_cell_angle_gamma 90.000000
_cell_volume 4446.351028
_symmetry_space_group_name_H-M "P M M N"
_symmetry_group_IT_number 59
_space_group.IT_coordinate_system_code '2'
_symmetry_cell_setting 'orthorhombic'
loop_
_space_group_symop_operation_xyz
x,y,z
1/2-x,1/2-y,z
1/2+x,-y,-z
-x,1/2+y,-z
-x,-y,-z
1/2+x,1/2+y,-z
1/2-x,y,z
x,1/2-y,z
loop_
_atom_site_type_symbol
_atom_site_label
_atom_site_fract_x
_atom_site_fract_y
_atom_site_fract_z
Si Si1 0.425492 0.392679 0.823847
Si Si2 0.920948 0.312041 0.724059
Si Si3 0.073052 0.005553 0.391899
Si Si4 0.080896 0.454775 0.091587
Si Si5 0.581452 0.076571 0.959529
Si Si6 0.572729 0.809503 0.425161
Si Si7 0.927104 0.581493 0.484710
Si Si8 0.927921 0.498722 0.767785
O O1 0.250000 0.393840 0.821568
O O2 0.490714 0.344271 0.781256
O O3 0.482781 0.393597 0.903216
O O4 0.491751 0.444834 0.787651
O O5 0.750000 0.328887 0.722607
O O6 0.926024 0.250000 0.738550
O O7 0.994434 0.319718 0.648542
O O8 0.250000 0.999392 0.395970
O O9 0.030596 0.053626 0.442709
O O10 0.035224 0.013621 0.311190
O O11 0.998737 0.953719 0.424001
O O12 0.250000 0.436647 0.087460
O O13 0.079190 0.515490 0.065312
O O14 0.033742 0.459200 0.172098
O O15 0.981352 0.423299 0.037525
O O16 0.750000 0.094380 0.956348
O O17 0.750000 0.810851 0.415273
O O18 0.534332 0.750000 0.447845
O O19 0.532710 0.857572 0.475732
O O20 0.750000 0.577728 0.478601
O O21 0.750000 0.490881 0.772858
#
# Coordination Sequence:
#
# PCOD9449339 Si02
#       8
#     8   8   8   8   8   8   8   8
#     4  11  20  28  41  59  80 106 135 166 199 238
#     4  10  20  32  44  58  78 104 134 168 203 238
#     4   9  17  28  41  57  79 108 138 168 203 243
#     4   8  14  24  37  54  76 101 130 163 195 226
#     4   9  16  26  39  55  77 104 132 160 191 229
#     4   9  17  29  44  61  81 105 134 169 206 242
#     4   9  17  28  41  58  80 106 136 168 203 244
#     4   9  17  28  41  57  79 107 138 169 200 239
#
# _framework density 14.393826000000001
#
# number of rings (size 3 to 8) (size 9 to 14) (size 15 to 20)
#    0.000    2.750    0.000    3.375    0.000    6.750 
#    0.000    0.000    0.000    0.000    0.000    0.000 
#    0.000    1.000    0.000    7.000    0.000    1.125 
#
# Total GULP energy -356441.234107 kJ/mol
# GULP energy per Si atom -5569.394283 kJ/mol
# Density = 1.436106 g / cm^3
# Si number density = 14.393826 Si / 1000 Ang^3
#
#
#
# Elastic Constant Matrix: (Units=GPa)
#
#
# Indices 1 2 3 4 5 6 
#
# 1 47.2806 27.5994 35.3246 0.0000 0.0000 0.0000
# 2 27.5994 61.9937 43.3779 0.0000 0.0000 0.0000
# 3 35.3246 43.3779 115.6066 0.0000 0.0000 0.0000
# 4 0.0000 0.0000 0.0000 19.4931 0.0000 0.0000
# 5 0.0000 0.0000 0.0000 0.0000 20.2744 0.0000
# 6 0.0000 0.0000 0.0000 0.0000 0.0000 15.6846
#
#
#
# Elastic Compliance Matrix: (Units=1/GPa)
#
#
# Indices 1 2 3 4 5 6 
#
# 1 0.031264 -0.009810 -0.005872 0.000000 0.000000 0.000000
# 2 -0.009810 0.024952 -0.006365 0.000000 0.000000 0.000000
# 3 -0.005872 -0.006365 0.012833 0.000000 0.000000 0.000000
# 4 0.000000 0.000000 0.000000 0.051300 0.000000 0.000000
# 5 0.000000 0.000000 0.000000 0.000000 0.049323 0.000000
# 6 0.000000 0.000000 0.000000 0.000000 0.000000 0.063757
#
#
# Mechanical properties :
#
#
# Convention : Reuss Voigt Hill
#
# Bulk Modulus (GPa) = 40.07307 48.60941 44.34124
# Shear Modulus (GPa) = 17.49233 18.99570 18.24402
#
# Velocity S-wave (km/s) = 3.48985 3.63672 3.56404
# Velocity P-wave (km/s) = 6.64377 7.17486 6.91442
#
# Compressibility (1/GPa) = 0.02495441
#
# Stress axis : x y z
#
# Youngs Moduli (GPa) = 31.98586 40.07773 77.92707
#
# Poissons Ratio (x) = 0.39315 0.45760
# Poissons Ratio (y) = 0.31377 0.49599
# Poissons Ratio (z) = 0.18782 0.25509
#
# Static dielectric constant tensor:
#      x y z
#    x 1.482420 0.000000 0.000000 
#    y 0.000000 1.463590 0.000000 
#    z 0.000000 0.000000 1.483820 
# 
# From -- ./inp_files/29855.got.cif
#   From: 2010.05.17/outbox.cif.g08.bks.cpg/sg59_15_cif.got.tgz:29855.got - 2010.06.03 14:40:33.
