data_PCOD9449944
_publ_section_title
;
Structure prediction by ZEFSAII (Michael W. Deem and Ramdas Pophale) SiO2 
 PCOD9449944
Probable space group: P M M N
;
_chemical_formula_sum "Si O2"
_cell_formula_units_Z 64
_cell_length_a 8.977673
_cell_length_b 14.798100
_cell_length_c 27.028068
_cell_angle_alpha 90.000000
_cell_angle_beta 90.000000
_cell_angle_gamma 90.000000
_cell_volume 3590.746480
_symmetry_space_group_name_H-M "P M M N"
_symmetry_group_IT_number 59
_space_group.IT_coordinate_system_code '2'
_symmetry_cell_setting 'orthorhombic'
loop_
_space_group_symop_operation_xyz
x,y,z
1/2-x,1/2-y,z
1/2+x,-y,-z
-x,1/2+y,-z
-x,-y,-z
1/2+x,1/2+y,-z
1/2-x,y,z
x,1/2-y,z
loop_
_atom_site_type_symbol
_atom_site_label
_atom_site_fract_x
_atom_site_fract_y
_atom_site_fract_z
Si Si1 0.424516 0.858231 0.127544
Si Si2 0.071175 0.353844 0.236553
Si Si3 0.929483 0.999395 0.576514
Si Si4 0.076013 0.358178 0.768585
Si Si5 0.928543 0.505890 0.053838
Si Si6 0.428745 0.645559 0.867567
Si Si7 0.570402 0.354823 0.494316
Si Si8 0.070351 0.986830 0.309412
O O1 0.250000 0.881530 0.125854
O O2 0.438947 0.750000 0.122799
O O3 0.492306 0.884228 0.180785
O O4 0.511374 0.908423 0.084161
O O5 0.250000 0.355863 0.231606
O O6 0.025705 0.250000 0.246016
O O7 0.030183 0.420918 0.280678
O O8 0.000606 0.382688 0.184439
O O9 0.750000 0.990100 0.575064
O O10 0.000748 0.911845 0.550624
O O11 0.969228 0.087138 0.543369
O O12 0.975192 0.010509 0.633387
O O13 0.250000 0.381611 0.772986
O O14 0.063343 0.250000 0.763423
O O15 0.003582 0.407381 0.722032
O O16 0.750000 0.508723 0.049993
O O17 0.971265 0.419580 0.087635
O O18 0.000000 0.500000 0.000000
O O19 0.250000 0.641647 0.862454
O O20 0.471365 0.750000 0.876764
O O21 0.750000 0.356249 0.490130
O O22 0.523016 0.250000 0.496175
O O23 0.250000 0.977005 0.307699
#
# Coordination Sequence:
#
# PCOD9449944 Si02
#       8
#     8   8   8   8   8   8   8   8
#     4  10  21  38  59  80 105 140 180 222 268 318
#     4   9  18  32  50  74 103 133 166 205 250 301
#     4   9  19  34  52  77 105 135 175 219 263 313
#     4  10  21  36  54  78 108 141 176 214 259 313
#     4  11  23  37  55  80 108 138 174 219 270 322
#     4   9  19  36  55  74  99 133 171 208 249 302
#     4   9  18  34  54  74 100 136 177 221 267 314
#     4  10  20  33  52  78 108 140 172 212 260 309
#
# _framework density 17.823592000000001
#
# number of rings (size 3 to 8) (size 9 to 14) (size 15 to 20)
#    0.000    2.375    0.000    1.875    0.000    7.250 
#    0.000    3.750    0.000    1.500    0.000    0.000 
#    0.000    0.000    0.000    0.000    0.000    0.000 
#
# Total GULP energy -357215.407368 kJ/mol
# GULP energy per Si atom -5581.490740 kJ/mol
# Density = 1.778302 g / cm^3
# Si number density = 17.823592 Si / 1000 Ang^3
#
#
#
# Elastic Constant Matrix: (Units=GPa)
#
#
# Indices 1 2 3 4 5 6 
#
# 1 40.2376 41.0656 55.0478 0.0000 0.0000 0.0000
# 2 41.0656 89.3940 67.7416 0.0000 0.0000 0.0000
# 3 55.0478 67.7416 174.8555 0.0000 0.0000 0.0000
# 4 0.0000 0.0000 0.0000 -264.0624 0.0000 0.0000
# 5 0.0000 0.0000 0.0000 0.0000 29.3167 0.0000
# 6 0.0000 0.0000 0.0000 0.0000 0.0000 26.7500
#
#
#
# Elastic Compliance Matrix: (Units=1/GPa)
#
#
# Indices 1 2 3 4 5 6 
#
# 1 0.059746 -0.018675 -0.011574 0.000000 0.000000 0.000000
# 2 -0.018675 0.021673 -0.002517 0.000000 0.000000 0.000000
# 3 -0.011574 -0.002517 0.010338 0.000000 0.000000 0.000000
# 4 0.000000 0.000000 0.000000 -0.003787 0.000000 0.000000
# 5 0.000000 0.000000 0.000000 0.000000 0.034110 0.000000
# 6 0.000000 0.000000 0.000000 0.000000 0.000000 0.037383
#
#
# Mechanical properties :
#
#
# Convention : Reuss Voigt Hill
#
# Bulk Modulus (GPa) = 38.13303 70.24412 54.18857
# Shear Modulus (GPa) = 21.39150 -32.22366 -5.41608
#
# Velocity S-wave (km/s) = 3.46812 -4.25658 -1.74508
# Velocity P-wave (km/s) = 6.12195 3.91642 5.13890
#
# Compressibility (1/GPa) = 0.02622399
#
# Stress axis : x y z
#
# Youngs Moduli (GPa) = 16.73745 46.14078 96.73148
#
# Poissons Ratio (x) = 0.86169 1.11958
# Poissons Ratio (y) = 0.31258 0.24348
# Poissons Ratio (z) = 0.19372 0.11614
#
# Static dielectric constant tensor:
#      x y z
#    x 1.594210 0.000000 0.000000 
#    y 0.000000 1.616530 0.000000 
#    z 0.000000 0.000000 1.572840 
# 
# From -- ./inp_files/31692.got.cif
#   From: 2010.05.17/outbox.cif.g08.bks.cpg/sg59_16_cif.got.tgz:31692.got - 2010.06.03 14:40:33.
