data_PCOD9449491
_publ_section_title
;
Structure prediction by ZEFSAII (Michael W. Deem and Ramdas Pophale) SiO2 
 PCOD9449491
Probable space group: P M M N
;
_chemical_formula_sum "Si O2"
_cell_formula_units_Z 56
_cell_length_a 8.844473
_cell_length_b 21.173844
_cell_length_c 15.572745
_cell_angle_alpha 90.000000
_cell_angle_beta 90.000000
_cell_angle_gamma 90.000000
_cell_volume 2916.331184
_symmetry_space_group_name_H-M "P M M N"
_symmetry_group_IT_number 59
_space_group.IT_coordinate_system_code '2'
_symmetry_cell_setting 'orthorhombic'
loop_
_space_group_symop_operation_xyz
x,y,z
1/2-x,1/2-y,z
1/2+x,-y,-z
-x,1/2+y,-z
-x,-y,-z
1/2+x,1/2+y,-z
1/2-x,y,z
x,1/2-y,z
loop_
_atom_site_type_symbol
_atom_site_label
_atom_site_fract_x
_atom_site_fract_y
_atom_site_fract_z
Si Si1 0.580819 0.823418 0.353683
Si Si2 0.072521 0.508659 0.775795
Si Si3 0.571255 0.320469 0.977438
Si Si4 0.571129 0.556213 0.941946
Si Si5 0.077749 0.882409 0.199609
Si Si6 0.930724 0.320941 0.461497
Si Si7 0.431411 0.536800 0.582715
O O1 0.750000 0.851470 0.344836
O O2 0.589778 0.750000 0.329936
O O3 0.459773 0.854575 0.291887
O O4 0.524071 0.826049 0.450691
O O5 0.250000 0.523290 0.777127
O O6 0.020390 0.510851 0.676329
O O7 0.986211 0.551907 0.843833
O O8 0.038792 0.439077 0.811769
O O9 0.750000 0.326704 0.998140
O O10 0.521363 0.250000 0.000483
O O11 0.558306 0.331420 0.875071
O O12 0.481602 0.376908 0.020870
O O13 0.750000 0.548967 0.945313
O O14 0.500000 0.500000 0.000000
O O15 0.250000 0.906407 0.194367
O O16 0.750000 0.321598 0.478729
O O17 0.963176 0.250000 0.424322
O O18 0.964275 0.387568 0.415316
O O19 0.500000 0.500000 0.500000
O O20 0.250000 0.529371 0.576026
#
# Coordination Sequence:
#
# PCOD9449491 Si02
#       7
#     8   8   8   8   8   8   8
#     4  10  20  32  48  75 112 151 191 238 297 362
#     4  11  23  39  60  88 120 157 202 251 305 365
#     4  10  22  40  62  89 122 159 201 252 308 363
#     4  12  24  41  65  91 121 161 206 251 300 360
#     4  11  21  34  55  83 115 153 196 242 298 364
#     4   9  18  35  57  78 105 147 198 248 298 353
#     4  10  22  38  58  87 121 156 199 251 304 359
#
# _framework density 19.202209
#
# number of rings (size 3 to 8) (size 9 to 14) (size 15 to 20)
#    0.000    1.571    1.429    3.857    0.000    6.286 
#    0.000    0.714    0.000    2.571    0.000    0.000 
#    0.000    0.000    0.000    0.000    0.000    0.000 
#
# Total GULP energy -312408.936194 kJ/mol
# GULP energy per Si atom -5578.731003 kJ/mol
# Density = 1.915850 g / cm^3
# Si number density = 19.202209 Si / 1000 Ang^3
#
#
#
# Elastic Constant Matrix: (Units=GPa)
#
#
# Indices 1 2 3 4 5 6 
#
# 1 68.4248 39.9088 38.1198 0.0000 0.0000 0.0000
# 2 39.9088 107.3970 38.5523 0.0000 0.0000 0.0000
# 3 38.1198 38.5523 84.6848 0.0000 0.0000 0.0000
# 4 0.0000 0.0000 0.0000 26.8591 0.0000 0.0000
# 5 0.0000 0.0000 0.0000 0.0000 22.7657 0.0000
# 6 0.0000 0.0000 0.0000 0.0000 0.0000 26.4504
#
#
#
# Elastic Compliance Matrix: (Units=1/GPa)
#
#
# Indices 1 2 3 4 5 6 
#
# 1 0.021928 -0.005505 -0.007365 0.000000 0.000000 0.000000
# 2 -0.005505 0.012512 -0.003218 0.000000 0.000000 0.000000
# 3 -0.007365 -0.003218 0.016589 0.000000 0.000000 0.000000
# 4 0.000000 0.000000 0.000000 0.037231 0.000000 0.000000
# 5 0.000000 0.000000 0.000000 0.000000 0.043926 0.000000
# 6 0.000000 0.000000 0.000000 0.000000 0.000000 0.037807
#
#
# Mechanical properties :
#
#
# Convention : Reuss Voigt Hill
#
# Bulk Modulus (GPa) = 53.04011 54.85205 53.94608
# Shear Modulus (GPa) = 23.98633 24.81010 24.39822
#
# Velocity S-wave (km/s) = 3.53816 3.59840 3.56841
# Velocity P-wave (km/s) = 6.66133 6.77438 6.71809
#
# Compressibility (1/GPa) = 0.01885366
#
# Stress axis : x y z
#
# Youngs Moduli (GPa) = 45.60351 79.92298 60.28227
#
# Poissons Ratio (x) = 0.43996 0.44396
# Poissons Ratio (y) = 0.25104 0.19400
# Poissons Ratio (z) = 0.33585 0.25720
#
# Static dielectric constant tensor:
#      x y z
#    x 1.662370 0.000000 0.000000 
#    y 0.000000 1.716470 0.000000 
#    z 0.000000 0.000000 1.664250 
# 
# From -- ./inp_files/20966.got.cif
#   From: 2010.05.17/outbox.cif.g08.bks.cpg/sg59_11_cif.got.tgz:20966.got - 2010.06.03 14:40:33.
