data_PCOD9449498
_publ_section_title
;
Structure prediction by ZEFSAII (Michael W. Deem and Ramdas Pophale) SiO2 
 PCOD9449498
Probable space group: P M M N
;
_chemical_formula_sum "Si O2"
_cell_formula_units_Z 64
_cell_length_a 15.176073
_cell_length_b 22.172584
_cell_length_c 8.904915
_cell_angle_alpha 90.000000
_cell_angle_beta 90.000000
_cell_angle_gamma 90.000000
_cell_volume 2996.439367
_symmetry_space_group_name_H-M "P M M N"
_symmetry_group_IT_number 59
_space_group.IT_coordinate_system_code '2'
_symmetry_cell_setting 'orthorhombic'
loop_
_space_group_symop_operation_xyz
x,y,z
1/2-x,1/2-y,z
1/2+x,-y,-z
-x,1/2+y,-z
-x,-y,-z
1/2+x,1/2+y,-z
1/2-x,y,z
x,1/2-y,z
loop_
_atom_site_type_symbol
_atom_site_label
_atom_site_fract_x
_atom_site_fract_y
_atom_site_fract_z
Si Si1 0.102513 0.439724 0.583101
Si Si2 0.142837 0.315310 0.063910
Si Si3 0.855889 0.184819 0.587499
Si Si4 0.647154 0.057307 0.958517
Si Si5 0.102714 0.947117 0.389376
Si Si6 0.643791 0.682864 0.581735
Si Si7 0.642435 0.185731 0.942633
Si Si8 0.350388 0.064997 0.917472
O O1 0.136219 0.495082 0.481401
O O2 0.106223 0.375315 0.501001
O O3 0.152123 0.434881 0.739403
O O4 0.001889 0.454326 0.625322
O O5 0.250000 0.313900 0.048909
O O6 0.110534 0.250000 0.009254
O O7 0.124276 0.320991 0.240770
O O8 0.108260 0.373042 0.975680
O O9 0.750000 0.185487 0.578372
O O10 0.886976 0.250000 0.523544
O O11 0.883116 0.118329 0.532845
O O12 0.879725 0.185456 0.765034
O O13 0.750000 0.058201 0.004415
O O14 0.642826 0.054208 0.777536
O O15 0.609799 0.122323 0.007265
O O16 0.606741 0.996825 0.025967
O O17 0.750000 0.680207 0.565710
O O18 0.615918 0.750000 0.528226
O O19 0.750000 0.184827 0.949234
O O20 0.613492 0.250000 0.008453
O O21 0.250000 0.064798 0.978546
#
# Coordination Sequence:
#
# PCOD9449498 Si02
#       8
#     8   8   8   8   8   8   8   8
#     4  11  23  34  46  72 108 141 174 212 256 302
#     4   8  15  30  52  75  97 124 163 209 254 304
#     4   8  14  27  50  76  94 113 153 209 257 293
#     4   9  17  31  52  73  92 124 170 212 255 307
#     4  10  21  35  50  71 101 140 178 207 246 308
#     4   9  18  34  56  78 100 133 176 215 254 308
#     4   7  10  19  39  67  91 107 135 187 241 284
#     4  10  20  32  49  74 101 130 167 216 267 303
#
# _framework density 21.358682000000002
#
# number of rings (size 3 to 8) (size 9 to 14) (size 15 to 20)
#    0.000    3.000    0.000    3.750    0.000    4.500 
#    0.000    1.250    0.000    0.750    0.000    1.750 
#    0.000    0.000    0.000    0.000    0.000    0.000 
#
# Total GULP energy -356560.536197 kJ/mol
# GULP energy per Si atom -5571.258378 kJ/mol
# Density = 2.131007 g / cm^3
# Si number density = 21.358682 Si / 1000 Ang^3
#
#
#
# Elastic Constant Matrix: (Units=GPa)
#
#
# Indices 1 2 3 4 5 6 
#
# 1 36.9114 -2.0653 -7.4100 0.0000 0.0000 0.0000
# 2 -2.0653 257.6234 61.2284 0.0000 0.0000 0.0000
# 3 -7.4100 61.2284 31.4527 0.0000 0.0000 0.0000
# 4 0.0000 0.0000 0.0000 36.6077 0.0000 0.0000
# 5 0.0000 0.0000 0.0000 0.0000 110.7055 0.0000
# 6 0.0000 0.0000 0.0000 0.0000 0.0000 21.6705
#
#
#
# Elastic Compliance Matrix: (Units=1/GPa)
#
#
# Indices 1 2 3 4 5 6 
#
# 1 0.029358 -0.002621 0.012019 0.000000 0.000000 0.000000
# 2 -0.002621 0.007458 -0.015136 0.000000 0.000000 0.000000
# 3 0.012019 -0.015136 0.064089 0.000000 0.000000 0.000000
# 4 0.000000 0.000000 0.000000 0.027317 0.000000 0.000000
# 5 0.000000 0.000000 0.000000 0.000000 0.009033 0.000000
# 6 0.000000 0.000000 0.000000 0.000000 0.000000 0.046146
#
#
# Mechanical properties :
#
#
# Convention : Reuss Voigt Hill
#
# Bulk Modulus (GPa) = 11.18192 47.72152 29.45172
# Shear Modulus (GPa) = 22.25328 52.07903 37.16616
#
# Velocity S-wave (km/s) = 3.23133 4.94328 4.17597
# Velocity P-wave (km/s) = 4.37820 7.41436 6.08857
#
# Compressibility (1/GPa) = 0.08943011
#
# Stress axis : x y z
#
# Youngs Moduli (GPa) = 34.06218 134.08737 15.60320
#
# Poissons Ratio (x) = 0.35147 -0.18754
# Poissons Ratio (y) = 0.08928 0.23616
# Poissons Ratio (z) = -0.40940 2.02948
#
# Static dielectric constant tensor:
#      x y z
#    x 1.781340 0.000000 0.000000 
#    y 0.000000 1.865720 0.000000 
#    z 0.000000 0.000000 1.708790 
# 
# From -- ./inp_files/10709.got.cif
#   From: 2010.05.17/outbox.cif.g08.bks.cpg/sg59_6_cif.got.tgz:10709.got - 2010.06.03 14:40:33.
