data_PCOD9449845
_publ_section_title
;
Structure prediction by ZEFSAII (Michael W. Deem and Ramdas Pophale) SiO2 
 PCOD9449845
Probable space group: P M M N
;
_chemical_formula_sum "Si O2"
_cell_formula_units_Z 64
_cell_length_a 19.671942
_cell_length_b 9.240114
_cell_length_c 20.411045
_cell_angle_alpha 90.000000
_cell_angle_beta 90.000000
_cell_angle_gamma 90.000000
_cell_volume 3710.135789
_symmetry_space_group_name_H-M "P M M N"
_symmetry_group_IT_number 59
_space_group.IT_coordinate_system_code '2'
_symmetry_cell_setting 'orthorhombic'
loop_
_space_group_symop_operation_xyz
x,y,z
1/2-x,1/2-y,z
1/2+x,-y,-z
-x,1/2+y,-z
-x,-y,-z
1/2+x,1/2+y,-z
1/2-x,y,z
x,1/2-y,z
loop_
_atom_site_type_symbol
_atom_site_label
_atom_site_fract_x
_atom_site_fract_y
_atom_site_fract_z
Si Si1 0.900699 0.580066 0.033850
Si Si2 0.167469 0.916019 0.472813
Si Si3 0.329011 0.581086 0.853345
Si Si4 0.330770 0.077178 0.606448
Si Si5 0.552634 0.079335 0.908105
Si Si6 0.061429 0.423033 0.230644
Si Si7 0.410989 0.576775 0.722531
Si Si8 0.170108 0.422721 0.340452
O O1 0.890203 0.750000 0.023374
O O2 0.846938 0.513040 0.083728
O O3 0.974123 0.560320 0.069188
O O4 0.904020 0.497251 0.965016
O O5 0.250000 0.915043 0.471906
O O6 0.144150 0.750000 0.476506
O O7 0.148474 0.005788 0.537315
O O8 0.146780 0.992872 0.405374
O O9 0.250000 0.568590 0.835964
O O10 0.343971 0.750000 0.868056
O O11 0.374114 0.539092 0.790939
O O12 0.250000 0.046248 0.616999
O O13 0.338592 0.250000 0.603947
O O14 0.374951 0.008111 0.664174
O O15 0.566710 0.250000 0.905558
O O16 0.563116 0.006219 0.837915
O O17 0.062279 0.250000 0.217739
O O18 0.123950 0.459365 0.278199
O O19 0.990592 0.454709 0.267837
O O20 0.402696 0.750000 0.712342
O O21 0.250000 0.454016 0.328962
O O22 0.164077 0.250000 0.352156
#
# Coordination Sequence:
#
# PCOD9449845 Si02
#       8
#     8   8   8   8   8   8   8   8
#     4  10  20  34  54  78 103 135 177 221 263 310
#     4   9  17  31  53  78 103 135 176 218 261 314
#     4  10  20  34  53  77 108 144 178 218 268 316
#     4  10  20  33  51  76 106 140 178 221 265 309
#     4  10  20  34  55  79 104 135 174 220 265 311
#     4  10  20  35  56  80 107 141 177 216 264 320
#     4  10  20  34  52  75 106 142 181 219 259 314
#     4   9  18  34  56  81 107 134 168 214 268 321
#
# _framework density 17.250043000000002
#
# number of rings (size 3 to 8) (size 9 to 14) (size 15 to 20)
#    0.000    2.250    1.250    1.875    0.000    5.500 
#    0.000    1.250    0.000    2.250    0.000    0.000 
#    0.000    0.000    0.000    0.000    0.000    0.000 
#
# Total GULP energy -357120.705194 kJ/mol
# GULP energy per Si atom -5580.011019 kJ/mol
# Density = 1.721078 g / cm^3
# Si number density = 17.250043 Si / 1000 Ang^3
#
#
#
# Elastic Constant Matrix: (Units=GPa)
#
#
# Indices 1 2 3 4 5 6 
#
# 1 58.0358 43.2876 57.2128 0.0000 0.0000 0.0000
# 2 43.2876 72.2158 84.3665 0.0000 0.0000 0.0000
# 3 57.2128 84.3665 157.2320 0.0000 0.0000 0.0000
# 4 0.0000 0.0000 0.0000 39.5013 0.0000 0.0000
# 5 0.0000 0.0000 0.0000 0.0000 24.5567 0.0000
# 6 0.0000 0.0000 0.0000 0.0000 0.0000 19.9585
#
#
#
# Elastic Compliance Matrix: (Units=1/GPa)
#
#
# Indices 1 2 3 4 5 6 
#
# 1 0.031912 -0.014908 -0.003613 0.000000 0.000000 0.000000
# 2 -0.014908 0.044074 -0.018224 0.000000 0.000000 0.000000
# 3 -0.003613 -0.018224 0.017453 0.000000 0.000000 0.000000
# 4 0.000000 0.000000 0.000000 0.025316 0.000000 0.000000
# 5 0.000000 0.000000 0.000000 0.000000 0.040722 0.000000
# 6 0.000000 0.000000 0.000000 0.000000 0.000000 0.050104
#
#
# Mechanical properties :
#
#
# Convention : Reuss Voigt Hill
#
# Bulk Modulus (GPa) = 50.12745 73.02416 61.57580
# Shear Modulus (GPa) = 17.25797 23.64440 20.45118
#
# Velocity S-wave (km/s) = 3.16644 3.70629 3.44695
# Velocity P-wave (km/s) = 6.51850 7.79360 7.18439
#
# Compressibility (1/GPa) = 0.01994915
#
# Stress axis : x y z
#
# Youngs Moduli (GPa) = 31.33644 22.68888 57.29565
#
# Poissons Ratio (x) = 0.33825 0.20699
# Poissons Ratio (y) = 0.46717 1.04418
# Poissons Ratio (z) = 0.11321 0.41349
#
# Static dielectric constant tensor:
#      x y z
#    x 1.578790 0.000000 0.000000 
#    y 0.000000 1.576200 0.000000 
#    z 0.000000 0.000000 1.552290 
# 
# From -- ./inp_files/26350.got.cif
#   From: 2010.05.17/outbox.cif.g08.bks.cpg/sg59_14_cif.got.tgz:26350.got - 2010.06.03 14:40:33.
