data_PCOD9449308
_publ_section_title
;
Structure prediction by ZEFSAII (Michael W. Deem and Ramdas Pophale) SiO2 
 PCOD9449308
Probable space group: P M M N
;
_chemical_formula_sum "Si O2"
_cell_formula_units_Z 64
_cell_length_a 23.684624
_cell_length_b 9.457404
_cell_length_c 18.418257
_cell_angle_alpha 90.000000
_cell_angle_beta 90.000000
_cell_angle_gamma 90.000000
_cell_volume 4125.598540
_symmetry_space_group_name_H-M "P M M N"
_symmetry_group_IT_number 59
_space_group.IT_coordinate_system_code '2'
_symmetry_cell_setting 'orthorhombic'
loop_
_space_group_symop_operation_xyz
x,y,z
1/2-x,1/2-y,z
1/2+x,-y,-z
-x,1/2+y,-z
-x,-y,-z
1/2+x,1/2+y,-z
1/2-x,y,z
x,1/2-y,z
loop_
_atom_site_type_symbol
_atom_site_label
_atom_site_fract_x
_atom_site_fract_y
_atom_site_fract_z
Si Si1 0.494889 0.418937 0.076401
Si Si2 0.626388 0.918612 0.857121
Si Si3 0.116640 0.580786 0.867005
Si Si4 0.181530 0.085834 0.580220
Si Si5 0.183598 0.580396 0.723085
Si Si6 0.684037 0.582660 0.009948
Si Si7 0.182346 0.582040 0.275272
Si Si8 0.181475 0.413927 0.418370
O O1 0.493312 0.250000 0.061699
O O2 0.437297 0.454663 0.118347
O O3 0.550247 0.449277 0.124452
O O4 0.500000 0.500000 0.000000
O O5 0.629055 0.750000 0.841514
O O6 0.664762 0.946799 0.927864
O O7 0.649275 0.006203 0.789531
O O8 0.124136 0.750000 0.873163
O O9 0.145649 0.536672 0.791542
O O10 0.147936 0.505584 0.933318
O O11 0.250000 0.080115 0.579288
O O12 0.165830 0.250000 0.590543
O O13 0.162560 0.041606 0.499331
O O14 0.164125 0.992164 0.648471
O O15 0.250000 0.544451 0.736078
O O16 0.180517 0.750000 0.715674
O O17 0.750000 0.552111 0.019047
O O18 0.674646 0.750000 0.022348
O O19 0.250000 0.556991 0.266346
O O20 0.173317 0.750000 0.275278
O O21 0.164512 0.513030 0.352015
O O22 0.250000 0.415453 0.419644
O O23 0.164777 0.250000 0.406530
#
# Coordination Sequence:
#
# PCOD9449308 Si02
#       8
#     8   8   8   8   8   8   8   8
#     4  10  20  35  54  71  88 116 158 204 243 281
#     4  10  20  34  50  67  90 123 159 194 237 283
#     4  10  20  33  49  69  93 122 156 196 240 282
#     4   8  14  25  42  65  92 123 158 189 219 264
#     4   9  17  28  42  64  96 128 153 181 225 279
#     4  10  20  32  47  68  93 122 156 191 230 281
#     4  10  20  31  45  70 100 126 155 191 231 278
#     4   8  14  26  44  65  92 126 157 185 223 272
#
# _framework density 15.512902
#
# number of rings (size 3 to 8) (size 9 to 14) (size 15 to 20)
#    0.000    2.625    1.250    1.875    0.000    4.000 
#    0.000    3.750    0.000    0.000    0.000    0.875 
#    0.000    0.000    0.000    0.000    0.000    0.000 
#
# Total GULP energy -356614.404041 kJ/mol
# GULP energy per Si atom -5572.100063 kJ/mol
# Density = 1.547759 g / cm^3
# Si number density = 15.512902 Si / 1000 Ang^3
#
#
#
# Elastic Constant Matrix: (Units=GPa)
#
#
# Indices 1 2 3 4 5 6 
#
# 1 43.6886 24.8626 29.1192 0.0000 0.0000 0.0000
# 2 24.8626 34.1442 48.2854 0.0000 0.0000 0.0000
# 3 29.1192 48.2854 110.4101 0.0000 0.0000 0.0000
# 4 0.0000 0.0000 0.0000 29.1530 0.0000 0.0000
# 5 0.0000 0.0000 0.0000 0.0000 1.8358 0.0000
# 6 0.0000 0.0000 0.0000 0.0000 0.0000 16.9401
#
#
#
# Elastic Compliance Matrix: (Units=1/GPa)
#
#
# Indices 1 2 3 4 5 6 
#
# 1 0.040456 -0.037662 0.005801 0.000000 0.000000 0.000000
# 2 -0.037662 0.111821 -0.038969 0.000000 0.000000 0.000000
# 3 0.005801 -0.038969 0.024570 0.000000 0.000000 0.000000
# 4 0.000000 0.000000 0.000000 0.034302 0.000000 0.000000
# 5 0.000000 0.000000 0.000000 0.000000 0.544729 0.000000
# 6 0.000000 0.000000 0.000000 0.000000 0.000000 0.059032
#
#
# Mechanical properties :
#
#
# Convention : Reuss Voigt Hill
#
# Bulk Modulus (GPa) = 28.42102 43.64192 36.03147
# Shear Modulus (GPa) = 5.16370 15.31749 10.24059
#
# Velocity S-wave (km/s) = 1.82644 3.14571 2.57209
# Velocity P-wave (km/s) = 4.77582 6.43333 5.66552
#
# Compressibility (1/GPa) = 0.03518523
#
# Stress axis : x y z
#
# Youngs Moduli (GPa) = 24.71833 8.94287 40.70064
#
# Poissons Ratio (x) = 0.33681 -0.23610
# Poissons Ratio (y) = 0.93094 1.58608
# Poissons Ratio (z) = -0.14339 0.34850
#
# Static dielectric constant tensor:
#      x y z
#    x 1.505610 0.000000 0.000000 
#    y 0.000000 1.515560 0.000000 
#    z 0.000000 0.000000 1.507250 
# 
# From -- ./inp_files/28407.got.cif
#   From: 2010.05.17/outbox.cif.g08.bks.cpg/sg59_15_cif.got.tgz:28407.got - 2010.06.03 14:40:33.
