data_PCOD9449589
_publ_section_title
;
Structure prediction by ZEFSAII (Michael W. Deem and Ramdas Pophale) SiO2 
 PCOD9449589
Probable space group: P M M N
;
_chemical_formula_sum "Si O2"
_cell_formula_units_Z 64
_cell_length_a 7.691005
_cell_length_b 24.723957
_cell_length_c 17.198848
_cell_angle_alpha 90.000000
_cell_angle_beta 90.000000
_cell_angle_gamma 90.000000
_cell_volume 3270.396668
_symmetry_space_group_name_H-M "P M M N"
_symmetry_group_IT_number 59
_space_group.IT_coordinate_system_code '2'
_symmetry_cell_setting 'orthorhombic'
loop_
_space_group_symop_operation_xyz
x,y,z
1/2-x,1/2-y,z
1/2+x,-y,-z
-x,1/2+y,-z
-x,-y,-z
1/2+x,1/2+y,-z
1/2-x,y,z
x,1/2-y,z
loop_
_atom_site_type_symbol
_atom_site_label
_atom_site_fract_x
_atom_site_fract_y
_atom_site_fract_z
Si Si1 0.956877 0.529173 0.811005
Si Si2 0.538771 0.311681 0.116460
Si Si3 0.546124 0.917489 0.968459
Si Si4 0.955186 0.133112 0.275559
Si Si5 0.950177 0.184515 0.601045
Si Si6 0.536838 0.313054 0.432254
Si Si7 0.953199 0.810785 0.226468
Si Si8 0.459546 0.415323 0.859373
O O1 0.750000 0.535357 0.812676
O O2 0.029852 0.550598 0.894420
O O3 0.021620 0.570327 0.745474
O O4 0.000669 0.466425 0.805235
O O5 0.750000 0.313620 0.115616
O O6 0.485085 0.250000 0.103746
O O7 0.472699 0.354405 0.053429
O O8 0.477093 0.333437 0.200879
O O9 0.750000 0.931454 0.971790
O O10 0.471180 0.927271 0.053794
O O11 0.750000 0.144778 0.277978
O O12 0.024563 0.152759 0.358343
O O13 0.750000 0.166791 0.607196
O O14 0.951472 0.250000 0.595689
O O15 0.023070 0.166905 0.517352
O O16 0.036877 0.171942 0.683026
O O17 0.750000 0.314320 0.435673
O O18 0.488868 0.250000 0.421252
O O19 0.750000 0.806424 0.206551
O O20 0.029440 0.750000 0.218887
O O21 0.028333 0.858733 0.174162
O O22 0.250000 0.410990 0.864532
#
# Coordination Sequence:
#
# PCOD9449589 Si02
#       8
#     8   8   8   8   8   8   8   8
#     4  10  20  33  48  68  94 120 150 192 237 273
#     4   9  17  28  43  66  96 127 156 186 223 268
#     4   9  19  33  48  67  90 119 155 194 234 273
#     4   9  16  28  47  68  93 126 159 189 221 262
#     4   8  14  26  45  69  96 123 150 182 222 268
#     4   8  13  23  44  73  98 122 156 191 220 260
#     4   9  18  32  49  70  95 119 145 182 227 273
#     4  10  20  34  52  70  87 115 156 192 224 272
#
# _framework density 19.569493000000001
#
# number of rings (size 3 to 8) (size 9 to 14) (size 15 to 20)
#    0.000    3.000    0.000    1.875    0.000    3.750 
#    0.000    1.875    0.000    4.125    0.000    0.000 
#    0.000    0.000    0.000    0.000    0.000    0.000 
#
# Total GULP energy -356659.885103 kJ/mol
# GULP energy per Si atom -5572.810705 kJ/mol
# Density = 1.952495 g / cm^3
# Si number density = 19.569493 Si / 1000 Ang^3
#
#
#
# Elastic Constant Matrix: (Units=GPa)
#
#
# Indices 1 2 3 4 5 6 
#
# 1 28.0854 -9.9198 -0.6258 0.0000 0.0000 0.0000
# 2 -9.9198 79.3850 15.7136 0.0000 0.0000 0.0000
# 3 -0.6258 15.7136 46.9765 0.0000 0.0000 0.0000
# 4 0.0000 0.0000 0.0000 17.9516 0.0000 0.0000
# 5 0.0000 0.0000 0.0000 0.0000 26.2106 0.0000
# 6 0.0000 0.0000 0.0000 0.0000 0.0000 11.8633
#
#
#
# Elastic Compliance Matrix: (Units=1/GPa)
#
#
# Indices 1 2 3 4 5 6 
#
# 1 0.037306 0.004887 -0.001138 0.000000 0.000000 0.000000
# 2 0.004887 0.014130 -0.004661 0.000000 0.000000 0.000000
# 3 -0.001138 -0.004661 0.022831 0.000000 0.000000 0.000000
# 4 0.000000 0.000000 0.000000 0.055705 0.000000 0.000000
# 5 0.000000 0.000000 0.000000 0.000000 0.038153 0.000000
# 6 0.000000 0.000000 0.000000 0.000000 0.000000 0.084294
#
#
# Mechanical properties :
#
#
# Convention : Reuss Voigt Hill
#
# Bulk Modulus (GPa) = 13.80383 18.30919 16.05651
# Shear Modulus (GPa) = 17.96029 21.15701 19.55865
#
# Velocity S-wave (km/s) = 3.03276 3.29161 3.16483
# Velocity P-wave (km/s) = 4.39688 4.88084 4.64516
#
# Compressibility (1/GPa) = 0.07244368
#
# Stress axis : x y z
#
# Youngs Moduli (GPa) = 26.80501 70.77044 43.79943
#
# Poissons Ratio (x) = -0.34585 0.04983
# Poissons Ratio (y) = -0.13099 0.20417
# Poissons Ratio (z) = 0.03050 0.32989
#
# Static dielectric constant tensor:
#      x y z
#    x 1.756100 0.000000 0.000000 
#    y 0.000000 1.677350 0.000000 
#    z 0.000000 0.000000 1.715270 
# 
# From -- ./inp_files/26445.got.cif
#   From: 2010.05.17/outbox.cif.g08.bks.cpg/sg59_14_cif.got.tgz:26445.got - 2010.06.03 14:40:33.
