data_PCOD9449453
_publ_section_title
;
Structure prediction by ZEFSAII (Michael W. Deem and Ramdas Pophale) SiO2 
 PCOD9449453
Probable space group: P M M N
;
_chemical_formula_sum "Si O2"
_cell_formula_units_Z 56
_cell_length_a 7.359425
_cell_length_b 14.597052
_cell_length_c 22.670734
_cell_angle_alpha 90.000000
_cell_angle_beta 90.000000
_cell_angle_gamma 90.000000
_cell_volume 2435.424217
_symmetry_space_group_name_H-M "P M M N"
_symmetry_group_IT_number 59
_space_group.IT_coordinate_system_code '2'
_symmetry_cell_setting 'orthorhombic'
loop_
_space_group_symop_operation_xyz
x,y,z
1/2-x,1/2-y,z
1/2+x,-y,-z
-x,1/2+y,-z
-x,-y,-z
1/2+x,1/2+y,-z
1/2-x,y,z
x,1/2-y,z
loop_
_atom_site_type_symbol
_atom_site_label
_atom_site_fract_x
_atom_site_fract_y
_atom_site_fract_z
Si Si1 0.969809 0.144659 0.406299
Si Si2 0.536781 0.480717 0.778618
Si Si3 0.029804 0.857033 0.461581
Si Si4 0.030521 0.355715 0.890559
Si Si5 0.472757 0.355202 0.146583
Si Si6 0.537380 0.861779 0.982324
Si Si7 0.041794 0.961550 0.347956
O O1 0.750000 0.142964 0.405213
O O2 0.025043 0.250000 0.395902
O O3 0.031457 0.116682 0.472530
O O4 0.037866 0.069996 0.360510
O O5 0.750000 0.495921 0.766908
O O6 0.522644 0.412075 0.833371
O O7 0.463161 0.576708 0.802946
O O8 0.459751 0.445735 0.716624
O O9 0.250000 0.864649 0.463454
O O10 0.986405 0.750000 0.453477
O O11 0.960147 0.914405 0.406120
O O12 0.250000 0.355788 0.893488
O O13 0.972243 0.250000 0.884768
O O14 0.962888 0.392530 0.954309
O O15 0.250000 0.356911 0.145016
O O16 0.525821 0.250000 0.155212
O O17 0.536948 0.388133 0.081650
O O18 0.750000 0.886252 0.981802
O O19 0.527657 0.750000 0.983339
O O20 0.250000 0.927784 0.346371
#
# Coordination Sequence:
#
# PCOD9449453 Si02
#       7
#     8   8   8   8   8   8   8
#     4   9  18  33  53  74  94 121 159 200 241 282
#     4  10  21  32  45  72 102 128 160 192 230 282
#     4   8  15  30  51  72  94 123 160 199 239 283
#     4   9  18  33  51  69  91 122 161 202 241 282
#     4   8  14  27  46  66  92 125 159 197 239 284
#     4   7  11  23  45  68  86 113 157 201 239 280
#     4  10  20  32  48  72 101 131 160 192 232 280
#
# _framework density 22.993942000000001
#
# number of rings (size 3 to 8) (size 9 to 14) (size 15 to 20)
#    0.000    3.286    0.000    3.000    0.000    2.857 
#    0.000    2.857    0.000    1.714    0.000    2.000 
#    0.000    0.000    0.000    0.000    0.000    0.000 
#
# Total GULP energy -312528.626231 kJ/mol
# GULP energy per Si atom -5580.868326 kJ/mol
# Density = 2.294161 g / cm^3
# Si number density = 22.993942 Si / 1000 Ang^3
#
#
#
# Elastic Constant Matrix: (Units=GPa)
#
#
# Indices 1 2 3 4 5 6 
#
# 1 84.9504 -5.5329 6.6973 0.0000 0.0000 0.0000
# 2 -5.5329 22.8438 -7.9866 0.0000 0.0000 0.0000
# 3 6.6973 -7.9866 60.1756 0.0000 0.0000 0.0000
# 4 0.0000 0.0000 0.0000 62.5552 0.0000 0.0000
# 5 0.0000 0.0000 0.0000 0.0000 -17.3568 0.0000
# 6 0.0000 0.0000 0.0000 0.0000 0.0000 9.4924
#
#
#
# Elastic Compliance Matrix: (Units=1/GPa)
#
#
# Indices 1 2 3 4 5 6 
#
# 1 0.012017 0.002562 -0.000997 0.000000 0.000000 0.000000
# 2 0.002562 0.046452 0.005880 0.000000 0.000000 0.000000
# 3 -0.000997 0.005880 0.017509 0.000000 0.000000 0.000000
# 4 0.000000 0.000000 0.000000 0.015986 0.000000 0.000000
# 5 0.000000 0.000000 0.000000 0.000000 -0.057614 0.000000
# 6 0.000000 0.000000 0.000000 0.000000 0.000000 0.105347
#
#
# Mechanical properties :
#
#
# Convention : Reuss Voigt Hill
#
# Bulk Modulus (GPa) = 11.00506 17.14727 14.07616
# Shear Modulus (GPa) = 32.23792 22.59099 27.41445
#
# Velocity S-wave (km/s) = 3.74842 3.13785 3.45664
# Velocity P-wave (km/s) = 4.85084 4.53890 4.69746
#
# Compressibility (1/GPa) = 0.09086730
#
# Stress axis : x y z
#
# Youngs Moduli (GPa) = 83.21501 21.52769 57.11202
#
# Poissons Ratio (x) = -0.05515 0.05697
# Poissons Ratio (y) = -0.21319 -0.33582
# Poissons Ratio (z) = 0.08300 -0.12658
#
# Static dielectric constant tensor:
#      x y z
#    x 1.875540 0.000000 0.000000 
#    y 0.000000 1.837080 0.000000 
#    z 0.000000 0.000000 1.880350 
# 
# From -- ./inp_files/30052.got.cif
#   From: 2010.05.17/outbox.cif.g08.bks.cpg/sg59_16_cif.got.tgz:30052.got - 2010.06.03 14:40:33.
