data_PCOD9449624
_publ_section_title
;
Structure prediction by ZEFSAII (Michael W. Deem and Ramdas Pophale) SiO2 
 PCOD9449624
Probable space group: P M M N
;
_chemical_formula_sum "Si O2"
_cell_formula_units_Z 64
_cell_length_a 17.815609
_cell_length_b 7.685192
_cell_length_c 24.108857
_cell_angle_alpha 90.000000
_cell_angle_beta 90.000000
_cell_angle_gamma 90.000000
_cell_volume 3300.897324
_symmetry_space_group_name_H-M "P M M N"
_symmetry_group_IT_number 59
_space_group.IT_coordinate_system_code '2'
_symmetry_cell_setting 'orthorhombic'
loop_
_space_group_symop_operation_xyz
x,y,z
1/2-x,1/2-y,z
1/2+x,-y,-z
-x,1/2+y,-z
-x,-y,-z
1/2+x,1/2+y,-z
1/2-x,y,z
x,1/2-y,z
loop_
_atom_site_type_symbol
_atom_site_label
_atom_site_fract_x
_atom_site_fract_y
_atom_site_fract_z
Si Si1 0.834133 0.540775 0.041463
Si Si2 0.414879 0.456273 0.066282
Si Si3 0.482346 0.460079 0.636278
Si Si4 0.442849 0.956778 0.867076
Si Si5 0.666198 0.459679 0.433919
Si Si6 0.074344 0.958332 0.464658
Si Si7 0.333708 0.539161 0.176754
Si Si8 0.020411 0.955224 0.242146
O O1 0.750000 0.474950 0.033830
O O2 0.832279 0.750000 0.036107
O O3 0.866604 0.498587 0.101639
O O4 0.887676 0.471343 0.992401
O O5 0.426518 0.250000 0.058990
O O6 0.490968 0.529981 0.092975
O O7 0.352877 0.482965 0.114042
O O8 0.486104 0.250000 0.636864
O O9 0.401529 0.500158 0.608629
O O10 0.550097 0.523426 0.596037
O O11 0.494491 0.526544 0.698609
O O12 0.451480 0.750000 0.863831
O O13 0.458127 0.024527 0.805650
O O14 0.750000 0.522323 0.419299
O O15 0.669035 0.250000 0.436494
O O16 0.640892 0.523482 0.495490
O O17 0.083793 0.750000 0.460286
O O18 0.000000 0.000000 0.500000
O O19 0.250000 0.482526 0.192680
O O20 0.335323 0.750000 0.177548
O O21 0.401700 0.474305 0.215866
O O22 0.033143 0.750000 0.250164
#
# Coordination Sequence:
#
# PCOD9449624 Si02
#       8
#     8   8   8   8   8   8   8   8
#     4  10  20  33  49  69  94 123 152 186 234 287
#     4   9  18  32  50  71  93 119 151 186 230 286
#     4   9  17  30  49  70  91 122 162 195 223 264
#     4  10  20  33  50  71  93 120 156 195 233 275
#     4   9  17  29  46  70  99 126 151 187 235 276
#     4   8  14  26  44  66  91 117 146 179 218 265
#     4   9  17  29  46  69  95 121 150 188 234 279
#     4   9  18  33  50  67  92 126 161 194 229 273
#
# _framework density 19.388667999999999
#
# number of rings (size 3 to 8) (size 9 to 14) (size 15 to 20)
#    0.000    2.875    0.000    1.125    0.000    2.750 
#    0.000    1.250    0.000    4.500    0.000    0.000 
#    0.000    9.000    0.000    0.000    0.000    0.000 
#
# Total GULP energy -356537.168899 kJ/mol
# GULP energy per Si atom -5570.893264 kJ/mol
# Density = 1.934454 g / cm^3
# Si number density = 19.388668 Si / 1000 Ang^3
#
#
#
# Elastic Constant Matrix: (Units=GPa)
#
#
# Indices 1 2 3 4 5 6 
#
# 1 42.5896 -6.5469 39.0826 0.0000 0.0000 0.0000
# 2 -6.5469 29.1431 -6.5574 0.0000 0.0000 0.0000
# 3 39.0826 -6.5574 144.9848 0.0000 0.0000 0.0000
# 4 0.0000 0.0000 0.0000 12.0549 0.0000 0.0000
# 5 0.0000 0.0000 0.0000 0.0000 15.3752 0.0000
# 6 0.0000 0.0000 0.0000 0.0000 0.0000 10.9227
#
#
#
# Elastic Compliance Matrix: (Units=1/GPa)
#
#
# Indices 1 2 3 4 5 6 
#
# 1 0.031987 0.005300 -0.008383 0.000000 0.000000 0.000000
# 2 0.005300 0.035544 0.000179 0.000000 0.000000 0.000000
# 3 -0.008383 0.000179 0.009165 0.000000 0.000000 0.000000
# 4 0.000000 0.000000 0.000000 0.082954 0.000000 0.000000
# 5 0.000000 0.000000 0.000000 0.000000 0.065040 0.000000
# 6 0.000000 0.000000 0.000000 0.000000 0.000000 0.091553
#
#
# Mechanical properties :
#
#
# Convention : Reuss Voigt Hill
#
# Bulk Modulus (GPa) = 14.10679 29.85271 21.97975
# Shear Modulus (GPa) = 14.46422 20.38650 17.42536
#
# Velocity S-wave (km/s) = 2.73429 3.24615 3.00115
# Velocity P-wave (km/s) = 4.15452 5.42958 4.83427
#
# Compressibility (1/GPa) = 0.07088784
#
# Stress axis : x y z
#
# Youngs Moduli (GPa) = 31.26257 28.13397 109.10968
#
# Poissons Ratio (x) = -0.14910 0.91465
# Poissons Ratio (y) = -0.16568 -0.01953
# Poissons Ratio (z) = 0.26207 -0.00504
#
# Static dielectric constant tensor:
#      x y z
#    x 1.695840 0.000000 0.000000 
#    y 0.000000 1.717510 0.000000 
#    z 0.000000 0.000000 1.692250 
# 
# From -- ./inp_files/31720.got.cif
#   From: 2010.05.17/outbox.cif.g08.bks.cpg/sg59_16_cif.got.tgz:31720.got - 2010.06.03 14:40:33.
