data_PCOD9449271
_publ_section_title
;
Structure prediction by ZEFSAII (Michael W. Deem and Ramdas Pophale) SiO2 
 PCOD9449271
Probable space group: P M M N
;
_chemical_formula_sum "Si O2"
_cell_formula_units_Z 64
_cell_length_a 7.728210
_cell_length_b 14.280019
_cell_length_c 24.097121
_cell_angle_alpha 90.000000
_cell_angle_beta 90.000000
_cell_angle_gamma 90.000000
_cell_volume 2659.333830
_symmetry_space_group_name_H-M "P M M N"
_symmetry_group_IT_number 59
_space_group.IT_coordinate_system_code '2'
_symmetry_cell_setting 'orthorhombic'
loop_
_space_group_symop_operation_xyz
x,y,z
1/2-x,1/2-y,z
1/2+x,-y,-z
-x,1/2+y,-z
-x,-y,-z
1/2+x,1/2+y,-z
1/2-x,y,z
x,1/2-y,z
loop_
_atom_site_type_symbol
_atom_site_label
_atom_site_fract_x
_atom_site_fract_y
_atom_site_fract_z
Si Si1 0.049298 0.106456 0.125966
Si Si2 0.957099 0.894244 0.516743
Si Si3 0.045367 0.065447 0.244621
Si Si4 0.543380 0.609805 0.992866
Si Si5 0.944729 0.851275 0.230015
Si Si6 0.459522 0.349932 0.603421
Si Si7 0.456725 0.437913 0.364712
Si Si8 0.056769 0.618460 0.113481
O O1 0.250000 0.138129 0.128690
O O2 0.974262 0.142650 0.067343
O O3 0.972389 0.112427 0.188085
O O4 0.051365 0.994503 0.115714
O O5 0.750000 0.878623 0.519387
O O6 0.019463 0.845308 0.460893
O O7 0.024330 0.886055 0.579766
O O8 0.000000 0.000000 0.500000
O O9 0.250000 0.086399 0.243634
O O10 0.973076 0.092670 0.304806
O O11 0.030200 0.951629 0.242141
O O12 0.750000 0.620723 0.991054
O O13 0.500000 0.500000 0.000000
O O14 0.479877 0.649867 0.051132
O O15 0.750000 0.855904 0.253211
O O16 0.021327 0.750000 0.246210
O O17 0.937087 0.849601 0.163045
O O18 0.250000 0.353945 0.603562
O O19 0.511029 0.250000 0.629484
O O20 0.518299 0.449406 0.628038
O O21 0.250000 0.422787 0.363671
O O22 0.250000 0.645900 0.129385
#
# Coordination Sequence:
#
# PCOD9449271 Si02
#       8
#     8   8   8   8   8   8   8   8
#     4   7  12  22  35  51  71  94 119 149 185 226
#     4   8  14  26  42  59  79 104 135 169 208 250
#     4   9  17  29  42  56  76 103 136 168 198 237
#     4   9  14  21  35  54  74  95 121 154 193 235
#     4  10  20  31  41  54  74 102 136 171 204 240
#     4   9  17  28  42  60  83 110 138 171 211 253
#     4   9  17  28  43  61  81 108 141 176 209 245
#     4   9  16  26  39  54  72  96 126 160 200 242
#
# _framework density 24.066177
#
# number of rings (size 3 to 8) (size 9 to 14) (size 15 to 20)
#    0.000    3.250    0.000    2.625    0.000    2.250 
#    0.000    3.125    0.000    0.000    0.000    0.000 
#    0.000    1.000    0.000   10.500    0.000    5.500 
#
# Total GULP energy -356309.095323 kJ/mol
# GULP energy per Si atom -5567.329614 kJ/mol
# Density = 2.401140 g / cm^3
# Si number density = 24.066177 Si / 1000 Ang^3
#
#
#
# Elastic Constant Matrix: (Units=GPa)
#
#
# Indices 1 2 3 4 5 6 
#
# 1 50.1033 -8.9227 7.1601 0.0000 0.0000 0.0000
# 2 -8.9227 49.6541 -3.1786 0.0000 0.0000 0.0000
# 3 7.1601 -3.1786 242.3933 0.0000 0.0000 0.0000
# 4 0.0000 0.0000 0.0000 -50.0325 0.0000 0.0000
# 5 0.0000 0.0000 0.0000 0.0000 10.8928 0.0000
# 6 0.0000 0.0000 0.0000 0.0000 0.0000 1.1506
#
#
#
# Elastic Compliance Matrix: (Units=1/GPa)
#
#
# Indices 1 2 3 4 5 6 
#
# 1 0.020695 0.003683 -0.000563 0.000000 0.000000 0.000000
# 2 0.003683 0.020812 0.000164 0.000000 0.000000 0.000000
# 3 -0.000563 0.000164 0.004144 0.000000 0.000000 0.000000
# 4 0.000000 0.000000 0.000000 -0.019987 0.000000 0.000000
# 5 0.000000 0.000000 0.000000 0.000000 0.091804 0.000000
# 6 0.000000 0.000000 0.000000 0.000000 0.000000 0.869124
#
#
# Mechanical properties :
#
#
# Convention : Reuss Voigt Hill
#
# Bulk Modulus (GPa) = 19.15017 36.91869 28.03443
# Shear Modulus (GPa) = 5.01288 15.54164 10.27726
#
# Velocity S-wave (km/s) = 1.44481 2.54399 2.06874
# Velocity P-wave (km/s) = 3.27992 4.89928 4.16898
#
# Compressibility (1/GPa) = 0.05221886
#
# Stress axis : x y z
#
# Youngs Moduli (GPa) = 48.32067 48.05005 241.29473
#
# Poissons Ratio (x) = -0.17696 0.13585
# Poissons Ratio (y) = -0.17796 -0.03960
# Poissons Ratio (z) = 0.02721 -0.00789
#
# Static dielectric constant tensor:
#      x y z
#    x 2.052010 0.000000 0.000000 
#    y 0.000000 1.929250 0.000000 
#    z 0.000000 0.000000 2.017560 
# 
# From -- ./inp_files/31733.got.cif
#   From: 2010.05.17/outbox.cif.g08.bks.cpg/sg59_16_cif.got.tgz:31733.got - 2010.06.03 14:40:33.
