data_PCOD9449302
_publ_section_title
;
Structure prediction by ZEFSAII (Michael W. Deem and Ramdas Pophale) SiO2 
 PCOD9449302
Probable space group: P M M N
;
_chemical_formula_sum "Si O2"
_cell_formula_units_Z 56
_cell_length_a 9.684533
_cell_length_b 14.674679
_cell_length_c 18.705279
_cell_angle_alpha 90.000000
_cell_angle_beta 90.000000
_cell_angle_gamma 90.000000
_cell_volume 2658.345862
_symmetry_space_group_name_H-M "P M M N"
_symmetry_group_IT_number 59
_space_group.IT_coordinate_system_code '2'
_symmetry_cell_setting 'orthorhombic'
loop_
_space_group_symop_operation_xyz
x,y,z
1/2-x,1/2-y,z
1/2+x,-y,-z
-x,1/2+y,-z
-x,-y,-z
1/2+x,1/2+y,-z
1/2-x,y,z
x,1/2-y,z
loop_
_atom_site_type_symbol
_atom_site_label
_atom_site_fract_x
_atom_site_fract_y
_atom_site_fract_z
Si Si1 0.585167 0.093486 0.013877
Si Si2 0.409113 0.638592 0.403310
Si Si3 0.094002 0.359069 0.306533
Si Si4 0.408537 0.105608 0.146054
Si Si5 0.597243 0.386469 0.856208
Si Si6 0.409191 0.861318 0.562567
Si Si7 0.402793 0.142810 0.724828
O O1 0.750000 0.077800 0.025885
O O2 0.510315 0.136332 0.082758
O O3 0.573574 0.144166 0.937755
O O4 0.500000 0.000000 0.000000
O O5 0.250000 0.610449 0.394289
O O6 0.408540 0.750000 0.401713
O O7 0.457477 0.612103 0.482913
O O8 0.503173 0.604687 0.338748
O O9 0.250000 0.396708 0.308917
O O10 0.102655 0.250000 0.315312
O O11 0.040384 0.374042 0.226106
O O12 0.002336 0.393304 0.371934
O O13 0.250000 0.140161 0.138256
O O14 0.399957 0.996221 0.141611
O O15 0.750000 0.355901 0.832430
O O16 0.481373 0.362257 0.799815
O O17 0.250000 0.889818 0.570933
O O18 0.409318 0.750000 0.563663
O O19 0.250000 0.101768 0.728123
O O20 0.388844 0.250000 0.709055
#
# Coordination Sequence:
#
# PCOD9449302 Si02
#       7
#     8   8   8   8   8   8   8
#     4   9  17  30  49  71  91 116 153 192 228 266
#     4   8  14  26  44  64  88 120 153 184 223 270
#     4   9  17  29  46  69  97 126 152 183 228 273
#     4   9  18  32  49  70  95 122 154 189 224 267
#     4   9  18  32  49  67  89 120 154 186 223 269
#     4   8  14  25  42  65  91 119 153 189 222 262
#     4  10  20  31  45  69  96 118 146 188 233 273
#
# _framework density 21.065729999999999
#
# number of rings (size 3 to 8) (size 9 to 14) (size 15 to 20)
#    0.000    3.143    0.000    2.571    0.000    4.857 
#    0.000    3.571    0.000    3.429    0.000    0.000 
#    0.000    0.000    0.000    0.000    0.000    0.000 
#
# Total GULP energy -312222.876711 kJ/mol
# GULP energy per Si atom -5575.408513 kJ/mol
# Density = 2.101778 g / cm^3
# Si number density = 21.065730 Si / 1000 Ang^3
#
#
#
# Elastic Constant Matrix: (Units=GPa)
#
#
# Indices 1 2 3 4 5 6 
#
# 1 135.5851 0.5970 123.3227 0.0000 0.0000 0.0000
# 2 0.5970 45.7638 -7.2973 0.0000 0.0000 0.0000
# 3 123.3227 -7.2973 192.7938 0.0000 0.0000 0.0000
# 4 0.0000 0.0000 0.0000 18.5471 0.0000 0.0000
# 5 0.0000 0.0000 0.0000 0.0000 39.9980 0.0000
# 6 0.0000 0.0000 0.0000 0.0000 0.0000 5.7500
#
#
#
# Elastic Compliance Matrix: (Units=1/GPa)
#
#
# Indices 1 2 3 4 5 6 
#
# 1 0.017828 -0.002063 -0.011482 0.000000 0.000000 0.000000
# 2 -0.002063 0.022223 0.002161 0.000000 0.000000 0.000000
# 3 -0.011482 0.002161 0.012613 0.000000 0.000000 0.000000
# 4 0.000000 0.000000 0.000000 0.053917 0.000000 0.000000
# 5 0.000000 0.000000 0.000000 0.000000 0.025001 0.000000
# 6 0.000000 0.000000 0.000000 0.000000 0.000000 0.173912
#
#
# Mechanical properties :
#
#
# Convention : Reuss Voigt Hill
#
# Bulk Modulus (GPa) = 33.44999 67.48751 50.46875
# Shear Modulus (GPa) = 14.78291 30.02705 22.40498
#
# Velocity S-wave (km/s) = 2.65193 3.77954 3.26479
# Velocity P-wave (km/s) = 5.02895 7.15211 6.18236
#
# Compressibility (1/GPa) = 0.02989538
#
# Stress axis : x y z
#
# Youngs Moduli (GPa) = 56.09095 44.99870 79.28111
#
# Poissons Ratio (x) = 0.09285 0.91031
# Poissons Ratio (y) = 0.11574 -0.17133
# Poissons Ratio (z) = 0.64404 -0.09725
#
# Static dielectric constant tensor:
#      x y z
#    x 1.746840 0.000000 0.000000 
#    y 0.000000 1.828140 0.000000 
#    z 0.000000 0.000000 1.765290 
# 
# From -- ./inp_files/26079.got.cif
#   From: 2010.05.17/outbox.cif.g08.bks.cpg/sg59_14_cif.got.tgz:26079.got - 2010.06.03 14:40:33.
