data_PCOD9449806
_publ_section_title
;
Structure prediction by ZEFSAII (Michael W. Deem and Ramdas Pophale) SiO2 
 PCOD9449806
Probable space group: P M M N
;
_chemical_formula_sum "Si O2"
_cell_formula_units_Z 56
_cell_length_a 9.462615
_cell_length_b 14.679795
_cell_length_c 21.578812
_cell_angle_alpha 90.000000
_cell_angle_beta 90.000000
_cell_angle_gamma 90.000000
_cell_volume 2997.496556
_symmetry_space_group_name_H-M "P M M N"
_symmetry_group_IT_number 59
_space_group.IT_coordinate_system_code '2'
_symmetry_cell_setting 'orthorhombic'
loop_
_space_group_symop_operation_xyz
x,y,z
1/2-x,1/2-y,z
1/2+x,-y,-z
-x,1/2+y,-z
-x,-y,-z
1/2+x,1/2+y,-z
1/2-x,y,z
x,1/2-y,z
loop_
_atom_site_type_symbol
_atom_site_label
_atom_site_fract_x
_atom_site_fract_y
_atom_site_fract_z
Si Si1 0.082189 0.010569 0.408174
Si Si2 0.586880 0.421332 0.033147
Si Si3 0.079885 0.642491 0.830327
Si Si4 0.088191 0.359706 0.794522
Si Si5 0.418477 0.012465 0.265174
Si Si6 0.419633 0.143500 0.520607
Si Si7 0.598045 0.146680 0.903541
O O1 0.250000 0.991902 0.413990
O O2 0.996950 0.921286 0.429879
O O3 0.053324 0.034555 0.337018
O O4 0.049173 0.093923 0.454829
O O5 0.750000 0.449030 0.040573
O O6 0.537605 0.386582 0.099580
O O7 0.500000 0.500000 0.000000
O O8 0.581084 0.349639 0.977041
O O9 0.250000 0.629238 0.824667
O O10 0.052163 0.750000 0.822458
O O11 0.996619 0.582307 0.780679
O O12 0.250000 0.388952 0.786505
O O13 0.085264 0.250000 0.786909
O O14 0.983966 0.413119 0.749245
O O15 0.031892 0.388777 0.863166
O O16 0.250000 0.012998 0.254988
O O17 0.250000 0.139705 0.529894
O O18 0.461391 0.250000 0.522107
O O19 0.750000 0.099639 0.890869
O O20 0.610103 0.250000 0.881536
#
# Coordination Sequence:
#
# PCOD9449806 Si02
#       7
#     8   8   8   8   8   8   8
#     4   9  20  37  56  82 115 148 182 222 268 319
#     4  10  20  33  51  75 102 134 174 223 281 337
#     4  10  22  40  59  80 111 151 193 237 284 334
#     4  10  21  36  54  78 109 145 186 234 288 343
#     4  11  23  38  57  81 112 151 191 230 273 325
#     4   9  18  35  60  87 114 144 178 219 268 320
#     4   9  17  31  51  72  95 126 167 216 270 328
#
# _framework density 18.682257
#
# number of rings (size 3 to 8) (size 9 to 14) (size 15 to 20)
#    0.000    2.286    0.000    2.143    0.000    8.857 
#    0.000    4.286    0.000    2.571    0.000    0.000 
#    0.000    0.000    0.000    0.000    0.000    0.000 
#
# Total GULP energy -312025.063161 kJ/mol
# GULP energy per Si atom -5571.876128 kJ/mol
# Density = 1.863974 g / cm^3
# Si number density = 18.682257 Si / 1000 Ang^3
#
#
#
# Elastic Constant Matrix: (Units=GPa)
#
#
# Indices 1 2 3 4 5 6 
#
# 1 58.6713 37.3113 38.2243 0.0000 0.0000 0.0000
# 2 37.3113 95.8212 22.9396 0.0000 0.0000 0.0000
# 3 38.2243 22.9396 96.5551 0.0000 0.0000 0.0000
# 4 0.0000 0.0000 0.0000 14.8385 0.0000 0.0000
# 5 0.0000 0.0000 0.0000 0.0000 25.7760 0.0000
# 6 0.0000 0.0000 0.0000 0.0000 0.0000 26.7219
#
#
#
# Elastic Compliance Matrix: (Units=1/GPa)
#
#
# Indices 1 2 3 4 5 6 
#
# 1 0.028801 -0.008997 -0.009264 0.000000 0.000000 0.000000
# 2 -0.008997 0.013876 0.000265 0.000000 0.000000 0.000000
# 3 -0.009264 0.000265 0.013961 0.000000 0.000000 0.000000
# 4 0.000000 0.000000 0.000000 0.067392 0.000000 0.000000
# 5 0.000000 0.000000 0.000000 0.000000 0.038796 0.000000
# 6 0.000000 0.000000 0.000000 0.000000 0.000000 0.037422
#
#
# Mechanical properties :
#
#
# Convention : Reuss Voigt Hill
#
# Bulk Modulus (GPa) = 48.43518 49.77756 49.10637
# Shear Modulus (GPa) = 20.56564 23.63876 22.10220
#
# Velocity S-wave (km/s) = 3.32145 3.56097 3.44329
# Velocity P-wave (km/s) = 6.37898 6.60375 6.49234
#
# Compressibility (1/GPa) = 0.02064615
#
# Stress axis : x y z
#
# Youngs Moduli (GPa) = 34.72058 72.06735 71.62600
#
# Poissons Ratio (x) = 0.64838 0.66357
# Poissons Ratio (y) = 0.31238 -0.01898
# Poissons Ratio (z) = 0.32167 -0.01910
#
# Static dielectric constant tensor:
#      x y z
#    x 1.667660 0.000000 0.000000 
#    y 0.000000 1.500340 0.000000 
#    z 0.000000 0.000000 1.655180 
# 
# From -- ./inp_files/29165.got.cif
#   From: 2010.05.17/outbox.cif.g08.bks.cpg/sg59_15_cif.got.tgz:29165.got - 2010.06.03 14:40:33.
