data_PCOD9449851
_publ_section_title
;
Structure prediction by ZEFSAII (Michael W. Deem and Ramdas Pophale) SiO2 
 PCOD9449851
Probable space group: P M M N
;
_chemical_formula_sum "Si O2"
_cell_formula_units_Z 48
_cell_length_a 8.692765
_cell_length_b 21.244760
_cell_length_c 15.333453
_cell_angle_alpha 90.000000
_cell_angle_beta 90.000000
_cell_angle_gamma 90.000000
_cell_volume 2831.716261
_symmetry_space_group_name_H-M "P M M N"
_symmetry_group_IT_number 59
_space_group.IT_coordinate_system_code '2'
_symmetry_cell_setting 'orthorhombic'
loop_
_space_group_symop_operation_xyz
x,y,z
1/2-x,1/2-y,z
1/2+x,-y,-z
-x,1/2+y,-z
-x,-y,-z
1/2+x,1/2+y,-z
1/2-x,y,z
x,1/2-y,z
loop_
_atom_site_type_symbol
_atom_site_label
_atom_site_fract_x
_atom_site_fract_y
_atom_site_fract_z
Si Si1 0.434928 0.318096 0.387153
Si Si2 0.064865 0.041165 0.421382
Si Si3 0.569441 0.009977 0.234236
Si Si4 0.567556 0.448709 0.931860
Si Si5 0.566945 0.819168 0.000359
Si Si6 0.069459 0.140175 0.193350
O O1 0.250000 0.317349 0.399972
O O2 0.495339 0.250000 0.418351
O O3 0.489094 0.385289 0.424954
O O4 0.460339 0.323201 0.282891
O O5 0.250000 0.041147 0.422885
O O6 0.008827 0.012992 0.329078
O O7 0.000000 0.000000 0.500000
O O8 0.750000 0.998889 0.243504
O O9 0.536109 0.078852 0.193823
O O10 0.496897 0.962803 0.164438
O O11 0.750000 0.455772 0.932305
O O12 0.518493 0.378974 0.960486
O O13 0.500000 0.500000 0.000000
O O14 0.750000 0.825657 0.017453
O O15 0.516706 0.750000 0.031147
O O16 0.548311 0.822652 0.895606
O O17 0.250000 0.119857 0.196816
#
# Coordination Sequence:
#
# PCOD9449851 Si02
#       6
#     8   8   8   8   8   8
#     4   8  14  26  47  75 104 135 170 207 252 311
#     4  10  20  35  56  81 109 139 175 220 269 325
#     4  11  21  34  54  79 106 139 179 225 271 322
#     4  12  23  36  54  77 107 144 187 230 270 319
#     4  10  20  33  51  76 108 146 185 225 272 327
#     4   9  16  28  48  74 106 140 174 211 257 318
#
# _framework density 16.950851
#
# number of rings (size 3 to 8) (size 9 to 14) (size 15 to 20)
#    0.000    2.000    1.667    5.000    0.000    2.333 
#    0.000    0.000    0.000   17.500    0.000    2.333 
#    0.000    0.000    0.000    0.000    0.000    0.000 
#
# Total GULP energy -267672.521454 kJ/mol
# GULP energy per Si atom -5576.510864 kJ/mol
# Density = 1.691227 g / cm^3
# Si number density = 16.950851 Si / 1000 Ang^3
#
#
#
# Elastic Constant Matrix: (Units=GPa)
#
#
# Indices 1 2 3 4 5 6 
#
# 1 79.5550 48.1554 36.8531 0.0000 0.0000 0.0000
# 2 48.1554 136.1970 67.6850 0.0000 0.0000 0.0000
# 3 36.8531 67.6850 84.9246 0.0000 0.0000 0.0000
# 4 0.0000 0.0000 0.0000 13.7654 0.0000 0.0000
# 5 0.0000 0.0000 0.0000 0.0000 25.4082 0.0000
# 6 0.0000 0.0000 0.0000 0.0000 0.0000 20.6723
#
#
#
# Elastic Compliance Matrix: (Units=1/GPa)
#
#
# Indices 1 2 3 4 5 6 
#
# 1 0.016871 -0.003853 -0.004251 0.000000 0.000000 0.000000
# 2 -0.003853 0.013038 -0.008719 0.000000 0.000000 0.000000
# 3 -0.004251 -0.008719 0.020569 0.000000 0.000000 0.000000
# 4 0.000000 0.000000 0.000000 0.072646 0.000000 0.000000
# 5 0.000000 0.000000 0.000000 0.000000 0.039357 0.000000
# 6 0.000000 0.000000 0.000000 0.000000 0.000000 0.048374
#
#
# Mechanical properties :
#
#
# Convention : Reuss Voigt Hill
#
# Bulk Modulus (GPa) = 59.40827 67.34040 63.37434
# Shear Modulus (GPa) = 19.99119 21.83472 20.91295
#
# Velocity S-wave (km/s) = 3.43791 3.59293 3.51627
# Velocity P-wave (km/s) = 7.13319 7.55151 7.34533
#
# Compressibility (1/GPa) = 0.01683267
#
# Stress axis : x y z
#
# Youngs Moduli (GPa) = 59.27311 76.70124 48.61734
#
# Poissons Ratio (x) = 0.29551 0.20665
# Poissons Ratio (y) = 0.22836 0.42390
# Poissons Ratio (z) = 0.25194 0.66876
#
# Static dielectric constant tensor:
#      x y z
#    x 1.578400 0.000000 0.000000 
#    y 0.000000 1.601700 0.000000 
#    z 0.000000 0.000000 1.559120 
# 
# From -- ./inp_files/20699.got.cif
#   From: 2010.05.17/outbox.cif.g08.bks.cpg/sg59_11_cif.got.tgz:20699.got - 2010.06.03 14:40:33.
