data_PCOD9449140
_publ_section_title
;
Structure prediction by ZEFSAII (Michael W. Deem and Ramdas Pophale) SiO2 
 PCOD9449140
Probable space group: P M M N
;
_chemical_formula_sum "Si O2"
_cell_formula_units_Z 40
_cell_length_a 15.477329
_cell_length_b 13.573165
_cell_length_c 7.622511
_cell_angle_alpha 90.000000
_cell_angle_beta 90.000000
_cell_angle_gamma 90.000000
_cell_volume 1601.309215
_symmetry_space_group_name_H-M "P M M N"
_symmetry_group_IT_number 59
_space_group.IT_coordinate_system_code '2'
_symmetry_cell_setting 'orthorhombic'
loop_
_space_group_symop_operation_xyz
x,y,z
1/2-x,1/2-y,z
1/2+x,-y,-z
-x,1/2+y,-z
-x,-y,-z
1/2+x,1/2+y,-z
1/2-x,y,z
x,1/2-y,z
loop_
_atom_site_type_symbol
_atom_site_label
_atom_site_fract_x
_atom_site_fract_y
_atom_site_fract_z
Si Si1 0.911244 0.634370 0.027421
Si Si2 0.658379 0.367427 0.182365
Si Si3 0.155983 0.131946 0.591147
Si Si4 0.963817 0.130869 0.481818
Si Si5 0.095835 0.945674 0.166408
O O1 0.914102 0.750000 0.981625
O O2 0.891587 0.562078 0.866750
O O3 0.850148 0.619869 0.196694
O O4 0.003251 0.596852 0.099620
O O5 0.750000 0.398098 0.262296
O O6 0.654053 0.250000 0.186484
O O7 0.577542 0.402328 0.297930
O O8 0.655746 0.399338 0.982080
O O9 0.250000 0.095106 0.527838
O O10 0.155816 0.250000 0.560910
O O11 0.062724 0.098214 0.515732
O O12 0.964069 0.250000 0.488527
O O13 0.901582 0.093498 0.637447
#
# Coordination Sequence:
#
# PCOD9449140 Si02
#       5
#     8   8   8   8   8
#     4   9  18  33  56  87 117 148 195 249 298 359
#     4  10  21  36  57  88 123 159 204 258 309 360
#     4   8  14  28  52  78 107 150 196 236 291 357
#     4   9  18  34  57  87 123 159 200 253 306 362
#     4  10  19  35  60  84 114 159 199 241 307 371
#
# _framework density 24.979558999999998
#
# number of rings (size 3 to 8) (size 9 to 14) (size 15 to 20)
#    0.000    2.800    0.000    3.000    0.000    1.600 
#    0.000   11.000    0.000   10.800    0.000   22.400 
#    0.000    0.000    0.000    0.000    0.000    0.000 
#
# Total GULP energy -223601.748048 kJ/mol
# GULP energy per Si atom -5590.043701 kJ/mol
# Density = 2.492270 g / cm^3
# Si number density = 24.979559 Si / 1000 Ang^3
#
#
#
# Elastic Constant Matrix: (Units=GPa)
#
#
# Indices 1 2 3 4 5 6 
#
# 1 159.6946 40.7610 63.0988 0.0000 0.0000 0.0000
# 2 40.7610 115.5307 15.9553 0.0000 0.0000 0.0000
# 3 63.0988 15.9553 113.6576 0.0000 0.0000 0.0000
# 4 0.0000 0.0000 0.0000 33.0193 0.0000 0.0000
# 5 0.0000 0.0000 0.0000 0.0000 19.8385 0.0000
# 6 0.0000 0.0000 0.0000 0.0000 0.0000 -9.2738
#
#
#
# Elastic Compliance Matrix: (Units=1/GPa)
#
#
# Indices 1 2 3 4 5 6 
#
# 1 0.008645 -0.002434 -0.004457 0.000000 0.000000 0.000000
# 2 -0.002434 0.009512 0.000016 0.000000 0.000000 0.000000
# 3 -0.004457 0.000016 0.011271 0.000000 0.000000 0.000000
# 4 0.000000 0.000000 0.000000 0.030285 0.000000 0.000000
# 5 0.000000 0.000000 0.000000 0.000000 0.050407 0.000000
# 6 0.000000 0.000000 0.000000 0.000000 0.000000 -0.107830
#
#
# Mechanical properties :
#
#
# Convention : Reuss Voigt Hill
#
# Bulk Modulus (GPa) = 63.79056 69.83480 66.81268
# Shear Modulus (GPa) = 235.11340 26.65464 130.88402
#
# Velocity S-wave (km/s) = 9.71219 3.27013 7.24639
# Velocity P-wave (km/s) = 12.30290 6.50198 9.83964
#
# Compressibility (1/GPa) = 0.01567630
#
# Stress axis : x y z
#
# Youngs Moduli (GPa) = 115.68028 105.12648 88.72574
#
# Poissons Ratio (x) = 0.25591 0.39549
# Poissons Ratio (y) = 0.28160 -0.00143
# Poissons Ratio (z) = 0.51563 -0.00169
#
# Static dielectric constant tensor:
#      x y z
#    x 2.093700 0.000000 0.000000 
#    y 0.000000 1.987370 0.000000 
#    z 0.000000 0.000000 1.992930 
# 
# From -- ./inp_files/8623.got.cif
#   From: 2010.05.17/outbox.cif.g08.bks.cpg/sg59_5_cif.got.tgz:8623.got - 2010.06.03 14:40:33.
