data_PCOD9449651
_publ_section_title
;
Structure prediction by ZEFSAII (Michael W. Deem and Ramdas Pophale) SiO2 
 PCOD9449651
Probable space group: P M M N
;
_chemical_formula_sum "Si O2"
_cell_formula_units_Z 40
_cell_length_a 22.533530
_cell_length_b 7.963114
_cell_length_c 11.928218
_cell_angle_alpha 90.000000
_cell_angle_beta 90.000000
_cell_angle_gamma 90.000000
_cell_volume 2140.364467
_symmetry_space_group_name_H-M "P M M N"
_symmetry_group_IT_number 59
_space_group.IT_coordinate_system_code '2'
_symmetry_cell_setting 'orthorhombic'
loop_
_space_group_symop_operation_xyz
x,y,z
1/2-x,1/2-y,z
1/2+x,-y,-z
-x,1/2+y,-z
-x,-y,-z
1/2+x,1/2+y,-z
1/2-x,y,z
x,1/2-y,z
loop_
_atom_site_type_symbol
_atom_site_label
_atom_site_fract_x
_atom_site_fract_y
_atom_site_fract_z
Si Si1 0.416154 0.546352 0.451799
Si Si2 0.182081 0.955222 0.025297
Si Si3 0.557669 0.446139 0.072358
Si Si4 0.964936 0.551616 0.324787
Si Si5 0.316128 0.954477 0.283891
O O1 0.417271 0.750000 0.455453
O O2 0.416573 0.483563 0.579092
O O3 0.474882 0.488543 0.384701
O O4 0.362023 0.487526 0.376174
O O5 0.250000 0.009726 0.994236
O O6 0.183760 0.750000 0.018887
O O7 0.171631 0.002385 0.155508
O O8 0.123170 0.017134 0.960259
O O9 0.562611 0.250000 0.049718
O O10 0.546242 0.474899 0.203776
O O11 0.500000 0.500000 0.000000
O O12 0.971104 0.750000 0.307676
O O13 0.250000 0.008714 0.311875
O O14 0.317752 0.750000 0.284477
#
# Coordination Sequence:
#
# PCOD9449651 Si02
#       5
#     8   8   8   8   8
#     4   9  17  31  50  71  95 123 157 198 244 292
#     4   8  15  29  49  73 100 130 165 205 246 288
#     4  11  21  33  52  77 103 131 166 208 251 296
#     4  10  20  33  49  70  97 129 163 200 244 292
#     4   8  13  24  46  73  95 116 150 198 244 283
#
# _framework density 18.688407000000002
#
# number of rings (size 3 to 8) (size 9 to 14) (size 15 to 20)
#    0.000    2.800    0.000    3.600    0.000    4.000 
#    0.000    1.000    0.000    9.000    0.000    5.600 
#    0.000    0.000    0.000    0.000    0.000    0.000 
#
# Total GULP energy -222785.983754 kJ/mol
# GULP energy per Si atom -5569.649594 kJ/mol
# Density = 1.864587 g / cm^3
# Si number density = 18.688407 Si / 1000 Ang^3
#
#
#
# Elastic Constant Matrix: (Units=GPa)
#
#
# Indices 1 2 3 4 5 6 
#
# 1 126.2130 8.3598 92.4221 0.0000 0.0000 0.0000
# 2 8.3598 13.7368 -4.8023 0.0000 0.0000 0.0000
# 3 92.4221 -4.8023 119.9152 0.0000 0.0000 0.0000
# 4 0.0000 0.0000 0.0000 23.6517 0.0000 0.0000
# 5 0.0000 0.0000 0.0000 0.0000 35.3603 0.0000
# 6 0.0000 0.0000 0.0000 0.0000 0.0000 15.0245
#
#
#
# Elastic Compliance Matrix: (Units=1/GPa)
#
#
# Indices 1 2 3 4 5 6 
#
# 1 0.022604 -0.020128 -0.018227 0.000000 0.000000 0.000000
# 2 -0.020128 0.091755 0.019188 0.000000 0.000000 0.000000
# 3 -0.018227 0.019188 0.023156 0.000000 0.000000 0.000000
# 4 0.000000 0.000000 0.000000 0.042280 0.000000 0.000000
# 5 0.000000 0.000000 0.000000 0.000000 0.028280 0.000000
# 6 0.000000 0.000000 0.000000 0.000000 0.000000 0.066558
#
#
# Mechanical properties :
#
#
# Convention : Reuss Voigt Hill
#
# Bulk Modulus (GPa) = 10.08278 50.20269 30.14274
# Shear Modulus (GPa) = 14.44970 25.73302 20.09136
#
# Velocity S-wave (km/s) = 2.78365 3.71475 3.28238
# Velocity P-wave (km/s) = 3.96718 6.73205 5.52535
#
# Compressibility (1/GPa) = 0.09917896
#
# Stress axis : x y z
#
# Youngs Moduli (GPa) = 44.24041 10.89864 43.18516
#
# Poissons Ratio (x) = 0.21937 0.78716
# Poissons Ratio (y) = 0.89048 -0.82864
# Poissons Ratio (z) = 0.80639 -0.20912
#
# Static dielectric constant tensor:
#      x y z
#    x 1.694570 0.000000 0.000000 
#    y 0.000000 1.707390 0.000000 
#    z 0.000000 0.000000 1.617390 
# 
# From -- ./inp_files/14035.got.cif
#   From: 2010.05.17/outbox.cif.g08.bks.cpg/sg59_8_cif.got.tgz:14035.got - 2010.06.03 14:40:33.
