data_PCOD9449264
_publ_section_title
;
Structure prediction by ZEFSAII (Michael W. Deem and Ramdas Pophale) SiO2 
 PCOD9449264
Probable space group: P M M N
;
_chemical_formula_sum "Si O2"
_cell_formula_units_Z 64
_cell_length_a 7.501209
_cell_length_b 15.171855
_cell_length_c 24.992170
_cell_angle_alpha 90.000000
_cell_angle_beta 90.000000
_cell_angle_gamma 90.000000
_cell_volume 2844.290271
_symmetry_space_group_name_H-M "P M M N"
_symmetry_group_IT_number 59
_space_group.IT_coordinate_system_code '2'
_symmetry_cell_setting 'orthorhombic'
loop_
_space_group_symop_operation_xyz
x,y,z
1/2-x,1/2-y,z
1/2+x,-y,-z
-x,1/2+y,-z
-x,-y,-z
1/2+x,1/2+y,-z
1/2-x,y,z
x,1/2-y,z
loop_
_atom_site_type_symbol
_atom_site_label
_atom_site_fract_x
_atom_site_fract_y
_atom_site_fract_z
Si Si1 0.537489 0.901203 0.016806
Si Si2 0.042637 0.651318 0.252331
Si Si3 0.450849 0.352772 0.095589
Si Si4 0.034414 0.477799 0.304440
Si Si5 0.957087 0.649520 0.475955
Si Si6 0.968586 0.851983 0.791147
Si Si7 0.959616 0.031345 0.426505
Si Si8 0.043453 0.356047 0.866835
O O1 0.750000 0.879256 0.020869
O O2 0.465311 0.886766 0.076413
O O3 0.465803 0.854689 0.963292
O O4 0.500000 0.000000 0.000000
O O5 0.250000 0.659405 0.266480
O O6 0.963481 0.750000 0.255417
O O7 0.965626 0.575392 0.289538
O O8 0.036819 0.619795 0.190405
O O9 0.250000 0.390874 0.089957
O O10 0.433927 0.250000 0.108341
O O11 0.531400 0.388882 0.150687
O O12 0.250000 0.479502 0.301628
O O13 0.973778 0.410918 0.258432
O O14 0.985019 0.451743 0.364158
O O15 0.750000 0.657001 0.460364
O O16 0.031179 0.750000 0.472533
O O17 0.033124 0.566794 0.441459
O O18 0.964738 0.608317 0.535740
O O19 0.750000 0.853667 0.793516
O O20 0.022356 0.750000 0.783437
O O21 0.750000 0.029304 0.438935
O O22 0.250000 0.383555 0.864760
O O23 0.035267 0.250000 0.869390
#
# Coordination Sequence:
#
# PCOD9449264 Si02
#       8
#     8   8   8   8   8   8   8   8
#     4  10  20  30  45  70  96 120 153 201 258 318
#     4   9  19  34  51  73 101 135 176 219 264 316
#     4   8  14  27  47  67  87 116 159 208 251 296
#     4  10  20  33  52  76 106 142 177 217 260 309
#     4   9  19  38  62  84 111 149 187 221 259 308
#     4   8  15  28  47  71  94 122 168 218 256 296
#     4  10  21  36  55  85 118 145 181 225 268 312
#     4   9  18  33  50  68  93 126 164 208 260 317
#
# _framework density 22.50122
#
# number of rings (size 3 to 8) (size 9 to 14) (size 15 to 20)
#    0.000    2.875    0.000    1.500    1.750    4.250 
#    0.000    1.250    0.000    1.125    0.000    1.750 
#    0.000    0.000    0.000    0.000    0.000    0.000 
#
# Total GULP energy -356609.369237 kJ/mol
# GULP energy per Si atom -5572.021394 kJ/mol
# Density = 2.245001 g / cm^3
# Si number density = 22.501220 Si / 1000 Ang^3
#
#
#
# Elastic Constant Matrix: (Units=GPa)
#
#
# Indices 1 2 3 4 5 6 
#
# 1 61.3424 -1.4221 -13.5672 0.0000 0.0000 0.0000
# 2 -1.4221 54.4742 -19.1531 0.0000 0.0000 0.0000
# 3 -13.5672 -19.1531 42.7903 0.0000 0.0000 0.0000
# 4 0.0000 0.0000 0.0000 83.1445 0.0000 0.0000
# 5 0.0000 0.0000 0.0000 0.0000 12.6021 0.0000
# 6 0.0000 0.0000 0.0000 0.0000 0.0000 3.8351
#
#
#
# Elastic Compliance Matrix: (Units=1/GPa)
#
#
# Indices 1 2 3 4 5 6 
#
# 1 0.017916 0.002925 0.006990 0.000000 0.000000 0.000000
# 2 0.002925 0.022264 0.010893 0.000000 0.000000 0.000000
# 3 0.006990 0.010893 0.030462 0.000000 0.000000 0.000000
# 4 0.000000 0.000000 0.000000 0.012027 0.000000 0.000000
# 5 0.000000 0.000000 0.000000 0.000000 0.079352 0.000000
# 6 0.000000 0.000000 0.000000 0.000000 0.000000 0.260749
#
#
# Mechanical properties :
#
#
# Convention : Reuss Voigt Hill
#
# Bulk Modulus (GPa) = 8.90817 10.03580 9.47198
# Shear Modulus (GPa) = 11.94538 32.76632 22.35585
#
# Velocity S-wave (km/s) = 2.30658 3.82016 3.15547
# Velocity P-wave (km/s) = 3.32585 4.89162 4.18266
#
# Compressibility (1/GPa) = 0.11225645
#
# Stress axis : x y z
#
# Youngs Moduli (GPa) = 55.81699 44.91647 32.82824
#
# Poissons Ratio (x) = -0.13139 -0.22946
# Poissons Ratio (y) = -0.16328 -0.35759
# Poissons Ratio (z) = -0.39015 -0.48926
#
# Static dielectric constant tensor:
#      x y z
#    x 1.875730 0.000000 0.000000 
#    y 0.000000 1.837430 0.000000 
#    z 0.000000 0.000000 1.849070 
# 
# From -- ./inp_files/31496.got.cif
#   From: 2010.05.17/outbox.cif.g08.bks.cpg/sg59_16_cif.got.tgz:31496.got - 2010.06.03 14:40:33.
