data_PCOD9449869
_publ_section_title
;
Structure prediction by ZEFSAII (Michael W. Deem and Ramdas Pophale) SiO2 
 PCOD9449869
Probable space group: P M M N
;
_chemical_formula_sum "Si O2"
_cell_formula_units_Z 48
_cell_length_a 18.487642
_cell_length_b 7.576431
_cell_length_c 15.889862
_cell_angle_alpha 90.000000
_cell_angle_beta 90.000000
_cell_angle_gamma 90.000000
_cell_volume 2225.698436
_symmetry_space_group_name_H-M "P M M N"
_symmetry_group_IT_number 59
_space_group.IT_coordinate_system_code '2'
_symmetry_cell_setting 'orthorhombic'
loop_
_space_group_symop_operation_xyz
x,y,z
1/2-x,1/2-y,z
1/2+x,-y,-z
-x,1/2+y,-z
-x,-y,-z
1/2+x,1/2+y,-z
1/2-x,y,z
x,1/2-y,z
loop_
_atom_site_type_symbol
_atom_site_label
_atom_site_fract_x
_atom_site_fract_y
_atom_site_fract_z
Si Si1 0.167057 0.963384 0.988162
Si Si2 0.166674 0.534190 0.327536
Si Si3 0.922733 0.959347 0.178815
Si Si4 0.413607 0.533804 0.157217
Si Si5 0.668277 0.540887 0.335700
Si Si6 0.415237 0.540395 0.493864
O O1 0.250000 0.025345 0.987394
O O2 0.168517 0.750000 0.990695
O O3 0.125093 0.015822 0.904093
O O4 0.124678 0.024515 0.071298
O O5 0.250000 0.479051 0.334061
O O6 0.165965 0.750000 0.327815
O O7 0.130880 0.479686 0.239699
O O8 0.120479 0.472218 0.407649
O O9 0.931817 0.750000 0.193363
O O10 0.880550 0.033131 0.259862
O O11 0.003714 0.028492 0.164724
O O12 0.413648 0.750000 0.155502
O O13 0.750000 0.468146 0.337912
O O14 0.674735 0.750000 0.319758
O O15 0.627952 0.521416 0.424208
O O16 0.500000 0.500000 0.500000
O O17 0.407671 0.750000 0.491871
#
# Coordination Sequence:
#
# PCOD9449869 Si02
#       6
#     8   8   8   8   8   8
#     4  10  20  33  51  77 106 135 171 218 268 313
#     4   9  17  31  53  79 104 132 170 215 261 313
#     4  10  20  35  55  77 104 141 180 216 261 320
#     4   9  17  31  52  77 105 135 169 213 264 317
#     4  10  21  37  56  79 109 144 181 223 272 323
#     4  11  22  36  56  82 111 143 181 223 268 320
#
# _framework density 21.566264
#
# number of rings (size 3 to 8) (size 9 to 14) (size 15 to 20)
#    0.000    2.167    0.000    3.500    0.000    7.333 
#    0.000    0.000    0.000    2.000    0.000    0.000 
#    0.000    0.000    0.000    0.000    0.000    0.000 
#
# Total GULP energy -268313.614647 kJ/mol
# GULP energy per Si atom -5589.866972 kJ/mol
# Density = 2.151718 g / cm^3
# Si number density = 21.566264 Si / 1000 Ang^3
#
#
#
# Elastic Constant Matrix: (Units=GPa)
#
#
# Indices 1 2 3 4 5 6 
#
# 1 142.5139 -17.1101 31.0039 0.0000 0.0000 0.0000
# 2 -17.1101 42.4524 -25.9483 0.0000 0.0000 0.0000
# 3 31.0039 -25.9483 116.8820 0.0000 0.0000 0.0000
# 4 0.0000 0.0000 0.0000 -27.2965 0.0000 0.0000
# 5 0.0000 0.0000 0.0000 0.0000 44.1461 0.0000
# 6 0.0000 0.0000 0.0000 0.0000 0.0000 -7.2152
#
#
#
# Elastic Compliance Matrix: (Units=1/GPa)
#
#
# Indices 1 2 3 4 5 6 
#
# 1 0.007608 0.002121 -0.001547 0.000000 0.000000 0.000000
# 2 0.002121 0.027845 0.005619 0.000000 0.000000 0.000000
# 3 -0.001547 0.005619 0.010214 0.000000 0.000000 0.000000
# 4 0.000000 0.000000 0.000000 -0.036635 0.000000 0.000000
# 5 0.000000 0.000000 0.000000 0.000000 0.022652 0.000000
# 6 0.000000 0.000000 0.000000 0.000000 0.000000 -0.138596
#
#
# Mechanical properties :
#
#
# Convention : Reuss Voigt Hill
#
# Bulk Modulus (GPa) = 17.22601 30.85995 24.04298
# Shear Modulus (GPa) = -50.02706 22.85372 -13.58667
#
# Velocity S-wave (km/s) = -4.82154 3.25883 -2.51270
# Velocity P-wave (km/s) = 4.79495 5.33858 1.65965
#
# Compressibility (1/GPa) = 0.05805176
#
# Stress axis : x y z
#
# Youngs Moduli (GPa) = 131.43925 35.91292 97.90901
#
# Poissons Ratio (x) = -0.07616 0.15150
# Poissons Ratio (y) = -0.27873 -0.55017
# Poissons Ratio (z) = 0.20338 -0.20180
#
# Static dielectric constant tensor:
#      x y z
#    x 1.747590 0.000000 0.000000 
#    y 0.000000 1.828920 0.000000 
#    z 0.000000 0.000000 1.723100 
# 
# From -- ./inp_files/23651.got.cif
#   From: 2010.05.17/outbox.cif.g08.bks.cpg/sg59_12_cif.got.tgz:23651.got - 2010.06.03 14:40:33.
