data_PCOD9449665
_publ_section_title
;
Structure prediction by ZEFSAII (Michael W. Deem and Ramdas Pophale) SiO2 
 PCOD9449665
Probable space group: P M M N
;
_chemical_formula_sum "Si O2"
_cell_formula_units_Z 64
_cell_length_a 8.871629
_cell_length_b 30.407690
_cell_length_c 15.140631
_cell_angle_alpha 90.000000
_cell_angle_beta 90.000000
_cell_angle_gamma 90.000000
_cell_volume 4084.423593
_symmetry_space_group_name_H-M "P M M N"
_symmetry_group_IT_number 59
_space_group.IT_coordinate_system_code '2'
_symmetry_cell_setting 'orthorhombic'
loop_
_space_group_symop_operation_xyz
x,y,z
1/2-x,1/2-y,z
1/2+x,-y,-z
-x,1/2+y,-z
-x,-y,-z
1/2+x,1/2+y,-z
1/2-x,y,z
x,1/2-y,z
loop_
_atom_site_type_symbol
_atom_site_label
_atom_site_fract_x
_atom_site_fract_y
_atom_site_fract_z
Si Si1 0.929440 0.385823 0.297855
Si Si2 0.072615 0.799516 0.806481
Si Si3 0.429711 0.200081 0.001916
Si Si4 0.930653 0.561769 0.864472
Si Si5 0.569000 0.037282 0.820207
Si Si6 0.070652 0.436048 0.446144
Si Si7 0.930652 0.390408 0.964951
Si Si8 0.570138 0.525639 0.369783
O O1 0.750000 0.392842 0.296088
O O2 0.962528 0.336809 0.264006
O O3 0.006480 0.417877 0.226255
O O4 0.993448 0.396635 0.393814
O O5 0.250000 0.804411 0.830965
O O6 0.050749 0.750000 0.773001
O O7 0.976635 0.804808 0.895282
O O8 0.250000 0.196872 0.993517
O O9 0.475835 0.250000 0.975507
O O10 0.507153 0.158945 0.954259
O O11 0.750000 0.566379 0.867279
O O12 0.969004 0.509894 0.864439
O O13 0.002589 0.588008 0.945933
O O14 0.750000 0.037645 0.807838
O O15 0.527897 0.077260 0.884551
O O16 0.491044 0.039549 0.725107
O O17 0.250000 0.434494 0.434442
O O18 0.037738 0.440545 0.550222
O O19 0.007788 0.480283 0.399990
O O20 0.750000 0.389148 0.972746
O O21 0.750000 0.518867 0.366155
#
# Coordination Sequence:
#
# PCOD9449665 Si02
#       8
#     8   8   8   8   8   8   8   8
#     4  11  20  30  49  75  99 131 169 201 241 296
#     4   9  18  32  49  69  96 128 161 201 245 290
#     4  10  20  33  50  72  96 125 163 205 250 295
#     4  11  21  33  48  69 100 137 170 205 242 282
#     4  10  22  36  50  69  98 134 170 208 248 289
#     4  10  20  33  49  71  99 128 160 200 245 291
#     4  11  22  35  50  71  98 133 171 204 245 297
#     4  10  20  33  51  72  94 126 166 205 244 287
#
# _framework density 15.669285
#
# number of rings (size 3 to 8) (size 9 to 14) (size 15 to 20)
#    0.000    1.750    2.500    2.625    0.000    4.250 
#    0.000    0.000    0.000    0.000    0.000    0.875 
#    0.000    3.000    0.000    0.000    0.000    0.000 
#
# Total GULP energy -357179.776648 kJ/mol
# GULP energy per Si atom -5580.934010 kJ/mol
# Density = 1.563362 g / cm^3
# Si number density = 15.669285 Si / 1000 Ang^3
#
#
#
# Elastic Constant Matrix: (Units=GPa)
#
#
# Indices 1 2 3 4 5 6 
#
# 1 45.9350 43.8415 28.5565 0.0000 0.0000 0.0000
# 2 43.8415 119.5785 44.4255 0.0000 0.0000 0.0000
# 3 28.5565 44.4255 66.6054 0.0000 0.0000 0.0000
# 4 0.0000 0.0000 0.0000 21.4604 0.0000 0.0000
# 5 0.0000 0.0000 0.0000 0.0000 26.2500 0.0000
# 6 0.0000 0.0000 0.0000 0.0000 0.0000 22.2011
#
#
#
# Elastic Compliance Matrix: (Units=1/GPa)
#
#
# Indices 1 2 3 4 5 6 
#
# 1 0.037234 -0.010264 -0.009118 0.000000 0.000000 0.000000
# 2 -0.010264 0.013947 -0.004902 0.000000 0.000000 0.000000
# 3 -0.009118 -0.004902 0.022193 0.000000 0.000000 0.000000
# 4 0.000000 0.000000 0.000000 0.046597 0.000000 0.000000
# 5 0.000000 0.000000 0.000000 0.000000 0.038095 0.000000
# 6 0.000000 0.000000 0.000000 0.000000 0.000000 0.045043
#
#
# Mechanical properties :
#
#
# Convention : Reuss Voigt Hill
#
# Bulk Modulus (GPa) = 40.31234 51.75176 46.03205
# Shear Modulus (GPa) = 19.23476 21.66866 20.45171
#
# Velocity S-wave (km/s) = 3.50744 3.72274 3.61669
# Velocity P-wave (km/s) = 6.49505 7.18175 6.84701
#
# Compressibility (1/GPa) = 0.02480630
#
# Stress axis : x y z
#
# Youngs Moduli (GPa) = 26.85688 71.70009 45.05990
#
# Poissons Ratio (x) = 0.73592 0.41086
# Poissons Ratio (y) = 0.27566 0.22088
# Poissons Ratio (z) = 0.24488 0.35147
#
# Static dielectric constant tensor:
#      x y z
#    x 1.526160 0.000000 0.000000 
#    y 0.000000 1.535680 0.000000 
#    z 0.000000 0.000000 1.501090 
# 
# From -- ./inp_files/21876.got.cif
#   From: 2010.05.17/outbox.cif.g08.bks.cpg/sg59_11_cif.got.tgz:21876.got - 2010.06.03 14:40:33.
