data_PCOD9449897
_publ_section_title
;
Structure prediction by ZEFSAII (Michael W. Deem and Ramdas Pophale) SiO2 
 PCOD9449897
Probable space group: P M M N
;
_chemical_formula_sum "Si O2"
_cell_formula_units_Z 48
_cell_length_a 9.592649
_cell_length_b 20.175071
_cell_length_c 12.646998
_cell_angle_alpha 90.000000
_cell_angle_beta 90.000000
_cell_angle_gamma 90.000000
_cell_volume 2447.603555
_symmetry_space_group_name_H-M "P M M N"
_symmetry_group_IT_number 59
_space_group.IT_coordinate_system_code '2'
_symmetry_cell_setting 'orthorhombic'
loop_
_space_group_symop_operation_xyz
x,y,z
1/2-x,1/2-y,z
1/2+x,-y,-z
-x,1/2+y,-z
-x,-y,-z
1/2+x,1/2+y,-z
1/2-x,y,z
x,1/2-y,z
loop_
_atom_site_type_symbol
_atom_site_label
_atom_site_fract_x
_atom_site_fract_y
_atom_site_fract_z
Si Si1 0.413670 0.470624 0.902055
Si Si2 0.589244 0.986637 0.334124
Si Si3 0.409632 0.901313 0.482458
Si Si4 0.413867 0.174125 0.964469
Si Si5 0.907502 0.329709 0.174303
Si Si6 0.094740 0.328559 0.369535
O O1 0.250000 0.481419 0.924358
O O2 0.446071 0.501975 0.787727
O O3 0.434360 0.390634 0.892172
O O4 0.500000 0.500000 0.000000
O O5 0.750000 0.961557 0.333000
O O6 0.479714 0.934663 0.381248
O O7 0.587662 0.045529 0.420431
O O8 0.250000 0.881778 0.465669
O O9 0.508593 0.844012 0.525660
O O10 0.250000 0.173473 0.996869
O O11 0.441306 0.250000 0.925680
O O12 0.513341 0.160910 0.064357
O O13 0.750000 0.357261 0.177771
O O14 0.895145 0.250000 0.186358
O O15 0.005150 0.352390 0.269648
O O16 0.250000 0.358294 0.372631
O O17 0.107734 0.250000 0.357635
#
# Coordination Sequence:
#
# PCOD9449897 Si02
#       6
#     8   8   8   8   8   8
#     4  10  22  38  57  83 114 148 188 237 283 333
#     4   9  20  39  57  78 109 144 185 229 278 335
#     4  10  20  35  58  82 107 143 184 230 278 330
#     4   9  18  34  54  77 107 145 186 225 274 335
#     4   9  17  29  47  73 106 142 179 222 270 322
#     4  10  20  33  51  78 111 145 182 226 276 331
#
# _framework density 19.611018999999999
#
# number of rings (size 3 to 8) (size 9 to 14) (size 15 to 20)
#    0.000    2.500    0.000    1.500    2.333    5.000 
#    0.000    0.833    0.000    3.000    0.000    0.000 
#    0.000    0.000    0.000    0.000    0.000    0.000 
#
# Total GULP energy -267569.510901 kJ/mol
# GULP energy per Si atom -5574.364810 kJ/mol
# Density = 1.956638 g / cm^3
# Si number density = 19.611019 Si / 1000 Ang^3
#
#
#
# Elastic Constant Matrix: (Units=GPa)
#
#
# Indices 1 2 3 4 5 6 
#
# 1 110.1349 28.2276 43.4640 0.0000 0.0000 0.0000
# 2 28.2276 63.6326 19.9043 0.0000 0.0000 0.0000
# 3 43.4640 19.9043 91.2842 0.0000 0.0000 0.0000
# 4 0.0000 0.0000 0.0000 30.5534 0.0000 0.0000
# 5 0.0000 0.0000 0.0000 0.0000 27.8243 0.0000
# 6 0.0000 0.0000 0.0000 0.0000 0.0000 22.0939
#
#
#
# Elastic Compliance Matrix: (Units=1/GPa)
#
#
# Indices 1 2 3 4 5 6 
#
# 1 0.011975 -0.003787 -0.004876 0.000000 0.000000 0.000000
# 2 -0.003787 0.018063 -0.002136 0.000000 0.000000 0.000000
# 3 -0.004876 -0.002136 0.013742 0.000000 0.000000 0.000000
# 4 0.000000 0.000000 0.000000 0.032730 0.000000 0.000000
# 5 0.000000 0.000000 0.000000 0.000000 0.035940 0.000000
# 6 0.000000 0.000000 0.000000 0.000000 0.000000 0.045261
#
#
# Mechanical properties :
#
#
# Convention : Reuss Voigt Hill
#
# Bulk Modulus (GPa) = 45.07909 49.80482 47.44195
# Shear Modulus (GPa) = 26.78077 27.65804 27.21941
#
# Velocity S-wave (km/s) = 3.69941 3.75951 3.72958
# Velocity P-wave (km/s) = 6.42526 6.65558 6.54143
#
# Compressibility (1/GPa) = 0.02218323
#
# Stress axis : x y z
#
# Youngs Moduli (GPa) = 83.51047 55.36165 72.76945
#
# Poissons Ratio (x) = 0.20964 0.35481
# Poissons Ratio (y) = 0.31624 0.15540
# Poissons Ratio (z) = 0.40718 0.11823
#
# Static dielectric constant tensor:
#      x y z
#    x 1.683090 0.000000 0.000000 
#    y 0.000000 1.759190 0.000000 
#    z 0.000000 0.000000 1.661170 
# 
# From -- ./inp_files/14296.got.cif
#   From: 2010.05.17/outbox.cif.g08.bks.cpg/sg59_8_cif.got.tgz:14296.got - 2010.06.03 14:40:33.
