data_PCOD9449075
_publ_section_title
;
Structure prediction by ZEFSAII (Michael W. Deem and Ramdas Pophale) SiO2 
 PCOD9449075
Probable space group: P M M N
;
_chemical_formula_sum "Si O2"
_cell_formula_units_Z 40
_cell_length_a 19.572299
_cell_length_b 7.612279
_cell_length_c 12.610616
_cell_angle_alpha 90.000000
_cell_angle_beta 90.000000
_cell_angle_gamma 90.000000
_cell_volume 1878.853164
_symmetry_space_group_name_H-M "P M M N"
_symmetry_group_IT_number 59
_space_group.IT_coordinate_system_code '2'
_symmetry_cell_setting 'orthorhombic'
loop_
_space_group_symop_operation_xyz
x,y,z
1/2-x,1/2-y,z
1/2+x,-y,-z
-x,1/2+y,-z
-x,-y,-z
1/2+x,1/2+y,-z
1/2-x,y,z
x,1/2-y,z
loop_
_atom_site_type_symbol
_atom_site_label
_atom_site_fract_x
_atom_site_fract_y
_atom_site_fract_z
Si Si1 0.430308 0.460519 0.562127
Si Si2 0.052761 0.034015 0.803602
Si Si3 0.672013 0.537361 0.614686
Si Si4 0.174030 0.455163 0.952973
Si Si5 0.399607 0.542888 0.163555
O O1 0.500000 0.500000 0.500000
O O2 0.423674 0.250000 0.568585
O O3 0.434617 0.524133 0.682676
O O4 0.368175 0.526086 0.489475
O O5 0.051152 0.250000 0.804614
O O6 0.113574 0.971863 0.879510
O O7 0.977500 0.975607 0.840499
O O8 0.750000 0.475253 0.619755
O O9 0.673125 0.750000 0.611640
O O10 0.630532 0.486311 0.719626
O O11 0.250000 0.532175 0.941155
O O12 0.178900 0.250000 0.924022
O O13 0.148882 0.464167 0.073989
O O14 0.401344 0.750000 0.142967
#
# Coordination Sequence:
#
# PCOD9449075 Si02
#       5
#     8   8   8   8   8
#     4  10  19  35  57  80 109 141 178 221 265 318
#     4   9  19  35  56  81 107 138 180 223 267 320
#     4  10  21  35  54  82 112 143 180 222 268 318
#     4  10  21  37  56  78 107 142 180 224 272 321
#     4  11  21  35  56  80 109 143 180 224 271 321
#
# _framework density 21.289583
#
# number of rings (size 3 to 8) (size 9 to 14) (size 15 to 20)
#    0.000    2.000    2.000    1.800    0.000    4.000 
#    0.000    6.000    0.000    0.000    0.000    2.800 
#    0.000    0.000    0.000    0.000    0.000    0.000 
#
# Total GULP energy -223496.234216 kJ/mol
# GULP energy per Si atom -5587.405855 kJ/mol
# Density = 2.124113 g / cm^3
# Si number density = 21.289583 Si / 1000 Ang^3
#
#
#
# Elastic Constant Matrix: (Units=GPa)
#
#
# Indices 1 2 3 4 5 6 
#
# 1 183.2306 3.4930 29.7938 0.0000 0.0000 0.0000
# 2 3.4930 44.1050 -9.3746 0.0000 0.0000 0.0000
# 3 29.7938 -9.3746 40.9680 0.0000 0.0000 0.0000
# 4 0.0000 0.0000 0.0000 8.3361 0.0000 0.0000
# 5 0.0000 0.0000 0.0000 0.0000 31.2222 0.0000
# 6 0.0000 0.0000 0.0000 0.0000 0.0000 10.9249
#
#
#
# Elastic Compliance Matrix: (Units=1/GPa)
#
#
# Indices 1 2 3 4 5 6 
#
# 1 0.006288 -0.001545 -0.004927 0.000000 0.000000 0.000000
# 2 -0.001545 0.024212 0.006664 0.000000 0.000000 0.000000
# 3 -0.004927 0.006664 0.029517 0.000000 0.000000 0.000000
# 4 0.000000 0.000000 0.000000 0.119960 0.000000 0.000000
# 5 0.000000 0.000000 0.000000 0.000000 0.032029 0.000000
# 6 0.000000 0.000000 0.000000 0.000000 0.000000 0.091534
#
#
# Mechanical properties :
#
#
# Convention : Reuss Voigt Hill
#
# Bulk Modulus (GPa) = 16.55576 35.12532 25.84054
# Shear Modulus (GPa) = 15.46606 26.38940 20.92773
#
# Velocity S-wave (km/s) = 2.69822 3.52454 3.13869
# Velocity P-wave (km/s) = 4.18336 5.75307 5.02983
#
# Compressibility (1/GPa) = 0.06040193
#
# Stress axis : x y z
#
# Youngs Moduli (GPa) = 159.02960 41.30179 33.87868
#
# Poissons Ratio (x) = 0.06382 0.16691
# Poissons Ratio (y) = 0.24573 -0.22577
# Poissons Ratio (z) = 0.78347 -0.27524
#
# Static dielectric constant tensor:
#      x y z
#    x 1.757340 0.000000 0.000000 
#    y 0.000000 1.823010 0.000000 
#    z 0.000000 0.000000 1.755780 
# 
# From -- ./inp_files/13823.got.cif
#   From: 2010.05.17/outbox.cif.g08.bks.cpg/sg59_7_cif.got.tgz:13823.got - 2010.06.03 14:40:33.
