data_PCOD9449034
_publ_section_title
;
Structure prediction by ZEFSAII (Michael W. Deem and Ramdas Pophale) SiO2 
 PCOD9449034
Probable space group: P M M N
;
_chemical_formula_sum "Si O2"
_cell_formula_units_Z 32
_cell_length_a 8.032815
_cell_length_b 13.131413
_cell_length_c 14.576347
_cell_angle_alpha 90.000000
_cell_angle_beta 90.000000
_cell_angle_gamma 90.000000
_cell_volume 1537.545314
_symmetry_space_group_name_H-M "P M M N"
_symmetry_group_IT_number 59
_space_group.IT_coordinate_system_code '2'
_symmetry_cell_setting 'orthorhombic'
loop_
_space_group_symop_operation_xyz
x,y,z
1/2-x,1/2-y,z
1/2+x,-y,-z
-x,1/2+y,-z
-x,-y,-z
1/2+x,1/2+y,-z
1/2-x,y,z
x,1/2-y,z
loop_
_atom_site_type_symbol
_atom_site_label
_atom_site_fract_x
_atom_site_fract_y
_atom_site_fract_z
Si Si1 0.568840 0.942306 0.827599
Si Si2 0.557236 0.420654 0.365275
Si Si3 0.250000 0.865722 0.152890
Si Si4 0.750000 0.132830 0.067604
Si Si5 0.451682 0.862538 0.430929
O O1 0.750000 0.908184 0.864535
O O2 0.539707 0.895864 0.727256
O O3 0.415475 0.918404 0.892387
O O4 0.594978 0.064427 0.816305
O O5 0.750000 0.395567 0.349758
O O6 0.504261 0.369855 0.460731
O O7 0.536485 0.541493 0.383624
O O8 0.250000 0.750000 0.185424
O O9 0.250000 0.867852 0.042370
O O10 0.750000 0.250000 0.098454
O O11 0.250000 0.875538 0.424356
O O12 0.494370 0.750000 0.396497
#
# Coordination Sequence:
#
# PCOD9449034 Si02
#       5
#     8   8   4   4   8
#     4  10  22  38  65  88 124 160 199 248 306 355
#     4  10  19  35  54  82 117 151 196 245 293 345
#     4   9  22  42  65  90 123 160 201 248 304 363
#     4  11  22  42  65  92 123 156 201 254 302 365
#     4   9  19  34  54  77 110 155 195 240 296 348
#
# _framework density 20.812397000000001
#
# number of rings (size 3 to 8) (size 9 to 14) (size 15 to 20)
#    0.750    1.500    1.250    1.500    0.000    4.000 
#    0.000    0.625    0.000    0.000    0.000    0.000 
#    0.000    0.000    0.000    0.000    0.000    0.000 
#
# Total GULP energy -178506.612498 kJ/mol
# GULP energy per Si atom -5578.331641 kJ/mol
# Density = 2.076503 g / cm^3
# Si number density = 20.812397 Si / 1000 Ang^3
#
#
#
# Elastic Constant Matrix: (Units=GPa)
#
#
# Indices 1 2 3 4 5 6 
#
# 1 86.1640 10.0657 22.8874 0.0000 0.0000 0.0000
# 2 10.0657 70.5563 -10.2608 0.0000 0.0000 0.0000
# 3 22.8874 -10.2608 54.0726 0.0000 0.0000 0.0000
# 4 0.0000 0.0000 0.0000 -2.5102 0.0000 0.0000
# 5 0.0000 0.0000 0.0000 0.0000 -42.4747 0.0000
# 6 0.0000 0.0000 0.0000 0.0000 0.0000 18.6750
#
#
#
# Elastic Compliance Matrix: (Units=1/GPa)
#
#
# Indices 1 2 3 4 5 6 
#
# 1 0.013615 -0.002859 -0.006305 0.000000 0.000000 0.000000
# 2 -0.002859 0.015176 0.004090 0.000000 0.000000 0.000000
# 3 -0.006305 0.004090 0.021939 0.000000 0.000000 0.000000
# 4 0.000000 0.000000 0.000000 -0.398381 0.000000 0.000000
# 5 0.000000 0.000000 0.000000 0.000000 -0.023543 0.000000
# 6 0.000000 0.000000 0.000000 0.000000 0.000000 0.053547
#
#
# Mechanical properties :
#
#
# Convention : Reuss Voigt Hill
#
# Bulk Modulus (GPa) = 24.64269 28.46418 26.55343
# Shear Modulus (GPa) = -17.00843 7.27807 -4.86518
#
# Velocity S-wave (km/s) = -2.86182 1.87205 -1.53059
# Velocity P-wave (km/s) = 0.97267 4.28707 3.10846
#
# Compressibility (1/GPa) = 0.04057999
#
# Stress axis : x y z
#
# Youngs Moduli (GPa) = 73.45039 65.89448 45.58170
#
# Poissons Ratio (x) = 0.18841 0.28740
# Poissons Ratio (y) = 0.21001 -0.18643
# Poissons Ratio (z) = 0.46312 -0.26951
#
# Static dielectric constant tensor:
#      x y z
#    x 1.725490 0.000000 0.000000 
#    y 0.000000 1.775450 0.000000 
#    z 0.000000 0.000000 1.743310 
# 
# From -- ./inp_files/19720.got.cif
#   From: 2010.05.17/outbox.cif.g08.bks.cpg/sg59_10_cif.got.tgz:19720.got - 2010.06.03 14:40:33.
