data_PCOD9449029
_publ_section_title
;
Structure prediction by ZEFSAII (Michael W. Deem and Ramdas Pophale) SiO2 
 PCOD9449029
Probable space group: P M M N
;
_chemical_formula_sum "Si O2"
_cell_formula_units_Z 56
_cell_length_a 15.047147
_cell_length_b 19.532978
_cell_length_c 9.173098
_cell_angle_alpha 90.000000
_cell_angle_beta 90.000000
_cell_angle_gamma 90.000000
_cell_volume 2696.116523
_symmetry_space_group_name_H-M "P M M N"
_symmetry_group_IT_number 59
_space_group.IT_coordinate_system_code '2'
_symmetry_cell_setting 'orthorhombic'
loop_
_space_group_symop_operation_xyz
x,y,z
1/2-x,1/2-y,z
1/2+x,-y,-z
-x,1/2+y,-z
-x,-y,-z
1/2+x,1/2+y,-z
1/2-x,y,z
x,1/2-y,z
loop_
_atom_site_type_symbol
_atom_site_label
_atom_site_fract_x
_atom_site_fract_y
_atom_site_fract_z
Si Si1 0.601364 0.475010 0.471471
Si Si2 0.346496 0.063842 0.788131
Si Si3 0.596791 0.172482 0.591164
Si Si4 0.116282 0.174433 0.556050
Si Si5 0.152386 0.084287 0.292526
Si Si6 0.646735 0.331098 0.932152
Si Si7 0.483496 0.079293 0.031861
O O1 0.500000 0.500000 0.500000
O O2 0.623458 0.497853 0.306518
O O3 0.621070 0.395148 0.499010
O O4 0.649740 0.519736 0.596466
O O5 0.250000 0.050353 0.854029
O O6 0.341855 0.120196 0.662914
O O7 0.414734 0.095456 0.902305
O O8 0.626489 0.250000 0.547379
O O9 0.489738 0.172291 0.581835
O O10 0.627873 0.161493 0.758138
O O11 0.147499 0.250000 0.585456
O O12 0.138645 0.150180 0.394225
O O13 0.250000 0.085640 0.222270
O O14 0.070905 0.083557 0.181214
O O15 0.750000 0.349912 0.960661
O O16 0.635720 0.250000 0.965539
O O17 0.572860 0.376356 0.015028
O O18 0.500000 0.000000 0.000000
#
# Coordination Sequence:
#
# PCOD9449029 Si02
#       7
#     8   8   8   8   8   8   8
#     4  11  18  36  61  88 124 166 210 259 318 370
#     4  11  23  38  61  93 127 166 211 259 314 379
#     4  10  19  34  63  94 119 152 205 262 314 374
#     4  10  20  38  64  93 126 163 204 253 312 379
#     4  11  24  39  61  94 132 173 211 257 318 388
#     4  10  22  42  67  94 124 164 217 274 332 389
#     4  12  25  41  64  91 128 172 217 268 318 379
#
# _framework density 20.770614999999999
#
# number of rings (size 3 to 8) (size 9 to 14) (size 15 to 20)
#    0.000    1.286    4.286    3.857    0.000    5.143 
#    0.000    0.000    0.000    2.571    0.000    0.000 
#    0.000    0.000    0.000    0.000    0.000    0.000 
#
# Total GULP energy -312551.411321 kJ/mol
# GULP energy per Si atom -5581.275202 kJ/mol
# Density = 2.072334 g / cm^3
# Si number density = 20.770615 Si / 1000 Ang^3
#
#
#
# Elastic Constant Matrix: (Units=GPa)
#
#
# Indices 1 2 3 4 5 6 
#
# 1 152.3390 23.8658 26.9276 0.0000 0.0000 0.0000
# 2 23.8658 95.3998 5.3504 0.0000 0.0000 0.0000
# 3 26.9276 5.3504 52.1981 0.0000 0.0000 0.0000
# 4 0.0000 0.0000 0.0000 19.4886 0.0000 0.0000
# 5 0.0000 0.0000 0.0000 0.0000 -16.9615 0.0000
# 6 0.0000 0.0000 0.0000 0.0000 0.0000 17.5370
#
#
#
# Elastic Compliance Matrix: (Units=1/GPa)
#
#
# Indices 1 2 3 4 5 6 
#
# 1 0.007477 -0.001664 -0.003686 0.000000 0.000000 0.000000
# 2 -0.001664 0.010913 -0.000260 0.000000 0.000000 0.000000
# 3 -0.003686 -0.000260 0.021086 0.000000 0.000000 0.000000
# 4 0.000000 0.000000 0.000000 0.051312 0.000000 0.000000
# 5 0.000000 0.000000 0.000000 0.000000 -0.058957 0.000000
# 6 0.000000 0.000000 0.000000 0.000000 0.000000 0.057022
#
#
# Mechanical properties :
#
#
# Convention : Reuss Voigt Hill
#
# Bulk Modulus (GPa) = 35.39214 45.80273 40.59744
# Shear Modulus (GPa) = 45.66528 20.26568 32.96548
#
# Velocity S-wave (km/s) = 4.69396 3.12699 3.98819
# Velocity P-wave (km/s) = 6.81573 5.92765 6.38714
#
# Compressibility (1/GPa) = 0.02825486
#
# Stress axis : x y z
#
# Youngs Moduli (GPa) = 133.75143 91.63390 47.42438
#
# Poissons Ratio (x) = 0.15244 0.17483
# Poissons Ratio (y) = 0.22251 0.01235
# Poissons Ratio (z) = 0.49307 0.02386
#
# Static dielectric constant tensor:
#      x y z
#    x 1.825010 0.000000 0.000000 
#    y 0.000000 1.711460 0.000000 
#    z 0.000000 0.000000 1.720300 
# 
# From -- ./inp_files/9374.got.cif
#   From: 2010.05.17/outbox.cif.g08.bks.cpg/sg59_5_cif.got.tgz:9374.got - 2010.06.03 14:40:33.
