data_PCOD9449675
_publ_section_title
;
Structure prediction by ZEFSAII (Michael W. Deem and Ramdas Pophale) SiO2 
 PCOD9449675
Probable space group: P M M N
;
_chemical_formula_sum "Si O2"
_cell_formula_units_Z 64
_cell_length_a 31.325941
_cell_length_b 8.733790
_cell_length_c 14.689363
_cell_angle_alpha 90.000000
_cell_angle_beta 90.000000
_cell_angle_gamma 90.000000
_cell_volume 4018.924375
_symmetry_space_group_name_H-M "P M M N"
_symmetry_group_IT_number 59
_space_group.IT_coordinate_system_code '2'
_symmetry_cell_setting 'orthorhombic'
loop_
_space_group_symop_operation_xyz
x,y,z
1/2-x,1/2-y,z
1/2+x,-y,-z
-x,1/2+y,-z
-x,-y,-z
1/2+x,1/2+y,-z
1/2-x,y,z
x,1/2-y,z
loop_
_atom_site_type_symbol
_atom_site_label
_atom_site_fract_x
_atom_site_fract_y
_atom_site_fract_z
Si Si1 0.458744 0.432504 0.446949
Si Si2 0.616814 0.927608 0.064219
Si Si3 0.615088 0.068583 0.433816
Si Si4 0.927662 0.573541 0.259971
Si Si5 0.020806 0.066252 0.240920
Si Si6 0.701426 0.565071 0.149622
Si Si7 0.958209 0.431873 0.948616
Si Si8 0.701643 0.434920 0.351992
O O1 0.500000 0.500000 0.500000
O O2 0.461729 0.250000 0.454469
O O3 0.415103 0.489365 0.492536
O O4 0.460370 0.473067 0.340069
O O5 0.616539 0.750000 0.032924
O O6 0.598530 0.929075 0.166847
O O7 0.665342 0.983727 0.077796
O O8 0.584335 0.023246 0.003453
O O9 0.614399 0.250000 0.449680
O O10 0.664157 0.016368 0.420715
O O11 0.593540 0.029499 0.337018
O O12 0.929905 0.750000 0.292163
O O13 0.974173 0.508977 0.239400
O O14 0.017564 0.250000 0.234240
O O15 0.044305 0.001629 0.152480
O O16 0.750000 0.523717 0.124568
O O17 0.698596 0.750000 0.155976
O O18 0.693368 0.499316 0.250670
O O19 0.036505 0.750000 0.055813
O O20 0.000000 0.500000 0.000000
O O21 0.750000 0.480248 0.377716
O O22 0.700130 0.250000 0.346664
#
# Coordination Sequence:
#
# PCOD9449675 Si02
#       8
#     8   8   8   8   8   8   8   8
#     4  11  23  36  53  74 100 133 170 209 252 301
#     4  10  20  33  49  73 103 136 171 206 247 295
#     4  11  21  32  49  73 103 138 174 210 250 297
#     4  11  20  30  49  73 102 138 172 208 247 293
#     4  11  23  38  53  71  98 132 170 214 255 295
#     4   9  17  30  49  73 101 133 168 206 249 296
#     4  12  24  36  53  74  99 133 170 209 250 298
#     4   9  18  31  47  70 101 135 169 206 249 297
#
# _framework density 15.924659999999999
#
# number of rings (size 3 to 8) (size 9 to 14) (size 15 to 20)
#    0.000    1.500    3.750    2.625    0.000    3.000 
#    0.000    0.000    0.000    0.000    0.000    0.875 
#    0.000    1.000    0.000    0.000    0.000    0.000 
#
# Total GULP energy -357135.378555 kJ/mol
# GULP energy per Si atom -5580.240290 kJ/mol
# Density = 1.588841 g / cm^3
# Si number density = 15.924660 Si / 1000 Ang^3
#
#
#
# Elastic Constant Matrix: (Units=GPa)
#
#
# Indices 1 2 3 4 5 6 
#
# 1 125.4755 26.7384 47.2355 0.0000 0.0000 0.0000
# 2 26.7384 39.2260 26.0387 0.0000 0.0000 0.0000
# 3 47.2355 26.0387 82.5589 0.0000 0.0000 0.0000
# 4 0.0000 0.0000 0.0000 23.4379 0.0000 0.0000
# 5 0.0000 0.0000 0.0000 0.0000 17.0497 0.0000
# 6 0.0000 0.0000 0.0000 0.0000 0.0000 19.5083
#
#
#
# Elastic Compliance Matrix: (Units=1/GPa)
#
#
# Indices 1 2 3 4 5 6 
#
# 1 0.010646 -0.004065 -0.004809 0.000000 0.000000 0.000000
# 2 -0.004065 0.033796 -0.008333 0.000000 0.000000 0.000000
# 3 -0.004809 -0.008333 0.017492 0.000000 0.000000 0.000000
# 4 0.000000 0.000000 0.000000 0.042666 0.000000 0.000000
# 5 0.000000 0.000000 0.000000 0.000000 0.058652 0.000000
# 6 0.000000 0.000000 0.000000 0.000000 0.000000 0.051260
#
#
# Mechanical properties :
#
#
# Convention : Reuss Voigt Hill
#
# Bulk Modulus (GPa) = 36.33735 49.69839 43.01787
# Shear Modulus (GPa) = 19.37228 21.81570 20.59399
#
# Velocity S-wave (km/s) = 3.49161 3.70527 3.60003
# Velocity P-wave (km/s) = 6.25484 7.04142 6.65975
#
# Compressibility (1/GPa) = 0.02751989
#
# Stress axis : x y z
#
# Youngs Moduli (GPa) = 93.92952 29.58947 57.16745
#
# Poissons Ratio (x) = 0.12027 0.27493
# Poissons Ratio (y) = 0.38179 0.47640
# Poissons Ratio (z) = 0.45173 0.24658
#
# Static dielectric constant tensor:
#      x y z
#    x 1.573330 0.000000 0.000000 
#    y 0.000000 1.524140 0.000000 
#    z 0.000000 0.000000 1.520620 
# 
# From -- ./inp_files/21966.got.cif
#   From: 2010.05.17/outbox.cif.g08.bks.cpg/sg59_11_cif.got.tgz:21966.got - 2010.06.03 14:40:33.
