data_PCOD9449932
_publ_section_title
;
Structure prediction by ZEFSAII (Michael W. Deem and Ramdas Pophale) SiO2 
 PCOD9449932
Probable space group: P M M N
;
_chemical_formula_sum "Si O2"
_cell_formula_units_Z 64
_cell_length_a 8.471401
_cell_length_b 20.847315
_cell_length_c 20.396330
_cell_angle_alpha 90.000000
_cell_angle_beta 90.000000
_cell_angle_gamma 90.000000
_cell_volume 3602.113545
_symmetry_space_group_name_H-M "P M M N"
_symmetry_group_IT_number 59
_space_group.IT_coordinate_system_code '2'
_symmetry_cell_setting 'orthorhombic'
loop_
_space_group_symop_operation_xyz
x,y,z
1/2-x,1/2-y,z
1/2+x,-y,-z
-x,1/2+y,-z
-x,-y,-z
1/2+x,1/2+y,-z
1/2-x,y,z
x,1/2-y,z
loop_
_atom_site_type_symbol
_atom_site_label
_atom_site_fract_x
_atom_site_fract_y
_atom_site_fract_z
Si Si1 0.061271 0.182392 0.575865
Si Si2 0.439175 0.949633 0.818078
Si Si3 0.438722 0.454563 0.556098
Si Si4 0.938170 0.677860 0.879813
Si Si5 0.563447 0.320087 0.723287
Si Si6 0.440096 0.456725 0.707167
Si Si7 0.439573 0.821497 0.028071
Si Si8 0.440568 0.537870 0.064285
O O1 0.250000 0.179104 0.590609
O O2 0.029601 0.250000 0.542208
O O3 0.019133 0.118635 0.538053
O O4 0.973512 0.182191 0.645434
O O5 0.250000 0.945659 0.819275
O O6 0.506716 0.879655 0.833729
O O7 0.490343 0.982726 0.750269
O O8 0.494984 0.998335 0.874517
O O9 0.500000 0.500000 0.500000
O O10 0.250000 0.460869 0.558131
O O11 0.495566 0.462758 0.631526
O O12 0.750000 0.673631 0.888776
O O13 0.976421 0.750000 0.856002
O O14 0.017013 0.670683 0.951414
O O15 0.750000 0.322224 0.735376
O O16 0.505062 0.250000 0.749308
O O17 0.492931 0.389500 0.740756
O O18 0.250000 0.454570 0.705466
O O19 0.250000 0.820175 0.034411
O O20 0.498197 0.750000 0.048734
O O21 0.493893 0.887309 0.062710
O O22 0.250000 0.536959 0.064607
O O23 0.500000 0.500000 0.000000
#
# Coordination Sequence:
#
# PCOD9449932 Si02
#       8
#     8   8   8   8   8   8   8   8
#     4   8  14  26  44  65  92 126 161 195 233 285
#     4  11  22  36  54  75 101 136 174 212 252 301
#     4   9  17  30  49  73  98 126 162 205 251 300
#     4  10  20  33  52  78 103 128 164 212 260 303
#     4   9  16  26  44  71  98 124 159 203 246 288
#     4   9  20  36  51  70  99 136 175 208 247 303
#     4   9  18  33  52  73  99 134 173 209 249 300
#     4  11  21  33  52  77 105 135 168 210 256 303
#
# _framework density 17.767347000000001
#
# number of rings (size 3 to 8) (size 9 to 14) (size 15 to 20)
#    0.000    2.500    1.250    2.250    0.000    5.000 
#    0.000    0.625    0.000    3.000    0.000    3.500 
#    0.000    0.000    0.000    0.000    0.000    0.000 
#
# Total GULP energy -356396.211146 kJ/mol
# GULP energy per Si atom -5568.690799 kJ/mol
# Density = 1.772691 g / cm^3
# Si number density = 17.767347 Si / 1000 Ang^3
#
#
#
# Elastic Constant Matrix: (Units=GPa)
#
#
# Indices 1 2 3 4 5 6 
#
# 1 5.4391 15.3378 3.0955 0.0000 0.0000 0.0000
# 2 15.3378 167.7987 46.9683 0.0000 0.0000 0.0000
# 3 3.0955 46.9683 48.4767 0.0000 0.0000 0.0000
# 4 0.0000 0.0000 0.0000 24.7159 0.0000 0.0000
# 5 0.0000 0.0000 0.0000 0.0000 15.9309 0.0000
# 6 0.0000 0.0000 0.0000 0.0000 0.0000 27.6329
#
#
#
# Elastic Compliance Matrix: (Units=1/GPa)
#
#
# Indices 1 2 3 4 5 6 
#
# 1 0.250214 -0.025245 0.008482 0.000000 0.000000 0.000000
# 2 -0.025245 0.010724 -0.008779 0.000000 0.000000 0.000000
# 3 0.008482 -0.008779 0.028592 0.000000 0.000000 0.000000
# 4 0.000000 0.000000 0.000000 0.040460 0.000000 0.000000
# 5 0.000000 0.000000 0.000000 0.000000 0.062771 0.000000
# 6 0.000000 0.000000 0.000000 0.000000 0.000000 0.036189
#
#
# Mechanical properties :
#
#
# Convention : Reuss Voigt Hill
#
# Bulk Modulus (GPa) = 4.19379 39.16864 21.68122
# Shear Modulus (GPa) = 8.93629 24.07681 16.50655
#
# Velocity S-wave (km/s) = 2.24511 3.68518 3.05132
# Velocity P-wave (km/s) = 3.01434 6.34039 4.96421
#
# Compressibility (1/GPa) = 0.23844774
#
# Stress axis : x y z
#
# Youngs Moduli (GPa) = 3.99657 93.24626 34.97453
#
# Poissons Ratio (x) = 2.35404 -0.29666
# Poissons Ratio (y) = 0.10090 0.30703
# Poissons Ratio (z) = -0.03390 0.81857
#
# Static dielectric constant tensor:
#      x y z
#    x 1.614630 0.000000 0.000000 
#    y 0.000000 1.664420 0.000000 
#    z 0.000000 0.000000 1.588920 
# 
# From -- ./inp_files/26170.got.cif
#   From: 2010.05.17/outbox.cif.g08.bks.cpg/sg59_14_cif.got.tgz:26170.got - 2010.06.03 14:40:33.
