data_PCOD9449688
_publ_section_title
;
Structure prediction by ZEFSAII (Michael W. Deem and Ramdas Pophale) SiO2 
 PCOD9449688
Probable space group: P M M N
;
_chemical_formula_sum "Si O2"
_cell_formula_units_Z 40
_cell_length_a 19.972002
_cell_length_b 9.078914
_cell_length_c 13.171606
_cell_angle_alpha 90.000000
_cell_angle_beta 90.000000
_cell_angle_gamma 90.000000
_cell_volume 2388.329453
_symmetry_space_group_name_H-M "P M M N"
_symmetry_group_IT_number 59
_space_group.IT_coordinate_system_code '2'
_symmetry_cell_setting 'orthorhombic'
loop_
_space_group_symop_operation_xyz
x,y,z
1/2-x,1/2-y,z
1/2+x,-y,-z
-x,1/2+y,-z
-x,-y,-z
1/2+x,1/2+y,-z
1/2-x,y,z
x,1/2-y,z
loop_
_atom_site_type_symbol
_atom_site_label
_atom_site_fract_x
_atom_site_fract_y
_atom_site_fract_z
Si Si1 0.826920 0.429558 0.791215
Si Si2 0.170437 0.075425 0.777161
Si Si3 0.924719 0.425685 0.385051
Si Si4 0.068181 0.572923 0.380134
Si Si5 0.831346 0.419666 0.015864
O O1 0.750000 0.478257 0.775536
O O2 0.825509 0.250000 0.793233
O O3 0.876384 0.474027 0.701497
O O4 0.851275 0.474482 0.903809
O O5 0.250000 0.045523 0.766995
O O6 0.160259 0.250000 0.771779
O O7 0.129502 0.995481 0.689319
O O8 0.148564 0.015179 0.887550
O O9 0.926368 0.250000 0.372769
O O10 0.910290 0.458302 0.503840
O O11 0.997527 0.494018 0.362477
O O12 0.059054 0.750000 0.371808
O O13 0.750000 0.418467 0.012898
O O14 0.853145 0.250000 0.029412
#
# Coordination Sequence:
#
# PCOD9449688 Si02
#       5
#     8   8   8   8   8
#     4   8  14  27  50  77  99 121 154 196 240 286
#     4  10  20  33  50  72  98 127 160 199 240 283
#     4  10  20  33  50  71  97 130 165 200 239 286
#     4   9  18  33  52  72  97 129 162 198 240 286
#     4   8  14  27  48  72  97 123 152 190 237 287
#
# _framework density 16.748107999999998
#
# number of rings (size 3 to 8) (size 9 to 14) (size 15 to 20)
#    0.000    3.000    0.000    2.400    0.000    2.800 
#    0.000    4.000    0.000    1.800    0.000    0.000 
#    0.000    0.000    0.000    0.000    0.000    0.000 
#
# Total GULP energy -222853.931636 kJ/mol
# GULP energy per Si atom -5571.348291 kJ/mol
# Density = 1.670999 g / cm^3
# Si number density = 16.748108 Si / 1000 Ang^3
#
#
#
# Elastic Constant Matrix: (Units=GPa)
#
#
# Indices 1 2 3 4 5 6 
#
# 1 68.6732 47.2054 88.2343 0.0000 0.0000 0.0000
# 2 47.2054 43.7594 65.6698 0.0000 0.0000 0.0000
# 3 88.2343 65.6698 156.5894 0.0000 0.0000 0.0000
# 4 0.0000 0.0000 0.0000 17.5018 0.0000 0.0000
# 5 0.0000 0.0000 0.0000 0.0000 -25.1484 0.0000
# 6 0.0000 0.0000 0.0000 0.0000 0.0000 19.6802
#
#
#
# Elastic Compliance Matrix: (Units=1/GPa)
#
#
# Indices 1 2 3 4 5 6 
#
# 1 0.079757 -0.050168 -0.023902 0.000000 0.000000 0.000000
# 2 -0.050168 0.093212 -0.010822 0.000000 0.000000 0.000000
# 3 -0.023902 -0.010822 0.024393 0.000000 0.000000 0.000000
# 4 0.000000 0.000000 0.000000 0.057137 0.000000 0.000000
# 5 0.000000 0.000000 0.000000 0.000000 -0.039764 0.000000
# 6 0.000000 0.000000 0.000000 0.000000 0.000000 0.050812
#
#
# Mechanical properties :
#
#
# Convention : Reuss Voigt Hill
#
# Bulk Modulus (GPa) = 36.26175 74.58235 55.42205
# Shear Modulus (GPa) = 11.24798 6.93422 9.09110
#
# Velocity S-wave (km/s) = 2.59433 2.03698 2.33236
# Velocity P-wave (km/s) = 5.53826 7.08243 6.35740
#
# Compressibility (1/GPa) = 0.02757727
#
# Stress axis : x y z
#
# Youngs Moduli (GPa) = 12.53811 10.72822 40.99565
#
# Poissons Ratio (x) = 0.53821 0.97987
# Poissons Ratio (y) = 0.62901 0.44367
# Poissons Ratio (z) = 0.29968 0.11611
#
# Static dielectric constant tensor:
#      x y z
#    x 1.539240 0.000000 0.000000 
#    y 0.000000 1.555490 0.000000 
#    z 0.000000 0.000000 1.575490 
# 
# From -- ./inp_files/13850.got.cif
#   From: 2010.05.17/outbox.cif.g08.bks.cpg/sg59_7_cif.got.tgz:13850.got - 2010.06.03 14:40:33.
