data_PCOD9449555
_publ_section_title
;
Structure prediction by ZEFSAII (Michael W. Deem and Ramdas Pophale) SiO2 
 PCOD9449555
Probable space group: P M M N
;
_chemical_formula_sum "Si O2"
_cell_formula_units_Z 64
_cell_length_a 8.950789
_cell_length_b 18.729026
_cell_length_c 21.864210
_cell_angle_alpha 90.000000
_cell_angle_beta 90.000000
_cell_angle_gamma 90.000000
_cell_volume 3665.306542
_symmetry_space_group_name_H-M "P M M N"
_symmetry_group_IT_number 59
_space_group.IT_coordinate_system_code '2'
_symmetry_cell_setting 'orthorhombic'
loop_
_space_group_symop_operation_xyz
x,y,z
1/2-x,1/2-y,z
1/2+x,-y,-z
-x,1/2+y,-z
-x,-y,-z
1/2+x,1/2+y,-z
1/2-x,y,z
x,1/2-y,z
loop_
_atom_site_type_symbol
_atom_site_label
_atom_site_fract_x
_atom_site_fract_y
_atom_site_fract_z
Si Si1 0.571306 0.537097 0.816969
Si Si2 0.571951 0.110585 0.751833
Si Si3 0.429152 0.167535 0.266988
Si Si4 0.075458 0.835250 0.602807
Si Si5 0.929219 0.670446 0.126632
Si Si6 0.071047 0.422018 0.506037
Si Si7 0.069724 0.166682 0.626794
Si Si8 0.571409 0.974859 0.063020
O O1 0.750000 0.536321 0.828380
O O2 0.539503 0.471729 0.770263
O O3 0.530255 0.611482 0.785401
O O4 0.487230 0.521147 0.879838
O O5 0.750000 0.119301 0.748421
O O6 0.507074 0.155684 0.808518
O O7 0.499071 0.135043 0.688682
O O8 0.250000 0.162332 0.276652
O O9 0.463649 0.250000 0.251607
O O10 0.511260 0.148930 0.330026
O O11 0.250000 0.854531 0.599189
O O12 0.061598 0.750000 0.593826
O O13 0.983717 0.875758 0.551257
O O14 0.750000 0.666207 0.135777
O O15 0.965799 0.750000 0.104687
O O16 0.971029 0.606736 0.080747
O O17 0.250000 0.427682 0.505964
O O18 0.025503 0.380815 0.568244
O O19 0.000000 0.500000 0.500000
O O20 0.250000 0.164599 0.631318
O O21 0.026156 0.250000 0.619121
O O22 0.750000 0.979007 0.059133
O O23 0.500000 0.000000 0.000000
#
# Coordination Sequence:
#
# PCOD9449555 Si02
#       8
#     8   8   8   8   8   8   8   8
#     4   9  19  35  54  79 110 142 176 219 265 314
#     4  10  20  32  51  81 112 139 171 215 268 318
#     4   9  18  34  57  82 107 141 184 227 272 322
#     4  10  21  37  57  81 108 140 180 228 279 330
#     4   9  18  34  55  78 105 139 180 219 257 308
#     4  11  24  40  57  78 105 140 183 229 278 331
#     4  10  22  39  56  75 103 140 178 216 263 323
#     4  10  20  35  56  80 107 143 180 217 261 311
#
# _framework density 17.461023000000001
#
# number of rings (size 3 to 8) (size 9 to 14) (size 15 to 20)
#    0.000    2.250    0.000    2.250    1.750    5.750 
#    0.000    0.625    0.000    3.750    0.000    0.000 
#    0.000    0.000    0.000    0.000    0.000    0.000 
#
# Total GULP energy -357243.379475 kJ/mol
# GULP energy per Si atom -5581.927804 kJ/mol
# Density = 1.742128 g / cm^3
# Si number density = 17.461023 Si / 1000 Ang^3
#
#
#
# Elastic Constant Matrix: (Units=GPa)
#
#
# Indices 1 2 3 4 5 6 
#
# 1 42.6499 51.3063 59.2341 0.0000 0.0000 0.0000
# 2 51.3063 111.1621 107.4315 0.0000 0.0000 0.0000
# 3 59.2341 107.4315 153.6399 0.0000 0.0000 0.0000
# 4 0.0000 0.0000 0.0000 20.6287 0.0000 0.0000
# 5 0.0000 0.0000 0.0000 0.0000 31.8496 0.0000
# 6 0.0000 0.0000 0.0000 0.0000 0.0000 27.0362
#
#
#
# Elastic Compliance Matrix: (Units=1/GPa)
#
#
# Indices 1 2 3 4 5 6 
#
# 1 0.058478 -0.016042 -0.011328 0.000000 0.000000 0.000000
# 2 -0.016042 0.032147 -0.016293 0.000000 0.000000 0.000000
# 3 -0.011328 -0.016293 0.022269 0.000000 0.000000 0.000000
# 4 0.000000 0.000000 0.000000 0.048476 0.000000 0.000000
# 5 0.000000 0.000000 0.000000 0.000000 0.031398 0.000000
# 6 0.000000 0.000000 0.000000 0.000000 0.000000 0.036987
#
#
# Mechanical properties :
#
#
# Convention : Reuss Voigt Hill
#
# Bulk Modulus (GPa) = 39.11397 82.59953 60.85675
# Shear Modulus (GPa) = 15.35603 21.86823 18.61213
#
# Velocity S-wave (km/s) = 2.96876 3.54277 3.26839
# Velocity P-wave (km/s) = 5.84814 8.00892 7.01226
#
# Compressibility (1/GPa) = 0.02556632
#
# Stress axis : x y z
#
# Youngs Moduli (GPa) = 17.10041 31.10736 44.90523
#
# Poissons Ratio (x) = 0.49904 0.50869
# Poissons Ratio (y) = 0.27433 0.73166
# Poissons Ratio (z) = 0.19371 0.50684
#
# Static dielectric constant tensor:
#      x y z
#    x 1.585500 0.000000 0.000000 
#    y 0.000000 1.577140 0.000000 
#    z 0.000000 0.000000 1.546590 
# 
# From -- ./inp_files/29491.got.cif
#   From: 2010.05.17/outbox.cif.g08.bks.cpg/sg59_15_cif.got.tgz:29491.got - 2010.06.03 14:40:33.
