data_PCOD9449283
_publ_section_title
;
Structure prediction by ZEFSAII (Michael W. Deem and Ramdas Pophale) SiO2 
 PCOD9449283
Probable space group: P M M N
;
_chemical_formula_sum "Si O2"
_cell_formula_units_Z 64
_cell_length_a 8.770166
_cell_length_b 20.058812
_cell_length_c 20.413448
_cell_angle_alpha 90.000000
_cell_angle_beta 90.000000
_cell_angle_gamma 90.000000
_cell_volume 3591.115625
_symmetry_space_group_name_H-M "P M M N"
_symmetry_group_IT_number 59
_space_group.IT_coordinate_system_code '2'
_symmetry_cell_setting 'orthorhombic'
loop_
_space_group_symop_operation_xyz
x,y,z
1/2-x,1/2-y,z
1/2+x,-y,-z
-x,1/2+y,-z
-x,-y,-z
1/2+x,1/2+y,-z
1/2-x,y,z
x,1/2-y,z
loop_
_atom_site_type_symbol
_atom_site_label
_atom_site_fract_x
_atom_site_fract_y
_atom_site_fract_z
Si Si1 0.568139 0.584029 0.120257
Si Si2 0.573145 0.069772 0.738379
Si Si3 0.566644 0.327865 0.989320
Si Si4 0.431151 0.822656 0.661764
Si Si5 0.065610 0.914680 0.548644
Si Si6 0.419660 0.412741 0.237403
Si Si7 0.934218 0.055990 0.594699
Si Si8 0.429669 0.059998 0.085684
O O1 0.750000 0.583356 0.114916
O O2 0.518194 0.589289 0.196421
O O3 0.497191 0.645024 0.079648
O O4 0.504722 0.513923 0.089312
O O5 0.750000 0.091751 0.745584
O O6 0.573238 0.989258 0.740275
O O7 0.515183 0.085507 0.664872
O O8 0.750000 0.330659 0.989733
O O9 0.522404 0.250000 0.001843
O O10 0.503368 0.383603 0.039929
O O11 0.250000 0.817780 0.654206
O O12 0.496801 0.750000 0.673083
O O13 0.489608 0.856049 0.595379
O O14 0.463040 0.869799 0.722641
O O15 0.250000 0.919818 0.551338
O O16 0.024791 0.905839 0.472383
O O17 0.999063 0.982563 0.579341
O O18 0.250000 0.387413 0.252325
O O19 0.441917 0.413283 0.159891
O O20 0.750000 0.051489 0.599013
O O21 0.250000 0.051959 0.069400
#
# Coordination Sequence:
#
# PCOD9449283 Si02
#       8
#     8   8   8   8   8   8   8   8
#     4  11  22  36  58  85 112 143 180 222 270 324
#     4   9  17  31  51  75 104 132 164 213 269 316
#     4  11  24  41  60  82 110 143 180 223 270 323
#     4  10  20  31  43  63  97 137 171 206 248 300
#     4   9  17  28  44  68  95 127 167 209 254 302
#     4   9  18  32  49  71  98 131 168 207 250 298
#     4   9  16  28  48  71  97 126 159 210 265 306
#     4  10  21  38  59  82 111 144 179 223 270 319
#
# _framework density 17.821760000000001
#
# number of rings (size 3 to 8) (size 9 to 14) (size 15 to 20)
#    0.000    2.250    1.250    3.000    0.000    4.750 
#    0.000    2.500    0.000    0.750    0.000    3.500 
#    0.000    0.000    0.000    0.000    0.000    0.000 
#
# Total GULP energy -356588.019977 kJ/mol
# GULP energy per Si atom -5571.687812 kJ/mol
# Density = 1.778120 g / cm^3
# Si number density = 17.821760 Si / 1000 Ang^3
#
#
#
# Elastic Constant Matrix: (Units=GPa)
#
#
# Indices 1 2 3 4 5 6 
#
# 1 50.9875 22.6797 27.5746 0.0000 0.0000 0.0000
# 2 22.6797 38.1173 17.6228 0.0000 0.0000 0.0000
# 3 27.5746 17.6228 69.8827 0.0000 0.0000 0.0000
# 4 0.0000 0.0000 0.0000 6.6725 0.0000 0.0000
# 5 0.0000 0.0000 0.0000 0.0000 24.2069 0.0000
# 6 0.0000 0.0000 0.0000 0.0000 0.0000 18.7361
#
#
#
# Elastic Compliance Matrix: (Units=1/GPa)
#
#
# Indices 1 2 3 4 5 6 
#
# 1 0.030523 -0.014255 -0.008449 0.000000 0.000000 0.000000
# 2 -0.014255 0.036354 -0.003543 0.000000 0.000000 0.000000
# 3 -0.008449 -0.003543 0.018537 0.000000 0.000000 0.000000
# 4 0.000000 0.000000 0.000000 0.149869 0.000000 0.000000
# 5 0.000000 0.000000 0.000000 0.000000 0.041311 0.000000
# 6 0.000000 0.000000 0.000000 0.000000 0.000000 0.053373
#
#
# Mechanical properties :
#
#
# Convention : Reuss Voigt Hill
#
# Bulk Modulus (GPa) = 30.37621 32.74908 31.56265
# Shear Modulus (GPa) = 12.70864 15.99713 14.35288
#
# Velocity S-wave (km/s) = 2.67328 2.99928 2.84096
# Velocity P-wave (km/s) = 5.15849 5.51453 5.33948
#
# Compressibility (1/GPa) = 0.03292050
#
# Stress axis : x y z
#
# Youngs Moduli (GPa) = 32.76266 27.50703 53.94600
#
# Poissons Ratio (x) = 0.39210 0.45579
# Poissons Ratio (y) = 0.46702 0.19114
# Poissons Ratio (z) = 0.27681 0.09746
#
# Static dielectric constant tensor:
#      x y z
#    x 1.612720 0.000000 0.000000 
#    y 0.000000 1.599430 0.000000 
#    z 0.000000 0.000000 1.646260 
# 
# From -- ./inp_files/29740.got.cif
#   From: 2010.05.17/outbox.cif.g08.bks.cpg/sg59_15_cif.got.tgz:29740.got - 2010.06.03 14:40:33.
