data_PCOD9449902
_publ_section_title
;
Structure prediction by ZEFSAII (Michael W. Deem and Ramdas Pophale) SiO2 
 PCOD9449902
Probable space group: P M M N
;
_chemical_formula_sum "Si O2"
_cell_formula_units_Z 56
_cell_length_a 20.518980
_cell_length_b 8.935954
_cell_length_c 15.689019
_cell_angle_alpha 90.000000
_cell_angle_beta 90.000000
_cell_angle_gamma 90.000000
_cell_volume 2876.686145
_symmetry_space_group_name_H-M "P M M N"
_symmetry_group_IT_number 59
_space_group.IT_coordinate_system_code '2'
_symmetry_cell_setting 'orthorhombic'
loop_
_space_group_symop_operation_xyz
x,y,z
1/2-x,1/2-y,z
1/2+x,-y,-z
-x,1/2+y,-z
-x,-y,-z
1/2+x,1/2+y,-z
1/2-x,y,z
x,1/2-y,z
loop_
_atom_site_type_symbol
_atom_site_label
_atom_site_fract_x
_atom_site_fract_y
_atom_site_fract_z
Si Si1 0.326904 0.927386 0.955919
Si Si2 0.538629 0.570645 0.081021
Si Si3 0.646076 0.421123 0.696061
Si Si4 0.446499 0.927065 0.563525
Si Si5 0.676633 0.573652 0.519473
Si Si6 0.172864 0.415981 0.128542
Si Si7 0.005422 0.420521 0.727583
O O1 0.250000 0.969853 0.939343
O O2 0.331728 0.750000 0.942055
O O3 0.386412 0.012975 0.910408
O O4 0.343643 0.968531 0.054033
O O5 0.538034 0.750000 0.070167
O O6 0.505789 0.534732 0.172812
O O7 0.500000 0.500000 0.000000
O O8 0.669774 0.250000 0.702486
O O9 0.673075 0.502973 0.613492
O O10 0.660906 0.515146 0.779897
O O11 0.568027 0.416371 0.692738
O O12 0.450252 0.750000 0.553274
O O13 0.500000 0.000000 0.500000
O O14 0.376803 0.989262 0.535403
O O15 0.458159 0.973854 0.661314
O O16 0.750000 0.556557 0.486296
O O17 0.661285 0.750000 0.524408
O O18 0.250000 0.398666 0.120682
O O19 0.142861 0.250000 0.117154
O O20 0.031713 0.250000 0.723303
#
# Coordination Sequence:
#
# PCOD9449902 Si02
#       7
#     8   8   8   8   8   8   8
#     4  10  21  38  59  83 116 160 210 263 319 377
#     4  11  23  40  64  94 130 166 209 263 317 379
#     4  11  21  34  56  85 120 159 200 251 309 375
#     4  12  24  41  67  94 123 162 208 258 309 370
#     4  11  24  41  62  90 126 165 206 256 314 375
#     4  10  20  33  51  78 114 156 202 251 308 375
#     4  10  23  41  61  89 122 162 209 255 309 374
#
# _framework density 19.466843000000001
#
# number of rings (size 3 to 8) (size 9 to 14) (size 15 to 20)
#    0.000    1.286    1.429    4.714    0.000    7.429 
#    0.000    0.714    0.000    0.857    0.000    0.000 
#    0.000    0.000    0.000    0.000    0.000    0.000 
#
# Total GULP energy -312648.601543 kJ/mol
# GULP energy per Si atom -5583.010742 kJ/mol
# Density = 1.942254 g / cm^3
# Si number density = 19.466843 Si / 1000 Ang^3
#
#
#
# Elastic Constant Matrix: (Units=GPa)
#
#
# Indices 1 2 3 4 5 6 
#
# 1 88.1470 50.8949 35.3931 0.0000 0.0000 0.0000
# 2 50.8949 119.5341 41.7449 0.0000 0.0000 0.0000
# 3 35.3931 41.7449 76.4805 0.0000 0.0000 0.0000
# 4 0.0000 0.0000 0.0000 47.3884 0.0000 0.0000
# 5 0.0000 0.0000 0.0000 0.0000 29.5584 0.0000
# 6 0.0000 0.0000 0.0000 0.0000 0.0000 31.8380
#
#
#
# Elastic Compliance Matrix: (Units=1/GPa)
#
#
# Indices 1 2 3 4 5 6 
#
# 1 0.016270 -0.005310 -0.004631 0.000000 0.000000 0.000000
# 2 -0.005310 0.012069 -0.004130 0.000000 0.000000 0.000000
# 3 -0.004631 -0.004130 0.017473 0.000000 0.000000 0.000000
# 4 0.000000 0.000000 0.000000 0.021102 0.000000 0.000000
# 5 0.000000 0.000000 0.000000 0.000000 0.033831 0.000000
# 6 0.000000 0.000000 0.000000 0.000000 0.000000 0.031409
#
#
# Mechanical properties :
#
#
# Convention : Reuss Voigt Hill
#
# Bulk Modulus (GPa) = 56.59546 60.02525 58.31036
# Shear Modulus (GPa) = 30.08660 32.16556 31.12608
#
# Velocity S-wave (km/s) = 3.93559 4.06929 4.00300
# Velocity P-wave (km/s) = 7.05604 7.27876 7.16827
#
# Compressibility (1/GPa) = 0.01766926
#
# Stress axis : x y z
#
# Youngs Moduli (GPa) = 61.46228 82.85572 57.23224
#
# Poissons Ratio (x) = 0.43998 0.26504
# Poissons Ratio (y) = 0.32638 0.23638
# Poissons Ratio (z) = 0.28463 0.34221
#
# Static dielectric constant tensor:
#      x y z
#    x 1.711260 0.000000 0.000000 
#    y 0.000000 1.677380 0.000000 
#    z 0.000000 0.000000 1.694250 
# 
# From -- ./inp_files/20969.got.cif
#   From: 2010.05.17/outbox.cif.g08.bks.cpg/sg59_11_cif.got.tgz:20969.got - 2010.06.03 14:40:33.
