data_PCOD9449058
_publ_section_title
;
Structure prediction by ZEFSAII (Michael W. Deem and Ramdas Pophale) SiO2 
 PCOD9449058
Probable space group: P M M N
;
_chemical_formula_sum "Si O2"
_cell_formula_units_Z 48
_cell_length_a 28.679137
_cell_length_b 7.801349
_cell_length_c 10.210624
_cell_angle_alpha 90.000000
_cell_angle_beta 90.000000
_cell_angle_gamma 90.000000
_cell_volume 2284.483730
_symmetry_space_group_name_H-M "P M M N"
_symmetry_group_IT_number 59
_space_group.IT_coordinate_system_code '2'
_symmetry_cell_setting 'orthorhombic'
loop_
_space_group_symop_operation_xyz
x,y,z
1/2-x,1/2-y,z
1/2+x,-y,-z
-x,1/2+y,-z
-x,-y,-z
1/2+x,1/2+y,-z
1/2-x,y,z
x,1/2-y,z
loop_
_atom_site_type_symbol
_atom_site_label
_atom_site_fract_x
_atom_site_fract_y
_atom_site_fract_z
Si Si1 0.052083 0.460696 0.212538
Si Si2 0.698450 0.048487 0.084815
Si Si3 0.902976 0.550028 0.054017
Si Si4 0.801899 0.957762 0.390103
Si Si5 0.451424 0.552126 0.688361
Si Si6 0.889726 0.551085 0.546842
O O1 0.052051 0.250000 0.211263
O O2 0.089537 0.521592 0.319568
O O3 0.000971 0.514790 0.259894
O O4 0.066620 0.515860 0.067548
O O5 0.750000 0.980409 0.047405
O O6 0.697515 0.250000 0.056072
O O7 0.651993 0.967452 0.025248
O O8 0.694381 0.023811 0.241805
O O9 0.913452 0.750000 0.074341
O O10 0.916425 0.458926 0.188806
O O11 0.750000 0.999522 0.438885
O O12 0.805847 0.750000 0.381072
O O13 0.843271 0.024488 0.481635
O O14 0.457395 0.750000 0.649580
O O15 0.429481 0.458077 0.564537
O O16 0.879243 0.750000 0.574054
#
# Coordination Sequence:
#
# PCOD9449058 Si02
#       6
#     8   8   8   8   8   8
#     4   9  21  37  53  77 111 145 180 224 272 319
#     4  10  20  34  54  80 109 138 173 220 269 317
#     4  11  21  36  56  79 108 144 183 224 266 315
#     4   9  17  30  52  80 106 134 171 215 264 319
#     4  11  21  35  55  79 107 142 185 228 269 319
#     4  10  19  35  56  79 108 141 178 223 269 322
#
# _framework density 21.011312
#
# number of rings (size 3 to 8) (size 9 to 14) (size 15 to 20)
#    0.000    2.000    1.667    2.500    0.000    1.000 
#    0.000    5.833    0.000    3.000    0.000    2.333 
#    0.000    0.000    0.000    0.000    0.000    0.000 
#
# Total GULP energy -268041.136969 kJ/mol
# GULP energy per Si atom -5584.190354 kJ/mol
# Density = 2.096349 g / cm^3
# Si number density = 21.011312 Si / 1000 Ang^3
#
#
#
# Elastic Constant Matrix: (Units=GPa)
#
#
# Indices 1 2 3 4 5 6 
#
# 1 70.3903 -4.7291 -22.0141 0.0000 0.0000 0.0000
# 2 -4.7291 32.3753 -6.9670 0.0000 0.0000 0.0000
# 3 -22.0141 -6.9670 34.1222 0.0000 0.0000 0.0000
# 4 0.0000 0.0000 0.0000 2.3105 0.0000 0.0000
# 5 0.0000 0.0000 0.0000 0.0000 4.5298 0.0000
# 6 0.0000 0.0000 0.0000 0.0000 0.0000 19.4463
#
#
#
# Elastic Compliance Matrix: (Units=1/GPa)
#
#
# Indices 1 2 3 4 5 6 
#
# 1 0.018713 0.005576 0.013211 0.000000 0.000000 0.000000
# 2 0.005576 0.033969 0.010533 0.000000 0.000000 0.000000
# 3 0.013211 0.010533 0.039980 0.000000 0.000000 0.000000
# 4 0.000000 0.000000 0.000000 0.432815 0.000000 0.000000
# 5 0.000000 0.000000 0.000000 0.000000 0.220760 0.000000
# 6 0.000000 0.000000 0.000000 0.000000 0.000000 0.051424
#
#
# Mechanical properties :
#
#
# Convention : Reuss Voigt Hill
#
# Bulk Modulus (GPa) = 6.60920 7.71862 7.16391
# Shear Modulus (GPa) = 6.33349 16.63052 11.48200
#
# Velocity S-wave (km/s) = 1.73806 2.81642 2.34020
# Velocity P-wave (km/s) = 2.67959 3.77595 3.27399
#
# Compressibility (1/GPa) = 0.15130419
#
# Stress axis : x y z
#
# Youngs Moduli (GPa) = 53.43917 29.43861 25.01227
#
# Poissons Ratio (x) = -0.16416 -0.33044
# Poissons Ratio (y) = -0.29800 -0.26346
# Poissons Ratio (z) = -0.70600 -0.31009
#
# Static dielectric constant tensor:
#      x y z
#    x 1.792690 0.000000 0.000000 
#    y 0.000000 1.756850 0.000000 
#    z 0.000000 0.000000 1.706560 
# 
# From -- ./inp_files/6252.got.cif
#   From: 2010.05.17/outbox.cif.g08.bks.cpg/sg59_4_cif.got.tgz:6252.got - 2010.06.03 14:40:33.
