data_PCOD9449617
_publ_section_title
;
Structure prediction by ZEFSAII (Michael W. Deem and Ramdas Pophale) SiO2 
 PCOD9449617
Probable space group: P M M N
;
_chemical_formula_sum "Si O2"
_cell_formula_units_Z 56
_cell_length_a 9.496832
_cell_length_b 14.720787
_cell_length_c 18.899123
_cell_angle_alpha 90.000000
_cell_angle_beta 90.000000
_cell_angle_gamma 90.000000
_cell_volume 2642.113290
_symmetry_space_group_name_H-M "P M M N"
_symmetry_group_IT_number 59
_space_group.IT_coordinate_system_code '2'
_symmetry_cell_setting 'orthorhombic'
loop_
_space_group_symop_operation_xyz
x,y,z
1/2-x,1/2-y,z
1/2+x,-y,-z
-x,1/2+y,-z
-x,-y,-z
1/2+x,1/2+y,-z
1/2-x,y,z
x,1/2-y,z
loop_
_atom_site_type_symbol
_atom_site_label
_atom_site_fract_x
_atom_site_fract_y
_atom_site_fract_z
Si Si1 0.593140 0.142545 0.858596
Si Si2 0.092602 0.111264 0.723455
Si Si3 0.409380 0.642030 0.875823
Si Si4 0.082893 0.408794 0.570443
Si Si5 0.910437 0.861573 0.009218
Si Si6 0.416689 0.402488 0.415972
Si Si7 0.088978 0.607333 0.718077
O O1 0.750000 0.102470 0.859683
O O2 0.606109 0.250000 0.872193
O O3 0.519625 0.133573 0.782814
O O4 0.493161 0.107580 0.920877
O O5 0.250000 0.140619 0.745234
O O6 0.063166 0.144481 0.643744
O O7 0.094363 0.002070 0.716270
O O8 0.250000 0.603238 0.878133
O O9 0.397184 0.750000 0.886742
O O10 0.507169 0.608667 0.938927
O O11 0.466219 0.629716 0.796336
O O12 0.250000 0.437494 0.570359
O O13 0.059907 0.361921 0.494569
O O14 0.979562 0.495455 0.575399
O O15 0.750000 0.892947 0.009584
O O16 0.907370 0.750000 0.009482
O O17 0.250000 0.403943 0.402170
O O18 0.497886 0.361774 0.348846
O O19 0.250000 0.641019 0.713105
#
# Coordination Sequence:
#
# PCOD9449617 Si02
#       7
#     8   8   8   8   8   8   8
#     4  10  20  33  49  69  92 117 149 189 229 271
#     4   9  17  30  47  67  93 122 152 187 227 271
#     4   9  17  31  51  71  92 121 155 188 224 267
#     4   8  15  27  42  63  91 120 151 189 229 267
#     4   9  17  30  49  71  92 116 150 189 226 267
#     4   9  15  24  42  66  90 119 155 190 224 265
#     4   9  18  31  46  68  98 126 151 185 229 271
#
# _framework density 21.195155
#
# number of rings (size 3 to 8) (size 9 to 14) (size 15 to 20)
#    0.000    3.000    0.000    2.143    0.000    6.000 
#    0.000    0.714    0.000    0.857    0.000    4.000 
#    0.000    0.000    0.000    0.000    0.000    0.000 
#
# Total GULP energy -312249.791024 kJ/mol
# GULP energy per Si atom -5575.889125 kJ/mol
# Density = 2.114691 g / cm^3
# Si number density = 21.195155 Si / 1000 Ang^3
#
#
#
# Elastic Constant Matrix: (Units=GPa)
#
#
# Indices 1 2 3 4 5 6 
#
# 1 131.8995 3.9335 118.8685 0.0000 0.0000 0.0000
# 2 3.9335 48.1968 -5.0393 0.0000 0.0000 0.0000
# 3 118.8685 -5.0393 213.3563 0.0000 0.0000 0.0000
# 4 0.0000 0.0000 0.0000 19.8624 0.0000 0.0000
# 5 0.0000 0.0000 0.0000 0.0000 34.3916 0.0000
# 6 0.0000 0.0000 0.0000 0.0000 0.0000 -2.0673
#
#
#
# Elastic Compliance Matrix: (Units=1/GPa)
#
#
# Indices 1 2 3 4 5 6 
#
# 1 0.015449 -0.002166 -0.008658 0.000000 0.000000 0.000000
# 2 -0.002166 0.021103 0.001705 0.000000 0.000000 0.000000
# 3 -0.008658 0.001705 0.009551 0.000000 0.000000 0.000000
# 4 0.000000 0.000000 0.000000 0.050346 0.000000 0.000000
# 5 0.000000 0.000000 0.000000 0.000000 0.029077 0.000000
# 6 0.000000 0.000000 0.000000 0.000000 0.000000 -0.483731
#
#
# Mechanical properties :
#
#
# Convention : Reuss Voigt Hill
#
# Bulk Modulus (GPa) = 35.88723 69.88645 52.88684
# Shear Modulus (GPa) = -15.12050 28.81668 6.84809
#
# Velocity S-wave (km/s) = -2.67384 3.69126 1.79944
# Velocity P-wave (km/s) = 2.72690 7.15623 5.41515
#
# Compressibility (1/GPa) = 0.02786507
#
# Stress axis : x y z
#
# Youngs Moduli (GPa) = 64.72847 47.38587 104.69889
#
# Poissons Ratio (x) = 0.10265 0.90653
# Poissons Ratio (y) = 0.14021 -0.17854
# Poissons Ratio (z) = 0.56045 -0.08081
#
# Static dielectric constant tensor:
#      x y z
#    x 1.741950 0.000000 0.000000 
#    y 0.000000 1.817890 0.000000 
#    z 0.000000 0.000000 1.792310 
# 
# From -- ./inp_files/26138.got.cif
#   From: 2010.05.17/outbox.cif.g08.bks.cpg/sg59_14_cif.got.tgz:26138.got - 2010.06.03 14:40:33.
