data_PCOD9449353
_publ_section_title
;
Structure prediction by ZEFSAII (Michael W. Deem and Ramdas Pophale) SiO2 
 PCOD9449353
Probable space group: P M M N
;
_chemical_formula_sum "Si O2"
_cell_formula_units_Z 56
_cell_length_a 19.865491
_cell_length_b 7.483777
_cell_length_c 17.854453
_cell_angle_alpha 90.000000
_cell_angle_beta 90.000000
_cell_angle_gamma 90.000000
_cell_volume 2654.401970
_symmetry_space_group_name_H-M "P M M N"
_symmetry_group_IT_number 59
_space_group.IT_coordinate_system_code '2'
_symmetry_cell_setting 'orthorhombic'
loop_
_space_group_symop_operation_xyz
x,y,z
1/2-x,1/2-y,z
1/2+x,-y,-z
-x,1/2+y,-z
-x,-y,-z
1/2+x,1/2+y,-z
1/2-x,y,z
x,1/2-y,z
loop_
_atom_site_type_symbol
_atom_site_label
_atom_site_fract_x
_atom_site_fract_y
_atom_site_fract_z
Si Si1 0.527899 0.467202 0.820610
Si Si2 0.324109 0.532942 0.719784
Si Si3 0.580004 0.954034 0.413186
Si Si4 0.942069 0.469749 0.651363
Si Si5 0.576674 0.036187 0.974006
Si Si6 0.123381 0.542310 0.873341
Si Si7 0.825334 0.041749 0.548878
O O1 0.525236 0.250000 0.821576
O O2 0.547947 0.523984 0.737445
O O3 0.577729 0.525723 0.887989
O O4 0.453315 0.532418 0.842424
O O5 0.250000 0.484659 0.691285
O O6 0.329131 0.750000 0.719265
O O7 0.382150 0.461947 0.666466
O O8 0.333338 0.468323 0.804981
O O9 0.571535 0.750000 0.436783
O O10 0.505797 0.030260 0.398715
O O11 0.630358 0.035927 0.473427
O O12 0.943768 0.250000 0.650504
O O13 0.873054 0.533144 0.614064
O O14 0.586265 0.250000 0.972825
O O15 0.621818 0.964580 0.042581
O O16 0.500000 0.000000 0.000000
O O17 0.142837 0.750000 0.880627
O O18 0.750000 0.966039 0.540307
O O19 0.817584 0.250000 0.566945
#
# Coordination Sequence:
#
# PCOD9449353 Si02
#       7
#     8   8   8   8   8   8   8
#     4   9  15  27  46  68  94 120 149 189 236 275
#     4  10  20  32  46  65  95 134 166 194 235 288
#     4  11  21  34  52  73  96 120 154 201 244 282
#     4   9  18  32  51  74  97 122 155 194 238 282
#     4   8  14  23  40  64  89 118 148 184 226 267
#     4   9  16  27  42  64  93 122 158 194 226 270
#     4  10  21  37  54  70  93 126 159 190 232 290
#
# _framework density 21.09703
#
# number of rings (size 3 to 8) (size 9 to 14) (size 15 to 20)
#    0.000    2.571    1.429    1.286    0.000    2.286 
#    0.000    1.429    0.000    0.857    0.000    6.000 
#    0.000    0.000    0.000   11.857    0.000   11.429 
#
# Total GULP energy -312227.285258 kJ/mol
# GULP energy per Si atom -5575.487237 kJ/mol
# Density = 2.104901 g / cm^3
# Si number density = 21.097030 Si / 1000 Ang^3
#
#
#
# Elastic Constant Matrix: (Units=GPa)
#
#
# Indices 1 2 3 4 5 6 
#
# 1 93.9281 5.1139 55.4170 0.0000 0.0000 0.0000
# 2 5.1139 61.0084 -3.2958 0.0000 0.0000 0.0000
# 3 55.4170 -3.2958 109.5689 0.0000 0.0000 0.0000
# 4 0.0000 0.0000 0.0000 11.0589 0.0000 0.0000
# 5 0.0000 0.0000 0.0000 0.0000 19.2637 0.0000
# 6 0.0000 0.0000 0.0000 0.0000 0.0000 4.3577
#
#
#
# Elastic Compliance Matrix: (Units=1/GPa)
#
#
# Indices 1 2 3 4 5 6 
#
# 1 0.015350 -0.001709 -0.007815 0.000000 0.000000 0.000000
# 2 -0.001709 0.016608 0.001364 0.000000 0.000000 0.000000
# 3 -0.007815 0.001364 0.013120 0.000000 0.000000 0.000000
# 4 0.000000 0.000000 0.000000 0.090425 0.000000 0.000000
# 5 0.000000 0.000000 0.000000 0.000000 0.051911 0.000000
# 6 0.000000 0.000000 0.000000 0.000000 0.000000 0.229476
#
#
# Mechanical properties :
#
#
# Convention : Reuss Voigt Hill
#
# Bulk Modulus (GPa) = 34.77238 42.10839 38.44039
# Shear Modulus (GPa) = 11.29184 20.75410 16.02297
#
# Velocity S-wave (km/s) = 2.31602 3.13987 2.75887
# Velocity P-wave (km/s) = 4.86517 5.75741 5.32999
#
# Compressibility (1/GPa) = 0.02875846
#
# Stress axis : x y z
#
# Youngs Moduli (GPa) = 65.14483 60.21159 76.21696
#
# Poissons Ratio (x) = 0.10290 0.59565
# Poissons Ratio (y) = 0.11133 -0.10395
# Poissons Ratio (z) = 0.50912 -0.08212
#
# Static dielectric constant tensor:
#      x y z
#    x 1.743330 0.000000 0.000000 
#    y 0.000000 1.787030 0.000000 
#    z 0.000000 0.000000 1.799400 
# 
# From -- ./inp_files/28081.got.cif
#   From: 2010.05.17/outbox.cif.g08.bks.cpg/sg59_15_cif.got.tgz:28081.got - 2010.06.03 14:40:33.
