data_PCOD9449577
_publ_section_title
;
Structure prediction by ZEFSAII (Michael W. Deem and Ramdas Pophale) SiO2 
 PCOD9449577
Probable space group: P M M N
;
_chemical_formula_sum "Si O2"
_cell_formula_units_Z 64
_cell_length_a 7.391348
_cell_length_b 15.115899
_cell_length_c 28.949710
_cell_angle_alpha 90.000000
_cell_angle_beta 90.000000
_cell_angle_gamma 90.000000
_cell_volume 3234.460481
_symmetry_space_group_name_H-M "P M M N"
_symmetry_group_IT_number 59
_space_group.IT_coordinate_system_code '2'
_symmetry_cell_setting 'orthorhombic'
loop_
_space_group_symop_operation_xyz
x,y,z
1/2-x,1/2-y,z
1/2+x,-y,-z
-x,1/2+y,-z
-x,-y,-z
1/2+x,1/2+y,-z
1/2-x,y,z
x,1/2-y,z
loop_
_atom_site_type_symbol
_atom_site_label
_atom_site_fract_x
_atom_site_fract_y
_atom_site_fract_z
Si Si1 0.470402 0.350308 0.741594
Si Si2 0.467364 0.030174 0.930801
Si Si3 0.963734 0.599839 0.515886
Si Si4 0.030091 0.155860 0.581558
Si Si5 0.465377 0.852509 0.978583
Si Si6 0.971971 0.976379 0.340348
Si Si7 0.029467 0.149232 0.847417
Si Si8 0.460249 0.652951 0.619622
O O1 0.250000 0.350670 0.740940
O O2 0.525325 0.250000 0.729191
O O3 0.530265 0.422996 0.704766
O O4 0.525524 0.367346 0.794470
O O5 0.250000 0.022998 0.928125
O O6 0.532619 0.075590 0.883644
O O7 0.534327 0.931303 0.944308
O O8 0.506162 0.100915 0.971606
O O9 0.750000 0.614961 0.519771
O O10 0.032904 0.651972 0.471159
O O11 0.000000 0.500000 0.500000
O O12 0.037679 0.622992 0.565963
O O13 0.250000 0.150605 0.579798
O O14 0.982081 0.250000 0.602780
O O15 0.969574 0.077346 0.614114
O O16 0.250000 0.846417 0.971309
O O17 0.533800 0.750000 0.976017
O O18 0.750000 0.976312 0.340271
O O19 0.036411 0.075844 0.348244
O O20 0.250000 0.148859 0.848135
O O21 0.974903 0.250000 0.860070
O O22 0.250000 0.659643 0.632341
O O23 0.542542 0.750000 0.623232
#
# Coordination Sequence:
#
# PCOD9449577 Si02
#       8
#     8   8   8   8   8   8   8   8
#     4   8  13  21  36  60  87 109 132 170 218 260
#     4   9  16  26  41  59  82 114 148 180 217 259
#     4  11  20  32  48  66  90 115 144 175 209 251
#     4   9  16  25  40  61  82 104 132 165 200 242
#     4   9  17  27  38  56  84 115 147 181 216 256
#     4   9  15  25  40  59  84 111 136 166 208 253
#     4   8  13  21  35  58  84 107 135 174 216 255
#     4  10  20  33  47  64  88 117 146 176 212 251
#
# _framework density 19.786916999999999
#
# number of rings (size 3 to 8) (size 9 to 14) (size 15 to 20)
#    0.000    2.875    1.250    2.250    0.000    3.000 
#    0.000    0.000    0.000    0.750    0.000    6.125 
#    0.000    1.000    0.000    2.875    0.000    3.500 
#
# Total GULP energy -356803.556228 kJ/mol
# GULP energy per Si atom -5575.055566 kJ/mol
# Density = 1.974188 g / cm^3
# Si number density = 19.786917 Si / 1000 Ang^3
#
#
#
# Elastic Constant Matrix: (Units=GPa)
#
#
# Indices 1 2 3 4 5 6 
#
# 1 69.3615 5.2942 1.0317 0.0000 0.0000 0.0000
# 2 5.2942 207.9804 97.0133 0.0000 0.0000 0.0000
# 3 1.0317 97.0133 121.6259 0.0000 0.0000 0.0000
# 4 0.0000 0.0000 0.0000 34.0279 0.0000 0.0000
# 5 0.0000 0.0000 0.0000 0.0000 5.7841 0.0000
# 6 0.0000 0.0000 0.0000 0.0000 0.0000 -1.8198
#
#
#
# Elastic Compliance Matrix: (Units=1/GPa)
#
#
# Indices 1 2 3 4 5 6 
#
# 1 0.014451 -0.000495 0.000272 0.000000 0.000000 0.000000
# 2 -0.000495 0.007674 -0.006117 0.000000 0.000000 0.000000
# 3 0.000272 -0.006117 0.013099 0.000000 0.000000 0.000000
# 4 0.000000 0.000000 0.000000 0.029388 0.000000 0.000000
# 5 0.000000 0.000000 0.000000 0.000000 0.172889 0.000000
# 6 0.000000 0.000000 0.000000 0.000000 0.000000 -0.549499
#
#
# Mechanical properties :
#
#
# Convention : Reuss Voigt Hill
#
# Bulk Modulus (GPa) = 44.35678 67.29402 55.82540
# Shear Modulus (GPa) = -17.13475 27.30699 5.08612
#
# Velocity S-wave (km/s) = -2.94592 3.71894 1.60500
# Velocity P-wave (km/s) = 3.30070 7.24733 5.63110
#
# Compressibility (1/GPa) = 0.02254447
#
# Stress axis : x y z
#
# Youngs Moduli (GPa) = 69.19967 130.31074 76.34375
#
# Poissons Ratio (x) = 0.06447 -0.02077
# Poissons Ratio (y) = 0.03424 0.46698
# Poissons Ratio (z) = -0.01883 0.79709
#
# Static dielectric constant tensor:
#      x y z
#    x 1.864460 0.000000 0.000000 
#    y 0.000000 1.750630 0.000000 
#    z 0.000000 0.000000 1.666310 
# 
# From -- ./inp_files/33244.got.cif
#   From: 2010.05.17/outbox.cif.g08.bks.cpg/sg59_17_cif.got.tgz:33244.got - 2010.06.03 14:40:33.
