data_PCOD9449480
_publ_section_title
;
Structure prediction by ZEFSAII (Michael W. Deem and Ramdas Pophale) SiO2 
 PCOD9449480
Probable space group: P M M N
;
_chemical_formula_sum "Si O2"
_cell_formula_units_Z 64
_cell_length_a 8.951547
_cell_length_b 33.191444
_cell_length_c 11.626423
_cell_angle_alpha 90.000000
_cell_angle_beta 90.000000
_cell_angle_gamma 90.000000
_cell_volume 3454.382007
_symmetry_space_group_name_H-M "P M M N"
_symmetry_group_IT_number 59
_space_group.IT_coordinate_system_code '2'
_symmetry_cell_setting 'orthorhombic'
loop_
_space_group_symop_operation_xyz
x,y,z
1/2-x,1/2-y,z
1/2+x,-y,-z
-x,1/2+y,-z
-x,-y,-z
1/2+x,1/2+y,-z
1/2-x,y,z
x,1/2-y,z
loop_
_atom_site_type_symbol
_atom_site_label
_atom_site_fract_x
_atom_site_fract_y
_atom_site_fract_z
Si Si1 0.072789 0.976045 0.671039
Si Si2 0.929861 0.203519 0.530999
Si Si3 0.569925 0.367148 0.690504
Si Si4 0.925895 0.295129 0.093945
Si Si5 0.427698 0.164659 0.306349
Si Si6 0.572546 0.559816 0.441774
Si Si7 0.928434 0.374571 0.953109
Si Si8 0.928603 0.584188 0.832088
O O1 0.250000 0.969552 0.675012
O O2 0.004451 0.953610 0.559997
O O3 0.996593 0.956638 0.781878
O O4 0.045527 0.023327 0.648333
O O5 0.750000 0.204091 0.520164
O O6 0.981550 0.250000 0.533008
O O7 0.966802 0.177545 0.644531
O O8 0.995051 0.179183 0.422682
O O9 0.750000 0.371307 0.685200
O O10 0.495107 0.399401 0.606759
O O11 0.522780 0.376080 0.821084
O O12 0.750000 0.298344 0.126117
O O13 0.952776 0.250000 0.051867
O O14 0.023143 0.304849 0.205690
O O15 0.955460 0.329435 0.000535
O O16 0.250000 0.164496 0.321771
O O17 0.472401 0.120706 0.255911
O O18 0.750000 0.563405 0.460599
O O19 0.750000 0.381867 0.958419
O O20 0.009332 0.403796 0.043092
O O21 0.750000 0.582432 0.834487
#
# Coordination Sequence:
#
# PCOD9449480 Si02
#       8
#     8   8   8   8   8   8   8   8
#     4  10  20  35  57  84 111 137 169 210 256 309
#     4  10  21  35  51  74 104 137 174 216 261 309
#     4  10  21  37  56  76 102 140 180 217 260 309
#     4   9  17  30  50  74  99 130 169 215 264 308
#     4  10  20  32  48  74 106 136 168 209 259 313
#     4  10  21  36  56  83 112 140 170 209 258 310
#     4   9  19  35  53  74 101 135 177 220 261 309
#     4  10  20  34  54  80 108 139 174 215 262 308
#
# _framework density 18.527191999999999
#
# number of rings (size 3 to 8) (size 9 to 14) (size 15 to 20)
#    0.000    2.250    0.000    2.625    0.000    8.500 
#    0.000    3.125    0.000    0.000    0.000    3.500 
#    0.000    0.000    0.000    0.000    0.000    0.000 
#
# Total GULP energy -357221.486327 kJ/mol
# GULP energy per Si atom -5581.585724 kJ/mol
# Density = 1.848502 g / cm^3
# Si number density = 18.527192 Si / 1000 Ang^3
#
#
#
# Elastic Constant Matrix: (Units=GPa)
#
#
# Indices 1 2 3 4 5 6 
#
# 1 20.3710 19.9416 15.8441 0.0000 0.0000 0.0000
# 2 19.9416 51.6808 20.9679 0.0000 0.0000 0.0000
# 3 15.8441 20.9679 59.8240 0.0000 0.0000 0.0000
# 4 0.0000 0.0000 0.0000 11.3928 0.0000 0.0000
# 5 0.0000 0.0000 0.0000 0.0000 13.2694 0.0000
# 6 0.0000 0.0000 0.0000 0.0000 0.0000 21.9218
#
#
#
# Elastic Compliance Matrix: (Units=1/GPa)
#
#
# Indices 1 2 3 4 5 6 
#
# 1 0.086920 -0.028211 -0.013133 0.000000 0.000000 0.000000
# 2 -0.028211 0.031713 -0.003644 0.000000 0.000000 0.000000
# 3 -0.013133 -0.003644 0.021471 0.000000 0.000000 0.000000
# 4 0.000000 0.000000 0.000000 0.087775 0.000000 0.000000
# 5 0.000000 0.000000 0.000000 0.000000 0.075361 0.000000
# 6 0.000000 0.000000 0.000000 0.000000 0.000000 0.045617
#
#
# Mechanical properties :
#
#
# Convention : Reuss Voigt Hill
#
# Bulk Modulus (GPa) = 19.94828 27.26478 23.60653
# Shear Modulus (GPa) = 10.97595 14.32495 12.65045
#
# Velocity S-wave (km/s) = 2.43662 2.78364 2.61589
# Velocity P-wave (km/s) = 4.32511 5.00795 4.67900
#
# Compressibility (1/GPa) = 0.05012964
#
# Stress axis : x y z
#
# Youngs Moduli (GPa) = 11.50485 31.53247 46.57461
#
# Poissons Ratio (x) = 0.88956 0.61165
# Poissons Ratio (y) = 0.32456 0.16971
# Poissons Ratio (z) = 0.15109 0.11490
#
# Static dielectric constant tensor:
#      x y z
#    x 1.618080 0.000000 0.000000 
#    y 0.000000 1.647400 0.000000 
#    z 0.000000 0.000000 1.620700 
# 
# From -- ./inp_files/14964.got.cif
#   From: 2010.05.17/outbox.cif.g08.bks.cpg/sg59_8_cif.got.tgz:14964.got - 2010.06.03 14:40:33.
