data_PCOD9449173
_publ_section_title
;
Structure prediction by ZEFSAII (Michael W. Deem and Ramdas Pophale) SiO2 
 PCOD9449173
Probable space group: P M M N
;
_chemical_formula_sum "Si O2"
_cell_formula_units_Z 48
_cell_length_a 10.483119
_cell_length_b 7.877897
_cell_length_c 30.142253
_cell_angle_alpha 90.000000
_cell_angle_beta 90.000000
_cell_angle_gamma 90.000000
_cell_volume 2489.295906
_symmetry_space_group_name_H-M "P M M N"
_symmetry_group_IT_number 59
_space_group.IT_coordinate_system_code '2'
_symmetry_cell_setting 'orthorhombic'
loop_
_space_group_symop_operation_xyz
x,y,z
1/2-x,1/2-y,z
1/2+x,-y,-z
-x,1/2+y,-z
-x,-y,-z
1/2+x,1/2+y,-z
1/2-x,y,z
x,1/2-y,z
loop_
_atom_site_type_symbol
_atom_site_label
_atom_site_fract_x
_atom_site_fract_y
_atom_site_fract_z
Si Si1 0.002683 0.047255 0.104243
Si Si2 0.397230 0.544795 0.804379
Si Si3 0.893993 0.952476 0.535766
Si Si4 0.250000 0.453674 0.949315
Si Si5 0.893919 0.453030 0.636551
Si Si6 0.895304 0.546502 0.295179
Si Si7 0.750000 0.958573 0.948479
O O1 0.019239 0.250000 0.107911
O O2 0.980339 0.981996 0.154220
O O3 0.124680 0.982104 0.077640
O O4 0.875227 0.014529 0.076310
O O5 0.250000 0.489164 0.811068
O O6 0.397492 0.750000 0.805104
O O7 0.436472 0.489021 0.755342
O O8 0.750000 0.015552 0.524860
O O9 0.888633 0.750000 0.537624
O O10 0.926317 0.015776 0.585133
O O11 0.000000 0.000000 0.500000
O O12 0.250000 0.250000 0.949241
O O13 0.250000 0.513090 0.000331
O O14 0.750000 0.520618 0.644266
O O15 0.888405 0.250000 0.643063
O O16 0.002041 0.520746 0.669637
O O17 0.750000 0.479995 0.300767
O O18 0.888626 0.750000 0.300646
O O19 0.750000 0.750000 0.949059
#
# Coordination Sequence:
#
# PCOD9449173 Si02
#       7
#     8   8   8   4   8   8   4
#     4  10  19  36  56  74 101 139 173 210 259 314
#     4   9  17  31  51  74  96 126 169 208 250 306
#     4  10  21  36  55  80 110 144 183 225 267 313
#     4  11  21  33  53  81 103 131 173 215 258 311
#     4   9  18  34  53  73 103 141 175 209 259 319
#     4   9  18  32  51  74  99 130 167 211 259 305
#     4   9  20  35  53  77 105 133 171 215 258 311
#
# _framework density 19.282561000000001
#
# number of rings (size 3 to 8) (size 9 to 14) (size 15 to 20)
#    0.000    2.500    0.833    1.250    0.000    3.000 
#    1.500    2.917    0.000    0.000    0.000    0.000 
#    0.000    0.000    0.000    0.000    0.000    0.000 
#
# Total GULP energy -267786.216208 kJ/mol
# GULP energy per Si atom -5578.879504 kJ/mol
# Density = 1.923867 g / cm^3
# Si number density = 19.282561 Si / 1000 Ang^3
#
#
#
# Elastic Constant Matrix: (Units=GPa)
#
#
# Indices 1 2 3 4 5 6 
#
# 1 139.0951 -4.4849 117.9940 0.0000 0.0000 0.0000
# 2 -4.4849 13.6866 -4.0318 0.0000 0.0000 0.0000
# 3 117.9940 -4.0318 176.1016 0.0000 0.0000 0.0000
# 4 0.0000 0.0000 0.0000 23.3073 0.0000 0.0000
# 5 0.0000 0.0000 0.0000 0.0000 42.4088 0.0000
# 6 0.0000 0.0000 0.0000 0.0000 0.0000-5629.8140
#
#
#
# Elastic Compliance Matrix: (Units=1/GPa)
#
#
# Indices 1 2 3 4 5 6 
#
# 1 0.016722 0.002194 -0.011154 0.000000 0.000000 0.000000
# 2 0.002194 0.073848 0.000221 0.000000 0.000000 0.000000
# 3 -0.011154 0.000221 0.013157 0.000000 0.000000 0.000000
# 4 0.000000 0.000000 0.000000 0.042905 0.000000 0.000000
# 5 0.000000 0.000000 0.000000 0.000000 0.023580 0.000000
# 6 0.000000 0.000000 0.000000 0.000000 0.000000 -0.000178
#
#
# Mechanical properties :
#
#
# Convention : Reuss Voigt Hill
#
# Bulk Modulus (GPa) = 11.59444 60.87089 36.23266
# Shear Modulus (GPa) = 23.11996 -1098.19254 -537.53629
#
# Velocity S-wave (km/s) = 3.46643 -23.89064 -16.71446
# Velocity P-wave (km/s) = 4.69547 27.00705 18.80602
#
# Compressibility (1/GPa) = 0.08624823
#
# Stress axis : x y z
#
# Youngs Moduli (GPa) = 59.80112 13.54133 76.00370
#
# Poissons Ratio (x) = -0.02971 0.84776
# Poissons Ratio (y) = -0.13119 -0.01679
# Poissons Ratio (z) = 0.66703 -0.00299
#
# Static dielectric constant tensor:
#      x y z
#    x 1.670770 0.000000 0.000000 
#    y 0.000000 1.692140 0.000000 
#    z 0.000000 0.000000 1.653890 
# 
# From -- ./inp_files/33084.got.cif
#   From: 2010.05.17/outbox.cif.g08.bks.cpg/sg59_17_cif.got.tgz:33084.got - 2010.06.03 14:40:33.
