data_PCOD9449355
_publ_section_title
;
Structure prediction by ZEFSAII (Michael W. Deem and Ramdas Pophale) SiO2 
 PCOD9449355
Probable space group: P M M N
;
_chemical_formula_sum "Si O2"
_cell_formula_units_Z 56
_cell_length_a 9.340458
_cell_length_b 30.930694
_cell_length_c 12.762868
_cell_angle_alpha 90.000000
_cell_angle_beta 90.000000
_cell_angle_gamma 90.000000
_cell_volume 3687.279968
_symmetry_space_group_name_H-M "P M M N"
_symmetry_group_IT_number 59
_space_group.IT_coordinate_system_code '2'
_symmetry_cell_setting 'orthorhombic'
loop_
_space_group_symop_operation_xyz
x,y,z
1/2-x,1/2-y,z
1/2+x,-y,-z
-x,1/2+y,-z
-x,-y,-z
1/2+x,1/2+y,-z
1/2-x,y,z
x,1/2-y,z
loop_
_atom_site_type_symbol
_atom_site_label
_atom_site_fract_x
_atom_site_fract_y
_atom_site_fract_z
Si Si1 0.077692 0.638919 0.124337
Si Si2 0.580554 0.698164 0.288409
Si Si3 0.585260 0.458162 0.127412
Si Si4 0.084992 0.802481 0.500000
Si Si5 0.919446 0.801836 0.711592
Si Si6 0.085260 0.541838 0.127412
Si Si7 0.422308 0.638919 0.875664
O O1 0.250000 0.642588 0.139337
O O2 0.033914 0.589921 0.156096
O O3 0.993181 0.673321 0.192842
O O4 0.050997 0.644172 0.000000
O O5 0.750000 0.689219 0.294738
O O6 0.563423 0.750000 0.276384
O O7 0.500010 0.684835 0.395387
O O8 0.750000 0.462013 0.159515
O O9 0.500000 0.500000 0.164877
O O10 0.533914 0.410079 0.156096
O O11 0.582370 0.458721 1.000000
O O12 0.250000 0.817425 0.500000
O O13 0.087838 0.750000 0.500000
O O14 0.999990 0.815165 0.604614
O O15 0.750000 0.810781 0.705263
O O16 0.936577 0.750000 0.723616
O O17 0.993181 0.826679 0.807158
O O18 0.250000 0.537987 0.159515
O O19 0.250000 0.642588 0.860664
#
# Coordination Sequence:
#
# PCOD9449355 Si02
#       7
#     8   8   8   8   8   8   8
#     4   9  18  31  45  64  92 124 156 186 218 264
#     4  10  20  32  46  66  92 119 149 188 229 265
#     4   8  14  25  41  61  85 113 146 184 222 259
#     4   9  17  31  51  69  84 109 148 189 227 267
#     4  10  20  32  46  66  92 119 149 188 229 265
#     4   8  14  25  41  61  85 113 146 184 222 259
#     4   9  18  31  45  64  92 124 156 186 218 264
#
# _framework density 15.187346
#
# number of rings (size 3 to 8) (size 9 to 14) (size 15 to 20)
#    0.000    3.000    0.000    3.000    0.000    5.714 
#    0.000    5.714    0.000    0.000    0.000    1.000 
#    0.000    0.000    0.000    0.000    0.000    0.000 
#
# Total GULP energy -311771.123380 kJ/mol
# GULP energy per Si atom -5567.341489 kJ/mol
# Density = 1.515278 g / cm^3
# Si number density = 15.187346 Si / 1000 Ang^3
#
#
#
# Elastic Constant Matrix: (Units=GPa)
#
#
# Indices 1 2 3 4 5 6 
#
# 1 91.0653 62.5316 60.1653 0.0000 0.0000 0.0000
# 2 62.5316 72.9265 50.8835 0.0000 0.0000 0.0000
# 3 60.1653 50.8835 75.6861 0.0000 0.0000 0.0000
# 4 0.0000 0.0000 0.0000 -2.6701 0.0000 0.0000
# 5 0.0000 0.0000 0.0000 0.0000 23.2852 0.0000
# 6 0.0000 0.0000 0.0000 0.0000 0.0000 28.8536
#
#
#
# Elastic Compliance Matrix: (Units=1/GPa)
#
#
# Indices 1 2 3 4 5 6 
#
# 1 0.032634 -0.018613 -0.013428 0.000000 0.000000 0.000000
# 2 -0.018613 0.036444 -0.009705 0.000000 0.000000 0.000000
# 3 -0.013428 -0.009705 0.030412 0.000000 0.000000 0.000000
# 4 0.000000 0.000000 0.000000 -0.374519 0.000000 0.000000
# 5 0.000000 0.000000 0.000000 0.000000 0.042946 0.000000
# 6 0.000000 0.000000 0.000000 0.000000 0.000000 0.034658
#
#
# Mechanical properties :
#
#
# Convention : Reuss Voigt Hill
#
# Bulk Modulus (GPa) = 62.51218 65.20431 63.85824
# Shear Modulus (GPa) = -46.04023 14.30023 -15.87000
#
# Velocity S-wave (km/s) = -5.51187 3.07186 -3.23607
# Velocity P-wave (km/s) = 0.86168 7.45710 5.30805
#
# Compressibility (1/GPa) = 0.01599688
#
# Stress axis : x y z
#
# Youngs Moduli (GPa) = 30.64310 27.43950 32.88189
#
# Poissons Ratio (x) = 0.51072 0.44155
# Poissons Ratio (y) = 0.57035 0.31913
# Poissons Ratio (z) = 0.41149 0.26631
#
# Static dielectric constant tensor:
#      x y z
#    x 1.507500 0.000000 0.000000 
#    y 0.000000 1.508450 0.000000 
#    z 0.000000 0.000000 1.482470 
# 
# From -- ./inp_files/21721.got.cif
#   From: 2010.05.17/outbox.cif.g08.bks.cpg/sg59_11_cif.got.tgz:21721.got - 2010.06.03 14:40:33.
