data_PCOD9449947
_publ_section_title
;
Structure prediction by ZEFSAII (Michael W. Deem and Ramdas Pophale) SiO2 
 PCOD9449947
Probable space group: P M M N
;
_chemical_formula_sum "Si O2"
_cell_formula_units_Z 40
_cell_length_a 7.605321
_cell_length_b 9.422301
_cell_length_c 26.714726
_cell_angle_alpha 90.000000
_cell_angle_beta 90.000000
_cell_angle_gamma 90.000000
_cell_volume 1914.367211
_symmetry_space_group_name_H-M "P M M N"
_symmetry_group_IT_number 59
_space_group.IT_coordinate_system_code '2'
_symmetry_cell_setting 'orthorhombic'
loop_
_space_group_symop_operation_xyz
x,y,z
1/2-x,1/2-y,z
1/2+x,-y,-z
-x,1/2+y,-z
-x,-y,-z
1/2+x,1/2+y,-z
1/2-x,y,z
x,1/2-y,z
loop_
_atom_site_type_symbol
_atom_site_label
_atom_site_fract_x
_atom_site_fract_y
_atom_site_fract_z
Si Si1 0.035449 0.084509 0.840723
Si Si2 0.539075 0.411626 0.645379
Si Si3 0.039338 0.410373 0.951119
Si Si4 0.038671 0.411921 0.450080
Si Si5 0.961691 0.088731 0.255220
O O1 0.250000 0.081659 0.839645
O O2 0.985181 0.250000 0.834177
O O3 0.978435 0.036928 0.896411
O O4 0.972889 0.987570 0.795259
O O5 0.750000 0.403179 0.640001
O O6 0.471214 0.250000 0.646058
O O7 0.471474 0.502637 0.598325
O O8 0.503050 0.493729 0.696687
O O9 0.250000 0.403491 0.947546
O O10 0.972263 0.250000 0.957394
O O11 0.000000 0.500000 0.000000
O O12 0.250000 0.403701 0.445533
O O13 0.971943 0.250000 0.452565
O O14 0.000000 0.500000 0.500000
O O15 0.750000 0.095478 0.251599
O O16 0.027257 0.250000 0.260598
#
# Coordination Sequence:
#
# PCOD9449947 Si02
#       5
#     8   8   8   8   8
#     4   8  15  30  50  70  96 131 168 207 250 295
#     4  10  21  37  56  77 103 137 173 208 251 301
#     4   9  18  32  50  73 100 130 166 207 251 300
#     4  10  21  37  57  80 106 137 172 210 253 299
#     4  10  20  33  52  79 105 130 166 210 253 300
#
# _framework density 20.894632999999999
#
# number of rings (size 3 to 8) (size 9 to 14) (size 15 to 20)
#    0.000    2.600    0.000    3.000    0.000    5.600 
#    0.000    3.000    0.000    1.200    0.000    0.000 
#    0.000    0.000    0.000    0.000    0.000    0.000 
#
# Total GULP energy -223303.887828 kJ/mol
# GULP energy per Si atom -5582.597196 kJ/mol
# Density = 2.084708 g / cm^3
# Si number density = 20.894633 Si / 1000 Ang^3
#
#
#
# Elastic Constant Matrix: (Units=GPa)
#
#
# Indices 1 2 3 4 5 6 
#
# 1 42.4949 7.7437 0.8435 0.0000 0.0000 0.0000
# 2 7.7437 196.3106 145.6939 0.0000 0.0000 0.0000
# 3 0.8435 145.6939 242.3120 0.0000 0.0000 0.0000
# 4 0.0000 0.0000 0.0000 45.2068 0.0000 0.0000
# 5 0.0000 0.0000 0.0000 0.0000 27.0694 0.0000
# 6 0.0000 0.0000 0.0000 0.0000 0.0000 17.5888
#
#
#
# Elastic Compliance Matrix: (Units=1/GPa)
#
#
# Indices 1 2 3 4 5 6 
#
# 1 0.023804 -0.001585 0.000870 0.000000 0.000000 0.000000
# 2 -0.001585 0.009304 -0.005589 0.000000 0.000000 0.000000
# 3 0.000870 -0.005589 0.007484 0.000000 0.000000 0.000000
# 4 0.000000 0.000000 0.000000 0.022121 0.000000 0.000000
# 5 0.000000 0.000000 0.000000 0.000000 0.036942 0.000000
# 6 0.000000 0.000000 0.000000 0.000000 0.000000 0.056854
#
#
# Mechanical properties :
#
#
# Convention : Reuss Voigt Hill
#
# Bulk Modulus (GPa) = 35.73313 87.74218 61.73765
# Shear Modulus (GPa) = 28.01988 39.76209 33.89099
#
# Velocity S-wave (km/s) = 3.66595 4.36705 4.03177
# Velocity P-wave (km/s) = 5.92095 8.21657 7.16134
#
# Compressibility (1/GPa) = 0.02798524
#
# Stress axis : x y z
#
# Youngs Moduli (GPa) = 42.01026 107.47737 133.61381
#
# Poissons Ratio (x) = 0.17030 -0.11623
# Poissons Ratio (y) = 0.06657 0.74675
# Poissons Ratio (z) = -0.03654 0.60067
#
# Static dielectric constant tensor:
#      x y z
#    x 1.803470 0.000000 0.000000 
#    y 0.000000 1.734050 0.000000 
#    z 0.000000 0.000000 1.721380 
# 
# From -- ./inp_files/28722.got.cif
#   From: 2010.05.17/outbox.cif.g08.bks.cpg/sg59_15_cif.got.tgz:28722.got - 2010.06.03 14:40:33.
