data_PCOD9449520
_publ_section_title
;
Structure prediction by ZEFSAII (Michael W. Deem and Ramdas Pophale) SiO2 
 PCOD9449520
Probable space group: P M M N
;
_chemical_formula_sum "Si O2"
_cell_formula_units_Z 64
_cell_length_a 21.636928
_cell_length_b 9.114300
_cell_length_c 16.824785
_cell_angle_alpha 90.000000
_cell_angle_beta 90.000000
_cell_angle_gamma 90.000000
_cell_volume 3317.939345
_symmetry_space_group_name_H-M "P M M N"
_symmetry_group_IT_number 59
_space_group.IT_coordinate_system_code '2'
_symmetry_cell_setting 'orthorhombic'
loop_
_space_group_symop_operation_xyz
x,y,z
1/2-x,1/2-y,z
1/2+x,-y,-z
-x,1/2+y,-z
-x,-y,-z
1/2+x,1/2+y,-z
1/2-x,y,z
x,1/2-y,z
loop_
_atom_site_type_symbol
_atom_site_label
_atom_site_fract_x
_atom_site_fract_y
_atom_site_fract_z
Si Si1 0.993880 0.574184 0.172073
Si Si2 0.321503 0.926385 0.560545
Si Si3 0.180355 0.076720 0.066941
Si Si4 0.082358 0.917210 0.957976
Si Si5 0.882025 0.921787 0.771234
Si Si6 0.818371 0.409766 0.182368
Si Si7 0.610886 0.921301 0.300588
Si Si8 0.323568 0.577748 0.376824
O O1 0.992588 0.750000 0.165295
O O2 0.971922 0.504711 0.087817
O O3 0.947201 0.532985 0.245067
O O4 0.059668 0.512689 0.197365
O O5 0.250000 0.971602 0.579315
O O6 0.322768 0.750000 0.565838
O O7 0.334398 0.965095 0.468583
O O8 0.371981 0.994169 0.619309
O O9 0.250000 0.025228 0.045417
O O10 0.176466 0.250000 0.046533
O O11 0.170664 0.062576 0.161484
O O12 0.122199 0.996272 0.026111
O O13 0.064354 0.750000 0.979263
O O14 0.133218 0.909790 0.887820
O O15 0.898247 0.750000 0.766618
O O16 0.859386 0.982600 0.687304
O O17 0.750000 0.421475 0.149586
O O18 0.823623 0.250000 0.224398
O O19 0.832372 0.539201 0.242509
O O20 0.605340 0.750000 0.316601
O O21 0.250000 0.564845 0.363339
O O22 0.339927 0.750000 0.367667
#
# Coordination Sequence:
#
# PCOD9449520 Si02
#       8
#     8   8   8   8   8   8   8   8
#     4  10  22  40  58  78 110 151 190 228 274 328
#     4   9  18  33  54  81 113 147 181 220 271 330
#     4  10  22  39  58  83 115 145 174 218 278 336
#     4  10  20  35  56  82 110 142 184 228 268 318
#     4  11  23  39  60  84 109 142 187 235 280 325
#     4   9  17  29  46  70 103 141 177 216 264 316
#     4  10  20  32  49  76 107 140 182 227 268 318
#     4   9  19  37  60  85 113 145 180 221 275 334
#
# _framework density 19.289079999999998
#
# number of rings (size 3 to 8) (size 9 to 14) (size 15 to 20)
#    0.000    2.250    0.000    3.375    0.000    7.500 
#    0.000    1.875    0.000    0.000    0.000    0.000 
#    0.000    0.000    0.000    0.000    0.000    0.000 
#
# Total GULP energy -356957.654640 kJ/mol
# GULP energy per Si atom -5577.463354 kJ/mol
# Density = 1.924518 g / cm^3
# Si number density = 19.289080 Si / 1000 Ang^3
#
#
#
# Elastic Constant Matrix: (Units=GPa)
#
#
# Indices 1 2 3 4 5 6 
#
# 1 63.5153 28.8173 34.3946 0.0000 0.0000 0.0000
# 2 28.8173 51.6929 39.5573 0.0000 0.0000 0.0000
# 3 34.3946 39.5573 105.2595 0.0000 0.0000 0.0000
# 4 0.0000 0.0000 0.0000 31.4841 0.0000 0.0000
# 5 0.0000 0.0000 0.0000 0.0000 27.6910 0.0000
# 6 0.0000 0.0000 0.0000 0.0000 0.0000 19.0753
#
#
#
# Elastic Compliance Matrix: (Units=1/GPa)
#
#
# Indices 1 2 3 4 5 6 
#
# 1 0.022017 -0.009501 -0.003624 0.000000 0.000000 0.000000
# 2 -0.009501 0.031254 -0.008641 0.000000 0.000000 0.000000
# 3 -0.003624 -0.008641 0.013932 0.000000 0.000000 0.000000
# 4 0.000000 0.000000 0.000000 0.031762 0.000000 0.000000
# 5 0.000000 0.000000 0.000000 0.000000 0.036113 0.000000
# 6 0.000000 0.000000 0.000000 0.000000 0.000000 0.052424
#
#
# Mechanical properties :
#
#
# Convention : Reuss Voigt Hill
#
# Bulk Modulus (GPa) = 42.24477 47.33399 44.78938
# Shear Modulus (GPa) = 20.92721 23.49665 22.21193
#
# Velocity S-wave (km/s) = 3.29739 3.49396 3.39710
# Velocity P-wave (km/s) = 6.03701 6.39293 6.21752
#
# Compressibility (1/GPa) = 0.02367157
#
# Stress axis : x y z
#
# Youngs Moduli (GPa) = 45.41899 31.99607 71.77832
#
# Poissons Ratio (x) = 0.30399 0.26011
# Poissons Ratio (y) = 0.43152 0.62023
# Poissons Ratio (z) = 0.16459 0.27648
#
# Static dielectric constant tensor:
#      x y z
#    x 1.684190 0.000000 0.000000 
#    y 0.000000 1.698290 0.000000 
#    z 0.000000 0.000000 1.676570 
# 
# From -- ./inp_files/24714.got.cif
#   From: 2010.05.17/outbox.cif.g08.bks.cpg/sg59_13_cif.got.tgz:24714.got - 2010.06.03 14:40:33.
