data_PCOD9449177
_publ_section_title
;
Structure prediction by ZEFSAII (Michael W. Deem and Ramdas Pophale) SiO2 
 PCOD9449177
Probable space group: P M M N
;
_chemical_formula_sum "Si O2"
_cell_formula_units_Z 48
_cell_length_a 9.814799
_cell_length_b 7.596243
_cell_length_c 30.232902
_cell_angle_alpha 90.000000
_cell_angle_beta 90.000000
_cell_angle_gamma 90.000000
_cell_volume 2254.032094
_symmetry_space_group_name_H-M "P M M N"
_symmetry_group_IT_number 59
_space_group.IT_coordinate_system_code '2'
_symmetry_cell_setting 'orthorhombic'
loop_
_space_group_symop_operation_xyz
x,y,z
1/2-x,1/2-y,z
1/2+x,-y,-z
-x,1/2+y,-z
-x,-y,-z
1/2+x,1/2+y,-z
1/2-x,y,z
x,1/2-y,z
loop_
_atom_site_type_symbol
_atom_site_label
_atom_site_fract_x
_atom_site_fract_y
_atom_site_fract_z
Si Si1 0.975636 0.546895 0.108356
Si Si2 0.594432 0.462199 0.803891
Si Si3 0.092964 0.961707 0.457414
Si Si4 0.250000 0.465852 0.957837
Si Si5 0.405152 0.042510 0.622100
Si Si6 0.094868 0.458614 0.297312
Si Si7 0.750000 0.536526 0.940229
O O1 0.932159 0.750000 0.114276
O O2 0.995549 0.470200 0.157444
O O3 0.121268 0.536281 0.085570
O O4 0.876142 0.470813 0.071535
O O5 0.750000 0.526689 0.810913
O O6 0.598083 0.250000 0.807977
O O7 0.557442 0.504613 0.753607
O O8 0.250000 0.027209 0.460343
O O9 0.102918 0.750000 0.453430
O O10 0.007718 0.030843 0.415216
O O11 0.000000 0.000000 0.500000
O O12 0.250000 0.250000 0.960267
O O13 0.250000 0.521692 0.008623
O O14 0.250000 0.970515 0.621948
O O15 0.392631 0.250000 0.612568
O O16 0.482825 0.026120 0.668635
O O17 0.250000 0.529165 0.304805
O O18 0.101341 0.250000 0.303241
O O19 0.750000 0.750000 0.938416
#
# Coordination Sequence:
#
# PCOD9449177 Si02
#       7
#     8   8   8   4   8   8   4
#     4  10  19  36  57  78 105 141 182 224 268 324
#     4   9  17  32  55  80 102 135 184 228 268 321
#     4  10  21  37  59  87 118 154 195 239 285 330
#     4   9  20  35  53  79 109 139 177 225 272 323
#     4  10  21  38  59  83 112 149 193 236 277 327
#     4  10  21  36  56  82 111 143 178 224 282 336
#     4  11  21  33  53  81 109 141 179 221 272 325
#
# _framework density 21.295171
#
# number of rings (size 3 to 8) (size 9 to 14) (size 15 to 20)
#    0.000    2.167    0.833    2.250    0.000    4.333 
#    1.500    1.250    0.000    0.000    0.000    0.000 
#    0.000    0.000    0.000    0.000    0.000    0.000 
#
# Total GULP energy -267842.530469 kJ/mol
# GULP energy per Si atom -5580.052718 kJ/mol
# Density = 2.124670 g / cm^3
# Si number density = 21.295171 Si / 1000 Ang^3
#
#
#
# Elastic Constant Matrix: (Units=GPa)
#
#
# Indices 1 2 3 4 5 6 
#
# 1 143.1205 -5.3782 77.0074 0.0000 0.0000 0.0000
# 2 -5.3782 51.3814 -10.7066 0.0000 0.0000 0.0000
# 3 77.0074 -10.7066 154.8207 0.0000 0.0000 0.0000
# 4 0.0000 0.0000 0.0000 13.8130 0.0000 0.0000
# 5 0.0000 0.0000 0.0000 0.0000 108.7308 0.0000
# 6 0.0000 0.0000 0.0000 0.0000 0.0000 13.6946
#
#
#
# Elastic Compliance Matrix: (Units=1/GPa)
#
#
# Indices 1 2 3 4 5 6 
#
# 1 0.009540 0.000010 -0.004745 0.000000 0.000000 0.000000
# 2 0.000010 0.019747 0.001361 0.000000 0.000000 0.000000
# 3 -0.004745 0.001361 0.008913 0.000000 0.000000 0.000000
# 4 0.000000 0.000000 0.000000 0.072396 0.000000 0.000000
# 5 0.000000 0.000000 0.000000 0.000000 0.009197 0.000000
# 6 0.000000 0.000000 0.000000 0.000000 0.000000 0.073021
#
#
# Mechanical properties :
#
#
# Convention : Reuss Voigt Hill
#
# Bulk Modulus (GPa) = 31.79423 52.35199 42.07311
# Shear Modulus (GPa) = 23.80420 46.47435 35.13927
#
# Velocity S-wave (km/s) = 3.34701 4.67667 4.06656
# Velocity P-wave (km/s) = 5.46803 7.33478 6.46909
#
# Compressibility (1/GPa) = 0.03145225
#
# Stress axis : x y z
#
# Youngs Moduli (GPa) = 104.81715 50.64093 112.19347
#
# Poissons Ratio (x) = -0.00050 0.53232
# Poissons Ratio (y) = -0.00104 -0.15266
# Poissons Ratio (z) = 0.49733 -0.06890
#
# Static dielectric constant tensor:
#      x y z
#    x 1.758880 0.000000 0.000000 
#    y 0.000000 1.806300 0.000000 
#    z 0.000000 0.000000 1.755980 
# 
# From -- ./inp_files/33083.got.cif
#   From: 2010.05.17/outbox.cif.g08.bks.cpg/sg59_17_cif.got.tgz:33083.got - 2010.06.03 14:40:33.
