data_PCOD9449885
_publ_section_title
;
Structure prediction by ZEFSAII (Michael W. Deem and Ramdas Pophale) SiO2 
 PCOD9449885
Probable space group: P M M N
;
_chemical_formula_sum "Si O2"
_cell_formula_units_Z 64
_cell_length_a 19.992987
_cell_length_b 8.784364
_cell_length_c 21.288459
_cell_angle_alpha 90.000000
_cell_angle_beta 90.000000
_cell_angle_gamma 90.000000
_cell_volume 3738.799987
_symmetry_space_group_name_H-M "P M M N"
_symmetry_group_IT_number 59
_space_group.IT_coordinate_system_code '2'
_symmetry_cell_setting 'orthorhombic'
loop_
_space_group_symop_operation_xyz
x,y,z
1/2-x,1/2-y,z
1/2+x,-y,-z
-x,1/2+y,-z
-x,-y,-z
1/2+x,1/2+y,-z
1/2-x,y,z
x,1/2-y,z
loop_
_atom_site_type_symbol
_atom_site_label
_atom_site_fract_x
_atom_site_fract_y
_atom_site_fract_z
Si Si1 0.542728 0.933532 0.181868
Si Si2 0.673861 0.431567 0.514519
Si Si3 0.824273 0.567716 0.375474
Si Si4 0.539988 0.930920 0.559426
Si Si5 0.825523 0.067868 0.127789
Si Si6 0.459169 0.567240 0.058985
Si Si7 0.534415 0.567067 0.321233
Si Si8 0.673682 0.568036 0.987822
O O1 0.548776 0.750000 0.181129
O O2 0.495726 0.978039 0.123595
O O3 0.515891 0.977740 0.250422
O O4 0.615805 0.002676 0.170343
O O5 0.750000 0.468799 0.533984
O O6 0.665109 0.250000 0.517593
O O7 0.666974 0.485469 0.442281
O O8 0.616155 0.512895 0.553465
O O9 0.750000 0.529553 0.350792
O O10 0.826035 0.750000 0.386661
O O11 0.887080 0.530680 0.332083
O O12 0.536463 0.750000 0.555326
O O13 0.500000 0.000000 0.500000
O O14 0.506828 0.988657 0.623602
O O15 0.750000 0.029276 0.149059
O O16 0.830836 0.250000 0.123266
O O17 0.834220 0.997128 0.058296
O O18 0.459615 0.750000 0.054552
O O19 0.383887 0.505831 0.053991
O O20 0.500000 0.500000 0.000000
O O21 0.526730 0.750000 0.327623
O O22 0.750000 0.534329 0.967785
O O23 0.665108 0.750000 0.989913
#
# Coordination Sequence:
#
# PCOD9449885 Si02
#       8
#     8   8   8   8   8   8   8   8
#     4  10  22  37  54  78 110 147 186 225 273 327
#     4  10  20  34  55  83 112 141 176 222 272 321
#     4   9  17  30  50  76 106 142 181 219 262 314
#     4  12  23  36  57  83 111 145 183 227 274 323
#     4  10  20  33  51  77 109 146 185 224 269 324
#     4  11  21  34  55  82 110 144 182 225 273 325
#     4  10  21  37  55  78 110 147 186 229 271 323
#     4  10  20  34  54  80 108 139 179 229 280 327
#
# _framework density 17.117792000000001
#
# number of rings (size 3 to 8) (size 9 to 14) (size 15 to 20)
#    0.000    1.750    2.500    2.625    0.000    3.750 
#    0.000    1.250    0.000    2.250    0.000    1.750 
#    0.000    0.000    0.000    0.000    0.000    0.000 
#
# Total GULP energy -357312.568355 kJ/mol
# GULP energy per Si atom -5583.008881 kJ/mol
# Density = 1.707883 g / cm^3
# Si number density = 17.117792 Si / 1000 Ang^3
#
#
#
# Elastic Constant Matrix: (Units=GPa)
#
#
# Indices 1 2 3 4 5 6 
#
# 1 113.0317 47.7494 71.9431 0.0000 0.0000 0.0000
# 2 47.7494 45.9514 46.4797 0.0000 0.0000 0.0000
# 3 71.9431 46.4797 120.6094 0.0000 0.0000 0.0000
# 4 0.0000 0.0000 0.0000 21.1858 0.0000 0.0000
# 5 0.0000 0.0000 0.0000 0.0000 22.3785 0.0000
# 6 0.0000 0.0000 0.0000 0.0000 0.0000 30.2958
#
#
#
# Elastic Compliance Matrix: (Units=1/GPa)
#
#
# Indices 1 2 3 4 5 6 
#
# 1 0.017916 -0.012794 -0.005756 0.000000 0.000000 0.000000
# 2 -0.012794 0.044801 -0.009633 0.000000 0.000000 0.000000
# 3 -0.005756 -0.009633 0.015437 0.000000 0.000000 0.000000
# 4 0.000000 0.000000 0.000000 0.047201 0.000000 0.000000
# 5 0.000000 0.000000 0.000000 0.000000 0.044686 0.000000
# 6 0.000000 0.000000 0.000000 0.000000 0.000000 0.033008
#
#
# Mechanical properties :
#
#
# Convention : Reuss Voigt Hill
#
# Bulk Modulus (GPa) = 45.90013 67.99297 56.94655
# Shear Modulus (GPa) = 18.74914 22.33338 20.54126
#
# Velocity S-wave (km/s) = 3.31312 3.61597 3.46785
# Velocity P-wave (km/s) = 6.44269 7.56574 7.02669
#
# Compressibility (1/GPa) = 0.02178643
#
# Stress axis : x y z
#
# Youngs Moduli (GPa) = 55.81733 22.32073 64.77913
#
# Poissons Ratio (x) = 0.28558 0.37286
# Poissons Ratio (y) = 0.71415 0.62404
# Poissons Ratio (z) = 0.32128 0.21502
#
# Static dielectric constant tensor:
#      x y z
#    x 1.595390 0.000000 0.000000 
#    y 0.000000 1.572470 0.000000 
#    z 0.000000 0.000000 1.558960 
# 
# From -- ./inp_files/30968.got.cif
#   From: 2010.05.17/outbox.cif.g08.bks.cpg/sg59_16_cif.got.tgz:30968.got - 2010.06.03 14:40:33.
