data_PCOD9449893
_publ_section_title
;
Structure prediction by ZEFSAII (Michael W. Deem and Ramdas Pophale) SiO2 
 PCOD9449893
Probable space group: P M M N
;
_chemical_formula_sum "Si O2"
_cell_formula_units_Z 48
_cell_length_a 7.999901
_cell_length_b 9.367536
_cell_length_c 32.038797
_cell_angle_alpha 90.000000
_cell_angle_beta 90.000000
_cell_angle_gamma 90.000000
_cell_volume 2400.966962
_symmetry_space_group_name_H-M "P M M N"
_symmetry_group_IT_number 59
_space_group.IT_coordinate_system_code '2'
_symmetry_cell_setting 'orthorhombic'
loop_
_space_group_symop_operation_xyz
x,y,z
1/2-x,1/2-y,z
1/2+x,-y,-z
-x,1/2+y,-z
-x,-y,-z
1/2+x,1/2+y,-z
1/2-x,y,z
x,1/2-y,z
loop_
_atom_site_type_symbol
_atom_site_label
_atom_site_fract_x
_atom_site_fract_y
_atom_site_fract_z
Si Si1 0.451846 0.415863 0.132680
Si Si2 0.048789 0.413107 0.623299
Si Si3 0.049520 0.088115 0.785927
Si Si4 0.548919 0.912734 0.959502
Si Si5 0.550318 0.913226 0.541155
Si Si6 0.954838 0.085350 0.295029
O O1 0.250000 0.417149 0.133226
O O2 0.504303 0.250000 0.138125
O O3 0.512133 0.512688 0.170340
O O4 0.507662 0.464955 0.086348
O O5 0.250000 0.405826 0.626156
O O6 0.985826 0.250000 0.621320
O O7 0.989676 0.496818 0.664449
O O8 0.006854 0.501797 0.582040
O O9 0.250000 0.095483 0.781602
O O10 0.984018 0.250000 0.784449
O O11 0.988369 0.992786 0.747200
O O12 0.750000 0.910083 0.957974
O O13 0.489107 0.750000 0.963827
O O14 0.500000 0.000000 0.000000
O O15 0.750000 0.906096 0.542008
O O16 0.484923 0.750000 0.540532
O O17 0.500000 0.000000 0.500000
O O18 0.750000 0.085858 0.295057
O O19 0.008557 0.250000 0.296650
#
# Coordination Sequence:
#
# PCOD9449893 Si02
#       6
#     8   8   8   8   8   8
#     4   9  19  36  54  72  99 136 174 212 257 309
#     4  10  20  35  57  84 112 142 177 218 265 315
#     4  10  20  33  51  78 109 138 172 216 261 306
#     4   9  19  35  53  74 101 132 168 211 258 309
#     4  11  24  40  58  82 111 143 181 223 266 314
#     4   9  17  31  53  79 107 141 178 215 258 308
#
# _framework density 19.991947
#
# number of rings (size 3 to 8) (size 9 to 14) (size 15 to 20)
#    0.000    2.333    0.000    3.500    0.000    9.333 
#    0.000    5.833    0.000    5.000    0.000    0.000 
#    0.000    0.000    0.000    0.000    0.000    0.000 
#
# Total GULP energy -267992.845173 kJ/mol
# GULP energy per Si atom -5583.184274 kJ/mol
# Density = 1.994644 g / cm^3
# Si number density = 19.991947 Si / 1000 Ang^3
#
#
#
# Elastic Constant Matrix: (Units=GPa)
#
#
# Indices 1 2 3 4 5 6 
#
# 1 13.1134 12.8995 7.0150 0.0000 0.0000 0.0000
# 2 12.8995 193.4031 136.5653 0.0000 0.0000 0.0000
# 3 7.0150 136.5653 229.1084 0.0000 0.0000 0.0000
# 4 0.0000 0.0000 0.0000 42.7128 0.0000 0.0000
# 5 0.0000 0.0000 0.0000 0.0000 27.9334 0.0000
# 6 0.0000 0.0000 0.0000 0.0000 0.0000 21.7318
#
#
#
# Elastic Compliance Matrix: (Units=1/GPa)
#
#
# Indices 1 2 3 4 5 6 
#
# 1 0.081833 -0.006370 0.001291 0.000000 0.000000 0.000000
# 2 -0.006370 0.009424 -0.005423 0.000000 0.000000 0.000000
# 3 0.001291 -0.005423 0.007557 0.000000 0.000000 0.000000
# 4 0.000000 0.000000 0.000000 0.023412 0.000000 0.000000
# 5 0.000000 0.000000 0.000000 0.000000 0.035799 0.000000
# 6 0.000000 0.000000 0.000000 0.000000 0.000000 0.046016
#
#
# Mechanical properties :
#
#
# Convention : Reuss Voigt Hill
#
# Bulk Modulus (GPa) = 12.85141 83.17605 48.01373
# Shear Modulus (GPa) = 19.92176 37.08527 28.50352
#
# Velocity S-wave (km/s) = 3.16015 4.31166 3.78001
# Velocity P-wave (km/s) = 4.44495 8.15367 6.56658
#
# Compressibility (1/GPa) = 0.07781250
#
# Stress axis : x y z
#
# Youngs Moduli (GPa) = 12.22002 106.10776 132.31953
#
# Poissons Ratio (x) = 0.67589 -0.17087
# Poissons Ratio (y) = 0.07784 0.71751
# Poissons Ratio (z) = -0.01578 0.57538
#
# Static dielectric constant tensor:
#      x y z
#    x 1.727420 0.000000 0.000000 
#    y 0.000000 1.693710 0.000000 
#    z 0.000000 0.000000 1.682030 
# 
# From -- ./inp_files/32857.got.cif
#   From: 2010.05.17/outbox.cif.g08.bks.cpg/sg59_17_cif.got.tgz:32857.got - 2010.06.03 14:40:33.
