data_PCOD9449983
_publ_section_title
;
Structure prediction by ZEFSAII (Michael W. Deem and Ramdas Pophale) SiO2 
 PCOD9449983
Probable space group: P M M N
;
_chemical_formula_sum "Si O2"
_cell_formula_units_Z 64
_cell_length_a 8.543682
_cell_length_b 20.351319
_cell_length_c 19.572608
_cell_angle_alpha 90.000000
_cell_angle_beta 90.000000
_cell_angle_gamma 90.000000
_cell_volume 3403.191088
_symmetry_space_group_name_H-M "P M M N"
_symmetry_group_IT_number 59
_space_group.IT_coordinate_system_code '2'
_symmetry_cell_setting 'orthorhombic'
loop_
_space_group_symop_operation_xyz
x,y,z
1/2-x,1/2-y,z
1/2+x,-y,-z
-x,1/2+y,-z
-x,-y,-z
1/2+x,1/2+y,-z
1/2-x,y,z
x,1/2-y,z
loop_
_atom_site_type_symbol
_atom_site_label
_atom_site_fract_x
_atom_site_fract_y
_atom_site_fract_z
Si Si1 0.938158 0.033213 0.431952
Si Si2 0.562551 0.325815 0.763714
Si Si3 0.937786 0.321151 0.399698
Si Si4 0.438894 0.174240 0.915965
Si Si5 0.560498 0.958057 0.293129
Si Si6 0.930939 0.442945 0.176022
Si Si7 0.931277 0.676326 0.751070
Si Si8 0.563968 0.568468 0.973358
O O1 0.750000 0.029652 0.431154
O O2 0.981347 0.110356 0.434269
O O3 0.991641 0.996384 0.362051
O O4 0.000000 0.000000 0.500000
O O5 0.750000 0.327277 0.760481
O O6 0.511545 0.250000 0.748889
O O7 0.508836 0.341045 0.841478
O O8 0.496033 0.383234 0.715403
O O9 0.750000 0.323997 0.385730
O O10 0.966772 0.250000 0.434189
O O11 0.031078 0.320847 0.328922
O O12 0.250000 0.169050 0.910132
O O13 0.477414 0.250000 0.931919
O O14 0.493888 0.126265 0.976298
O O15 0.750000 0.958980 0.292910
O O16 0.508165 0.999395 0.226009
O O17 0.750000 0.457609 0.161048
O O18 0.951848 0.376229 0.218135
O O19 0.016462 0.429383 0.105360
O O20 0.750000 0.657195 0.762488
O O21 0.953244 0.750000 0.779060
O O22 0.750000 0.569587 0.977790
O O23 0.500000 0.500000 0.000000
#
# Coordination Sequence:
#
# PCOD9449983 Si02
#       8
#     8   8   8   8   8   8   8   8
#     4  10  21  38  58  86 117 150 188 230 280 338
#     4  10  21  36  57  86 113 139 181 235 284 332
#     4   9  17  34  59  82 110 148 186 225 270 323
#     4   9  19  37  58  77 104 146 188 226 276 335
#     4  10  21  38  58  81 111 146 186 227 275 339
#     4  11  22  37  56  79 109 147 189 234 281 335
#     4  10  20  33  52  81 113 143 180 226 273 324
#     4  11  23  37  53  78 110 145 186 234 285 340
#
# _framework density 18.805878
#
# number of rings (size 3 to 8) (size 9 to 14) (size 15 to 20)
#    0.000    2.000    1.250    2.250    0.000    8.000 
#    0.000    1.875    0.000    2.250    0.000    0.000 
#    0.000    0.000    0.000    0.000    0.000    0.000 
#
# Total GULP energy -356919.127717 kJ/mol
# GULP energy per Si atom -5576.861371 kJ/mol
# Density = 1.876308 g / cm^3
# Si number density = 18.805878 Si / 1000 Ang^3
#
#
#
# Elastic Constant Matrix: (Units=GPa)
#
#
# Indices 1 2 3 4 5 6 
#
# 1 12.0313 21.2503 11.4819 0.0000 0.0000 0.0000
# 2 21.2503 150.1913 71.2885 0.0000 0.0000 0.0000
# 3 11.4819 71.2885 71.1807 0.0000 0.0000 0.0000
# 4 0.0000 0.0000 0.0000 26.7445 0.0000 0.0000
# 5 0.0000 0.0000 0.0000 0.0000 30.8141 0.0000
# 6 0.0000 0.0000 0.0000 0.0000 0.0000 26.7144
#
#
#
# Elastic Compliance Matrix: (Units=1/GPa)
#
#
# Indices 1 2 3 4 5 6 
#
# 1 0.111452 -0.013793 -0.004165 0.000000 0.000000 0.000000
# 2 -0.013793 0.014398 -0.012195 0.000000 0.000000 0.000000
# 3 -0.004165 -0.012195 0.026934 0.000000 0.000000 0.000000
# 4 0.000000 0.000000 0.000000 0.037391 0.000000 0.000000
# 5 0.000000 0.000000 0.000000 0.000000 0.032453 0.000000
# 6 0.000000 0.000000 0.000000 0.000000 0.000000 0.037433
#
#
# Mechanical properties :
#
#
# Convention : Reuss Voigt Hill
#
# Bulk Modulus (GPa) = 10.81311 49.04941 29.93126
# Shear Modulus (GPa) = 14.23722 25.48010 19.85866
#
# Velocity S-wave (km/s) = 2.75446 3.68489 3.25311
# Velocity P-wave (km/s) = 3.98477 6.65155 5.48277
#
# Compressibility (1/GPa) = 0.09248031
#
# Stress axis : x y z
#
# Youngs Moduli (GPa) = 8.97243 69.45384 37.12777
#
# Poissons Ratio (x) = 0.95794 0.15462
# Poissons Ratio (y) = 0.12375 0.45277
# Poissons Ratio (z) = 0.03737 0.84699
#
# Static dielectric constant tensor:
#      x y z
#    x 1.646940 0.000000 0.000000 
#    y 0.000000 1.646660 0.000000 
#    z 0.000000 0.000000 1.584990 
# 
# From -- ./inp_files/29525.got.cif
#   From: 2010.05.17/outbox.cif.g08.bks.cpg/sg59_15_cif.got.tgz:29525.got - 2010.06.03 14:40:33.
