data_PCOD9449873
_publ_section_title
;
Structure prediction by ZEFSAII (Michael W. Deem and Ramdas Pophale) SiO2 
 PCOD9449873
Probable space group: P M M N
;
_chemical_formula_sum "Si O2"
_cell_formula_units_Z 48
_cell_length_a 7.754241
_cell_length_b 19.275320
_cell_length_c 15.809140
_cell_angle_alpha 90.000000
_cell_angle_beta 90.000000
_cell_angle_gamma 90.000000
_cell_volume 2362.920645
_symmetry_space_group_name_H-M "P M M N"
_symmetry_group_IT_number 59
_space_group.IT_coordinate_system_code '2'
_symmetry_cell_setting 'orthorhombic'
loop_
_space_group_symop_operation_xyz
x,y,z
1/2-x,1/2-y,z
1/2+x,-y,-z
-x,1/2+y,-z
-x,-y,-z
1/2+x,1/2+y,-z
1/2-x,y,z
x,1/2-y,z
loop_
_atom_site_type_symbol
_atom_site_label
_atom_site_fract_x
_atom_site_fract_y
_atom_site_fract_z
Si Si1 0.039057 0.170456 0.595096
Si Si2 0.452560 0.413992 0.243516
Si Si3 0.953255 0.170829 0.891351
Si Si4 0.050275 0.428880 0.742833
Si Si5 0.041374 0.330098 0.082800
Si Si6 0.460250 0.329999 0.403721
O O1 0.250000 0.170330 0.597074
O O2 0.986573 0.250000 0.613666
O O3 0.977412 0.116480 0.665193
O O4 0.984305 0.152802 0.499390
O O5 0.250000 0.395936 0.243326
O O6 0.467606 0.496406 0.244375
O O7 0.523339 0.379157 0.158029
O O8 0.523961 0.379797 0.329413
O O9 0.750000 0.171357 0.873397
O O10 0.019765 0.250000 0.881385
O O11 0.037123 0.118092 0.826292
O O12 0.979076 0.150762 0.989150
O O13 0.250000 0.442515 0.724068
O O14 0.250000 0.332444 0.079963
O O15 0.990953 0.250000 0.099174
O O16 0.250000 0.332506 0.405595
O O17 0.507335 0.250000 0.386005
#
# Coordination Sequence:
#
# PCOD9449873 Si02
#       6
#     8   8   8   8   8   8
#     4   8  15  29  50  75 100 129 170 215 253 294
#     4  10  20  33  51  77 107 136 167 208 256 302
#     4  10  21  37  57  79 101 128 166 213 261 304
#     4  11  22  34  50  74 106 143 176 206 247 301
#     4   9  18  34  56  79 101 129 168 211 255 306
#     4   8  14  28  52  78 101 129 169 214 256 300
#
# _framework density 20.313842000000001
#
# number of rings (size 3 to 8) (size 9 to 14) (size 15 to 20)
#    0.000    2.667    0.000    3.000    0.000    5.667 
#    0.000    0.000    0.000    2.500    0.000    4.667 
#    0.000    0.000    0.000    0.000    0.000    0.000 
#
# Total GULP energy -267888.347890 kJ/mol
# GULP energy per Si atom -5581.007248 kJ/mol
# Density = 2.026761 g / cm^3
# Si number density = 20.313842 Si / 1000 Ang^3
#
#
#
# Elastic Constant Matrix: (Units=GPa)
#
#
# Indices 1 2 3 4 5 6 
#
# 1 26.6602 -10.7960 -9.3103 0.0000 0.0000 0.0000
# 2 -10.7960 95.3806 90.5494 0.0000 0.0000 0.0000
# 3 -9.3103 90.5494 133.3155 0.0000 0.0000 0.0000
# 4 0.0000 0.0000 0.0000 -112.8391 0.0000 0.0000
# 5 0.0000 0.0000 0.0000 0.0000 -0.5959 0.0000
# 6 0.0000 0.0000 0.0000 0.0000 0.0000 9.0436
#
#
#
# Elastic Compliance Matrix: (Units=1/GPa)
#
#
# Indices 1 2 3 4 5 6 
#
# 1 0.039340 0.005193 -0.000780 0.000000 0.000000 0.000000
# 2 0.005193 0.030203 -0.020151 0.000000 0.000000 0.000000
# 3 -0.000780 -0.020151 0.021134 0.000000 0.000000 0.000000
# 4 0.000000 0.000000 0.000000 -0.008862 0.000000 0.000000
# 5 0.000000 0.000000 0.000000 0.000000 -1.678130 0.000000
# 6 0.000000 0.000000 0.000000 0.000000 0.000000 0.110576
#
#
# Mechanical properties :
#
#
# Convention : Reuss Voigt Hill
#
# Bulk Modulus (GPa) = 16.89191 44.02694 30.45943
# Shear Modulus (GPa) = -3.48546 -8.55072 -6.01809
#
# Velocity S-wave (km/s) = -1.31131 -2.05389 -1.72308
# Velocity P-wave (km/s) = 2.45781 4.01196 3.32691
#
# Compressibility (1/GPa) = 0.05919993
#
# Stress axis : x y z
#
# Youngs Moduli (GPa) = 25.41961 33.10940 47.31795
#
# Poissons Ratio (x) = -0.17195 0.03691
# Poissons Ratio (y) = -0.13201 0.95353
# Poissons Ratio (z) = 0.01983 0.66720
#
# Static dielectric constant tensor:
#      x y z
#    x 1.755930 0.000000 0.000000 
#    y 0.000000 1.678820 0.000000 
#    z 0.000000 0.000000 1.716670 
# 
# From -- ./inp_files/20339.got.cif
#   From: 2010.05.17/outbox.cif.g08.bks.cpg/sg59_11_cif.got.tgz:20339.got - 2010.06.03 14:40:33.
