data_PCOD9449860
_publ_section_title
;
Structure prediction by ZEFSAII (Michael W. Deem and Ramdas Pophale) SiO2 
 PCOD9449860
Probable space group: P M M N
;
_chemical_formula_sum "Si O2"
_cell_formula_units_Z 64
_cell_length_a 15.503699
_cell_length_b 8.835818
_cell_length_c 24.226527
_cell_angle_alpha 90.000000
_cell_angle_beta 90.000000
_cell_angle_gamma 90.000000
_cell_volume 3318.740154
_symmetry_space_group_name_H-M "P M M N"
_symmetry_group_IT_number 59
_space_group.IT_coordinate_system_code '2'
_symmetry_cell_setting 'orthorhombic'
loop_
_space_group_symop_operation_xyz
x,y,z
1/2-x,1/2-y,z
1/2+x,-y,-z
-x,1/2+y,-z
-x,-y,-z
1/2+x,1/2+y,-z
1/2-x,y,z
x,1/2-y,z
loop_
_atom_site_type_symbol
_atom_site_label
_atom_site_fract_x
_atom_site_fract_y
_atom_site_fract_z
Si Si1 0.476343 0.067169 0.134739
Si Si2 0.653113 0.065777 0.082979
Si Si3 0.412332 0.930906 0.475594
Si Si4 0.150137 0.568256 0.044399
Si Si5 0.648735 0.067116 0.646717
Si Si6 0.849588 0.431554 0.309328
Si Si7 0.849097 0.583293 0.421140
Si Si8 0.527246 0.933021 0.741696
O O1 0.475595 0.250000 0.133386
O O2 0.574192 0.016983 0.121068
O O3 0.448986 0.019882 0.196172
O O4 0.413782 0.006827 0.087455
O O5 0.750000 0.014513 0.097896
O O6 0.655179 0.250000 0.084105
O O7 0.634570 0.022338 0.019332
O O8 0.413201 0.750000 0.477320
O O9 0.388317 0.978583 0.413599
O O10 0.500000 0.000000 0.500000
O O11 0.348940 0.995963 0.521560
O O12 0.250000 0.531674 0.057027
O O13 0.140857 0.750000 0.046936
O O14 0.750000 0.023126 0.650935
O O15 0.645136 0.250000 0.648992
O O16 0.589992 0.000883 0.695412
O O17 0.750000 0.480748 0.297083
O O18 0.846487 0.250000 0.311175
O O19 0.882630 0.489947 0.369097
O O20 0.926727 0.476208 0.268475
O O21 0.750000 0.603314 0.406502
O O22 0.890678 0.750000 0.425714
O O23 0.531879 0.750000 0.738066
#
# Coordination Sequence:
#
# PCOD9449860 Si02
#       8
#     8   8   8   8   8   8   8   8
#     4  10  20  33  52  79 108 138 175 221 270 315
#     4   8  15  30  53  80 109 140 173 211 259 317
#     4  11  22  36  56  81 107 133 167 215 270 326
#     4   9  18  33  53  77 105 139 178 216 258 313
#     4  10  23  42  60  77 102 143 190 227 262 310
#     4   9  18  34  55  77 105 142 179 217 266 325
#     4  10  20  33  51  77 105 131 163 204 253 312
#     4  10  22  37  53  78 108 138 178 226 271 314
#
# _framework density 19.284426
#
# number of rings (size 3 to 8) (size 9 to 14) (size 15 to 20)
#    0.000    2.375    0.000    3.000    0.000    6.750 
#    0.000    5.000    0.000    1.125    0.000    1.750 
#    0.000    0.000    0.000    0.000    0.000    0.000 
#
# Total GULP energy -356712.560617 kJ/mol
# GULP energy per Si atom -5573.633760 kJ/mol
# Density = 1.924053 g / cm^3
# Si number density = 19.284426 Si / 1000 Ang^3
#
#
#
# Elastic Constant Matrix: (Units=GPa)
#
#
# Indices 1 2 3 4 5 6 
#
# 1 93.6355 19.2094 42.0378 0.0000 0.0000 0.0000
# 2 19.2094 11.1997 10.9934 0.0000 0.0000 0.0000
# 3 42.0378 10.9934 73.0580 0.0000 0.0000 0.0000
# 4 0.0000 0.0000 0.0000 24.2224 0.0000 0.0000
# 5 0.0000 0.0000 0.0000 0.0000 16.2321 0.0000
# 6 0.0000 0.0000 0.0000 0.0000 0.0000 22.0053
#
#
#
# Elastic Compliance Matrix: (Units=1/GPa)
#
#
# Indices 1 2 3 4 5 6 
#
# 1 0.019210 -0.025928 -0.007152 0.000000 0.000000 0.000000
# 2 -0.025928 0.139758 -0.006111 0.000000 0.000000 0.000000
# 3 -0.007152 -0.006111 0.018722 0.000000 0.000000 0.000000
# 4 0.000000 0.000000 0.000000 0.041284 0.000000 0.000000
# 5 0.000000 0.000000 0.000000 0.000000 0.061607 0.000000
# 6 0.000000 0.000000 0.000000 0.000000 0.000000 0.045444
#
#
# Mechanical properties :
#
#
# Convention : Reuss Voigt Hill
#
# Bulk Modulus (GPa) = 10.06961 35.81938 22.94450
# Shear Modulus (GPa) = 11.42834 19.53545 15.48189
#
# Velocity S-wave (km/s) = 2.43702 3.18625 2.83648
# Velocity P-wave (km/s) = 3.62653 5.67017 4.75933
#
# Compressibility (1/GPa) = 0.09930867
#
# Stress axis : x y z
#
# Youngs Moduli (GPa) = 52.05705 7.15522 53.41180
#
# Poissons Ratio (x) = 0.18552 0.38199
# Poissons Ratio (y) = 1.34974 0.32640
# Poissons Ratio (z) = 0.37230 0.04373
#
# Static dielectric constant tensor:
#      x y z
#    x 1.711140 0.000000 0.000000 
#    y 0.000000 1.695360 0.000000 
#    z 0.000000 0.000000 1.661860 
# 
# From -- ./inp_files/32098.got.cif
#   From: 2010.05.17/outbox.cif.g08.bks.cpg/sg59_17_cif.got.tgz:32098.got - 2010.06.03 14:40:33.
