data_PCOD9449867
_publ_section_title
;
Structure prediction by ZEFSAII (Michael W. Deem and Ramdas Pophale) SiO2 
 PCOD9449867
Probable space group: P M M N
;
_chemical_formula_sum "Si O2"
_cell_formula_units_Z 64
_cell_length_a 20.110902
_cell_length_b 8.156191
_cell_length_c 20.840789
_cell_angle_alpha 90.000000
_cell_angle_beta 90.000000
_cell_angle_gamma 90.000000
_cell_volume 3418.480397
_symmetry_space_group_name_H-M "P M M N"
_symmetry_group_IT_number 59
_space_group.IT_coordinate_system_code '2'
_symmetry_cell_setting 'orthorhombic'
loop_
_space_group_symop_operation_xyz
x,y,z
1/2-x,1/2-y,z
1/2+x,-y,-z
-x,1/2+y,-z
-x,-y,-z
1/2+x,1/2+y,-z
1/2-x,y,z
x,1/2-y,z
loop_
_atom_site_type_symbol
_atom_site_label
_atom_site_fract_x
_atom_site_fract_y
_atom_site_fract_z
Si Si1 0.063999 0.050985 0.231393
Si Si2 0.099719 0.942419 0.955297
Si Si3 0.825250 0.941878 0.162034
Si Si4 0.080895 0.941462 0.727614
Si Si5 0.174193 0.447018 0.613488
Si Si6 0.326626 0.049014 0.333871
Si Si7 0.455494 0.554084 0.088534
Si Si8 0.330805 0.438658 0.473994
O O1 0.062735 0.250000 0.229792
O O2 0.123639 0.998728 0.277870
O O3 0.993024 0.992046 0.259416
O O4 0.070229 0.990493 0.158600
O O5 0.115481 0.750000 0.953197
O O6 0.151863 0.035548 0.911076
O O7 0.091928 0.995206 0.029280
O O8 0.026805 0.970973 0.924311
O O9 0.750000 0.000197 0.171501
O O10 0.828144 0.750000 0.179115
O O11 0.876405 0.033708 0.207950
O O12 0.074024 0.750000 0.714009
O O13 0.122932 0.015464 0.669478
O O14 0.250000 0.504836 0.627871
O O15 0.178311 0.250000 0.607286
O O16 0.152171 0.512888 0.543293
O O17 0.250000 0.999684 0.323016
O O18 0.326854 0.250000 0.336358
O O19 0.349229 0.989504 0.404747
O O20 0.465468 0.750000 0.083830
O O21 0.250000 0.433743 0.473549
O O22 0.354938 0.250000 0.473990
#
# Coordination Sequence:
#
# PCOD9449867 Si02
#       8
#     8   8   8   8   8   8   8   8
#     4  10  20  33  51  77 106 135 170 213 258 308
#     4  10  20  35  55  79 102 130 171 214 258 304
#     4  11  23  37  54  77 105 139 179 220 258 302
#     4  11  22  33  46  70 105 142 175 210 257 310
#     4   9  17  30  49  72  97 129 173 221 261 301
#     4   8  14  28  52  78 100 126 166 216 265 310
#     4  10  20  34  55  78 102 134 170 208 250 302
#     4   7  11  23  46  73  96 122 164 215 261 305
#
# _framework density 18.721768000000001
#
# number of rings (size 3 to 8) (size 9 to 14) (size 15 to 20)
#    0.000    2.500    1.250    3.375    0.000    4.750 
#    0.000    1.250    0.000    3.375    0.000    1.750 
#    0.000    0.000    0.000    0.000    0.000    0.000 
#
# Total GULP energy -356796.255440 kJ/mol
# GULP energy per Si atom -5574.941491 kJ/mol
# Density = 1.867916 g / cm^3
# Si number density = 18.721768 Si / 1000 Ang^3
#
#
#
# Elastic Constant Matrix: (Units=GPa)
#
#
# Indices 1 2 3 4 5 6 
#
# 1 79.3579 0.9542 59.5034 0.0000 0.0000 0.0000
# 2 0.9542 10.1848 2.1865 0.0000 0.0000 0.0000
# 3 59.5034 2.1865 162.5406 0.0000 0.0000 0.0000
# 4 0.0000 0.0000 0.0000 13.3020 0.0000 0.0000
# 5 0.0000 0.0000 0.0000 0.0000 28.0327 0.0000
# 6 0.0000 0.0000 0.0000 0.0000 0.0000 13.4535
#
#
#
# Elastic Compliance Matrix: (Units=1/GPa)
#
#
# Indices 1 2 3 4 5 6 
#
# 1 0.017369 -0.000263 -0.006355 0.000000 0.000000 0.000000
# 2 -0.000263 0.098474 -0.001228 0.000000 0.000000 0.000000
# 3 -0.006355 -0.001228 0.008495 0.000000 0.000000 0.000000
# 4 0.000000 0.000000 0.000000 0.075177 0.000000 0.000000
# 5 0.000000 0.000000 0.000000 0.000000 0.035673 0.000000
# 6 0.000000 0.000000 0.000000 0.000000 0.000000 0.074330
#
#
# Mechanical properties :
#
#
# Convention : Reuss Voigt Hill
#
# Bulk Modulus (GPa) = 9.20424 41.93016 25.56720
# Shear Modulus (GPa) = 13.83407 23.58691 18.71049
#
# Velocity S-wave (km/s) = 2.72128 3.55331 3.16475
# Velocity P-wave (km/s) = 3.84718 6.26736 5.20003
#
# Compressibility (1/GPa) = 0.10864554
#
# Stress axis : x y z
#
# Youngs Moduli (GPa) = 57.57230 10.15499 117.71152
#
# Poissons Ratio (x) = 0.00267 0.74807
# Poissons Ratio (y) = 0.01514 0.14460
# Poissons Ratio (z) = 0.36588 0.01247
#
# Static dielectric constant tensor:
#      x y z
#    x 1.626840 0.000000 0.000000 
#    y 0.000000 1.669980 0.000000 
#    z 0.000000 0.000000 1.671760 
# 
# From -- ./inp_files/28262.got.cif
#   From: 2010.05.17/outbox.cif.g08.bks.cpg/sg59_15_cif.got.tgz:28262.got - 2010.06.03 14:40:33.
