data_PCOD9449059
_publ_section_title
;
Structure prediction by ZEFSAII (Michael W. Deem and Ramdas Pophale) SiO2 
 PCOD9449059
Probable space group: P M M N
;
_chemical_formula_sum "Si O2"
_cell_formula_units_Z 48
_cell_length_a 17.233014
_cell_length_b 8.392958
_cell_length_c 16.751435
_cell_angle_alpha 90.000000
_cell_angle_beta 90.000000
_cell_angle_gamma 90.000000
_cell_volume 2422.859928
_symmetry_space_group_name_H-M "P M M N"
_symmetry_group_IT_number 59
_space_group.IT_coordinate_system_code '2'
_symmetry_cell_setting 'orthorhombic'
loop_
_space_group_symop_operation_xyz
x,y,z
1/2-x,1/2-y,z
1/2+x,-y,-z
-x,1/2+y,-z
-x,-y,-z
1/2+x,1/2+y,-z
1/2-x,y,z
x,1/2-y,z
loop_
_atom_site_type_symbol
_atom_site_label
_atom_site_fract_x
_atom_site_fract_y
_atom_site_fract_z
Si Si1 0.552179 0.937221 0.217582
Si Si2 0.250000 0.062226 0.015299
Si Si3 0.158646 0.564322 0.648259
Si Si4 0.250000 0.943389 0.195458
Si Si5 0.413335 0.557494 0.482853
Si Si6 0.605659 0.055866 0.696537
Si Si7 0.920271 0.063422 0.042289
O O1 0.544075 0.750000 0.198419
O O2 0.474005 0.993683 0.261627
O O3 0.618139 0.963932 0.283190
O O4 0.569149 0.028065 0.136080
O O5 0.250000 0.250000 0.002460
O O6 0.334179 0.001152 0.982316
O O7 0.250000 0.017632 0.108511
O O8 0.250000 0.560065 0.657961
O O9 0.132933 0.750000 0.655771
O O10 0.136761 0.507846 0.559268
O O11 0.250000 0.750000 0.187315
O O12 0.175739 0.991889 0.247024
O O13 0.500000 0.500000 0.500000
O O14 0.411512 0.750000 0.480401
O O15 0.388258 0.500288 0.395025
O O16 0.605381 0.250000 0.693813
O O17 0.918125 0.250000 0.025276
O O18 0.000000 0.000000 0.000000
#
# Coordination Sequence:
#
# PCOD9449059 Si02
#       7
#     8   4   8   4   8   8   8
#     4  11  22  39  62  90 124 164 209 257 315 379
#     4  12  26  46  70  99 132 171 216 267 326 391
#     4  10  22  37  56  84 120 160 208 259 309 364
#     4  10  20  38  64  91 122 161 204 259 318 375
#     4  10  19  35  56  82 114 157 204 254 308 367
#     4   9  19  34  58  89 121 158 205 254 309 372
#     4  12  26  46  71 100 133 170 214 268 328 393
#
# _framework density 19.811297
#
# number of rings (size 3 to 8) (size 9 to 14) (size 15 to 20)
#    0.000    1.500    1.667    3.750    2.333    1.667 
#    0.000    1.667    0.000    0.000    0.000    0.000 
#    0.000    0.000    0.000    0.000    0.000    0.000 
#
# Total GULP energy -267980.758356 kJ/mol
# GULP energy per Si atom -5582.932466 kJ/mol
# Density = 1.976621 g / cm^3
# Si number density = 19.811297 Si / 1000 Ang^3
#
#
#
# Elastic Constant Matrix: (Units=GPa)
#
#
# Indices 1 2 3 4 5 6 
#
# 1 119.2301 38.3586 65.0947 0.0000 0.0000 0.0000
# 2 38.3586 62.5467 22.2048 0.0000 0.0000 0.0000
# 3 65.0947 22.2048 150.9216 0.0000 0.0000 0.0000
# 4 0.0000 0.0000 0.0000 26.7441 0.0000 0.0000
# 5 0.0000 0.0000 0.0000 0.0000 -24.2645 0.0000
# 6 0.0000 0.0000 0.0000 0.0000 0.0000 29.0183
#
#
#
# Elastic Compliance Matrix: (Units=1/GPa)
#
#
# Indices 1 2 3 4 5 6 
#
# 1 0.012957 -0.006291 -0.004663 0.000000 0.000000 0.000000
# 2 -0.006291 0.019923 -0.000218 0.000000 0.000000 0.000000
# 3 -0.004663 -0.000218 0.008669 0.000000 0.000000 0.000000
# 4 0.000000 0.000000 0.000000 0.037391 0.000000 0.000000
# 5 0.000000 0.000000 0.000000 0.000000 -0.041212 0.000000
# 6 0.000000 0.000000 0.000000 0.000000 0.000000 0.034461
#
#
# Mechanical properties :
#
#
# Convention : Reuss Voigt Hill
#
# Bulk Modulus (GPa) = 52.06673 64.89050 58.47862
# Shear Modulus (GPa) = 49.53702 20.10226 34.81964
#
# Velocity S-wave (km/s) = 5.00587 3.18887 4.19688
# Velocity P-wave (km/s) = 7.72981 6.81057 7.28471
#
# Compressibility (1/GPa) = 0.01920612
#
# Stress axis : x y z
#
# Youngs Moduli (GPa) = 77.17999 50.19219 115.35082
#
# Poissons Ratio (x) = 0.31574 0.53787
# Poissons Ratio (y) = 0.48552 0.02515
# Poissons Ratio (z) = 0.35988 0.01094
#
# Static dielectric constant tensor:
#      x y z
#    x 1.701620 0.000000 0.000000 
#    y 0.000000 1.684950 0.000000 
#    z 0.000000 0.000000 1.679490 
# 
# From -- ./inp_files/23728.got.cif
#   From: 2010.05.17/outbox.cif.g08.bks.cpg/sg59_12_cif.got.tgz:23728.got - 2010.06.03 14:40:33.
