data_PCOD9449784
_publ_section_title
;
Structure prediction by ZEFSAII (Michael W. Deem and Ramdas Pophale) SiO2 
 PCOD9449784
Probable space group: P M M N
;
_chemical_formula_sum "Si O2"
_cell_formula_units_Z 56
_cell_length_a 14.662673
_cell_length_b 9.757350
_cell_length_c 18.515625
_cell_angle_alpha 90.000000
_cell_angle_beta 90.000000
_cell_angle_gamma 90.000000
_cell_volume 2649.008850
_symmetry_space_group_name_H-M "P M M N"
_symmetry_group_IT_number 59
_space_group.IT_coordinate_system_code '2'
_symmetry_cell_setting 'orthorhombic'
loop_
_space_group_symop_operation_xyz
x,y,z
1/2-x,1/2-y,z
1/2+x,-y,-z
-x,1/2+y,-z
-x,-y,-z
1/2+x,1/2+y,-z
1/2-x,y,z
x,1/2-y,z
loop_
_atom_site_type_symbol
_atom_site_label
_atom_site_fract_x
_atom_site_fract_y
_atom_site_fract_z
Si Si1 0.144808 0.898314 0.276700
Si Si2 0.910469 0.408027 0.562435
Si Si3 0.138344 0.404953 0.156595
Si Si4 0.361428 0.092018 0.888395
Si Si5 0.638477 0.407093 0.978466
Si Si6 0.640680 0.594897 0.273996
Si Si7 0.416375 0.910503 0.592718
O O1 0.250000 0.889972 0.254166
O O2 0.102093 0.750000 0.258897
O O3 0.143611 0.913892 0.362793
O O4 0.107091 0.024870 0.231475
O O5 0.947709 0.250000 0.558672
O O6 0.864161 0.428744 0.484293
O O7 0.985914 0.524387 0.573632
O O8 0.250000 0.396688 0.155726
O O9 0.104751 0.250000 0.148003
O O10 0.112046 0.505764 0.091750
O O11 0.250000 0.089690 0.889283
O O12 0.387456 0.250000 0.903573
O O13 0.390953 0.056783 0.806784
O O14 0.391900 0.987650 0.949908
O O15 0.750000 0.404615 0.979250
O O16 0.607493 0.250000 0.975863
O O17 0.750000 0.599361 0.270100
O O18 0.608884 0.750000 0.290410
O O19 0.616366 0.493913 0.338315
O O20 0.419223 0.750000 0.608956
#
# Coordination Sequence:
#
# PCOD9449784 Si02
#       7
#     8   8   8   8   8   8   8
#     4   9  17  30  48  69  93 121 155 195 237 280
#     4   9  19  35  52  69  93 126 159 193 237 287
#     4   9  16  25  38  59  89 122 153 187 229 275
#     4   8  14  25  40  59  86 120 155 189 227 272
#     4   9  15  22  35  57  86 120 155 189 226 268
#     4   9  18  32  49  70  98 130 160 193 238 288
#     4  10  20  33  51  73  95 122 159 201 238 278
#
# _framework density 21.139983999999998
#
# number of rings (size 3 to 8) (size 9 to 14) (size 15 to 20)
#    0.000    3.000    0.000    2.143    0.000    6.000 
#    0.000    2.857    0.000    1.714    0.000    1.000 
#    0.000    0.000    0.000    0.000    0.000    0.000 
#
# Total GULP energy -312198.243686 kJ/mol
# GULP energy per Si atom -5574.968637 kJ/mol
# Density = 2.109187 g / cm^3
# Si number density = 21.139984 Si / 1000 Ang^3
#
#
#
# Elastic Constant Matrix: (Units=GPa)
#
#
# Indices 1 2 3 4 5 6 
#
# 1 31.7562 7.4615 -2.1984 0.0000 0.0000 0.0000
# 2 7.4615 172.4931 125.5989 0.0000 0.0000 0.0000
# 3 -2.1984 125.5989 170.4387 0.0000 0.0000 0.0000
# 4 0.0000 0.0000 0.0000 37.9697 0.0000 0.0000
# 5 0.0000 0.0000 0.0000 0.0000 61.7308 0.0000
# 6 0.0000 0.0000 0.0000 0.0000 0.0000 8.4844
#
#
#
# Elastic Compliance Matrix: (Units=1/GPa)
#
#
# Indices 1 2 3 4 5 6 
#
# 1 0.032577 -0.003701 0.003148 0.000000 0.000000 0.000000
# 2 -0.003701 0.012930 -0.009576 0.000000 0.000000 0.000000
# 3 0.003148 -0.009576 0.012965 0.000000 0.000000 0.000000
# 4 0.000000 0.000000 0.000000 0.026337 0.000000 0.000000
# 5 0.000000 0.000000 0.000000 0.000000 0.016199 0.000000
# 6 0.000000 0.000000 0.000000 0.000000 0.000000 0.117863
#
#
# Mechanical properties :
#
#
# Convention : Reuss Voigt Hill
#
# Bulk Modulus (GPa) = 26.16915 70.71245 48.44080
# Shear Modulus (GPa) = 19.85161 37.89203 28.87182
#
# Velocity S-wave (km/s) = 3.06773 4.23831 3.69961
# Velocity P-wave (km/s) = 4.99538 7.58111 6.41977
#
# Compressibility (1/GPa) = 0.03821293
#
# Stress axis : x y z
#
# Youngs Moduli (GPa) = 30.69606 77.33775 77.13238
#
# Poissons Ratio (x) = 0.28623 -0.24278
# Poissons Ratio (y) = 0.11361 0.73864
# Poissons Ratio (z) = -0.09662 0.74061
#
# Static dielectric constant tensor:
#      x y z
#    x 1.815950 0.000000 0.000000 
#    y 0.000000 1.742150 0.000000 
#    z 0.000000 0.000000 1.783500 
# 
# From -- ./inp_files/26021.got.cif
#   From: 2010.05.17/outbox.cif.g08.bks.cpg/sg59_14_cif.got.tgz:26021.got - 2010.06.03 14:40:33.
