data_PCOD9449313
_publ_section_title
;
Structure prediction by ZEFSAII (Michael W. Deem and Ramdas Pophale) SiO2 
 PCOD9449313
Probable space group: P M M N
;
_chemical_formula_sum "Si O2"
_cell_formula_units_Z 56
_cell_length_a 8.563212
_cell_length_b 21.676588
_cell_length_c 14.271114
_cell_angle_alpha 90.000000
_cell_angle_beta 90.000000
_cell_angle_gamma 90.000000
_cell_volume 2649.021570
_symmetry_space_group_name_H-M "P M M N"
_symmetry_group_IT_number 59
_space_group.IT_coordinate_system_code '2'
_symmetry_cell_setting 'orthorhombic'
loop_
_space_group_symop_operation_xyz
x,y,z
1/2-x,1/2-y,z
1/2+x,-y,-z
-x,1/2+y,-z
-x,-y,-z
1/2+x,1/2+y,-z
1/2-x,y,z
x,1/2-y,z
loop_
_atom_site_type_symbol
_atom_site_label
_atom_site_fract_x
_atom_site_fract_y
_atom_site_fract_z
Si Si1 0.070385 0.500148 0.397091
Si Si2 0.564859 0.052573 0.221315
Si Si3 0.438633 0.451617 0.921481
Si Si4 0.060675 0.821080 0.148115
Si Si5 0.070269 0.641634 0.356277
Si Si6 0.423801 0.322465 0.446432
Si Si7 0.436677 0.682121 0.756503
O O1 0.250000 0.481561 0.400736
O O2 0.066215 0.568006 0.353012
O O3 0.000000 0.500000 0.500000
O O4 0.972405 0.456950 0.329635
O O5 0.750000 0.054174 0.206317
O O6 0.502023 0.120246 0.192640
O O7 0.508387 0.991702 0.168770
O O8 0.250000 0.448121 0.927157
O O9 0.500532 0.381009 0.910746
O O10 0.500000 0.500000 0.000000
O O11 0.250000 0.824105 0.146075
O O12 0.017091 0.750000 0.120207
O O13 0.010249 0.831370 0.257480
O O14 0.250000 0.662887 0.366035
O O15 0.985288 0.654522 0.454140
O O16 0.250000 0.346822 0.426337
O O17 0.411611 0.250000 0.460536
O O18 0.529141 0.327744 0.353818
O O19 0.250000 0.684101 0.770051
O O20 0.500359 0.750000 0.782743
#
# Coordination Sequence:
#
# PCOD9449313 Si02
#       7
#     8   8   8   8   8   8   8
#     4  11  22  34  52  80 118 161 204 250 298 357
#     4  10  21  38  59  85 115 151 198 249 300 357
#     4  11  24  43  68  95 126 161 203 255 313 382
#     4  10  21  40  66  94 124 158 202 255 313 380
#     4  10  20  34  52  77 112 157 205 248 296 357
#     4  10  20  31  45  72 111 153 197 243 293 348
#     4   9  18  34  55  77 106 148 197 246 294 347
#
# _framework density 21.139880999999999
#
# number of rings (size 3 to 8) (size 9 to 14) (size 15 to 20)
#    0.000    1.857    1.429    2.571    0.000    8.000 
#    0.000    0.714    0.000    2.571    0.000    0.000 
#    0.000    0.000    0.000    0.000    0.000    0.000 
#
# Total GULP energy -311941.435106 kJ/mol
# GULP energy per Si atom -5570.382770 kJ/mol
# Density = 2.109177 g / cm^3
# Si number density = 21.139881 Si / 1000 Ang^3
#
#
#
# Elastic Constant Matrix: (Units=GPa)
#
#
# Indices 1 2 3 4 5 6 
#
# 1 17.8934 29.3011 2.2390 0.0000 0.0000 0.0000
# 2 29.3011 200.8423 28.4471 0.0000 0.0000 0.0000
# 3 2.2390 28.4471 24.2013 0.0000 0.0000 0.0000
# 4 0.0000 0.0000 0.0000 25.0207 0.0000 0.0000
# 5 0.0000 0.0000 0.0000 0.0000 11.1513 0.0000
# 6 0.0000 0.0000 0.0000 0.0000 0.0000 24.8835
#
#
#
# Elastic Compliance Matrix: (Units=1/GPa)
#
#
# Indices 1 2 3 4 5 6 
#
# 1 0.074418 -0.011856 0.007051 0.000000 0.000000 0.000000
# 2 -0.011856 0.007862 -0.008145 0.000000 0.000000 0.000000
# 3 0.007051 -0.008145 0.050241 0.000000 0.000000 0.000000
# 4 0.000000 0.000000 0.000000 0.039967 0.000000 0.000000
# 5 0.000000 0.000000 0.000000 0.000000 0.089676 0.000000
# 6 0.000000 0.000000 0.000000 0.000000 0.000000 0.040187
#
#
# Mechanical properties :
#
#
# Convention : Reuss Voigt Hill
#
# Bulk Modulus (GPa) = 9.37888 40.32348 24.85118
# Shear Modulus (GPa) = 13.74412 24.40774 19.07593
#
# Velocity S-wave (km/s) = 2.55257 3.40160 3.00720
# Velocity P-wave (km/s) = 3.62405 5.87740 4.88250
#
# Compressibility (1/GPa) = 0.10662252
#
# Stress axis : x y z
#
# Youngs Moduli (GPa) = 13.43759 127.18963 19.90388
#
# Poissons Ratio (x) = 1.50791 -0.14034
# Poissons Ratio (y) = 0.15931 0.16211
# Poissons Ratio (z) = -0.09474 1.03593
#
# Static dielectric constant tensor:
#      x y z
#    x 1.694510 0.000000 0.000000 
#    y 0.000000 1.840350 0.000000 
#    z 0.000000 0.000000 1.817840 
# 
# From -- ./inp_files/20960.got.cif
#   From: 2010.05.17/outbox.cif.g08.bks.cpg/sg59_11_cif.got.tgz:20960.got - 2010.06.03 14:40:33.
