data_PCOD9449494
_publ_section_title
;
Structure prediction by ZEFSAII (Michael W. Deem and Ramdas Pophale) SiO2 
 PCOD9449494
Probable space group: P M M N
;
_chemical_formula_sum "Si O2"
_cell_formula_units_Z 48
_cell_length_a 9.098366
_cell_length_b 15.815777
_cell_length_c 19.404497
_cell_angle_alpha 90.000000
_cell_angle_beta 90.000000
_cell_angle_gamma 90.000000
_cell_volume 2792.263026
_symmetry_space_group_name_H-M "P M M N"
_symmetry_group_IT_number 59
_space_group.IT_coordinate_system_code '2'
_symmetry_cell_setting 'orthorhombic'
loop_
_space_group_symop_operation_xyz
x,y,z
1/2-x,1/2-y,z
1/2+x,-y,-z
-x,1/2+y,-z
-x,-y,-z
1/2+x,1/2+y,-z
1/2-x,y,z
x,1/2-y,z
loop_
_atom_site_type_symbol
_atom_site_label
_atom_site_fract_x
_atom_site_fract_y
_atom_site_fract_z
Si Si1 0.074180 0.152987 0.571049
Si Si2 0.081967 0.750000 0.959477
Si Si3 0.583082 0.250000 0.207658
Si Si4 0.074769 0.424874 0.041926
Si Si5 0.073121 0.002925 0.673084
Si Si6 0.924179 0.924112 0.794606
Si Si7 0.426813 0.654050 0.576609
O O1 0.250000 0.145440 0.560514
O O2 0.042446 0.250000 0.591421
O O3 0.032186 0.085144 0.628755
O O4 0.995134 0.137111 0.498411
O O5 0.250000 0.750000 0.984733
O O6 0.088261 0.750000 0.875840
O O7 0.996399 0.835145 0.978869
O O8 0.750000 0.250000 0.234899
O O9 0.499220 0.164676 0.226420
O O10 0.250000 0.423233 0.031262
O O11 0.048034 0.436716 0.123986
O O12 0.000000 0.500000 0.000000
O O13 0.250000 0.002039 0.681904
O O14 0.030259 0.919938 0.628779
O O15 0.995343 0.994943 0.746474
O O16 0.750000 0.919147 0.784545
O O17 0.250000 0.652196 0.571184
O O18 0.469724 0.750000 0.597629
#
# Coordination Sequence:
#
# PCOD9449494 Si02
#       7
#     8   4   4   8   8   8   8
#     4   9  18  33  51  70  94 128 173 219 260 303
#     4   9  17  31  53  81 107 137 172 207 256 313
#     4   9  17  31  51  73 103 139 168 197 246 311
#     4  10  20  35  56  80 109 141 178 221 264 315
#     4  10  20  32  49  72 100 135 171 210 259 313
#     4  10  21  34  50  77 108 136 171 214 259 307
#     4   9  18  31  47  71 100 128 164 208 256 310
#
# _framework density 17.190356999999999
#
# number of rings (size 3 to 8) (size 9 to 14) (size 15 to 20)
#    0.000    2.500    0.000    2.000    1.167    5.333 
#    0.000    0.000    1.833    0.000    0.000    0.000 
#    0.000    0.000    0.000    0.000    0.000    0.000 
#
# Total GULP energy -267803.889964 kJ/mol
# GULP energy per Si atom -5579.247708 kJ/mol
# Density = 1.715123 g / cm^3
# Si number density = 17.190357 Si / 1000 Ang^3
#
#
#
# Elastic Constant Matrix: (Units=GPa)
#
#
# Indices 1 2 3 4 5 6 
#
# 1 63.6106 58.8719 51.7261 0.0000 0.0000 0.0000
# 2 58.8719 115.6640 65.1676 0.0000 0.0000 0.0000
# 3 51.7261 65.1676 67.7948 0.0000 0.0000 0.0000
# 4 0.0000 0.0000 0.0000 28.8733 0.0000 0.0000
# 5 0.0000 0.0000 0.0000 0.0000 27.7477 0.0000
# 6 0.0000 0.0000 0.0000 0.0000 0.0000 24.5491
#
#
#
# Elastic Compliance Matrix: (Units=1/GPa)
#
#
# Indices 1 2 3 4 5 6 
#
# 1 0.044315 -0.007648 -0.026460 0.000000 0.000000 0.000000
# 2 -0.007648 0.020180 -0.013563 0.000000 0.000000 0.000000
# 3 -0.026460 -0.013563 0.047976 0.000000 0.000000 0.000000
# 4 0.000000 0.000000 0.000000 0.034634 0.000000 0.000000
# 5 0.000000 0.000000 0.000000 0.000000 0.036039 0.000000
# 6 0.000000 0.000000 0.000000 0.000000 0.000000 0.040735
#
#
# Mechanical properties :
#
#
# Convention : Reuss Voigt Hill
#
# Bulk Modulus (GPa) = 58.37787 66.51117 62.44452
# Shear Modulus (GPa) = 15.38788 20.98761 18.18774
#
# Velocity S-wave (km/s) = 2.99514 3.49792 3.25625
# Velocity P-wave (km/s) = 6.78193 7.42219 7.10927
#
# Compressibility (1/GPa) = 0.01712978
#
# Stress axis : x y z
#
# Youngs Moduli (GPa) = 22.56552 49.55401 20.84369
#
# Poissons Ratio (x) = 0.37898 0.55153
# Poissons Ratio (y) = 0.17258 0.28270
# Poissons Ratio (z) = 0.59709 0.67209
#
# Static dielectric constant tensor:
#      x y z
#    x 1.572310 0.000000 0.000000 
#    y 0.000000 1.579860 0.000000 
#    z 0.000000 0.000000 1.571100 
# 
# From -- ./inp_files/25544.got.cif
#   From: 2010.05.17/outbox.cif.g08.bks.cpg/sg59_13_cif.got.tgz:25544.got - 2010.06.03 14:40:33.
