data_PCOD9449167
_publ_section_title
;
Structure prediction by ZEFSAII (Michael W. Deem and Ramdas Pophale) SiO2 
 PCOD9449167
Probable space group: P M M N
;
_chemical_formula_sum "Si O2"
_cell_formula_units_Z 40
_cell_length_a 16.162986
_cell_length_b 11.931400
_cell_length_c 10.441528
_cell_angle_alpha 90.000000
_cell_angle_beta 90.000000
_cell_angle_gamma 90.000000
_cell_volume 2013.617884
_symmetry_space_group_name_H-M "P M M N"
_symmetry_group_IT_number 59
_space_group.IT_coordinate_system_code '2'
_symmetry_cell_setting 'orthorhombic'
loop_
_space_group_symop_operation_xyz
x,y,z
1/2-x,1/2-y,z
1/2+x,-y,-z
-x,1/2+y,-z
-x,-y,-z
1/2+x,1/2+y,-z
1/2-x,y,z
x,1/2-y,z
loop_
_atom_site_type_symbol
_atom_site_label
_atom_site_fract_x
_atom_site_fract_y
_atom_site_fract_z
Si Si1 0.096481 0.490657 0.973377
Si Si2 0.851038 0.750000 0.643608
Si Si3 0.351363 0.010898 0.461819
Si Si4 0.649575 0.380943 0.282214
Si Si5 0.849104 0.750000 0.943872
Si Si6 0.348142 0.874430 0.217200
O O1 0.122017 0.361230 0.983322
O O2 0.140025 0.553759 0.090785
O O3 0.119479 0.553653 0.843084
O O4 0.000000 0.500000 0.000000
O O5 0.750000 0.750000 0.647200
O O6 0.877230 0.861994 0.568819
O O7 0.877733 0.750000 0.793709
O O8 0.250000 0.011517 0.462742
O O9 0.377364 0.950835 0.592598
O O10 0.381161 0.937354 0.341676
O O11 0.750000 0.379917 0.280556
O O12 0.622908 0.250000 0.285131
O O13 0.750000 0.750000 0.939794
O O14 0.250000 0.864802 0.237856
O O15 0.383368 0.750000 0.201886
#
# Coordination Sequence:
#
# PCOD9449167 Si02
#       6
#     8   4   8   8   4   8
#     4  12  26  39  59  87 127 164 205 256 313 368
#     4   9  16  31  59  89 121 152 201 263 306 350
#     4   9  17  32  58  92 118 150 197 255 307 359
#     4  10  21  39  63  90 123 157 199 252 312 374
#     4  11  22  41  67  91 120 168 221 261 303 372
#     4  10  19  35  62  88 114 153 205 250 295 363
#
# _framework density 19.864742
#
# number of rings (size 3 to 8) (size 9 to 14) (size 15 to 20)
#    0.000    1.800    2.000    3.000    2.800    4.800 
#    0.000    3.000    0.000    0.000    0.000    0.000 
#    0.000    0.000    0.000    0.000    0.000    0.000 
#
# Total GULP energy -223371.014409 kJ/mol
# GULP energy per Si atom -5584.275360 kJ/mol
# Density = 1.981953 g / cm^3
# Si number density = 19.864742 Si / 1000 Ang^3
#
#
#
# Elastic Constant Matrix: (Units=GPa)
#
#
# Indices 1 2 3 4 5 6 
#
# 1 -13.4794 -17.8349 -70.1393 0.0000 0.0000 0.0000
# 2 -17.8349 165.5930 3.4924 0.0000 0.0000 0.0000
# 3 -70.1393 3.4924 0.3963 0.0000 0.0000 0.0000
# 4 0.0000 0.0000 0.0000 73.0364 0.0000 0.0000
# 5 0.0000 0.0000 0.0000 0.0000 -63.5147 0.0000
# 6 0.0000 0.0000 0.0000 0.0000 0.0000 8.2787
#
#
#
# Elastic Compliance Matrix: (Units=1/GPa)
#
#
# Indices 1 2 3 4 5 6 
#
# 1 -0.000066 0.000295 -0.014320 0.000000 0.000000 0.000000
# 2 0.000295 0.006105 -0.001609 0.000000 0.000000 0.000000
# 3 -0.014320 -0.001609 0.003161 0.000000 0.000000 0.000000
# 4 0.000000 0.000000 0.000000 0.013692 0.000000 0.000000
# 5 0.000000 0.000000 0.000000 0.000000 -0.015744 0.000000
# 6 0.000000 0.000000 0.000000 0.000000 0.000000 0.120791
#
#
# Mechanical properties :
#
#
# Convention : Reuss Voigt Hill
#
# Bulk Modulus (GPa) = -45.31474 -1.82820 -23.57147
# Shear Modulus (GPa) = 32.92730 19.35952 26.14341
#
# Velocity S-wave (km/s) = 4.07575 3.12519 3.63171
# Velocity P-wave (km/s) = 0.84391 3.47852 2.38620
#
# Compressibility (1/GPa) = -0.02206787
#
# Stress axis : x y z
#
# Youngs Moduli (GPa) = -15101.88785 163.81106 316.35031
#
# Poissons Ratio (x) = -0.04830 4.53001
# Poissons Ratio (y) = 4.45314 0.50899
# Poissons Ratio (z) = -216.25282 0.26356
#
# Static dielectric constant tensor:
#      x y z
#    x 1.693060 0.000000 0.000000 
#    y 0.000000 1.678520 0.000000 
#    z 0.000000 0.000000 1.685050 
# 
# From -- ./inp_files/11175.got.cif
#   From: 2010.05.17/outbox.cif.g08.bks.cpg/sg59_6_cif.got.tgz:11175.got - 2010.06.03 14:40:33.
