data_PCOD9449817
_publ_section_title
;
Structure prediction by ZEFSAII (Michael W. Deem and Ramdas Pophale) SiO2 
 PCOD9449817
Probable space group: P M M N
;
_chemical_formula_sum "Si O2"
_cell_formula_units_Z 64
_cell_length_a 14.546214
_cell_length_b 9.047648
_cell_length_c 26.204123
_cell_angle_alpha 90.000000
_cell_angle_beta 90.000000
_cell_angle_gamma 90.000000
_cell_volume 3448.699053
_symmetry_space_group_name_H-M "P M M N"
_symmetry_group_IT_number 59
_space_group.IT_coordinate_system_code '2'
_symmetry_cell_setting 'orthorhombic'
loop_
_space_group_symop_operation_xyz
x,y,z
1/2-x,1/2-y,z
1/2+x,-y,-z
-x,1/2+y,-z
-x,-y,-z
1/2+x,1/2+y,-z
1/2-x,y,z
x,1/2-y,z
loop_
_atom_site_type_symbol
_atom_site_label
_atom_site_fract_x
_atom_site_fract_y
_atom_site_fract_z
Si Si1 0.543651 0.073548 0.272984
Si Si2 0.967883 0.572298 0.075280
Si Si3 0.354315 0.587645 0.417694
Si Si4 0.904481 0.573294 0.484647
Si Si5 0.640735 0.923489 0.367752
Si Si6 0.857289 0.928490 0.176844
Si Si7 0.142607 0.071908 0.027940
Si Si8 0.856595 0.926893 0.683411
O O1 0.551551 0.250000 0.268833
O O2 0.434821 0.034420 0.275548
O O3 0.589075 0.019232 0.325796
O O4 0.596793 0.996807 0.226878
O O5 0.979320 0.750000 0.075165
O O6 0.916843 0.528529 0.127305
O O7 0.067385 0.498719 0.066015
O O8 0.899729 0.535496 0.027965
O O9 0.250000 0.609456 0.401617
O O10 0.398659 0.750000 0.424516
O O11 0.347440 0.498608 0.469927
O O12 0.392106 0.497018 0.369979
O O13 0.902405 0.750000 0.488757
O O14 0.879300 0.534374 0.426642
O O15 0.000000 0.500000 0.500000
O O16 0.750000 0.935606 0.359756
O O17 0.615371 0.750000 0.361851
O O18 0.750000 0.972010 0.172022
O O19 0.859318 0.750000 0.180488
O O20 0.250000 0.025715 0.032940
O O21 0.140652 0.250000 0.033196
O O22 0.750000 0.967960 0.695251
O O23 0.857024 0.750000 0.676896
#
# Coordination Sequence:
#
# PCOD9449817 Si02
#       8
#     8   8   8   8   8   8   8   8
#     4  11  23  37  56  82 107 133 173 226 275 316
#     4   9  18  33  54  81 112 148 192 234 269 314
#     4  10  20  33  51  76 102 127 160 204 253 309
#     4  11  22  35  52  74 101 133 170 211 258 315
#     4  10  22  39  56  74 101 140 179 212 256 319
#     4  10  21  38  59  80 106 144 185 223 267 320
#     4   9  17  31  53  82 117 154 189 227 274 324
#     4   9  19  37  58  77 101 136 174 212 262 325
#
# _framework density 18.557721000000001
#
# number of rings (size 3 to 8) (size 9 to 14) (size 15 to 20)
#    0.000    2.125    0.000    3.000    0.000    9.500 
#    0.000    0.625    0.000    4.500    0.000    0.000 
#    0.000    0.000    0.000    0.000    0.000    0.000 
#
# Total GULP energy -356694.140603 kJ/mol
# GULP energy per Si atom -5573.345947 kJ/mol
# Density = 1.851548 g / cm^3
# Si number density = 18.557721 Si / 1000 Ang^3
#
#
#
# Elastic Constant Matrix: (Units=GPa)
#
#
# Indices 1 2 3 4 5 6 
#
# 1 153.7046 44.4901 74.7069 0.0000 0.0000 0.0000
# 2 44.4901 31.8844 35.9681 0.0000 0.0000 0.0000
# 3 74.7069 35.9681 108.2736 0.0000 0.0000 0.0000
# 4 0.0000 0.0000 0.0000 22.9696 0.0000 0.0000
# 5 0.0000 0.0000 0.0000 0.0000 29.8572 0.0000
# 6 0.0000 0.0000 0.0000 0.0000 0.0000 23.9352
#
#
#
# Elastic Compliance Matrix: (Units=1/GPa)
#
#
# Indices 1 2 3 4 5 6 
#
# 1 0.012085 -0.011926 -0.004377 0.000000 0.000000 0.000000
# 2 -0.011926 0.061929 -0.012344 0.000000 0.000000 0.000000
# 3 -0.004377 -0.012344 0.016357 0.000000 0.000000 0.000000
# 4 0.000000 0.000000 0.000000 0.043536 0.000000 0.000000
# 5 0.000000 0.000000 0.000000 0.000000 0.033493 0.000000
# 6 0.000000 0.000000 0.000000 0.000000 0.000000 0.041779
#
#
# Mechanical properties :
#
#
# Convention : Reuss Voigt Hill
#
# Bulk Modulus (GPa) = 30.23218 67.13255 48.68237
# Shear Modulus (GPa) = 18.01815 24.59890 21.30852
#
# Velocity S-wave (km/s) = 3.11935 3.64474 3.39223
# Velocity P-wave (km/s) = 5.41295 7.34613 6.45235
#
# Compressibility (1/GPa) = 0.03307733
#
# Stress axis : x y z
#
# Youngs Moduli (GPa) = 82.74511 16.14754 61.13766
#
# Poissons Ratio (x) = 0.19257 0.26760
# Poissons Ratio (y) = 0.98680 0.75468
# Poissons Ratio (z) = 0.36217 0.19933
#
# Static dielectric constant tensor:
#      x y z
#    x 1.596610 0.000000 0.000000 
#    y 0.000000 1.642200 0.000000 
#    z 0.000000 0.000000 1.819080 
# 
# From -- ./inp_files/32140.got.cif
#   From: 2010.05.17/outbox.cif.g08.bks.cpg/sg59_17_cif.got.tgz:32140.got - 2010.06.03 14:40:33.
