data_PCOD9449989
_publ_section_title
;
Structure prediction by ZEFSAII (Michael W. Deem and Ramdas Pophale) SiO2 
 PCOD9449989
Probable space group: P M M N
;
_chemical_formula_sum "Si O2"
_cell_formula_units_Z 48
_cell_length_a 7.736319
_cell_length_b 15.958522
_cell_length_c 18.336296
_cell_angle_alpha 90.000000
_cell_angle_beta 90.000000
_cell_angle_gamma 90.000000
_cell_volume 2263.803082
_symmetry_space_group_name_H-M "P M M N"
_symmetry_group_IT_number 59
_space_group.IT_coordinate_system_code '2'
_symmetry_cell_setting 'orthorhombic'
loop_
_space_group_symop_operation_xyz
x,y,z
1/2-x,1/2-y,z
1/2+x,-y,-z
-x,1/2+y,-z
-x,-y,-z
1/2+x,1/2+y,-z
1/2-x,y,z
x,1/2-y,z
loop_
_atom_site_type_symbol
_atom_site_label
_atom_site_fract_x
_atom_site_fract_y
_atom_site_fract_z
Si Si1 0.547540 0.903618 0.003783
Si Si2 0.542521 0.000788 0.415078
Si Si3 0.052542 0.350243 0.842372
Si Si4 0.962668 0.347078 0.314011
Si Si5 0.462340 0.153223 0.682963
Si Si6 0.059247 0.850115 0.843951
O O1 0.750000 0.889013 0.011799
O O2 0.506698 0.866161 0.924860
O O3 0.467757 0.871706 0.080086
O O4 0.500000 0.000000 0.000000
O O5 0.750000 0.001051 0.407920
O O6 0.481579 0.084926 0.373531
O O7 0.500000 0.000000 0.500000
O O8 0.481040 0.915922 0.375149
O O9 0.250000 0.384253 0.842018
O O10 0.063037 0.250000 0.839902
O O11 0.976225 0.373974 0.764027
O O12 0.750000 0.346556 0.311208
O O13 0.014062 0.250000 0.328140
O O14 0.025034 0.375275 0.232940
O O15 0.250000 0.154038 0.684929
O O16 0.514472 0.250000 0.668565
O O17 0.250000 0.888943 0.843789
O O18 0.069966 0.750000 0.836554
#
# Coordination Sequence:
#
# PCOD9449989 Si02
#       6
#     8   8   8   8   8   8
#     4  11  22  32  47  74 107 140 175 215 259 307
#     4  10  20  33  53  77 102 132 164 207 257 309
#     4   8  15  29  49  71  94 125 168 212 247 289
#     4   8  16  32  54  77 100 134 178 213 248 308
#     4   8  15  29  50  75  98 125 166 210 249 293
#     4   9  18  34  55  76 100 133 175 220 261 305
#
# _framework density 21.203258999999999
#
# number of rings (size 3 to 8) (size 9 to 14) (size 15 to 20)
#    0.000    3.000    0.000    3.000    2.333    1.667 
#    0.000    0.833    0.000    1.000    0.000    4.667 
#    0.000    0.000    0.000    0.000    0.000    0.000 
#
# Total GULP energy -267301.473714 kJ/mol
# GULP energy per Si atom -5568.780702 kJ/mol
# Density = 2.115500 g / cm^3
# Si number density = 21.203259 Si / 1000 Ang^3
#
#
#
# Elastic Constant Matrix: (Units=GPa)
#
#
# Indices 1 2 3 4 5 6 
#
# 1 24.8656 3.6441 10.5742 0.0000 0.0000 0.0000
# 2 3.6441 99.5204 105.4047 0.0000 0.0000 0.0000
# 3 10.5742 105.4047 245.2138 0.0000 0.0000 0.0000
# 4 0.0000 0.0000 0.0000 46.1616 0.0000 0.0000
# 5 0.0000 0.0000 0.0000 0.0000 21.7870 0.0000
# 6 0.0000 0.0000 0.0000 0.0000 0.0000 2.6013
#
#
#
# Elastic Compliance Matrix: (Units=1/GPa)
#
#
# Indices 1 2 3 4 5 6 
#
# 1 0.040993 0.000681 -0.002061 0.000000 0.000000 0.000000
# 2 0.000681 0.018457 -0.007963 0.000000 0.000000 0.000000
# 3 -0.002061 -0.007963 0.007590 0.000000 0.000000 0.000000
# 4 0.000000 0.000000 0.000000 0.021663 0.000000 0.000000
# 5 0.000000 0.000000 0.000000 0.000000 0.045899 0.000000
# 6 0.000000 0.000000 0.000000 0.000000 0.000000 0.384425
#
#
# Mechanical properties :
#
#
# Convention : Reuss Voigt Hill
#
# Bulk Modulus (GPa) = 20.68038 67.64953 44.16496
# Shear Modulus (GPa) = 9.02804 30.77511 19.90157
#
# Velocity S-wave (km/s) = 2.06570 3.81390 3.06700
# Velocity P-wave (km/s) = 3.93243 7.16721 5.78070
#
# Compressibility (1/GPa) = 0.04835502
#
# Stress axis : x y z
#
# Youngs Moduli (GPa) = 24.39462 54.17917 131.75400
#
# Poissons Ratio (x) = -0.03692 0.27149
# Poissons Ratio (y) = -0.01662 1.04918
# Poissons Ratio (z) = 0.05027 0.43144
#
# Static dielectric constant tensor:
#      x y z
#    x 1.834960 0.000000 0.000000 
#    y 0.000000 1.737360 0.000000 
#    z 0.000000 0.000000 1.829880 
# 
# From -- ./inp_files/20477.got.cif
#   From: 2010.05.17/outbox.cif.g08.bks.cpg/sg59_11_cif.got.tgz:20477.got - 2010.06.03 14:40:33.
