data_PCOD9449859
_publ_section_title
;
Structure prediction by ZEFSAII (Michael W. Deem and Ramdas Pophale) SiO2 
 PCOD9449859
Probable space group: P M M N
;
_chemical_formula_sum "Si O2"
_cell_formula_units_Z 48
_cell_length_a 14.433434
_cell_length_b 7.607240
_cell_length_c 21.398091
_cell_angle_alpha 90.000000
_cell_angle_beta 90.000000
_cell_angle_gamma 90.000000
_cell_volume 2349.480359
_symmetry_space_group_name_H-M "P M M N"
_symmetry_group_IT_number 59
_space_group.IT_coordinate_system_code '2'
_symmetry_cell_setting 'orthorhombic'
loop_
_space_group_symop_operation_xyz
x,y,z
1/2-x,1/2-y,z
1/2+x,-y,-z
-x,1/2+y,-z
-x,-y,-z
1/2+x,1/2+y,-z
1/2-x,y,z
x,1/2-y,z
loop_
_atom_site_type_symbol
_atom_site_label
_atom_site_fract_x
_atom_site_fract_y
_atom_site_fract_z
Si Si1 0.353732 0.542140 0.894531
Si Si2 0.855945 0.961924 0.717408
Si Si3 0.853389 0.955677 0.461009
Si Si4 0.037959 0.465873 0.158811
Si Si5 0.047937 0.958842 0.413018
Si Si6 0.643029 0.538077 0.965723
O O1 0.250000 0.465776 0.890535
O O2 0.346214 0.750000 0.883411
O O3 0.431810 0.474152 0.847802
O O4 0.389052 0.521496 0.965881
O O5 0.750000 0.026455 0.714482
O O6 0.852026 0.750000 0.721210
O O7 0.908565 0.024559 0.779557
O O8 0.911902 0.007085 0.655096
O O9 0.750000 0.031536 0.451956
O O10 0.847441 0.750000 0.444369
O O11 0.943189 0.028930 0.424196
O O12 0.884206 0.967529 0.533514
O O13 0.038729 0.250000 0.159047
O O14 0.088824 0.522622 0.095214
O O15 0.045015 0.750000 0.423799
O O16 0.750000 0.481969 0.960367
O O17 0.640364 0.750000 0.966047
#
# Coordination Sequence:
#
# PCOD9449859 Si02
#       6
#     8   8   8   8   8   8
#     4   9  17  29  45  65  89 116 147 188 239 286
#     4  10  20  34  51  69  93 128 165 196 232 284
#     4   9  18  34  55  76 100 132 165 193 227 277
#     4   9  17  30  47  65  87 119 158 193 225 272
#     4  10  20  33  51  77 105 129 157 197 240 276
#     4   9  16  27  45  67  88 112 147 190 232 275
#
# _framework density 20.430050000000001
#
# number of rings (size 3 to 8) (size 9 to 14) (size 15 to 20)
#    0.000    2.667    0.000    2.000    0.000    5.333 
#    0.000    2.500    0.000    3.000    0.000    0.000 
#    0.000    0.000    0.000    0.000    0.000    0.000 
#
# Total GULP energy -267796.537033 kJ/mol
# GULP energy per Si atom -5579.094522 kJ/mol
# Density = 2.038355 g / cm^3
# Si number density = 20.430050 Si / 1000 Ang^3
#
#
#
# Elastic Constant Matrix: (Units=GPa)
#
#
# Indices 1 2 3 4 5 6 
#
# 1 168.0185 2.0350 97.3908 0.0000 0.0000 0.0000
# 2 2.0350 42.8344 -6.4937 0.0000 0.0000 0.0000
# 3 97.3908 -6.4937 109.8865 0.0000 0.0000 0.0000
# 4 0.0000 0.0000 0.0000 16.6483 0.0000 0.0000
# 5 0.0000 0.0000 0.0000 0.0000 24.7029 0.0000
# 6 0.0000 0.0000 0.0000 0.0000 0.0000 8.5770
#
#
#
# Elastic Compliance Matrix: (Units=1/GPa)
#
#
# Indices 1 2 3 4 5 6 
#
# 1 0.012458 -0.002286 -0.011176 0.000000 0.000000 0.000000
# 2 -0.002286 0.023976 0.003443 0.000000 0.000000 0.000000
# 3 -0.011176 0.003443 0.019209 0.000000 0.000000 0.000000
# 4 0.000000 0.000000 0.000000 0.060066 0.000000 0.000000
# 5 0.000000 0.000000 0.000000 0.000000 0.040481 0.000000
# 6 0.000000 0.000000 0.000000 0.000000 0.000000 0.116591
#
#
# Mechanical properties :
#
#
# Convention : Reuss Voigt Hill
#
# Bulk Modulus (GPa) = 28.08634 56.28928 42.18781
# Shear Modulus (GPa) = 16.41026 25.17279 20.79152
#
# Velocity S-wave (km/s) = 2.83723 3.51400 3.19359
# Velocity P-wave (km/s) = 4.95081 6.63900 5.85606
#
# Compressibility (1/GPa) = 0.03560450
#
# Stress axis : x y z
#
# Youngs Moduli (GPa) = 80.27282 41.70784 52.05921
#
# Poissons Ratio (x) = 0.09535 0.58181
# Poissons Ratio (y) = 0.18351 -0.17924
# Poissons Ratio (z) = 0.89713 -0.14360
#
# Static dielectric constant tensor:
#      x y z
#    x 1.774280 0.000000 0.000000 
#    y 0.000000 1.770960 0.000000 
#    z 0.000000 0.000000 1.672620 
# 
# From -- ./inp_files/25494.got.cif
#   From: 2010.05.17/outbox.cif.g08.bks.cpg/sg59_13_cif.got.tgz:25494.got - 2010.06.03 14:40:33.
