data_PCOD9449270
_publ_section_title
;
Structure prediction by ZEFSAII (Michael W. Deem and Ramdas Pophale) SiO2 
 PCOD9449270
Probable space group: P M M N
;
_chemical_formula_sum "Si O2"
_cell_formula_units_Z 64
_cell_length_a 7.404914
_cell_length_b 20.614407
_cell_length_c 20.465364
_cell_angle_alpha 90.000000
_cell_angle_beta 90.000000
_cell_angle_gamma 90.000000
_cell_volume 3123.995062
_symmetry_space_group_name_H-M "P M M N"
_symmetry_group_IT_number 59
_space_group.IT_coordinate_system_code '2'
_symmetry_cell_setting 'orthorhombic'
loop_
_space_group_symop_operation_xyz
x,y,z
1/2-x,1/2-y,z
1/2+x,-y,-z
-x,1/2+y,-z
-x,-y,-z
1/2+x,1/2+y,-z
1/2-x,y,z
x,1/2-y,z
loop_
_atom_site_type_symbol
_atom_site_label
_atom_site_fract_x
_atom_site_fract_y
_atom_site_fract_z
Si Si1 0.956817 0.428864 0.910931
Si Si2 0.966472 0.909415 0.730344
Si Si3 0.961708 0.320535 0.156400
Si Si4 0.971054 0.076574 0.052903
Si Si5 0.537934 0.675842 0.487430
Si Si6 0.032512 0.580005 0.377549
Si Si7 0.970892 0.050458 0.769476
Si Si8 0.530061 0.937718 0.583397
O O1 0.750000 0.406033 0.907642
O O2 0.034500 0.419362 0.838134
O O3 0.960813 0.506151 0.925244
O O4 0.032591 0.403806 0.979867
O O5 0.750000 0.911378 0.730108
O O6 0.021999 0.912997 0.655425
O O7 0.023773 0.847656 0.770754
O O8 0.028065 0.975056 0.766369
O O9 0.750000 0.316522 0.140916
O O10 0.042782 0.250000 0.150390
O O11 0.035778 0.372556 0.106104
O O12 0.750000 0.072373 0.051991
O O13 0.750000 0.680429 0.503602
O O14 0.466143 0.750000 0.492790
O O15 0.521309 0.644722 0.415494
O O16 0.463835 0.616955 0.532825
O O17 0.250000 0.576641 0.376778
O O18 0.974400 0.578039 0.301495
O O19 0.970783 0.513794 0.415707
O O20 0.750000 0.051900 0.771051
O O21 0.750000 0.939811 0.578297
#
# Coordination Sequence:
#
# PCOD9449270 Si02
#       8
#     8   8   8   8   8   8   8   8
#     4   9  15  26  46  67  88 112 141 185 231 265
#     4   9  16  29  48  68  87 112 150 188 222 264
#     4  10  20  31  40  56  91 130 154 179 218 264
#     4   9  17  27  41  63  88 117 150 181 218 263
#     4  10  20  33  48  68  96 126 156 192 234 281
#     4   9  17  31  51  72  94 121 154 193 237 281
#     4   8  14  26  46  70  93 112 136 185 239 270
#     4   8  16  31  51  72  94 121 153 193 236 276
#
# _framework density 20.486588000000001
#
# number of rings (size 3 to 8) (size 9 to 14) (size 15 to 20)
#    0.000    3.000    1.250    1.875    0.000    1.000 
#    0.000    5.000    0.000    0.750    0.000    3.500 
#    0.000    0.000    0.000    0.000    0.000    0.000 
#
# Total GULP energy -356543.805621 kJ/mol
# GULP energy per Si atom -5570.996963 kJ/mol
# Density = 2.043996 g / cm^3
# Si number density = 20.486588 Si / 1000 Ang^3
#
#
#
# Elastic Constant Matrix: (Units=GPa)
#
#
# Indices 1 2 3 4 5 6 
#
# 1 68.6582 -2.2761 -6.8811 0.0000 0.0000 0.0000
# 2 -2.2761 78.9273 32.9418 0.0000 0.0000 0.0000
# 3 -6.8811 32.9418 95.0613 0.0000 0.0000 0.0000
# 4 0.0000 0.0000 0.0000 7.6920 0.0000 0.0000
# 5 0.0000 0.0000 0.0000 0.0000 19.8106 0.0000
# 6 0.0000 0.0000 0.0000 0.0000 0.0000 16.5901
#
#
#
# Elastic Compliance Matrix: (Units=1/GPa)
#
#
# Indices 1 2 3 4 5 6 
#
# 1 0.014671 -0.000024 0.001070 0.000000 0.000000 0.000000
# 2 -0.000024 0.014812 -0.005135 0.000000 0.000000 0.000000
# 3 0.001070 -0.005135 0.012376 0.000000 0.000000 0.000000
# 4 0.000000 0.000000 0.000000 0.130005 0.000000 0.000000
# 5 0.000000 0.000000 0.000000 0.000000 0.050478 0.000000
# 6 0.000000 0.000000 0.000000 0.000000 0.000000 0.060277
#
#
# Mechanical properties :
#
#
# Convention : Reuss Voigt Hill
#
# Bulk Modulus (GPa) = 29.68778 32.24621 30.96700
# Shear Modulus (GPa) = 16.55502 23.40938 19.98220
#
# Velocity S-wave (km/s) = 2.84578 3.38401 3.12649
# Velocity P-wave (km/s) = 5.03197 5.57162 5.30866
#
# Compressibility (1/GPa) = 0.03368389
#
# Stress axis : x y z
#
# Youngs Moduli (GPa) = 68.15994 67.51171 80.79957
#
# Poissons Ratio (x) = 0.00159 -0.08647
# Poissons Ratio (y) = 0.00161 0.41488
# Poissons Ratio (z) = -0.07294 0.34665
#
# Static dielectric constant tensor:
#      x y z
#    x 1.795010 0.000000 0.000000 
#    y 0.000000 1.710910 0.000000 
#    z 0.000000 0.000000 1.766350 
# 
# From -- ./inp_files/29795.got.cif
#   From: 2010.05.17/outbox.cif.g08.bks.cpg/sg59_15_cif.got.tgz:29795.got - 2010.06.03 14:40:33.
