data_PCOD9449758
_publ_section_title
;
Structure prediction by ZEFSAII (Michael W. Deem and Ramdas Pophale) SiO2 
 PCOD9449758
Probable space group: P M M N
;
_chemical_formula_sum "Si O2"
_cell_formula_units_Z 64
_cell_length_a 20.251795
_cell_length_b 8.777429
_cell_length_c 18.246787
_cell_angle_alpha 90.000000
_cell_angle_beta 90.000000
_cell_angle_gamma 90.000000
_cell_volume 3243.525004
_symmetry_space_group_name_H-M "P M M N"
_symmetry_group_IT_number 59
_space_group.IT_coordinate_system_code '2'
_symmetry_cell_setting 'orthorhombic'
loop_
_space_group_symop_operation_xyz
x,y,z
1/2-x,1/2-y,z
1/2+x,-y,-z
-x,1/2+y,-z
-x,-y,-z
1/2+x,1/2+y,-z
1/2-x,y,z
x,1/2-y,z
loop_
_atom_site_type_symbol
_atom_site_label
_atom_site_fract_x
_atom_site_fract_y
_atom_site_fract_z
Si Si1 0.920821 0.427901 0.622993
Si Si2 0.824749 0.932429 0.505716
Si Si3 0.323645 0.933469 0.657231
Si Si4 0.989276 0.567226 0.122035
Si Si5 0.829283 0.577000 0.736979
Si Si6 0.902661 0.568505 0.991191
Si Si7 0.964954 0.432648 0.281301
Si Si8 0.672971 0.080564 0.882625
O O1 0.932721 0.250000 0.611902
O O2 0.884835 0.499238 0.552384
O O3 0.866215 0.458588 0.685813
O O4 0.987115 0.505705 0.654387
O O5 0.750000 0.975861 0.532889
O O6 0.828306 0.750000 0.508880
O O7 0.829014 0.990343 0.422568
O O8 0.250000 0.972184 0.686805
O O9 0.325669 0.750000 0.648233
O O10 0.388568 0.976391 0.703228
O O11 0.994354 0.750000 0.126212
O O12 0.987328 0.498833 0.202874
O O13 0.045726 0.499950 0.068573
O O14 0.924389 0.530442 0.073326
O O15 0.750000 0.569110 0.729123
O O16 0.849410 0.750000 0.718147
O O17 0.849346 0.536047 0.819762
O O18 0.900846 0.750000 0.983882
O O19 0.837499 0.487964 0.962614
O O20 0.969784 0.250000 0.279366
O O21 0.750000 0.094798 0.869005
O O22 0.643834 0.250000 0.874729
#
# Coordination Sequence:
#
# PCOD9449758 Si02
#       8
#     8   8   8   8   8   8   8   8
#     4  12  24  36  54  81 116 153 188 230 274 323
#     4  10  21  38  61  88 117 150 188 228 272 325
#     4   9  20  41  66  88 110 142 185 230 279 335
#     4  10  21  37  57  81 109 141 180 225 272 328
#     4  10  20  34  52  75 108 150 192 232 277 332
#     4  10  20  35  56  79 106 142 182 225 274 327
#     4  11  23  39  60  85 115 147 182 229 281 333
#     4  10  20  33  50  74 105 141 181 224 270 323
#
# _framework density 19.731618000000001
#
# number of rings (size 3 to 8) (size 9 to 14) (size 15 to 20)
#    0.000    1.750    0.000    4.500    0.000    6.750 
#    0.000    0.625    0.000    2.250    0.000    0.000 
#    0.000    0.000    0.000    0.000    0.000    0.000 
#
# Total GULP energy -357094.289407 kJ/mol
# GULP energy per Si atom -5579.598272 kJ/mol
# Density = 1.968671 g / cm^3
# Si number density = 19.731618 Si / 1000 Ang^3
#
#
#
# Elastic Constant Matrix: (Units=GPa)
#
#
# Indices 1 2 3 4 5 6 
#
# 1 84.7400 18.3641 32.3487 0.0000 0.0000 0.0000
# 2 18.3641 60.0971 13.8436 0.0000 0.0000 0.0000
# 3 32.3487 13.8436 52.3781 0.0000 0.0000 0.0000
# 4 0.0000 0.0000 0.0000 25.1155 0.0000 0.0000
# 5 0.0000 0.0000 0.0000 0.0000 34.3037 0.0000
# 6 0.0000 0.0000 0.0000 0.0000 0.0000 24.3489
#
#
#
# Elastic Compliance Matrix: (Units=1/GPa)
#
#
# Indices 1 2 3 4 5 6 
#
# 1 0.015859 -0.002758 -0.009066 0.000000 0.000000 0.000000
# 2 -0.002758 0.018198 -0.003107 0.000000 0.000000 0.000000
# 3 -0.009066 -0.003107 0.025512 0.000000 0.000000 0.000000
# 4 0.000000 0.000000 0.000000 0.039816 0.000000 0.000000
# 5 0.000000 0.000000 0.000000 0.000000 0.029151 0.000000
# 6 0.000000 0.000000 0.000000 0.000000 0.000000 0.041070
#
#
# Mechanical properties :
#
#
# Convention : Reuss Voigt Hill
#
# Bulk Modulus (GPa) = 33.65977 36.25866 34.95921
# Shear Modulus (GPa) = 23.88119 25.59752 24.73936
#
# Velocity S-wave (km/s) = 3.48271 3.60569 3.54473
# Velocity P-wave (km/s) = 5.76786 5.97917 5.87447
#
# Compressibility (1/GPa) = 0.02970906
#
# Stress axis : x y z
#
# Youngs Moduli (GPa) = 63.05478 54.95085 39.19719
#
# Poissons Ratio (x) = 0.15154 0.35535
# Poissons Ratio (y) = 0.17389 0.12177
# Poissons Ratio (z) = 0.57164 0.17071
#
# Static dielectric constant tensor:
#      x y z
#    x 1.799580 0.000000 0.000000 
#    y 0.000000 2.531540 0.000000 
#    z 0.000000 0.000000 1.685540 
# 
# From -- ./inp_files/28174.got.cif
#   From: 2010.05.17/outbox.cif.g08.bks.cpg/sg59_15_cif.got.tgz:28174.got - 2010.06.03 14:40:33.
