data_PCOD9449663
_publ_section_title
;
Structure prediction by ZEFSAII (Michael W. Deem and Ramdas Pophale) SiO2 
 PCOD9449663
Probable space group: P M M N
;
_chemical_formula_sum "Si O2"
_cell_formula_units_Z 64
_cell_length_a 23.699418
_cell_length_b 9.408586
_cell_length_c 15.754480
_cell_angle_alpha 90.000000
_cell_angle_beta 90.000000
_cell_angle_gamma 90.000000
_cell_volume 3512.902637
_symmetry_space_group_name_H-M "P M M N"
_symmetry_group_IT_number 59
_space_group.IT_coordinate_system_code '2'
_symmetry_cell_setting 'orthorhombic'
loop_
_space_group_symop_operation_xyz
x,y,z
1/2-x,1/2-y,z
1/2+x,-y,-z
-x,1/2+y,-z
-x,-y,-z
1/2+x,1/2+y,-z
1/2-x,y,z
x,1/2-y,z
loop_
_atom_site_type_symbol
_atom_site_label
_atom_site_fract_x
_atom_site_fract_y
_atom_site_fract_z
Si Si1 0.992949 0.579808 0.724759
Si Si2 0.818268 0.089658 0.808091
Si Si3 0.375554 0.414388 0.866873
Si Si4 0.608014 0.581553 0.320476
Si Si5 0.684688 0.923179 0.477763
Si Si6 0.316926 0.094041 0.038329
Si Si7 0.514482 0.081328 0.086659
Si Si8 0.627897 0.579357 0.655299
O O1 0.002697 0.750000 0.720567
O O2 0.048663 0.498787 0.692542
O O3 0.981618 0.546840 0.825010
O O4 0.937956 0.544272 0.669436
O O5 0.750000 0.092087 0.808964
O O6 0.838770 0.250000 0.797575
O O7 0.838777 0.023383 0.897089
O O8 0.838305 0.992412 0.731452
O O9 0.397290 0.250000 0.873292
O O10 0.359090 0.433594 0.769164
O O11 0.423233 0.527679 0.889183
O O12 0.329579 0.430179 0.939903
O O13 0.596614 0.750000 0.332560
O O14 0.646457 0.530869 0.398203
O O15 0.750000 0.970587 0.474182
O O16 0.685799 0.750000 0.475866
O O17 0.654378 0.965067 0.565489
O O18 0.250000 0.099546 0.049391
O O19 0.340815 0.250000 0.061223
O O20 0.510802 0.250000 0.072792
O O21 0.500000 0.000000 0.000000
O O22 0.633039 0.750000 0.661725
#
# Coordination Sequence:
#
# PCOD9449663 Si02
#       8
#     8   8   8   8   8   8   8   8
#     4   9  20  36  52  75 107 142 180 221 267 317
#     4  10  21  35  50  73 106 139 173 220 273 320
#     4   9  18  32  50  73 102 134 170 213 258 309
#     4   9  18  34  55  79 108 139 174 219 267 317
#     4   9  18  33  56  85 110 135 174 222 270 319
#     4   9  18  32  50  72  99 135 176 213 256 315
#     4  10  20  33  49  71 101 137 176 220 264 310
#     4  10  20  35  56  79 105 141 182 221 263 320
#
# _framework density 18.218553
#
# number of rings (size 3 to 8) (size 9 to 14) (size 15 to 20)
#    0.000    2.625    0.000    1.125    1.750    3.750 
#    0.000    3.125    0.000    1.125    0.000    3.500 
#    0.000    0.000    0.000    0.000    0.000    0.000 
#
# Total GULP energy -356588.985914 kJ/mol
# GULP energy per Si atom -5571.702905 kJ/mol
# Density = 1.817709 g / cm^3
# Si number density = 18.218553 Si / 1000 Ang^3
#
#
#
# Elastic Constant Matrix: (Units=GPa)
#
#
# Indices 1 2 3 4 5 6 
#
# 1 63.7320 32.3104 64.1982 0.0000 0.0000 0.0000
# 2 32.3104 35.7606 51.6642 0.0000 0.0000 0.0000
# 3 64.1982 51.6642 149.4417 0.0000 0.0000 0.0000
# 4 0.0000 0.0000 0.0000 13.6672 0.0000 0.0000
# 5 0.0000 0.0000 0.0000 0.0000 32.8307 0.0000
# 6 0.0000 0.0000 0.0000 0.0000 0.0000 20.8559
#
#
#
# Elastic Compliance Matrix: (Units=1/GPa)
#
#
# Indices 1 2 3 4 5 6 
#
# 1 0.032856 -0.018569 -0.007695 0.000000 0.000000 0.000000
# 2 -0.018569 0.066362 -0.014965 0.000000 0.000000 0.000000
# 3 -0.007695 -0.014965 0.015171 0.000000 0.000000 0.000000
# 4 0.000000 0.000000 0.000000 0.073168 0.000000 0.000000
# 5 0.000000 0.000000 0.000000 0.000000 0.030459 0.000000
# 6 0.000000 0.000000 0.000000 0.000000 0.000000 0.047948
#
#
# Mechanical properties :
#
#
# Convention : Reuss Voigt Hill
#
# Bulk Modulus (GPa) = 31.31809 60.58665 45.95237
# Shear Modulus (GPa) = 13.92502 20.18819 17.05661
#
# Velocity S-wave (km/s) = 2.76765 3.33244 3.06309
# Velocity P-wave (km/s) = 5.23839 6.93791 6.14717
#
# Compressibility (1/GPa) = 0.03193043
#
# Stress axis : x y z
#
# Youngs Moduli (GPa) = 30.43600 15.06887 65.91552
#
# Poissons Ratio (x) = 0.27981 0.50721
# Poissons Ratio (y) = 0.56516 0.98645
# Poissons Ratio (z) = 0.23420 0.22551
#
# Static dielectric constant tensor:
#      x y z
#    x 1.626360 0.000000 0.000000 
#    y 0.000000 1.628420 0.000000 
#    z 0.000000 0.000000 1.637900 
# 
# From -- ./inp_files/21458.got.cif
#   From: 2010.05.17/outbox.cif.g08.bks.cpg/sg59_11_cif.got.tgz:21458.got - 2010.06.03 14:40:33.
