data_PCOD9449712
_publ_section_title
;
Structure prediction by ZEFSAII (Michael W. Deem and Ramdas Pophale) SiO2 
 PCOD9449712
Probable space group: P M M N
;
_chemical_formula_sum "Si O2"
_cell_formula_units_Z 40
_cell_length_a 7.787364
_cell_length_b 9.488476
_cell_length_c 26.562301
_cell_angle_alpha 90.000000
_cell_angle_beta 90.000000
_cell_angle_gamma 90.000000
_cell_volume 1962.694169
_symmetry_space_group_name_H-M "P M M N"
_symmetry_group_IT_number 59
_space_group.IT_coordinate_system_code '2'
_symmetry_cell_setting 'orthorhombic'
loop_
_space_group_symop_operation_xyz
x,y,z
1/2-x,1/2-y,z
1/2+x,-y,-z
-x,1/2+y,-z
-x,-y,-z
1/2+x,1/2+y,-z
1/2-x,y,z
x,1/2-y,z
loop_
_atom_site_type_symbol
_atom_site_label
_atom_site_fract_x
_atom_site_fract_y
_atom_site_fract_z
Si Si1 0.956463 0.090150 0.355480
Si Si2 0.546598 0.092614 0.548279
Si Si3 0.960392 0.912167 0.146341
Si Si4 0.959460 0.412895 0.242651
Si Si5 0.456771 0.910993 0.950535
O O1 0.750000 0.096492 0.353197
O O2 0.018165 0.250000 0.365980
O O3 0.016020 0.048893 0.299302
O O4 0.000783 0.985813 0.400158
O O5 0.750000 0.105289 0.547402
O O6 0.470599 0.250000 0.545674
O O7 0.500000 0.000000 0.500000
O O8 0.750000 0.912454 0.146221
O O9 0.015060 0.750000 0.142034
O O10 0.017042 0.984529 0.198364
O O11 0.017586 0.005773 0.098978
O O12 0.750000 0.415794 0.242355
O O13 0.008720 0.250000 0.233076
O O14 0.250000 0.904025 0.947081
O O15 0.521285 0.750000 0.953130
O O16 0.500000 0.000000 0.000000
#
# Coordination Sequence:
#
# PCOD9449712 Si02
#       5
#     8   8   8   8   8
#     4   9  18  33  54  80 107 134 166 204 247 297
#     4  11  24  39  55  77 104 134 170 210 251 297
#     4   9  16  26  43  69  99 130 166 207 249 295
#     4   8  14  26  45  70 100 130 160 199 246 294
#     4  10  20  33  50  72  99 132 169 210 257 306
#
# _framework density 20.38015
#
# number of rings (size 3 to 8) (size 9 to 14) (size 15 to 20)
#    0.000    2.600    0.000    3.600    0.000    8.800 
#    0.000    2.000    0.000    1.200    0.000    5.600 
#    0.000    0.000    0.000    0.000    0.000    0.000 
#
# Total GULP energy -223293.265554 kJ/mol
# GULP energy per Si atom -5582.331639 kJ/mol
# Density = 2.033376 g / cm^3
# Si number density = 20.380150 Si / 1000 Ang^3
#
#
#
# Elastic Constant Matrix: (Units=GPa)
#
#
# Indices 1 2 3 4 5 6 
#
# 1 27.2922 10.2846 9.3549 0.0000 0.0000 0.0000
# 2 10.2846 209.0949 155.2854 0.0000 0.0000 0.0000
# 3 9.3549 155.2854 210.0495 0.0000 0.0000 0.0000
# 4 0.0000 0.0000 0.0000 42.7954 0.0000 0.0000
# 5 0.0000 0.0000 0.0000 0.0000 20.4330 0.0000
# 6 0.0000 0.0000 0.0000 0.0000 0.0000 14.4208
#
#
#
# Elastic Compliance Matrix: (Units=1/GPa)
#
#
# Indices 1 2 3 4 5 6 
#
# 1 0.037376 -0.001335 -0.000677 0.000000 0.000000 0.000000
# 2 -0.001335 0.010653 -0.007816 0.000000 0.000000 0.000000
# 3 -0.000677 -0.007816 0.010569 0.000000 0.000000 0.000000
# 4 0.000000 0.000000 0.000000 0.023367 0.000000 0.000000
# 5 0.000000 0.000000 0.000000 0.000000 0.048941 0.000000
# 6 0.000000 0.000000 0.000000 0.000000 0.000000 0.069344
#
#
# Mechanical properties :
#
#
# Convention : Reuss Voigt Hill
#
# Bulk Modulus (GPa) = 25.68024 88.47628 57.07826
# Shear Modulus (GPa) = 21.46969 33.63062 27.55016
#
# Velocity S-wave (km/s) = 3.24923 4.06663 3.68069
# Velocity P-wave (km/s) = 5.16765 8.09674 6.79197
#
# Compressibility (1/GPa) = 0.03894044
#
# Stress axis : x y z
#
# Youngs Moduli (GPa) = 26.75525 93.87324 94.61594
#
# Poissons Ratio (x) = 0.12534 0.06410
# Poissons Ratio (y) = 0.03573 0.73950
# Poissons Ratio (z) = 0.01813 0.73370
#
# Static dielectric constant tensor:
#      x y z
#    x 1.770740 0.000000 0.000000 
#    y 0.000000 1.721610 0.000000 
#    z 0.000000 0.000000 1.752410 
# 
# From -- ./inp_files/31126.got.cif
#   From: 2010.05.17/outbox.cif.g08.bks.cpg/sg59_16_cif.got.tgz:31126.got - 2010.06.03 14:40:33.
