data_PCOD9449178
_publ_section_title
;
Structure prediction by ZEFSAII (Michael W. Deem and Ramdas Pophale) SiO2 
 PCOD9449178
Probable space group: P M M N
;
_chemical_formula_sum "Si O2"
_cell_formula_units_Z 32
_cell_length_a 8.669886
_cell_length_b 10.507054
_cell_length_c 19.681438
_cell_angle_alpha 90.000000
_cell_angle_beta 90.000000
_cell_angle_gamma 90.000000
_cell_volume 1792.879815
_symmetry_space_group_name_H-M "P M M N"
_symmetry_group_IT_number 59
_space_group.IT_coordinate_system_code '2'
_symmetry_cell_setting 'orthorhombic'
loop_
_space_group_symop_operation_xyz
x,y,z
1/2-x,1/2-y,z
1/2+x,-y,-z
-x,1/2+y,-z
-x,-y,-z
1/2+x,1/2+y,-z
1/2-x,y,z
x,1/2-y,z
loop_
_atom_site_type_symbol
_atom_site_label
_atom_site_fract_x
_atom_site_fract_y
_atom_site_fract_z
Si Si1 0.065986 0.103507 0.448281
Si Si2 0.562290 0.750000 0.082188
Si Si3 0.937033 0.491669 0.155685
Si Si4 0.933511 0.099977 0.300966
Si Si5 0.564630 0.750000 0.924987
O O1 0.250000 0.103511 0.453360
O O2 0.011625 0.250000 0.461171
O O3 0.016815 0.070281 0.371366
O O4 0.000000 0.000000 0.500000
O O5 0.750000 0.750000 0.082264
O O6 0.512944 0.623125 0.121354
O O7 0.513312 0.750000 0.003697
O O8 0.750000 0.484621 0.154145
O O9 0.983518 0.477241 0.234492
O O10 0.002200 0.374034 0.113176
O O11 0.750000 0.081808 0.310744
O O12 0.958615 0.250000 0.286003
O O13 0.750000 0.750000 0.923274
#
# Coordination Sequence:
#
# PCOD9449178 Si02
#       5
#     8   4   8   8   4
#     4  10  21  37  58  84 113 145 179 219 267 318
#     4   9  20  35  53  79 110 141 180 229 277 324
#     4  10  19  36  57  78 106 144 185 224 271 327
#     4   9  17  32  55  80 104 139 185 225 263 316
#     4  11  21  33  53  81 108 141 184 229 273 322
#
# _framework density 17.848379000000001
#
# number of rings (size 3 to 8) (size 9 to 14) (size 15 to 20)
#    0.000    2.250    1.250    1.875    0.000    2.500 
#    2.250    1.875    0.000    0.000    0.000    0.000 
#    0.000    0.000    0.000    0.000    0.000    0.000 
#
# Total GULP energy -178577.439426 kJ/mol
# GULP energy per Si atom -5580.544982 kJ/mol
# Density = 1.780776 g / cm^3
# Si number density = 17.848379 Si / 1000 Ang^3
#
#
#
# Elastic Constant Matrix: (Units=GPa)
#
#
# Indices 1 2 3 4 5 6 
#
# 1 22.8862 33.6524 42.6899 0.0000 0.0000 0.0000
# 2 33.6524 149.9749 108.4296 0.0000 0.0000 0.0000
# 3 42.6899 108.4296 178.0675 0.0000 0.0000 0.0000
# 4 0.0000 0.0000 0.0000 33.7690 0.0000 0.0000
# 5 0.0000 0.0000 0.0000 0.0000 29.4662 0.0000
# 6 0.0000 0.0000 0.0000 0.0000 0.0000 9.0885
#
#
#
# Elastic Compliance Matrix: (Units=1/GPa)
#
#
# Indices 1 2 3 4 5 6 
#
# 1 0.083659 -0.007631 -0.015410 0.000000 0.000000 0.000000
# 2 -0.007631 0.012608 -0.005848 0.000000 0.000000 0.000000
# 3 -0.015410 -0.005848 0.012871 0.000000 0.000000 0.000000
# 4 0.000000 0.000000 0.000000 0.029613 0.000000 0.000000
# 5 0.000000 0.000000 0.000000 0.000000 0.033937 0.000000
# 6 0.000000 0.000000 0.000000 0.000000 0.000000 0.110029
#
#
# Mechanical properties :
#
#
# Convention : Reuss Voigt Hill
#
# Bulk Modulus (GPa) = 19.47006 80.05248 49.76127
# Shear Modulus (GPa) = 13.98152 25.54185 19.76169
#
# Velocity S-wave (km/s) = 2.80187 3.78702 3.33107
# Velocity P-wave (km/s) = 4.62597 8.00442 6.53722
#
# Compressibility (1/GPa) = 0.05136090
#
# Stress axis : x y z
#
# Youngs Moduli (GPa) = 11.95330 79.31473 77.69362
#
# Poissons Ratio (x) = 0.60525 1.19723
# Poissons Ratio (y) = 0.09122 0.45434
# Poissons Ratio (z) = 0.18420 0.46382
#
# Static dielectric constant tensor:
#      x y z
#    x 1.610890 0.000000 0.000000 
#    y 0.000000 1.593170 0.000000 
#    z 0.000000 0.000000 1.594400 
# 
# From -- ./inp_files/19662.got.cif
#   From: 2010.05.17/outbox.cif.g08.bks.cpg/sg59_10_cif.got.tgz:19662.got - 2010.06.03 14:40:33.
