data_PCOD9449151
_publ_section_title
;
Structure prediction by ZEFSAII (Michael W. Deem and Ramdas Pophale) SiO2 
 PCOD9449151
Probable space group: P M M N
;
_chemical_formula_sum "Si O2"
_cell_formula_units_Z 40
_cell_length_a 8.944932
_cell_length_b 15.546585
_cell_length_c 15.502561
_cell_angle_alpha 90.000000
_cell_angle_beta 90.000000
_cell_angle_gamma 90.000000
_cell_volume 2155.834898
_symmetry_space_group_name_H-M "P M M N"
_symmetry_group_IT_number 59
_space_group.IT_coordinate_system_code '2'
_symmetry_cell_setting 'orthorhombic'
loop_
_space_group_symop_operation_xyz
x,y,z
1/2-x,1/2-y,z
1/2+x,-y,-z
-x,1/2+y,-z
-x,-y,-z
1/2+x,1/2+y,-z
1/2-x,y,z
x,1/2-y,z
loop_
_atom_site_type_symbol
_atom_site_label
_atom_site_fract_x
_atom_site_fract_y
_atom_site_fract_z
Si Si1 0.924517 0.250000 0.457566
Si Si2 0.913784 0.651563 0.837978
Si Si3 0.930759 0.928399 0.275234
Si Si4 0.077728 0.094759 0.357628
Si Si5 0.574187 0.250000 0.664151
Si Si6 0.078201 0.997146 0.908027
O O1 0.750000 0.250000 0.432109
O O2 0.935740 0.250000 0.560545
O O3 0.000173 0.162818 0.421111
O O4 0.750000 0.615283 0.864757
O O5 0.918548 0.750000 0.863132
O O6 0.919911 0.642132 0.735138
O O7 0.049929 0.599691 0.876564
O O8 0.750000 0.930117 0.279010
O O9 0.977954 0.949347 0.175741
O O10 0.995016 0.836279 0.301747
O O11 0.995123 0.004445 0.336964
O O12 0.250000 0.078521 0.383704
O O13 0.750000 0.250000 0.687848
O O14 0.250000 0.019354 0.919146
O O15 0.000000 0.000000 0.000000
#
# Coordination Sequence:
#
# PCOD9449151 Si02
#       6
#     4   8   8   8   4   8
#     4  11  23  37  57  88 123 154 197 247 292 347
#     4   9  17  32  54  82 114 146 180 225 281 337
#     4  10  22  41  63  87 117 155 196 244 297 347
#     4  10  19  35  60  89 118 153 193 237 292 347
#     4  11  25  43  61  84 115 160 205 243 290 349
#     4  10  21  37  58  85 113 146 187 232 284 341
#
# _framework density 18.554296000000001
#
# number of rings (size 3 to 8) (size 9 to 14) (size 15 to 20)
#    0.000    2.000    1.000    2.400    0.000    6.000 
#    1.800    0.000    0.000    0.000    0.000    0.000 
#    0.000    0.000    0.000    0.000    0.000    0.000 
#
# Total GULP energy -222979.095540 kJ/mol
# GULP energy per Si atom -5574.477389 kJ/mol
# Density = 1.851207 g / cm^3
# Si number density = 18.554296 Si / 1000 Ang^3
#
#
#
# Elastic Constant Matrix: (Units=GPa)
#
#
# Indices 1 2 3 4 5 6 
#
# 1 97.8592 60.1437 47.8769 0.0000 0.0000 0.0000
# 2 60.1437 139.3286 52.3158 0.0000 0.0000 0.0000
# 3 47.8769 52.3158 69.4624 0.0000 0.0000 0.0000
# 4 0.0000 0.0000 0.0000 4.0724 0.0000 0.0000
# 5 0.0000 0.0000 0.0000 0.0000 28.6574 0.0000
# 6 0.0000 0.0000 0.0000 0.0000 0.0000 33.5665
#
#
#
# Elastic Compliance Matrix: (Units=1/GPa)
#
#
# Indices 1 2 3 4 5 6 
#
# 1 0.016933 -0.004081 -0.008597 0.000000 0.000000 0.000000
# 2 -0.004081 0.010991 -0.005465 0.000000 0.000000 0.000000
# 3 -0.008597 -0.005465 0.024438 0.000000 0.000000 0.000000
# 4 0.000000 0.000000 0.000000 0.245557 0.000000 0.000000
# 5 0.000000 0.000000 0.000000 0.000000 0.034895 0.000000
# 6 0.000000 0.000000 0.000000 0.000000 0.000000 0.029792
#
#
# Mechanical properties :
#
#
# Convention : Reuss Voigt Hill
#
# Bulk Modulus (GPa) = 62.20826 69.70256 65.95541
# Shear Modulus (GPa) = 12.36853 23.01351 17.69102
#
# Velocity S-wave (km/s) = 2.58469 3.52566 3.09119
# Velocity P-wave (km/s) = 6.51981 7.36356 6.95449
#
# Compressibility (1/GPa) = 0.01607504
#
# Stress axis : x y z
#
# Youngs Moduli (GPa) = 59.05491 90.98300 40.92008
#
# Poissons Ratio (x) = 0.37134 0.35181
# Poissons Ratio (y) = 0.24103 0.22362
# Poissons Ratio (z) = 0.50772 0.49721
#
# Static dielectric constant tensor:
#      x y z
#    x 1.676100 0.000000 0.000000 
#    y 0.000000 1.629270 0.000000 
#    z 0.000000 0.000000 1.647280 
# 
# From -- ./inp_files/19981.got.cif
#   From: 2010.05.17/outbox.cif.g08.bks.cpg/sg59_10_cif.got.tgz:19981.got - 2010.06.03 14:40:33.
