data_PCOD9449874
_publ_section_title
;
Structure prediction by ZEFSAII (Michael W. Deem and Ramdas Pophale) SiO2 
 PCOD9449874
Probable space group: P M M N
;
_chemical_formula_sum "Si O2"
_cell_formula_units_Z 64
_cell_length_a 14.118483
_cell_length_b 9.304528
_cell_length_c 26.797887
_cell_angle_alpha 90.000000
_cell_angle_beta 90.000000
_cell_angle_gamma 90.000000
_cell_volume 3520.326411
_symmetry_space_group_name_H-M "P M M N"
_symmetry_group_IT_number 59
_space_group.IT_coordinate_system_code '2'
_symmetry_cell_setting 'orthorhombic'
loop_
_space_group_symop_operation_xyz
x,y,z
1/2-x,1/2-y,z
1/2+x,-y,-z
-x,1/2+y,-z
-x,-y,-z
1/2+x,1/2+y,-z
1/2-x,y,z
x,1/2-y,z
loop_
_atom_site_type_symbol
_atom_site_label
_atom_site_fract_x
_atom_site_fract_y
_atom_site_fract_z
Si Si1 0.547307 0.921290 0.172389
Si Si2 0.635466 0.415883 0.078823
Si Si3 0.957174 0.077232 0.370741
Si Si4 0.865488 0.585326 0.980179
Si Si5 0.641688 0.922313 0.576469
Si Si6 0.138525 0.422819 0.722329
Si Si7 0.640850 0.420259 0.879084
Si Si8 0.363872 0.915957 0.524293
O O1 0.564335 0.750000 0.166924
O O2 0.587701 0.965009 0.225957
O O3 0.435292 0.946504 0.164233
O O4 0.598928 0.002804 0.127548
O O5 0.750000 0.419067 0.079149
O O6 0.605490 0.250000 0.078856
O O7 0.603233 0.495484 0.028346
O O8 0.948034 0.250000 0.364790
O O9 0.905968 0.037446 0.422814
O O10 0.067151 0.040429 0.380536
O O11 0.910563 0.998454 0.324400
O O12 0.750000 0.586752 0.981713
O O13 0.897864 0.750000 0.982531
O O14 0.888695 0.509292 0.927973
O O15 0.750000 0.967280 0.586541
O O16 0.639971 0.750000 0.571022
O O17 0.610479 0.990755 0.523887
O O18 0.250000 0.458970 0.724475
O O19 0.130747 0.250000 0.717341
O O20 0.750000 0.455303 0.866450
O O21 0.637471 0.250000 0.891369
O O22 0.250000 0.920759 0.528293
O O23 0.392671 0.750000 0.516024
#
# Coordination Sequence:
#
# PCOD9449874 Si02
#       8
#     8   8   8   8   8   8   8   8
#     4  10  21  37  56  76 100 133 170 210 259 308
#     4  10  20  33  51  77 107 137 171 211 254 304
#     4  10  20  34  53  76 104 140 178 215 257 305
#     4   9  17  30  50  76 106 139 171 205 249 301
#     4   9  18  32  50  75 108 143 177 213 254 301
#     4  10  22  39  57  78 104 132 166 212 261 308
#     4   9  18  34  55  77 102 132 167 208 252 300
#     4   9  17  29  47  74 106 138 174 216 260 305
#
# _framework density 18.180132
#
# number of rings (size 3 to 8) (size 9 to 14) (size 15 to 20)
#    0.000    2.500    0.000    1.875    0.000    6.000 
#    0.000    1.875    0.000    0.750    0.000    0.000 
#    0.000    0.000    0.000    0.000    0.000    0.000 
#
# Total GULP energy -357237.639712 kJ/mol
# GULP energy per Si atom -5581.838120 kJ/mol
# Density = 1.813875 g / cm^3
# Si number density = 18.180132 Si / 1000 Ang^3
#
#
#
# Elastic Constant Matrix: (Units=GPa)
#
#
# Indices 1 2 3 4 5 6 
#
# 1 103.8122 47.5465 88.1766 0.0000 0.0000 0.0000
# 2 47.5465 44.9724 58.0819 0.0000 0.0000 0.0000
# 3 88.1766 58.0819 149.6500 0.0000 0.0000 0.0000
# 4 0.0000 0.0000 0.0000 32.5419 0.0000 0.0000
# 5 0.0000 0.0000 0.0000 0.0000 34.8481 0.0000
# 6 0.0000 0.0000 0.0000 0.0000 0.0000 19.8219
#
#
#
# Elastic Compliance Matrix: (Units=1/GPa)
#
#
# Indices 1 2 3 4 5 6 
#
# 1 0.022757 -0.013518 -0.008162 0.000000 0.000000 0.000000
# 2 -0.013518 0.052613 -0.012455 0.000000 0.000000 0.000000
# 3 -0.008162 -0.012455 0.016326 0.000000 0.000000 0.000000
# 4 0.000000 0.000000 0.000000 0.030730 0.000000 0.000000
# 5 0.000000 0.000000 0.000000 0.000000 0.028696 0.000000
# 6 0.000000 0.000000 0.000000 0.000000 0.000000 0.050449
#
#
# Mechanical properties :
#
#
# Convention : Reuss Voigt Hill
#
# Bulk Modulus (GPa) = 42.68898 76.22719 59.45809
# Shear Modulus (GPa) = 18.00828 24.41768 21.21298
#
# Velocity S-wave (km/s) = 3.15071 3.66880 3.41958
# Velocity P-wave (km/s) = 6.06367 7.74382 6.95467
#
# Compressibility (1/GPa) = 0.02342525
#
# Stress axis : x y z
#
# Youngs Moduli (GPa) = 43.94248 19.00659 61.25308
#
# Poissons Ratio (x) = 0.25693 0.49997
# Poissons Ratio (y) = 0.59401 0.76292
# Poissons Ratio (z) = 0.35867 0.23673
#
# Static dielectric constant tensor:
#      x y z
#    x 1.675640 0.000000 0.000000 
#    y 0.000000 1.613250 0.000000 
#    z 0.000000 0.000000 1.569950 
# 
# From -- ./inp_files/31573.got.cif
#   From: 2010.05.17/outbox.cif.g08.bks.cpg/sg59_16_cif.got.tgz:31573.got - 2010.06.03 14:40:33.
