data_PCOD9449127
_publ_section_title
;
Structure prediction by ZEFSAII (Michael W. Deem and Ramdas Pophale) SiO2 
 PCOD9449127
Probable space group: P M M N
;
_chemical_formula_sum "Si O2"
_cell_formula_units_Z 64
_cell_length_a 8.979017
_cell_length_b 20.299861
_cell_length_c 18.926057
_cell_angle_alpha 90.000000
_cell_angle_beta 90.000000
_cell_angle_gamma 90.000000
_cell_volume 3449.705346
_symmetry_space_group_name_H-M "P M M N"
_symmetry_group_IT_number 59
_space_group.IT_coordinate_system_code '2'
_symmetry_cell_setting 'orthorhombic'
loop_
_space_group_symop_operation_xyz
x,y,z
1/2-x,1/2-y,z
1/2+x,-y,-z
-x,1/2+y,-z
-x,-y,-z
1/2+x,1/2+y,-z
1/2-x,y,z
x,1/2-y,z
loop_
_atom_site_type_symbol
_atom_site_label
_atom_site_fract_x
_atom_site_fract_y
_atom_site_fract_z
Si Si1 0.072332 0.539129 0.435694
Si Si2 0.425923 0.176355 0.579007
Si Si3 0.578372 0.570196 0.187647
Si Si4 0.568601 0.174904 0.245999
Si Si5 0.924030 0.567991 0.019667
Si Si6 0.927942 0.173287 0.082205
Si Si7 0.581000 0.322457 0.726489
Si Si8 0.572889 0.463660 0.303253
O O1 0.250000 0.534964 0.435625
O O2 0.000000 0.500000 0.500000
O O3 0.019583 0.614406 0.446941
O O4 0.009575 0.506885 0.362905
O O5 0.250000 0.165817 0.568508
O O6 0.464648 0.250000 0.551995
O O7 0.466194 0.176747 0.661999
O O8 0.750000 0.589707 0.204027
O O9 0.560820 0.572399 0.104093
O O10 0.463833 0.620925 0.221005
O O11 0.556263 0.500682 0.227673
O O12 0.750000 0.174943 0.247028
O O13 0.521753 0.250000 0.265492
O O14 0.524874 0.162552 0.164038
O O15 0.521934 0.112305 0.293481
O O16 0.750000 0.565871 0.002844
O O17 0.000000 0.500000 0.000000
O O18 0.996375 0.626176 0.974287
O O19 0.750000 0.162525 0.080031
O O20 0.956699 0.250000 0.066146
O O21 0.750000 0.331591 0.699071
O O22 0.574236 0.250000 0.759996
O O23 0.750000 0.463742 0.320218
#
# Coordination Sequence:
#
# PCOD9449127 Si02
#       8
#     8   8   8   8   8   8   8   8
#     4  12  25  41  62  89 121 157 197 239 289 346
#     4  10  20  37  62  89 119 154 190 230 279 335
#     4  10  21  35  53  76 107 148 192 236 287 346
#     4   8  15  31  58  87 112 145 190 235 283 343
#     4  11  23  37  53  77 109 149 194 241 292 349
#     4   9  18  35  58  82 111 150 194 239 289 345
#     4  10  20  33  52  81 113 144 183 230 276 328
#     4  10  19  35  59  84 111 144 187 239 292 346
#
# _framework density 18.552309999999999
#
# number of rings (size 3 to 8) (size 9 to 14) (size 15 to 20)
#    0.000    2.000    1.250    3.750    0.000    5.250 
#    0.000    5.000    0.000    3.375    0.000    0.000 
#    0.000    0.000    0.000    0.000    0.000    0.000 
#
# Total GULP energy -356901.272923 kJ/mol
# GULP energy per Si atom -5576.582389 kJ/mol
# Density = 1.851008 g / cm^3
# Si number density = 18.552310 Si / 1000 Ang^3
#
#
#
# Elastic Constant Matrix: (Units=GPa)
#
#
# Indices 1 2 3 4 5 6 
#
# 1 56.9010 62.0116 28.4034 0.0000 0.0000 0.0000
# 2 62.0116 132.3648 41.1400 0.0000 0.0000 0.0000
# 3 28.4034 41.1400 37.2219 0.0000 0.0000 0.0000
# 4 0.0000 0.0000 0.0000 28.6839 0.0000 0.0000
# 5 0.0000 0.0000 0.0000 0.0000 23.6948 0.0000
# 6 0.0000 0.0000 0.0000 0.0000 0.0000 28.4018
#
#
#
# Elastic Compliance Matrix: (Units=1/GPa)
#
#
# Indices 1 2 3 4 5 6 
#
# 1 0.040920 -0.014419 -0.015289 0.000000 0.000000 0.000000
# 2 -0.014419 0.016589 -0.007332 0.000000 0.000000 0.000000
# 3 -0.015289 -0.007332 0.046637 0.000000 0.000000 0.000000
# 4 0.000000 0.000000 0.000000 0.034863 0.000000 0.000000
# 5 0.000000 0.000000 0.000000 0.000000 0.042203 0.000000
# 6 0.000000 0.000000 0.000000 0.000000 0.000000 0.035209
#
#
# Mechanical properties :
#
#
# Convention : Reuss Voigt Hill
#
# Bulk Modulus (GPa) = 33.26050 54.39974 43.83012
# Shear Modulus (GPa) = 16.63772 22.48495 19.56133
#
# Velocity S-wave (km/s) = 2.99791 3.48512 3.25066
# Velocity P-wave (km/s) = 5.47268 6.75135 6.14536
#
# Compressibility (1/GPa) = 0.03006569
#
# Stress axis : x y z
#
# Youngs Moduli (GPa) = 24.43807 60.28143 21.44234
#
# Poissons Ratio (x) = 0.86918 0.32783
# Poissons Ratio (y) = 0.35236 0.15722
# Poissons Ratio (z) = 0.37363 0.44201
#
# Static dielectric constant tensor:
#      x y z
#    x 1.636340 0.000000 0.000000 
#    y 0.000000 1.676750 0.000000 
#    z 0.000000 0.000000 1.447820 
# 
# From -- ./inp_files/26299.got.cif
#   From: 2010.05.17/outbox.cif.g08.bks.cpg/sg59_14_cif.got.tgz:26299.got - 2010.06.03 14:40:33.
