data_PCOD9449826
_publ_section_title
;
Structure prediction by ZEFSAII (Michael W. Deem and Ramdas Pophale) SiO2 
 PCOD9449826
Probable space group: P M M N
;
_chemical_formula_sum "Si O2"
_cell_formula_units_Z 48
_cell_length_a 8.837811
_cell_length_b 9.424595
_cell_length_c 31.726612
_cell_angle_alpha 90.000000
_cell_angle_beta 90.000000
_cell_angle_gamma 90.000000
_cell_volume 2642.598010
_symmetry_space_group_name_H-M "P M M N"
_symmetry_group_IT_number 59
_space_group.IT_coordinate_system_code '2'
_symmetry_cell_setting 'orthorhombic'
loop_
_space_group_symop_operation_xyz
x,y,z
1/2-x,1/2-y,z
1/2+x,-y,-z
-x,1/2+y,-z
-x,-y,-z
1/2+x,1/2+y,-z
1/2-x,y,z
x,1/2-y,z
loop_
_atom_site_type_symbol
_atom_site_label
_atom_site_fract_x
_atom_site_fract_y
_atom_site_fract_z
Si Si1 0.065698 0.413482 0.621354
Si Si2 0.928425 0.920416 0.284389
Si Si3 0.930600 0.082991 0.117406
Si Si4 0.931423 0.084070 0.960548
Si Si5 0.066919 0.585368 0.539179
Si Si6 0.928644 0.582794 0.793112
O O1 0.250000 0.412810 0.622128
O O2 0.018192 0.250000 0.614319
O O3 0.018667 0.459822 0.668307
O O4 0.017691 0.512635 0.583026
O O5 0.750000 0.955464 0.280706
O O6 0.941987 0.750000 0.281376
O O7 0.016696 0.995799 0.247132
O O8 0.750000 0.070245 0.114132
O O9 0.970328 0.250000 0.111379
O O10 0.984755 0.041448 0.164144
O O11 0.008791 0.988706 0.081949
O O12 0.750000 0.075301 0.962108
O O13 0.974528 0.250000 0.962231
O O14 0.000000 0.000000 0.000000
O O15 0.250000 0.578189 0.537497
O O16 0.022360 0.750000 0.537526
O O17 0.000000 0.500000 0.500000
O O18 0.750000 0.564099 0.799794
O O19 0.958425 0.750000 0.785909
#
# Coordination Sequence:
#
# PCOD9449826 Si02
#       6
#     8   8   8   8   8   8
#     4   8  15  30  51  73  99 132 170 213 260 309
#     4   9  18  33  54  79 104 133 172 216 262 313
#     4  10  21  38  60  84 109 141 183 227 270 316
#     4  11  24  40  59  85 115 147 183 222 267 319
#     4  10  20  33  51  76 103 133 171 213 259 312
#     4  10  21  36  54  78 109 144 179 216 262 314
#
# _framework density 18.163943
#
# number of rings (size 3 to 8) (size 9 to 14) (size 15 to 20)
#    0.000    2.333    0.000    3.500    0.000    8.000 
#    0.000    2.500    0.000    1.000    0.000    0.000 
#    0.000    0.000    0.000    0.000    0.000    0.000 
#
# Total GULP energy -267957.328531 kJ/mol
# GULP energy per Si atom -5582.444344 kJ/mol
# Density = 1.812260 g / cm^3
# Si number density = 18.163943 Si / 1000 Ang^3
#
#
#
# Elastic Constant Matrix: (Units=GPa)
#
#
# Indices 1 2 3 4 5 6 
#
# 1 30.2101 39.8947 42.1036 0.0000 0.0000 0.0000
# 2 39.8947 104.0190 96.7923 0.0000 0.0000 0.0000
# 3 42.1036 96.7923 170.2587 0.0000 0.0000 0.0000
# 4 0.0000 0.0000 0.0000 40.9362 0.0000 0.0000
# 5 0.0000 0.0000 0.0000 0.0000 33.1353 0.0000
# 6 0.0000 0.0000 0.0000 0.0000 0.0000 26.8799
#
#
#
# Elastic Compliance Matrix: (Units=1/GPa)
#
#
# Indices 1 2 3 4 5 6 
#
# 1 0.068494 -0.022311 -0.004254 0.000000 0.000000 0.000000
# 2 -0.022311 0.027679 -0.010218 0.000000 0.000000 0.000000
# 3 -0.004254 -0.010218 0.012734 0.000000 0.000000 0.000000
# 4 0.000000 0.000000 0.000000 0.024428 0.000000 0.000000
# 5 0.000000 0.000000 0.000000 0.000000 0.030179 0.000000
# 6 0.000000 0.000000 0.000000 0.000000 0.000000 0.037203
#
#
# Mechanical properties :
#
#
# Convention : Reuss Voigt Hill
#
# Bulk Modulus (GPa) = 28.29606 73.56321 50.92963
# Shear Modulus (GPa) = 17.47858 28.57009 23.02433
#
# Velocity S-wave (km/s) = 3.10541 3.97028 3.56418
# Velocity P-wave (km/s) = 5.33573 7.84889 6.71100
#
# Compressibility (1/GPa) = 0.03534061
#
# Stress axis : x y z
#
# Youngs Moduli (GPa) = 14.59982 36.12861 78.52720
#
# Poissons Ratio (x) = 0.80607 0.33406
# Poissons Ratio (y) = 0.32574 0.80240
# Poissons Ratio (z) = 0.06211 0.36917
#
# Static dielectric constant tensor:
#      x y z
#    x 1.615350 0.000000 0.000000 
#    y 0.000000 1.606950 0.000000 
#    z 0.000000 0.000000 1.601120 
# 
# From -- ./inp_files/32814.got.cif
#   From: 2010.05.17/outbox.cif.g08.bks.cpg/sg59_17_cif.got.tgz:32814.got - 2010.06.03 14:40:33.
