data_PCOD9449233
_publ_section_title
;
Structure prediction by ZEFSAII (Michael W. Deem and Ramdas Pophale) SiO2 
 PCOD9449233
Probable space group: P M M N
;
_chemical_formula_sum "Si O2"
_cell_formula_units_Z 48
_cell_length_a 7.713742
_cell_length_b 19.227266
_cell_length_c 14.666748
_cell_angle_alpha 90.000000
_cell_angle_beta 90.000000
_cell_angle_gamma 90.000000
_cell_volume 2175.286546
_symmetry_space_group_name_H-M "P M M N"
_symmetry_group_IT_number 59
_space_group.IT_coordinate_system_code '2'
_symmetry_cell_setting 'orthorhombic'
loop_
_space_group_symop_operation_xyz
x,y,z
1/2-x,1/2-y,z
1/2+x,-y,-z
-x,1/2+y,-z
-x,-y,-z
1/2+x,1/2+y,-z
1/2-x,y,z
x,1/2-y,z
loop_
_atom_site_type_symbol
_atom_site_label
_atom_site_fract_x
_atom_site_fract_y
_atom_site_fract_z
Si Si1 0.543775 0.510215 0.894718
Si Si2 0.961506 0.250000 0.008124
Si Si3 0.538570 0.142448 0.856933
Si Si4 0.545374 0.979367 0.397564
Si Si5 0.951378 0.400001 0.265321
Si Si6 0.041941 0.676600 0.343048
Si Si7 0.463782 0.750000 0.780728
O O1 0.750000 0.517032 0.885000
O O2 0.483358 0.437281 0.852369
O O3 0.460806 0.572890 0.839027
O O4 0.500000 0.500000 0.000000
O O5 0.750000 0.250000 0.009452
O O6 0.017478 0.316413 0.947235
O O7 0.018245 0.250000 0.112635
O O8 0.750000 0.143263 0.859328
O O9 0.482993 0.175668 0.762255
O O10 0.750000 0.981905 0.384699
O O11 0.497658 0.898952 0.382675
O O12 0.500000 0.000000 0.500000
O O13 0.470657 0.038038 0.327746
O O14 0.750000 0.393084 0.291429
O O15 0.023676 0.321768 0.266093
O O16 0.250000 0.679377 0.342512
O O17 0.979745 0.750000 0.385642
O O18 0.250000 0.750000 0.780766
#
# Coordination Sequence:
#
# PCOD9449233 Si02
#       7
#     8   4   8   8   8   8   4
#     4  11  21  33  53  81 117 159 203 249 296 360
#     4   9  14  24  46  78 113 150 192 239 281 337
#     4   9  16  27  48  79 112 148 190 236 288 344
#     4  11  24  42  65  91 124 157 201 258 319 383
#     4  10  21  39  61  86 115 155 204 258 310 363
#     4  10  19  36  63  92 121 154 198 246 297 367
#     4   9  18  34  57  82 115 154 204 255 297 353
#
# _framework density 22.066058999999999
#
# number of rings (size 3 to 8) (size 9 to 14) (size 15 to 20)
#    0.000    2.000    2.500    2.000    0.000    3.667 
#    1.500    0.417    0.000    0.000    0.000    0.000 
#    0.000    0.000    0.000    0.000    0.000    0.000 
#
# Total GULP energy -267827.937742 kJ/mol
# GULP energy per Si atom -5579.748703 kJ/mol
# Density = 2.201584 g / cm^3
# Si number density = 22.066059 Si / 1000 Ang^3
#
#
#
# Elastic Constant Matrix: (Units=GPa)
#
#
# Indices 1 2 3 4 5 6 
#
# 1 40.3949 15.6328 -2.6830 0.0000 0.0000 0.0000
# 2 15.6328 232.1224 69.6753 0.0000 0.0000 0.0000
# 3 -2.6830 69.6753 89.0642 0.0000 0.0000 0.0000
# 4 0.0000 0.0000 0.0000 21.7491 0.0000 0.0000
# 5 0.0000 0.0000 0.0000 0.0000 14.5644 0.0000
# 6 0.0000 0.0000 0.0000 0.0000 0.0000 15.1913
#
#
#
# Elastic Compliance Matrix: (Units=1/GPa)
#
#
# Indices 1 2 3 4 5 6 
#
# 1 0.025944 -0.002590 0.002808 0.000000 0.000000 0.000000
# 2 -0.002590 0.005889 -0.004685 0.000000 0.000000 0.000000
# 3 0.002808 -0.004685 0.014977 0.000000 0.000000 0.000000
# 4 0.000000 0.000000 0.000000 0.045979 0.000000 0.000000
# 5 0.000000 0.000000 0.000000 0.000000 0.068661 0.000000
# 6 0.000000 0.000000 0.000000 0.000000 0.000000 0.065827
#
#
# Mechanical properties :
#
#
# Convention : Reuss Voigt Hill
#
# Bulk Modulus (GPa) = 26.40168 58.53687 42.46928
# Shear Modulus (GPa) = 20.09350 28.89806 24.49578
#
# Velocity S-wave (km/s) = 3.02090 3.62279 3.33545
# Velocity P-wave (km/s) = 4.91514 6.63966 5.84139
#
# Compressibility (1/GPa) = 0.03787637
#
# Stress axis : x y z
#
# Youngs Moduli (GPa) = 38.54386 169.81609 66.76741
#
# Poissons Ratio (x) = 0.43984 -0.18747
# Poissons Ratio (y) = 0.09983 0.31279
# Poissons Ratio (z) = -0.10822 0.79555
#
# Static dielectric constant tensor:
#      x y z
#    x 1.835450 0.000000 0.000000 
#    y 0.000000 1.824390 0.000000 
#    z 0.000000 0.000000 1.794930 
# 
# From -- ./inp_files/20499.got.cif
#   From: 2010.05.17/outbox.cif.g08.bks.cpg/sg59_11_cif.got.tgz:20499.got - 2010.06.03 14:40:33.
