data_PCOD9449328
_publ_section_title
;
Structure prediction by ZEFSAII (Michael W. Deem and Ramdas Pophale) SiO2 
 PCOD9449328
Probable space group: P M M N
;
_chemical_formula_sum "Si O2"
_cell_formula_units_Z 64
_cell_length_a 7.834758
_cell_length_b 15.154032
_cell_length_c 25.548541
_cell_angle_alpha 90.000000
_cell_angle_beta 90.000000
_cell_angle_gamma 90.000000
_cell_volume 3033.331607
_symmetry_space_group_name_H-M "P M M N"
_symmetry_group_IT_number 59
_space_group.IT_coordinate_system_code '2'
_symmetry_cell_setting 'orthorhombic'
loop_
_space_group_symop_operation_xyz
x,y,z
1/2-x,1/2-y,z
1/2+x,-y,-z
-x,1/2+y,-z
-x,-y,-z
1/2+x,1/2+y,-z
1/2-x,y,z
x,1/2-y,z
loop_
_atom_site_type_symbol
_atom_site_label
_atom_site_fract_x
_atom_site_fract_y
_atom_site_fract_z
Si Si1 0.942561 0.646462 0.101082
Si Si2 0.043399 0.510710 0.419077
Si Si3 0.453801 0.149795 0.788896
Si Si4 0.555214 0.644097 0.875195
Si Si5 0.455338 0.351680 0.492409
Si Si6 0.052902 0.517675 0.301667
Si Si7 0.544934 0.900008 0.989458
Si Si8 0.949406 0.350974 0.239519
O O1 0.750000 0.607673 0.095743
O O2 0.927606 0.750000 0.112014
O O3 0.023931 0.612542 0.155189
O O4 0.022105 0.642098 0.043401
O O5 0.250000 0.505397 0.417895
O O6 0.982733 0.420251 0.447473
O O7 0.977441 0.519301 0.359951
O O8 0.996771 0.595348 0.454288
O O9 0.250000 0.154780 0.796863
O O10 0.517339 0.250000 0.778763
O O11 0.480433 0.085797 0.740436
O O12 0.750000 0.609945 0.873360
O O13 0.560978 0.750000 0.874809
O O14 0.467233 0.618670 0.821003
O O15 0.477079 0.621041 0.931593
O O16 0.250000 0.347217 0.488109
O O17 0.518635 0.250000 0.490341
O O18 0.250000 0.541517 0.306881
O O19 0.037828 0.420266 0.277233
O O20 0.750000 0.880425 0.986495
O O21 0.500000 0.000000 0.000000
O O22 0.750000 0.350332 0.252460
O O23 0.014787 0.250000 0.243404
#
# Coordination Sequence:
#
# PCOD9449328 Si02
#       8
#     8   8   8   8   8   8   8   8
#     4   8  15  31  53  72  92 126 171 215 263 321
#     4   9  20  37  55  82 117 151 187 224 268 321
#     4   9  19  36  57  80 107 144 190 234 278 330
#     4   9  18  34  54  74  99 133 173 219 272 332
#     4   9  18  35  60  86 113 147 186 228 270 313
#     4  11  23  37  57  83 115 153 188 228 275 326
#     4  10  20  31  47  74 102 128 164 212 267 331
#     4  10  22  39  58  80 107 142 186 234 283 336
#
# _framework density 21.098911999999999
#
# number of rings (size 3 to 8) (size 9 to 14) (size 15 to 20)
#    0.000    2.625    0.000    1.875    1.750    5.250 
#    0.000    3.750    0.000    1.875    0.000    0.000 
#    0.000    0.000    0.000    0.000    0.000    0.000 
#
# Total GULP energy -356573.536569 kJ/mol
# GULP energy per Si atom -5571.461509 kJ/mol
# Density = 2.105089 g / cm^3
# Si number density = 21.098912 Si / 1000 Ang^3
#
#
#
# Elastic Constant Matrix: (Units=GPa)
#
#
# Indices 1 2 3 4 5 6 
#
# 1 23.4308 -4.6899 -2.7187 0.0000 0.0000 0.0000
# 2 -4.6899 73.4346 15.0492 0.0000 0.0000 0.0000
# 3 -2.7187 15.0492 106.2220 0.0000 0.0000 0.0000
# 4 0.0000 0.0000 0.0000 22.3328 0.0000 0.0000
# 5 0.0000 0.0000 0.0000 0.0000 32.7192 0.0000
# 6 0.0000 0.0000 0.0000 0.0000 0.0000 2.5599
#
#
#
# Elastic Compliance Matrix: (Units=1/GPa)
#
#
# Indices 1 2 3 4 5 6 
#
# 1 0.043287 0.002613 0.000738 0.000000 0.000000 0.000000
# 2 0.002613 0.014183 -0.001942 0.000000 0.000000 0.000000
# 3 0.000738 -0.001942 0.009708 0.000000 0.000000 0.000000
# 4 0.000000 0.000000 0.000000 0.044777 0.000000 0.000000
# 5 0.000000 0.000000 0.000000 0.000000 0.030563 0.000000
# 6 0.000000 0.000000 0.000000 0.000000 0.000000 0.390642
#
#
# Mechanical properties :
#
#
# Convention : Reuss Voigt Hill
#
# Bulk Modulus (GPa) = 14.28663 24.26319 19.27491
# Shear Modulus (GPa) = 9.03056 24.55215 16.79136
#
# Velocity S-wave (km/s) = 2.07109 3.41496 2.82412
# Velocity P-wave (km/s) = 3.53626 5.20327 4.44855
#
# Compressibility (1/GPa) = 0.06999552
#
# Stress axis : x y z
#
# Youngs Moduli (GPa) = 23.10136 70.50928 103.00441
#
# Poissons Ratio (x) = -0.18427 -0.07598
# Poissons Ratio (y) = -0.06037 0.20008
# Poissons Ratio (z) = -0.01704 0.13696
#
# Static dielectric constant tensor:
#      x y z
#    x 1.671440 0.000000 0.000000 
#    y 0.000000 1.745270 0.000000 
#    z 0.000000 0.000000 1.828960 
# 
# From -- ./inp_files/31640.got.cif
#   From: 2010.05.17/outbox.cif.g08.bks.cpg/sg59_16_cif.got.tgz:31640.got - 2010.06.03 14:40:33.
