data_PCOD9449152
_publ_section_title
;
Structure prediction by ZEFSAII (Michael W. Deem and Ramdas Pophale) SiO2 
 PCOD9449152
Probable space group: P M M N
;
_chemical_formula_sum "Si O2"
_cell_formula_units_Z 64
_cell_length_a 7.371186
_cell_length_b 30.289890
_cell_length_c 12.237174
_cell_angle_alpha 90.000000
_cell_angle_beta 90.000000
_cell_angle_gamma 90.000000
_cell_volume 2732.223369
_symmetry_space_group_name_H-M "P M M N"
_symmetry_group_IT_number 59
_space_group.IT_coordinate_system_code '2'
_symmetry_cell_setting 'orthorhombic'
loop_
_space_group_symop_operation_xyz
x,y,z
1/2-x,1/2-y,z
1/2+x,-y,-z
-x,1/2+y,-z
-x,-y,-z
1/2+x,1/2+y,-z
1/2-x,y,z
x,1/2-y,z
loop_
_atom_site_type_symbol
_atom_site_label
_atom_site_fract_x
_atom_site_fract_y
_atom_site_fract_z
Si Si1 0.000721 0.959064 0.827685
Si Si2 0.031712 0.800154 0.623556
Si Si3 0.467905 0.039934 0.416079
Si Si4 0.474695 0.050763 0.922147
Si Si5 0.468191 0.138117 0.789769
Si Si6 0.538528 0.874431 0.453781
Si Si7 0.527829 0.360295 0.170747
Si Si8 0.962097 0.200776 0.975936
O O1 0.060017 0.966250 0.701717
O O2 0.940355 0.908022 0.811993
O O3 0.055023 0.950849 0.956031
O O4 0.948355 0.009896 0.852981
O O5 0.250000 0.798484 0.624028
O O6 0.964620 0.750000 0.623232
O O7 0.980019 0.827338 0.731336
O O8 0.975722 0.829245 0.520414
O O9 0.250000 0.042039 0.393568
O O10 0.533261 0.085093 0.473665
O O11 0.500000 0.000000 0.500000
O O12 0.250000 0.046875 0.928703
O O13 0.520110 0.096115 0.862850
O O14 0.250000 0.139032 0.785823
O O15 0.538123 0.131808 0.667245
O O16 0.523639 0.181981 0.854099
O O17 0.750000 0.885855 0.439343
O O18 0.750000 0.367340 0.171393
O O19 0.467382 0.336097 0.059811
O O20 0.750000 0.203863 0.004459
O O21 0.038909 0.250000 0.987585
#
# Coordination Sequence:
#
# PCOD9449152 Si02
#       8
#     8   8   8   8   8   8   8   8
#     4  11  20  36  62  88 116 153 198 238 289 350
#     4  10  21  38  61  89 120 155 199 249 299 351
#     4  11  24  41  62  89 121 158 200 245 294 351
#     4  10  21  36  57  87 121 153 190 238 291 348
#     4  10  21  39  59  82 117 159 196 239 294 350
#     4  10  22  40  60  84 118 157 201 247 296 351
#     4  10  19  35  60  89 119 152 192 240 297 356
#     4  10  21  38  60  87 118 152 194 245 297 350
#
# _framework density 23.424146
#
# number of rings (size 3 to 8) (size 9 to 14) (size 15 to 20)
#    0.000    1.750    2.500    1.875    0.000    5.500 
#    0.000    5.000    0.000    1.500    0.000    0.000 
#    0.000    0.000    0.000    0.000    0.000    0.000 
#
# Total GULP energy -356618.695456 kJ/mol
# GULP energy per Si atom -5572.167116 kJ/mol
# Density = 2.337083 g / cm^3
# Si number density = 23.424146 Si / 1000 Ang^3
#
#
#
# Elastic Constant Matrix: (Units=GPa)
#
#
# Indices 1 2 3 4 5 6 
#
# 1 110.2775 7.0360 9.0533 0.0000 0.0000 0.0000
# 2 7.0360 173.2554 72.1482 0.0000 0.0000 0.0000
# 3 9.0533 72.1482 202.3921 0.0000 0.0000 0.0000
# 4 0.0000 0.0000 0.0000 40.6067 0.0000 0.0000
# 5 0.0000 0.0000 0.0000 0.0000 -491.1050 0.0000
# 6 0.0000 0.0000 0.0000 0.0000 0.0000 29.5305
#
#
#
# Elastic Compliance Matrix: (Units=1/GPa)
#
#
# Indices 1 2 3 4 5 6 
#
# 1 0.009110 -0.000235 -0.000324 0.000000 0.000000 0.000000
# 2 -0.000235 0.006784 -0.002408 0.000000 0.000000 0.000000
# 3 -0.000324 -0.002408 0.005814 0.000000 0.000000 0.000000
# 4 0.000000 0.000000 0.000000 0.024626 0.000000 0.000000
# 5 0.000000 0.000000 0.000000 0.000000 -0.002036 0.000000
# 6 0.000000 0.000000 0.000000 0.000000 0.000000 0.033863
#
#
# Mechanical properties :
#
#
# Convention : Reuss Voigt Hill
#
# Bulk Modulus (GPa) = 63.39520 73.59998 68.49759
# Shear Modulus (GPa) = 55.95831 -57.68104 -0.86136
#
# Velocity S-wave (km/s) = 4.89296 -4.96770 -0.60706
# Velocity P-wave (km/s) = 7.68402 1.18967 5.36791
#
# Compressibility (1/GPa) = 0.01577407
#
# Stress axis : x y z
#
# Youngs Moduli (GPa) = 109.77420 147.40416 172.00681
#
# Poissons Ratio (x) = 0.03467 0.05567
# Poissons Ratio (y) = 0.02582 0.41417
# Poissons Ratio (z) = 0.03553 0.35493
#
# Static dielectric constant tensor:
#      x y z
#    x 2.073600 0.000000 0.000000 
#    y 0.000000 1.830860 0.000000 
#    z 0.000000 0.000000 1.836640 
# 
# From -- ./inp_files/14939.got.cif
#   From: 2010.05.17/outbox.cif.g08.bks.cpg/sg59_8_cif.got.tgz:14939.got - 2010.06.03 14:40:33.
