data_PCOD9449706
_publ_section_title
;
Structure prediction by ZEFSAII (Michael W. Deem and Ramdas Pophale) SiO2 
 PCOD9449706
Probable space group: P M M N
;
_chemical_formula_sum "Si O2"
_cell_formula_units_Z 48
_cell_length_a 9.356116
_cell_length_b 8.544365
_cell_length_c 32.179430
_cell_angle_alpha 90.000000
_cell_angle_beta 90.000000
_cell_angle_gamma 90.000000
_cell_volume 2572.490248
_symmetry_space_group_name_H-M "P M M N"
_symmetry_group_IT_number 59
_space_group.IT_coordinate_system_code '2'
_symmetry_cell_setting 'orthorhombic'
loop_
_space_group_symop_operation_xyz
x,y,z
1/2-x,1/2-y,z
1/2+x,-y,-z
-x,1/2+y,-z
-x,-y,-z
1/2+x,1/2+y,-z
1/2-x,y,z
x,1/2-y,z
loop_
_atom_site_type_symbol
_atom_site_label
_atom_site_fract_x
_atom_site_fract_y
_atom_site_fract_z
Si Si1 0.915209 0.060607 0.960117
Si Si2 0.076302 0.568990 0.294770
Si Si3 0.085633 0.058850 0.877874
Si Si4 0.416109 0.064191 0.382736
Si Si5 0.086705 0.436903 0.539309
Si Si6 0.415733 0.941330 0.203623
O O1 0.750000 0.009523 0.960757
O O2 0.916704 0.250000 0.960686
O O3 0.994433 0.009501 0.917906
O O4 0.000000 0.000000 0.000000
O O5 0.250000 0.566908 0.293032
O O6 0.031839 0.750000 0.299155
O O7 0.034223 0.478110 0.336166
O O8 0.031349 0.508132 0.249353
O O9 0.250000 0.008316 0.880866
O O10 0.084919 0.250000 0.877595
O O11 0.011333 0.008062 0.835031
O O12 0.250000 0.011796 0.386704
O O13 0.419102 0.250000 0.388195
O O14 0.510340 0.986925 0.418235
O O15 0.250000 0.494824 0.538223
O O16 0.088626 0.250000 0.536930
O O17 0.000000 0.500000 0.500000
O O18 0.250000 0.988278 0.197722
O O19 0.416189 0.750000 0.204698
#
# Coordination Sequence:
#
# PCOD9449706 Si02
#       6
#     8   8   8   8   8   8
#     4  10  20  33  50  72  98 129 165 206 252 302
#     4   8  14  26  46  71  98 129 164 203 248 296
#     4   9  16  26  42  66  95 125 159 203 253 301
#     4  10  20  34  54  80 108 139 175 212 251 298
#     4  11  24  40  58  81 107 136 172 212 255 304
#     4   8  13  23  41  64  89 120 161 205 247 293
#
# _framework density 18.658963
#
# number of rings (size 3 to 8) (size 9 to 14) (size 15 to 20)
#    0.000    2.667    0.000    3.500    0.000    7.333 
#    0.000    0.833    0.000    4.000    0.000    2.333 
#    0.000    0.000    0.000    0.000    0.000    0.000 
#
# Total GULP energy -267729.677173 kJ/mol
# GULP energy per Si atom -5577.701608 kJ/mol
# Density = 1.861649 g / cm^3
# Si number density = 18.658963 Si / 1000 Ang^3
#
#
#
# Elastic Constant Matrix: (Units=GPa)
#
#
# Indices 1 2 3 4 5 6 
#
# 1 134.3617 21.9388 103.1569 0.0000 0.0000 0.0000
# 2 21.9388 13.2404 24.9021 0.0000 0.0000 0.0000
# 3 103.1569 24.9021 198.2939 0.0000 0.0000 0.0000
# 4 0.0000 0.0000 0.0000 25.7824 0.0000 0.0000
# 5 0.0000 0.0000 0.0000 0.0000 31.6957 0.0000
# 6 0.0000 0.0000 0.0000 0.0000 0.0000 15.7740
#
#
#
# Elastic Compliance Matrix: (Units=1/GPa)
#
#
# Indices 1 2 3 4 5 6 
#
# 1 0.013752 -0.012217 -0.005620 0.000000 0.000000 0.000000
# 2 -0.012217 0.109734 -0.007425 0.000000 0.000000 0.000000
# 3 -0.005620 -0.007425 0.008899 0.000000 0.000000 0.000000
# 4 0.000000 0.000000 0.000000 0.038786 0.000000 0.000000
# 5 0.000000 0.000000 0.000000 0.000000 0.031550 0.000000
# 6 0.000000 0.000000 0.000000 0.000000 0.000000 0.063395
#
#
# Mechanical properties :
#
#
# Convention : Reuss Voigt Hill
#
# Bulk Modulus (GPa) = 12.21574 71.76574 41.99074
# Shear Modulus (GPa) = 14.53790 27.71030 21.12410
#
# Velocity S-wave (km/s) = 2.79433 3.85787 3.36834
# Velocity P-wave (km/s) = 4.11972 7.64130 6.13847
#
# Compressibility (1/GPa) = 0.08186161
#
# Stress axis : x y z
#
# Youngs Moduli (GPa) = 72.71596 9.11291 112.37097
#
# Poissons Ratio (x) = 0.11133 0.63152
# Poissons Ratio (y) = 0.88837 0.83437
# Poissons Ratio (z) = 0.40866 0.06766
#
# Static dielectric constant tensor:
#      x y z
#    x 1.635060 0.000000 0.000000 
#    y 0.000000 1.649910 0.000000 
#    z 0.000000 0.000000 1.637230 
# 
# From -- ./inp_files/32849.got.cif
#   From: 2010.05.17/outbox.cif.g08.bks.cpg/sg59_17_cif.got.tgz:32849.got - 2010.06.03 14:40:33.
