data_PCOD9449755
_publ_section_title
;
Structure prediction by ZEFSAII (Michael W. Deem and Ramdas Pophale) SiO2 
 PCOD9449755
Probable space group: P M M N
;
_chemical_formula_sum "Si O2"
_cell_formula_units_Z 56
_cell_length_a 8.754323
_cell_length_b 23.920807
_cell_length_c 15.930654
_cell_angle_alpha 90.000000
_cell_angle_beta 90.000000
_cell_angle_gamma 90.000000
_cell_volume 3336.045756
_symmetry_space_group_name_H-M "P M M N"
_symmetry_group_IT_number 59
_space_group.IT_coordinate_system_code '2'
_symmetry_cell_setting 'orthorhombic'
loop_
_space_group_symop_operation_xyz
x,y,z
1/2-x,1/2-y,z
1/2+x,-y,-z
-x,1/2+y,-z
-x,-y,-z
1/2+x,1/2+y,-z
1/2-x,y,z
x,1/2-y,z
loop_
_atom_site_type_symbol
_atom_site_label
_atom_site_fract_x
_atom_site_fract_y
_atom_site_fract_z
Si Si1 0.933945 0.385987 0.659634
Si Si2 0.574073 0.817849 0.005124
Si Si3 0.566359 0.314441 0.819059
Si Si4 0.063485 0.185388 0.179620
Si Si5 0.567898 0.184396 0.492392
Si Si6 0.568167 0.499664 0.405756
Si Si7 0.067492 0.385162 0.340936
O O1 0.750000 0.393829 0.663564
O O2 0.985348 0.354763 0.744269
O O3 0.965444 0.346022 0.580154
O O4 0.011676 0.445017 0.641755
O O5 0.750000 0.836028 0.012884
O O6 0.573551 0.750000 0.002586
O O7 0.485068 0.833982 0.088818
O O8 0.513217 0.834250 0.913166
O O9 0.750000 0.313050 0.816280
O O10 0.512809 0.250000 0.806650
O O11 0.250000 0.186223 0.177361
O O12 0.015255 0.250000 0.193876
O O13 0.016996 0.145228 0.255136
O O14 0.750000 0.177861 0.476594
O O15 0.533998 0.250000 0.497386
O O16 0.476980 0.154956 0.418015
O O17 0.500000 0.500000 0.500000
O O18 0.750000 0.498928 0.412306
O O19 0.510124 0.444403 0.358654
O O20 0.250000 0.392431 0.338242
#
# Coordination Sequence:
#
# PCOD9449755 Si02
#       7
#     8   8   8   8   8   8   8
#     4  10  20  35  54  74 102 138 173 210 254 307
#     4   8  14  27  48  73 103 138 171 204 245 298
#     4   9  17  30  50  78 109 138 167 203 253 308
#     4   8  15  29  50  77 107 137 169 206 253 306
#     4  10  20  33  50  74 105 138 168 204 254 308
#     4  12  24  39  56  74  98 132 176 221 260 304
#     4  11  21  34  54  77 102 135 174 217 258 305
#
# _framework density 16.786341
#
# number of rings (size 3 to 8) (size 9 to 14) (size 15 to 20)
#    0.000    2.286    1.429    3.429    0.000    3.143 
#    0.000    1.429    0.000    6.857    0.000    0.000 
#    0.000    0.000    0.000    0.000    0.000    0.000 
#
# Total GULP energy -312339.477387 kJ/mol
# GULP energy per Si atom -5577.490668 kJ/mol
# Density = 1.674813 g / cm^3
# Si number density = 16.786341 Si / 1000 Ang^3
#
#
#
# Elastic Constant Matrix: (Units=GPa)
#
#
# Indices 1 2 3 4 5 6 
#
# 1 38.9916 42.3789 46.3372 0.0000 0.0000 0.0000
# 2 42.3789 116.9610 80.3277 0.0000 0.0000 0.0000
# 3 46.3372 80.3277 169.1878 0.0000 0.0000 0.0000
# 4 0.0000 0.0000 0.0000 3.2160 0.0000 0.0000
# 5 0.0000 0.0000 0.0000 0.0000 56.7710 0.0000
# 6 0.0000 0.0000 0.0000 0.0000 0.0000 23.3905
#
#
#
# Elastic Compliance Matrix: (Units=1/GPa)
#
#
# Indices 1 2 3 4 5 6 
#
# 1 0.047546 -0.012293 -0.007186 0.000000 0.000000 0.000000
# 2 -0.012293 0.015865 -0.004166 0.000000 0.000000 0.000000
# 3 -0.007186 -0.004166 0.009856 0.000000 0.000000 0.000000
# 4 0.000000 0.000000 0.000000 0.310941 0.000000 0.000000
# 5 0.000000 0.000000 0.000000 0.000000 0.017615 0.000000
# 6 0.000000 0.000000 0.000000 0.000000 0.000000 0.042752
#
#
# Mechanical properties :
#
#
# Convention : Reuss Voigt Hill
#
# Bulk Modulus (GPa) = 38.49154 73.69201 56.09178
# Shear Modulus (GPa) = 9.98954 27.08195 18.53575
#
# Velocity S-wave (km/s) = 2.44211 4.02099 3.32658
# Velocity P-wave (km/s) = 5.56165 8.09649 6.94568
#
# Compressibility (1/GPa) = 0.02597973
#
# Stress axis : x y z
#
# Youngs Moduli (GPa) = 21.03208 63.03264 101.45689
#
# Poissons Ratio (x) = 0.77483 0.72904
# Poissons Ratio (y) = 0.25854 0.42263
# Poissons Ratio (z) = 0.15113 0.26257
#
# Static dielectric constant tensor:
#      x y z
#    x 1.571330 0.000000 0.000000 
#    y 0.000000 1.548740 0.000000 
#    z 0.000000 0.000000 1.569430 
# 
# From -- ./inp_files/20902.got.cif
#   From: 2010.05.17/outbox.cif.g08.bks.cpg/sg59_11_cif.got.tgz:20902.got - 2010.06.03 14:40:33.
