data_PCOD9449631
_publ_section_title
;
Structure prediction by ZEFSAII (Michael W. Deem and Ramdas Pophale) SiO2 
 PCOD9449631
Probable space group: P M M N
;
_chemical_formula_sum "Si O2"
_cell_formula_units_Z 48
_cell_length_a 9.441531
_cell_length_b 7.551360
_cell_length_c 31.865464
_cell_angle_alpha 90.000000
_cell_angle_beta 90.000000
_cell_angle_gamma 90.000000
_cell_volume 2271.892853
_symmetry_space_group_name_H-M "P M M N"
_symmetry_group_IT_number 59
_space_group.IT_coordinate_system_code '2'
_symmetry_cell_setting 'orthorhombic'
loop_
_space_group_symop_operation_xyz
x,y,z
1/2-x,1/2-y,z
1/2+x,-y,-z
-x,1/2+y,-z
-x,-y,-z
1/2+x,1/2+y,-z
1/2-x,y,z
x,1/2-y,z
loop_
_atom_site_type_symbol
_atom_site_label
_atom_site_fract_x
_atom_site_fract_y
_atom_site_fract_z
Si Si1 0.413436 0.533701 0.202495
Si Si2 0.589946 0.540008 0.958502
Si Si3 0.911001 0.037562 0.541695
Si Si4 0.909015 0.960614 0.123710
Si Si5 0.087200 0.033124 0.622429
Si Si6 0.086562 0.534184 0.296798
O O1 0.250000 0.481587 0.195212
O O2 0.415280 0.750000 0.202165
O O3 0.513168 0.468940 0.165225
O O4 0.454497 0.478645 0.249667
O O5 0.750000 0.465656 0.960241
O O6 0.601995 0.750000 0.956278
O O7 0.505012 0.484064 0.917224
O O8 0.500000 0.500000 0.000000
O O9 0.750000 0.969548 0.539064
O O10 0.902484 0.250000 0.545661
O O11 0.994689 0.973255 0.582736
O O12 0.000000 0.000000 0.500000
O O13 0.750000 0.031478 0.117776
O O14 0.896996 0.750000 0.129875
O O15 0.250000 0.977117 0.619011
O O16 0.086628 0.250000 0.622297
O O17 0.014686 0.975540 0.665831
O O18 0.250000 0.481414 0.304224
O O19 0.085178 0.750000 0.296974
#
# Coordination Sequence:
#
# PCOD9449631 Si02
#       6
#     8   8   8   8   8   8
#     4   8  14  25  42  65  95 131 166 200 241 286
#     4  11  24  40  58  80 104 132 168 207 248 295
#     4  10  20  33  49  69  94 125 161 202 248 297
#     4  10  20  33  51  77 107 137 169 204 243 289
#     4   9  16  25  39  61  90 123 158 198 244 291
#     4   8  13  22  37  59  89 124 160 197 239 287
#
# _framework density 21.127756999999999
#
# number of rings (size 3 to 8) (size 9 to 14) (size 15 to 20)
#    0.000    2.667    0.000    3.500    0.000    8.000 
#    0.000    3.333    0.000    0.000    0.000    1.167 
#    0.000    1.333    0.000    0.000    0.000    0.000 
#
# Total GULP energy -268049.321634 kJ/mol
# GULP energy per Si atom -5584.360867 kJ/mol
# Density = 2.107967 g / cm^3
# Si number density = 21.127757 Si / 1000 Ang^3
#
#
#
# Elastic Constant Matrix: (Units=GPa)
#
#
# Indices 1 2 3 4 5 6 
#
# 1 217.5222 6.8327 154.0304 0.0000 0.0000 0.0000
# 2 6.8327 50.6315 0.9342 0.0000 0.0000 0.0000
# 3 154.0304 0.9342 217.3147 0.0000 0.0000 0.0000
# 4 0.0000 0.0000 0.0000 10.3373 0.0000 0.0000
# 5 0.0000 0.0000 0.0000 0.0000 44.3044 0.0000
# 6 0.0000 0.0000 0.0000 0.0000 0.0000 7.1598
#
#
#
# Elastic Compliance Matrix: (Units=1/GPa)
#
#
# Indices 1 2 3 4 5 6 
#
# 1 0.009294 -0.001133 -0.006583 0.000000 0.000000 0.000000
# 2 -0.001133 0.019890 0.000717 0.000000 0.000000 0.000000
# 3 -0.006583 0.000717 0.009264 0.000000 0.000000 0.000000
# 4 0.000000 0.000000 0.000000 0.096737 0.000000 0.000000
# 5 0.000000 0.000000 0.000000 0.000000 0.022571 0.000000
# 6 0.000000 0.000000 0.000000 0.000000 0.000000 0.139669
#
#
# Mechanical properties :
#
#
# Convention : Reuss Voigt Hill
#
# Bulk Modulus (GPa) = 40.89572 89.89589 65.39581
# Shear Modulus (GPa) = 15.64589 33.93837 24.79213
#
# Velocity S-wave (km/s) = 2.72423 4.01227 3.42927
# Velocity P-wave (km/s) = 5.41236 8.00659 6.83371
#
# Compressibility (1/GPa) = 0.02445243
#
# Stress axis : x y z
#
# Youngs Moduli (GPa) = 107.59493 50.27602 107.94131
#
# Poissons Ratio (x) = 0.05695 0.71055
# Poissons Ratio (y) = 0.12188 -0.07744
# Poissons Ratio (z) = 0.70827 -0.03607
#
# Static dielectric constant tensor:
#      x y z
#    x 1.745200 0.000000 0.000000 
#    y 0.000000 1.846280 0.000000 
#    z 0.000000 0.000000 1.603780 
# 
# From -- ./inp_files/32903.got.cif
#   From: 2010.05.17/outbox.cif.g08.bks.cpg/sg59_17_cif.got.tgz:32903.got - 2010.06.03 14:40:33.
