data_PCOD9449965
_publ_section_title
;
Structure prediction by ZEFSAII (Michael W. Deem and Ramdas Pophale) SiO2 
 PCOD9449965
Probable space group: P M M N
;
_chemical_formula_sum "Si O2"
_cell_formula_units_Z 40
_cell_length_a 8.710057
_cell_length_b 10.328038
_cell_length_c 25.101576
_cell_angle_alpha 90.000000
_cell_angle_beta 90.000000
_cell_angle_gamma 90.000000
_cell_volume 2258.082545
_symmetry_space_group_name_H-M "P M M N"
_symmetry_group_IT_number 59
_space_group.IT_coordinate_system_code '2'
_symmetry_cell_setting 'orthorhombic'
loop_
_space_group_symop_operation_xyz
x,y,z
1/2-x,1/2-y,z
1/2+x,-y,-z
-x,1/2+y,-z
-x,-y,-z
1/2+x,1/2+y,-z
1/2-x,y,z
x,1/2-y,z
loop_
_atom_site_type_symbol
_atom_site_label
_atom_site_fract_x
_atom_site_fract_y
_atom_site_fract_z
Si Si1 0.565651 0.250000 0.557403
Si Si2 0.567393 0.600297 0.042237
Si Si3 0.064437 0.596424 0.272699
Si Si4 0.933632 0.750000 0.561615
Si Si5 0.073563 0.906881 0.154349
Si Si6 0.933458 0.998527 0.381164
O O1 0.750000 0.250000 0.560953
O O2 0.511340 0.250000 0.496439
O O3 0.498190 0.124719 0.586826
O O4 0.750000 0.601378 0.037441
O O5 0.512302 0.750000 0.034477
O O6 0.521418 0.558796 0.102157
O O7 0.500000 0.500000 0.000000
O O8 0.250000 0.584659 0.276730
O O9 0.028999 0.750000 0.278389
O O10 0.019227 0.552102 0.213085
O O11 0.983380 0.520794 0.319992
O O12 0.750000 0.750000 0.555851
O O13 0.989873 0.624528 0.593484
O O14 0.250000 0.949352 0.147212
O O15 0.074862 0.750000 0.156971
O O16 0.750000 0.004613 0.385934
#
# Coordination Sequence:
#
# PCOD9449965 Si02
#       6
#     4   8   8   4   8   8
#     4  12  24  42  64  88 116 148 189 234 277 334
#     4  10  20  33  52  79 110 145 184 228 277 330
#     4   9  17  32  56  84 113 146 186 229 275 329
#     4  12  26  44  62  82 114 154 189 230 285 342
#     4   8  15  29  51  79 109 143 182 226 273 324
#     4  12  24  39  60  89 118 149 188 233 282 334
#
# _framework density 17.714144999999998
#
# number of rings (size 3 to 8) (size 9 to 14) (size 15 to 20)
#    0.000    1.800    1.000    6.000    0.000    2.000 
#    0.000    2.000    2.200    0.000    0.000    0.000 
#    0.000    0.000    0.000    0.000    0.000    0.000 
#
# Total GULP energy -223304.710767 kJ/mol
# GULP energy per Si atom -5582.617769 kJ/mol
# Density = 1.767383 g / cm^3
# Si number density = 17.714145 Si / 1000 Ang^3
#
#
#
# Elastic Constant Matrix: (Units=GPa)
#
#
# Indices 1 2 3 4 5 6 
#
# 1 65.0456 20.5066 31.1437 0.0000 0.0000 0.0000
# 2 20.5066 83.6394 48.5187 0.0000 0.0000 0.0000
# 3 31.1437 48.5187 143.1523 0.0000 0.0000 0.0000
# 4 0.0000 0.0000 0.0000 15.9923 0.0000 0.0000
# 5 0.0000 0.0000 0.0000 0.0000 37.6320 0.0000
# 6 0.0000 0.0000 0.0000 0.0000 0.0000 24.2157
#
#
#
# Elastic Compliance Matrix: (Units=1/GPa)
#
#
# Indices 1 2 3 4 5 6 
#
# 1 0.017607 -0.002607 -0.002947 0.000000 0.000000 0.000000
# 2 -0.002607 0.015268 -0.004608 0.000000 0.000000 0.000000
# 3 -0.002947 -0.004608 0.009188 0.000000 0.000000 0.000000
# 4 0.000000 0.000000 0.000000 0.062530 0.000000 0.000000
# 5 0.000000 0.000000 0.000000 0.000000 0.026573 0.000000
# 6 0.000000 0.000000 0.000000 0.000000 0.000000 0.041295
#
#
# Mechanical properties :
#
#
# Convention : Reuss Voigt Hill
#
# Bulk Modulus (GPa) = 45.99867 54.68613 50.34240
# Shear Modulus (GPa) = 24.99601 28.34590 26.67095
#
# Velocity S-wave (km/s) = 3.76050 4.00457 3.88445
# Velocity P-wave (km/s) = 6.69916 7.23330 6.97135
#
# Compressibility (1/GPa) = 0.02173976
#
# Stress axis : x y z
#
# Youngs Moduli (GPa) = 56.79640 65.49558 108.83401
#
# Poissons Ratio (x) = 0.17077 0.32070
# Poissons Ratio (y) = 0.14809 0.50146
# Poissons Ratio (z) = 0.16736 0.30178
#
# Static dielectric constant tensor:
#      x y z
#    x 1.594870 0.000000 0.000000 
#    y 0.000000 1.594580 0.000000 
#    z 0.000000 0.000000 1.610130 
# 
# From -- ./inp_files/28768.got.cif
#   From: 2010.05.17/outbox.cif.g08.bks.cpg/sg59_15_cif.got.tgz:28768.got - 2010.06.03 14:40:33.
