data_PCOD9449145
_publ_section_title
;
Structure prediction by ZEFSAII (Michael W. Deem and Ramdas Pophale) SiO2 
 PCOD9449145
Probable space group: P M M N
;
_chemical_formula_sum "Si O2"
_cell_formula_units_Z 64
_cell_length_a 14.852351
_cell_length_b 17.329890
_cell_length_c 12.383050
_cell_angle_alpha 90.000000
_cell_angle_beta 90.000000
_cell_angle_gamma 90.000000
_cell_volume 3187.268399
_symmetry_space_group_name_H-M "P M M N"
_symmetry_group_IT_number 59
_space_group.IT_coordinate_system_code '2'
_symmetry_cell_setting 'orthorhombic'
loop_
_space_group_symop_operation_xyz
x,y,z
1/2-x,1/2-y,z
1/2+x,-y,-z
-x,1/2+y,-z
-x,-y,-z
1/2+x,1/2+y,-z
1/2-x,y,z
x,1/2-y,z
loop_
_atom_site_type_symbol
_atom_site_label
_atom_site_fract_x
_atom_site_fract_y
_atom_site_fract_z
Si Si1 0.494700 0.095834 0.910098
Si Si2 0.654238 0.659929 0.948936
Si Si3 0.613043 0.838585 0.717630
Si Si4 0.498912 0.073877 0.663047
Si Si5 0.857006 0.050478 0.070132
Si Si6 0.924323 0.401114 0.297835
Si Si7 0.352504 0.159120 0.521374
Si Si8 0.355029 0.841069 0.477321
O O1 0.506401 0.107599 0.783611
O O2 0.425627 0.022420 0.918762
O O3 0.432480 0.152956 0.977437
O O4 0.590829 0.090757 0.970274
O O5 0.750000 0.634121 0.997968
O O6 0.661284 0.750000 0.928116
O O7 0.643821 0.622696 0.829750
O O8 0.644732 0.750000 0.713551
O O9 0.505839 0.842429 0.721830
O O10 0.641473 0.871379 0.601841
O O11 0.416854 0.112288 0.598642
O O12 0.585869 0.101672 0.596527
O O13 0.474163 0.983060 0.674253
O O14 0.750000 0.038247 0.051272
O O15 0.868885 0.090337 0.187243
O O16 0.869786 0.370754 0.400308
O O17 0.250000 0.153694 0.558233
O O18 0.378454 0.250000 0.520397
O O19 0.250000 0.845224 0.449653
O O20 0.383181 0.750000 0.468789
#
# Coordination Sequence:
#
# PCOD9449145 Si02
#       8
#     8   8   8   8   8   8   8   8
#     4  10  22  39  58  85 119 155 197 235 289 358
#     4  10  20  35  58  88 119 151 194 246 296 351
#     4  10  19  35  60  86 117 153 193 248 305 352
#     4  11  24  39  59  87 125 157 197 246 294 353
#     4  10  21  39  63  86 116 153 191 244 299 350
#     4  11  21  39  63  90 117 148 197 255 302 352
#     4  10  21  37  59  86 117 157 197 237 299 365
#     4  11  24  42  63  86 118 162 205 245 294 356
#
# _framework density 20.079891
#
# number of rings (size 3 to 8) (size 9 to 14) (size 15 to 20)
#    0.000    1.625    2.500    2.250    0.000    6.000 
#    0.000    1.875    0.000    1.125    0.000    0.000 
#    0.000    0.000    0.000    0.000    0.000    0.000 
#
# Total GULP energy -356568.580962 kJ/mol
# GULP energy per Si atom -5571.384078 kJ/mol
# Density = 2.003419 g / cm^3
# Si number density = 20.079891 Si / 1000 Ang^3
#
#
#
# Elastic Constant Matrix: (Units=GPa)
#
#
# Indices 1 2 3 4 5 6 
#
# 1 128.9136 14.5838 44.7754 0.0000 0.0000 0.0000
# 2 14.5838 42.0384 26.8692 0.0000 0.0000 0.0000
# 3 44.7754 26.8692 109.9425 0.0000 0.0000 0.0000
# 4 0.0000 0.0000 0.0000 20.9674 0.0000 0.0000
# 5 0.0000 0.0000 0.0000 0.0000 -37.6502 0.0000
# 6 0.0000 0.0000 0.0000 0.0000 0.0000 -189.6856
#
#
#
# Elastic Compliance Matrix: (Units=1/GPa)
#
#
# Indices 1 2 3 4 5 6 
#
# 1 0.009066 -0.000931 -0.003465 0.000000 0.000000 0.000000
# 2 -0.000931 0.028287 -0.006534 0.000000 0.000000 0.000000
# 3 -0.003465 -0.006534 0.012104 0.000000 0.000000 0.000000
# 4 0.000000 0.000000 0.000000 0.047693 0.000000 0.000000
# 5 0.000000 0.000000 0.000000 0.000000 -0.026560 0.000000
# 6 0.000000 0.000000 0.000000 0.000000 0.000000 -0.005272
#
#
# Mechanical properties :
#
#
# Convention : Reuss Voigt Hill
#
# Bulk Modulus (GPa) = 36.23520 50.37238 43.30379
# Shear Modulus (GPa) = 51.88047 -28.29594 11.79227
#
# Velocity S-wave (km/s) = 5.08853 -3.75796 2.42599
# Velocity P-wave (km/s) = 7.25320 2.51212 5.42769
#
# Compressibility (1/GPa) = 0.02759748
#
# Stress axis : x y z
#
# Youngs Moduli (GPa) = 110.30451 35.35198 82.61989
#
# Poissons Ratio (x) = 0.03290 0.28626
# Poissons Ratio (y) = 0.10264 0.53985
# Poissons Ratio (z) = 0.38218 0.23100
#
# Static dielectric constant tensor:
#      x y z
#    x 1.720440 0.000000 0.000000 
#    y 0.000000 1.787120 0.000000 
#    z 0.000000 0.000000 1.744410 
# 
# From -- ./inp_files/17256.got.cif
#   From: 2010.05.17/outbox.cif.g08.bks.cpg/sg59_9_cif.got.tgz:17256.got - 2010.06.03 14:40:33.
