data_PCOD9449041
_publ_section_title
;
Structure prediction by ZEFSAII (Michael W. Deem and Ramdas Pophale) SiO2 
 PCOD9449041
Probable space group: P M M N
;
_chemical_formula_sum "Si O2"
_cell_formula_units_Z 64
_cell_length_a 18.857717
_cell_length_b 19.865548
_cell_length_c 9.930598
_cell_angle_alpha 90.000000
_cell_angle_beta 90.000000
_cell_angle_gamma 90.000000
_cell_volume 3720.189523
_symmetry_space_group_name_H-M "P M M N"
_symmetry_group_IT_number 59
_space_group.IT_coordinate_system_code '2'
_symmetry_cell_setting 'orthorhombic'
loop_
_space_group_symop_operation_xyz
x,y,z
1/2-x,1/2-y,z
1/2+x,-y,-z
-x,1/2+y,-z
-x,-y,-z
1/2+x,1/2+y,-z
1/2-x,y,z
x,1/2-y,z
loop_
_atom_site_type_symbol
_atom_site_label
_atom_site_fract_x
_atom_site_fract_y
_atom_site_fract_z
Si Si1 0.437343 0.827584 0.544335
Si Si2 0.834517 0.549434 0.625701
Si Si3 0.106822 0.970096 0.912775
Si Si4 0.037487 0.395240 0.001412
Si Si5 0.542544 0.171135 0.757221
Si Si6 0.573994 0.827617 0.726838
Si Si7 0.834989 0.448868 0.385516
Si Si8 0.669260 0.426284 0.819627
O O1 0.411016 0.750000 0.544394
O O2 0.475289 0.838953 0.399945
O O3 0.496022 0.834024 0.660462
O O4 0.375869 0.882232 0.563744
O O5 0.750000 0.561381 0.630373
O O6 0.876464 0.617622 0.654132
O O7 0.851372 0.510707 0.486696
O O8 0.852374 0.494528 0.741525
O O9 0.136464 0.964247 0.763370
O O10 0.032077 0.931051 0.933094
O O11 0.160061 0.938865 0.022037
O O12 0.090916 0.046358 0.956673
O O13 0.068756 0.347169 0.115974
O O14 0.011408 0.358389 0.866385
O O15 0.550725 0.250000 0.781666
O O16 0.616285 0.132401 0.778753
O O17 0.596647 0.750000 0.709566
O O18 0.750000 0.439278 0.386205
O O19 0.750000 0.411505 0.782450
#
# Coordination Sequence:
#
# PCOD9449041 Si02
#       8
#     8   8   8   8   8   8   8   8
#     4  10  22  37  55  84 116 150 193 230 273 332
#     4  10  22  38  58  85 110 140 187 233 282 340
#     4  10  20  34  55  82 111 142 187 232 282 328
#     4  10  20  35  56  85 108 143 184 238 283 329
#     4  10  21  35  53  80 114 147 183 230 277 330
#     4  11  22  39  61  83 112 146 182 236 291 338
#     4  11  22  37  57  83 118 157 188 232 281 330
#     4  10  19  35  55  78 108 142 184 228 271 326
#
# _framework density 17.203424999999999
#
# number of rings (size 3 to 8) (size 9 to 14) (size 15 to 20)
#    0.000    1.750    3.750    0.750    1.750    1.250 
#    0.000    1.250    0.000    1.500    0.000    0.000 
#    0.000    0.000    0.000    0.000    0.000    0.000 
#
# Total GULP energy -357078.367569 kJ/mol
# GULP energy per Si atom -5579.349493 kJ/mol
# Density = 1.716427 g / cm^3
# Si number density = 17.203425 Si / 1000 Ang^3
#
#
#
# Elastic Constant Matrix: (Units=GPa)
#
#
# Indices 1 2 3 4 5 6 
#
# 1 20.6876 6.1919 5.0107 0.0000 0.0000 0.0000
# 2 6.1919 52.6626 25.1151 0.0000 0.0000 0.0000
# 3 5.0107 25.1151 114.6089 0.0000 0.0000 0.0000
# 4 0.0000 0.0000 0.0000 26.8194 0.0000 0.0000
# 5 0.0000 0.0000 0.0000 0.0000 13.5647 0.0000
# 6 0.0000 0.0000 0.0000 0.0000 0.0000 15.9895
#
#
#
# Elastic Compliance Matrix: (Units=1/GPa)
#
#
# Indices 1 2 3 4 5 6 
#
# 1 0.050205 -0.005423 -0.001007 0.000000 0.000000 0.000000
# 2 -0.005423 0.021791 -0.004538 0.000000 0.000000 0.000000
# 3 -0.001007 -0.004538 0.009764 0.000000 0.000000 0.000000
# 4 0.000000 0.000000 0.000000 0.037286 0.000000 0.000000
# 5 0.000000 0.000000 0.000000 0.000000 0.073721 0.000000
# 6 0.000000 0.000000 0.000000 0.000000 0.000000 0.062541
#
#
# Mechanical properties :
#
#
# Convention : Reuss Voigt Hill
#
# Bulk Modulus (GPa) = 16.71560 28.95494 22.83527
# Shear Modulus (GPa) = 16.82460 21.38416 19.10438
#
# Velocity S-wave (km/s) = 3.13066 3.52947 3.33603
# Velocity P-wave (km/s) = 4.77552 5.78593 5.30484
#
# Compressibility (1/GPa) = 0.05982435
#
# Stress axis : x y z
#
# Youngs Moduli (GPa) = 19.91835 45.89127 102.41927
#
# Poissons Ratio (x) = 0.24886 0.10309
# Poissons Ratio (y) = 0.10801 0.46478
# Poissons Ratio (z) = 0.02005 0.20826
#
# Static dielectric constant tensor:
#      x y z
#    x 1.557960 0.000000 0.000000 
#    y 0.000000 1.567200 0.000000 
#    z 0.000000 0.000000 1.600540 
# 
# From -- ./inp_files/11628.got.cif
#   From: 2010.05.17/outbox.cif.g08.bks.cpg/sg59_6_cif.got.tgz:11628.got - 2010.06.03 14:40:33.
