data_PCOD9449010
_publ_section_title
;
Structure prediction by ZEFSAII (Michael W. Deem and Ramdas Pophale) SiO2 
 PCOD9449010
Probable space group: P M M N
;
_chemical_formula_sum "Si O2"
_cell_formula_units_Z 64
_cell_length_a 8.880176
_cell_length_b 31.604540
_cell_length_c 11.947647
_cell_angle_alpha 90.000000
_cell_angle_beta 90.000000
_cell_angle_gamma 90.000000
_cell_volume 3353.153459
_symmetry_space_group_name_H-M "P M M N"
_symmetry_group_IT_number 59
_space_group.IT_coordinate_system_code '2'
_symmetry_cell_setting 'orthorhombic'
loop_
_space_group_symop_operation_xyz
x,y,z
1/2-x,1/2-y,z
1/2+x,-y,-z
-x,1/2+y,-z
-x,-y,-z
1/2+x,1/2+y,-z
1/2-x,y,z
x,1/2-y,z
loop_
_atom_site_type_symbol
_atom_site_label
_atom_site_fract_x
_atom_site_fract_y
_atom_site_fract_z
Si Si1 0.070727 0.623027 0.365339
Si Si2 0.575388 0.864060 0.127228
Si Si3 0.428474 0.034211 0.582821
Si Si4 0.924379 0.067454 0.008923
Si Si5 0.573132 0.994983 0.162915
Si Si6 0.577329 0.301223 0.267033
Si Si7 0.074882 0.800505 0.983097
Si Si8 0.429361 0.299676 0.500064
O O1 0.250000 0.622077 0.373028
O O2 0.018318 0.622876 0.236040
O O3 0.002518 0.580740 0.421674
O O4 0.008069 0.666215 0.420113
O O5 0.750000 0.867157 0.154704
O O6 0.530903 0.894351 0.024269
O O7 0.526368 0.818732 0.081310
O O8 0.250000 0.038056 0.562733
O O9 0.500000 0.000000 0.500000
O O10 0.449866 0.016407 0.708789
O O11 0.750000 0.080096 0.002163
O O12 0.950154 0.043547 0.126073
O O13 0.963440 0.032700 0.913961
O O14 0.750000 0.985245 0.135328
O O15 0.750000 0.315561 0.285860
O O16 0.581097 0.250000 0.262946
O O17 0.529424 0.314933 0.142537
O O18 0.475206 0.311738 0.372843
O O19 0.250000 0.813116 0.999506
O O20 0.069501 0.750000 0.984202
O O21 0.250000 0.302016 0.514112
O O22 0.474374 0.250000 0.518283
#
# Coordination Sequence:
#
# PCOD9449010 Si02
#       8
#     8   8   8   8   8   8   8   8
#     4  12  25  42  64  88 117 160 208 253 304 362
#     4  12  24  38  57  84 120 158 195 245 304 358
#     4  11  23  42  65  90 123 161 201 247 302 362
#     4  10  19  34  59  87 113 147 191 236 286 348
#     4   9  19  36  60  87 115 148 188 237 288 341
#     4   8  15  32  58  84 112 149 192 239 291 348
#     4   9  19  37  60  86 117 156 200 243 291 350
#     4  10  21  38  62  92 125 161 202 251 306 362
#
# _framework density 19.086510000000001
#
# number of rings (size 3 to 8) (size 9 to 14) (size 15 to 20)
#    0.000    1.875    1.250    4.125    0.000    3.000 
#    2.250    1.250    0.000    0.000    0.000    0.000 
#    0.000    0.000    0.000    0.000    0.000    0.000 
#
# Total GULP energy -357111.933981 kJ/mol
# GULP energy per Si atom -5579.873968 kJ/mol
# Density = 1.904307 g / cm^3
# Si number density = 19.086510 Si / 1000 Ang^3
#
#
#
# Elastic Constant Matrix: (Units=GPa)
#
#
# Indices 1 2 3 4 5 6 
#
# 1 93.7549 49.7332 37.3233 0.0000 0.0000 0.0000
# 2 49.7332 92.8831 45.9182 0.0000 0.0000 0.0000
# 3 37.3233 45.9182 51.0989 0.0000 0.0000 0.0000
# 4 0.0000 0.0000 0.0000 31.1214 0.0000 0.0000
# 5 0.0000 0.0000 0.0000 0.0000 22.6861 0.0000
# 6 0.0000 0.0000 0.0000 0.0000 0.0000 31.0713
#
#
#
# Elastic Compliance Matrix: (Units=1/GPa)
#
#
# Indices 1 2 3 4 5 6 
#
# 1 0.016283 -0.005108 -0.007303 0.000000 0.000000 0.000000
# 2 -0.005108 0.020975 -0.015117 0.000000 0.000000 0.000000
# 3 -0.007303 -0.015117 0.038489 0.000000 0.000000 0.000000
# 4 0.000000 0.000000 0.000000 0.032132 0.000000 0.000000
# 5 0.000000 0.000000 0.000000 0.000000 0.044080 0.000000
# 6 0.000000 0.000000 0.000000 0.000000 0.000000 0.032184
#
#
# Mechanical properties :
#
#
# Convention : Reuss Voigt Hill
#
# Bulk Modulus (GPa) = 48.33329 55.96514 52.14921
# Shear Modulus (GPa) = 20.31726 23.95989 22.13858
#
# Velocity S-wave (km/s) = 3.26618 3.54691 3.40944
# Velocity P-wave (km/s) = 6.29303 6.79408 6.54835
#
# Compressibility (1/GPa) = 0.02068967
#
# Stress axis : x y z
#
# Youngs Moduli (GPa) = 61.41315 47.67645 25.98168
#
# Poissons Ratio (x) = 0.24354 0.18975
# Poissons Ratio (y) = 0.31371 0.39277
# Poissons Ratio (z) = 0.44851 0.72073
#
# Static dielectric constant tensor:
#      x y z
#    x 1.648360 0.000000 0.000000 
#    y 0.000000 1.706380 0.000000 
#    z 0.000000 0.000000 1.657260 
# 
# From -- ./inp_files/15076.got.cif
#   From: 2010.05.17/outbox.cif.g08.bks.cpg/sg59_8_cif.got.tgz:15076.got - 2010.06.03 14:40:33.
