data_PCOD9449707
_publ_section_title
;
Structure prediction by ZEFSAII (Michael W. Deem and Ramdas Pophale) SiO2 
 PCOD9449707
Probable space group: P M M N
;
_chemical_formula_sum "Si O2"
_cell_formula_units_Z 64
_cell_length_a 19.313504
_cell_length_b 9.032253
_cell_length_c 22.056211
_cell_angle_alpha 90.000000
_cell_angle_beta 90.000000
_cell_angle_gamma 90.000000
_cell_volume 3847.583695
_symmetry_space_group_name_H-M "P M M N"
_symmetry_group_IT_number 59
_space_group.IT_coordinate_system_code '2'
_symmetry_cell_setting 'orthorhombic'
loop_
_space_group_symop_operation_xyz
x,y,z
1/2-x,1/2-y,z
1/2+x,-y,-z
-x,1/2+y,-z
-x,-y,-z
1/2+x,1/2+y,-z
1/2-x,y,z
x,1/2-y,z
loop_
_atom_site_type_symbol
_atom_site_label
_atom_site_fract_x
_atom_site_fract_y
_atom_site_fract_z
Si Si1 0.891947 0.418457 0.484524
Si Si2 0.038373 0.081925 0.412023
Si Si3 0.965334 0.573774 0.304363
Si Si4 0.330284 0.575440 0.010039
Si Si5 0.328565 0.571126 0.640099
Si Si6 0.042983 0.573932 0.820018
Si Si7 0.169581 0.075578 0.878318
Si Si8 0.459596 0.426602 0.056388
O O1 0.875063 0.250000 0.502335
O O2 0.903192 0.518954 0.543174
O O3 0.840274 0.467071 0.431123
O O4 0.966735 0.415184 0.450730
O O5 0.052839 0.250000 0.393088
O O6 0.019718 0.980130 0.355081
O O7 0.961310 0.750000 0.302660
O O8 0.890048 0.507305 0.323275
O O9 0.984701 0.506357 0.239491
O O10 0.250000 0.559851 0.027809
O O11 0.346069 0.750000 0.003810
O O12 0.383542 0.497241 0.054771
O O13 0.338646 0.497403 0.944650
O O14 0.250000 0.534633 0.658677
O O15 0.337763 0.750000 0.644820
O O16 0.045841 0.750000 0.810760
O O17 0.118895 0.508928 0.833484
O O18 0.998671 0.543767 0.880637
O O19 0.250000 0.060525 0.861078
O O20 0.152609 0.250000 0.881188
O O21 0.456735 0.250000 0.047513
O O22 0.500000 0.500000 0.000000
#
# Coordination Sequence:
#
# PCOD9449707 Si02
#       8
#     8   8   8   8   8   8   8   8
#     4   8  14  25  44  70  95 121 157 198 239 281
#     4   9  16  28  46  67  93 123 156 197 243 288
#     4  11  22  34  49  69  96 131 170 212 251 296
#     4  10  20  34  53  77 104 133 164 201 252 313
#     4   9  18  33  51  71 100 138 174 207 244 289
#     4  11  23  37  52  72  99 135 175 215 263 319
#     4  10  20  33  50  72  98 130 169 211 253 301
#     4  11  22  35  55  79 104 133 168 216 271 321
#
# _framework density 16.633815999999999
#
# number of rings (size 3 to 8) (size 9 to 14) (size 15 to 20)
#    0.000    2.125    1.250    3.750    0.000    6.750 
#    0.000    0.000    0.000    0.000    0.000    0.875 
#    0.000    5.000    0.000    0.000    0.000    0.000 
#
# Total GULP energy -357018.719185 kJ/mol
# GULP energy per Si atom -5578.417487 kJ/mol
# Density = 1.659596 g / cm^3
# Si number density = 16.633816 Si / 1000 Ang^3
#
#
#
# Elastic Constant Matrix: (Units=GPa)
#
#
# Indices 1 2 3 4 5 6 
#
# 1 28.6467 25.8380 22.2665 0.0000 0.0000 0.0000
# 2 25.8380 95.5519 59.1874 0.0000 0.0000 0.0000
# 3 22.2665 59.1874 87.5699 0.0000 0.0000 0.0000
# 4 0.0000 0.0000 0.0000 28.8521 0.0000 0.0000
# 5 0.0000 0.0000 0.0000 0.0000 16.2431 0.0000
# 6 0.0000 0.0000 0.0000 0.0000 0.0000 22.7612
#
#
#
# Elastic Compliance Matrix: (Units=1/GPa)
#
#
# Indices 1 2 3 4 5 6 
#
# 1 0.047871 -0.009297 -0.005888 0.000000 0.000000 0.000000
# 2 -0.009297 0.019808 -0.011024 0.000000 0.000000 0.000000
# 3 -0.005888 -0.011024 0.020368 0.000000 0.000000 0.000000
# 4 0.000000 0.000000 0.000000 0.034660 0.000000 0.000000
# 5 0.000000 0.000000 0.000000 0.000000 0.061565 0.000000
# 6 0.000000 0.000000 0.000000 0.000000 0.000000 0.043934
#
#
# Mechanical properties :
#
#
# Convention : Reuss Voigt Hill
#
# Bulk Modulus (GPa) = 28.06831 47.37247 37.72039
# Shear Modulus (GPa) = 17.09403 20.53639 18.81521
#
# Velocity S-wave (km/s) = 3.20920 3.51752 3.36689
# Velocity P-wave (km/s) = 5.53560 6.71109 6.15149
#
# Compressibility (1/GPa) = 0.03562737
#
# Stress axis : x y z
#
# Youngs Moduli (GPa) = 20.88965 50.48416 49.09749
#
# Poissons Ratio (x) = 0.46937 0.28909
# Poissons Ratio (y) = 0.19422 0.54125
# Poissons Ratio (z) = 0.12300 0.55654
#
# Static dielectric constant tensor:
#      x y z
#    x 1.568080 0.000000 0.000000 
#    y 0.000000 1.559790 0.000000 
#    z 0.000000 0.000000 1.564720 
# 
# From -- ./inp_files/31022.got.cif
#   From: 2010.05.17/outbox.cif.g08.bks.cpg/sg59_16_cif.got.tgz:31022.got - 2010.06.03 14:40:33.
