data_PCOD9449106
_publ_section_title
;
Structure prediction by ZEFSAII (Michael W. Deem and Ramdas Pophale) SiO2 
 PCOD9449106
Probable space group: P M M N
;
_chemical_formula_sum "Si O2"
_cell_formula_units_Z 48
_cell_length_a 16.098349
_cell_length_b 8.603118
_cell_length_c 19.527596
_cell_angle_alpha 90.000000
_cell_angle_beta 90.000000
_cell_angle_gamma 90.000000
_cell_volume 2704.493859
_symmetry_space_group_name_H-M "P M M N"
_symmetry_group_IT_number 59
_space_group.IT_coordinate_system_code '2'
_symmetry_cell_setting 'orthorhombic'
loop_
_space_group_symop_operation_xyz
x,y,z
1/2-x,1/2-y,z
1/2+x,-y,-z
-x,1/2+y,-z
-x,-y,-z
1/2+x,1/2+y,-z
1/2-x,y,z
x,1/2-y,z
loop_
_atom_site_type_symbol
_atom_site_label
_atom_site_fract_x
_atom_site_fract_y
_atom_site_fract_z
Si Si1 0.250000 0.427280 0.044259
Si Si2 0.498086 0.936267 0.666050
Si Si3 0.569795 0.937690 0.949763
Si Si4 0.427268 0.565655 0.202972
Si Si5 0.657258 0.561139 0.578691
Si Si6 0.655462 0.562555 0.418950
Si Si7 0.750000 0.573378 0.789479
O O1 0.250000 0.250000 0.018235
O O2 0.338930 0.497803 0.026400
O O3 0.250000 0.420505 0.127331
O O4 0.501364 0.750000 0.670641
O O5 0.579120 0.991575 0.623071
O O6 0.507195 0.007575 0.741298
O O7 0.415266 0.987469 0.627079
O O8 0.571810 0.750000 0.949984
O O9 0.557423 0.992968 0.871800
O O10 0.500000 0.000000 0.000000
O O11 0.427418 0.750000 0.197195
O O12 0.336057 0.508899 0.228147
O O13 0.750000 0.509415 0.600802
O O14 0.657934 0.750000 0.581125
O O15 0.645380 0.518051 0.498967
O O16 0.750000 0.520963 0.398792
O O17 0.648392 0.750000 0.415335
O O18 0.750000 0.750000 0.762786
#
# Coordination Sequence:
#
# PCOD9449106 Si02
#       7
#     4   8   8   8   8   8   4
#     4   7  14  29  51  77 105 137 170 201 250 313
#     4  11  21  32  52  79 108 142 180 225 275 323
#     4  10  19  35  58  83 111 145 182 223 269 319
#     4  11  22  35  52  79 112 146 184 223 268 325
#     4   8  16  31  51  77 106 140 179 216 267 330
#     4   9  18  35  56  74  99 138 183 228 275 327
#     4   9  17  33  53  75 107 143 174 213 266 323
#
# _framework density 17.748237
#
# number of rings (size 3 to 8) (size 9 to 14) (size 15 to 20)
#    0.000    2.500    0.000    5.250    1.167    0.333 
#    0.000    2.083    1.833    2.000    0.000    0.000 
#    0.000    0.000    0.000    0.000    0.000    0.000 
#
# Total GULP energy -267735.010939 kJ/mol
# GULP energy per Si atom -5577.812728 kJ/mol
# Density = 1.770784 g / cm^3
# Si number density = 17.748237 Si / 1000 Ang^3
#
#
#
# Elastic Constant Matrix: (Units=GPa)
#
#
# Indices 1 2 3 4 5 6 
#
# 1 136.7153 36.4333 77.4403 0.0000 0.0000 0.0000
# 2 36.4333 65.6528 30.7882 0.0000 0.0000 0.0000
# 3 77.4403 30.7882 86.7962 0.0000 0.0000 0.0000
# 4 0.0000 0.0000 0.0000 20.1590 0.0000 0.0000
# 5 0.0000 0.0000 0.0000 0.0000 28.8480 0.0000
# 6 0.0000 0.0000 0.0000 0.0000 0.0000 29.4441
#
#
#
# Elastic Compliance Matrix: (Units=1/GPa)
#
#
# Indices 1 2 3 4 5 6 
#
# 1 0.015116 -0.002476 -0.012609 0.000000 0.000000 0.000000
# 2 -0.002476 0.018676 -0.004416 0.000000 0.000000 0.000000
# 3 -0.012609 -0.004416 0.024337 0.000000 0.000000 0.000000
# 4 0.000000 0.000000 0.000000 0.049606 0.000000 0.000000
# 5 0.000000 0.000000 0.000000 0.000000 0.034664 0.000000
# 6 0.000000 0.000000 0.000000 0.000000 0.000000 0.033963
#
#
# Mechanical properties :
#
#
# Convention : Reuss Voigt Hill
#
# Bulk Modulus (GPa) = 52.27630 64.27644 58.27637
# Shear Modulus (GPa) = 22.54897 25.32370 23.93633
#
# Velocity S-wave (km/s) = 3.56826 3.78144 3.67639
# Velocity P-wave (km/s) = 6.81872 7.44043 7.13635
#
# Compressibility (1/GPa) = 0.01912913
#
# Stress axis : x y z
#
# Youngs Moduli (GPa) = 66.15430 53.54339 41.08940
#
# Poissons Ratio (x) = 0.13256 0.51808
# Poissons Ratio (y) = 0.16378 0.18145
# Poissons Ratio (z) = 0.83411 0.23645
#
# Static dielectric constant tensor:
#      x y z
#    x 1.619420 0.000000 0.000000 
#    y 0.000000 1.605860 0.000000 
#    z 0.000000 0.000000 1.591770 
# 
# From -- ./inp_files/27427.got.cif
#   From: 2010.05.17/outbox.cif.g08.bks.cpg/sg59_14_cif.got.tgz:27427.got - 2010.06.03 14:40:33.
