data_PCOD9449941
_publ_section_title
;
Structure prediction by ZEFSAII (Michael W. Deem and Ramdas Pophale) SiO2 
 PCOD9449941
Probable space group: P M M N
;
_chemical_formula_sum "Si O2"
_cell_formula_units_Z 56
_cell_length_a 24.747592
_cell_length_b 8.869521
_cell_length_c 14.134588
_cell_angle_alpha 90.000000
_cell_angle_beta 90.000000
_cell_angle_gamma 90.000000
_cell_volume 3102.531987
_symmetry_space_group_name_H-M "P M M N"
_symmetry_group_IT_number 59
_space_group.IT_coordinate_system_code '2'
_symmetry_cell_setting 'orthorhombic'
loop_
_space_group_symop_operation_xyz
x,y,z
1/2-x,1/2-y,z
1/2+x,-y,-z
-x,1/2+y,-z
-x,-y,-z
1/2+x,1/2+y,-z
1/2-x,y,z
x,1/2-y,z
loop_
_atom_site_type_symbol
_atom_site_label
_atom_site_fract_x
_atom_site_fract_y
_atom_site_fract_z
Si Si1 0.584419 0.930827 0.167737
Si Si2 0.523325 0.930811 0.783148
Si Si3 0.127168 0.070517 0.335084
Si Si4 0.187832 0.569916 0.507906
Si Si5 0.188521 0.928810 0.160599
Si Si6 0.414981 0.570739 0.039057
Si Si7 0.688890 0.568436 0.285399
O O1 0.581127 0.750000 0.163407
O O2 0.641921 0.975060 0.212844
O O3 0.535053 0.995594 0.229307
O O4 0.578316 0.999156 0.063317
O O5 0.519362 0.750000 0.788407
O O6 0.567332 0.970709 0.702757
O O7 0.547454 0.994112 0.881776
O O8 0.129443 0.250000 0.345251
O O9 0.146635 0.993927 0.431052
O O10 0.167306 0.018191 0.251471
O O11 0.250000 0.529929 0.480458
O O12 0.184225 0.750000 0.511343
O O13 0.178601 0.502548 0.611854
O O14 0.250000 0.968246 0.136948
O O15 0.186309 0.750000 0.183313
O O16 0.146178 0.954320 0.076335
O O17 0.425660 0.750000 0.036427
O O18 0.750000 0.525213 0.255888
O O19 0.687564 0.750000 0.294405
#
# Coordination Sequence:
#
# PCOD9449941 Si02
#       7
#     8   8   8   8   8   8   8
#     4  11  22  36  56  79 103 135 174 215 262 310
#     4  10  21  37  55  77 106 138 176 218 257 304
#     4  10  20  33  52  78 106 138 174 212 257 309
#     4  10  20  34  55  82 109 138 172 211 256 307
#     4   9  18  32  49  73 106 140 174 213 258 308
#     4  10  20  34  53  76 105 141 178 217 260 307
#     4   9  20  39  59  79 105 136 172 215 259 306
#
# _framework density 18.049773999999999
#
# number of rings (size 3 to 8) (size 9 to 14) (size 15 to 20)
#    0.000    2.143    0.000    3.000    0.000    6.857 
#    0.000    0.714    0.000    0.000    0.000    0.000 
#    0.000    0.000    0.000    0.000    0.000    0.000 
#
# Total GULP energy -312648.760220 kJ/mol
# GULP energy per Si atom -5583.013575 kJ/mol
# Density = 1.800869 g / cm^3
# Si number density = 18.049774 Si / 1000 Ang^3
#
#
#
# Elastic Constant Matrix: (Units=GPa)
#
#
# Indices 1 2 3 4 5 6 
#
# 1 113.6159 32.2828 33.4450 0.0000 0.0000 0.0000
# 2 32.2828 35.6048 16.3056 0.0000 0.0000 0.0000
# 3 33.4450 16.3056 47.1919 0.0000 0.0000 0.0000
# 4 0.0000 0.0000 0.0000 22.9177 0.0000 0.0000
# 5 0.0000 0.0000 0.0000 0.0000 16.3582 0.0000
# 6 0.0000 0.0000 0.0000 0.0000 0.0000 24.0315
#
#
#
# Elastic Compliance Matrix: (Units=1/GPa)
#
#
# Indices 1 2 3 4 5 6 
#
# 1 0.013231 -0.009150 -0.006215 0.000000 0.000000 0.000000
# 2 -0.009150 0.039694 -0.007230 0.000000 0.000000 0.000000
# 3 -0.006215 -0.007230 0.028093 0.000000 0.000000 0.000000
# 4 0.000000 0.000000 0.000000 0.043634 0.000000 0.000000
# 5 0.000000 0.000000 0.000000 0.000000 0.061131 0.000000
# 6 0.000000 0.000000 0.000000 0.000000 0.000000 0.041612
#
#
# Mechanical properties :
#
#
# Convention : Reuss Voigt Hill
#
# Bulk Modulus (GPa) = 27.91226 40.05325 33.98275
# Shear Modulus (GPa) = 17.57290 20.28677 18.92983
#
# Velocity S-wave (km/s) = 3.12361 3.35615 3.24197
# Velocity P-wave (km/s) = 5.33918 6.10385 5.73427
#
# Compressibility (1/GPa) = 0.03582655
#
# Stress axis : x y z
#
# Youngs Moduli (GPa) = 75.57916 25.19295 35.59603
#
# Poissons Ratio (x) = 0.23052 0.22124
# Poissons Ratio (y) = 0.69157 0.25736
# Poissons Ratio (z) = 0.46975 0.18214
#
# Static dielectric constant tensor:
#      x y z
#    x 1.643530 0.000000 0.000000 
#    y 0.000000 1.603110 0.000000 
#    z 0.000000 0.000000 1.580870 
# 
# From -- ./inp_files/24263.got.cif
#   From: 2010.05.17/outbox.cif.g08.bks.cpg/sg59_13_cif.got.tgz:24263.got - 2010.06.03 14:40:33.
