data_PCOD9449936
_publ_section_title
;
Structure prediction by ZEFSAII (Michael W. Deem and Ramdas Pophale) SiO2 
 PCOD9449936
Probable space group: P M M N
;
_chemical_formula_sum "Si O2"
_cell_formula_units_Z 64
_cell_length_a 19.206879
_cell_length_b 7.403191
_cell_length_c 20.841055
_cell_angle_alpha 90.000000
_cell_angle_beta 90.000000
_cell_angle_gamma 90.000000
_cell_volume 2963.435331
_symmetry_space_group_name_H-M "P M M N"
_symmetry_group_IT_number 59
_space_group.IT_coordinate_system_code '2'
_symmetry_cell_setting 'orthorhombic'
loop_
_space_group_symop_operation_xyz
x,y,z
1/2-x,1/2-y,z
1/2+x,-y,-z
-x,1/2+y,-z
-x,-y,-z
1/2+x,1/2+y,-z
1/2-x,y,z
x,1/2-y,z
loop_
_atom_site_type_symbol
_atom_site_label
_atom_site_fract_x
_atom_site_fract_y
_atom_site_fract_z
Si Si1 0.576816 0.034988 0.974052
Si Si2 0.329975 0.969027 0.908323
Si Si3 0.421109 0.033805 0.523622
Si Si4 0.168115 0.029068 0.647645
Si Si5 0.329858 0.030005 0.406575
Si Si6 0.830199 0.531530 0.735553
Si Si7 0.448941 0.958178 0.166471
Si Si8 0.408640 0.459272 0.776795
O O1 0.590725 0.250000 0.970011
O O2 0.629323 0.965750 0.028398
O O3 0.574586 0.961407 0.901663
O O4 0.500000 0.000000 0.000000
O O5 0.250000 0.023353 0.911031
O O6 0.333581 0.750000 0.907461
O O7 0.364201 0.031202 0.841964
O O8 0.414890 0.250000 0.526775
O O9 0.384904 0.971430 0.590300
O O10 0.374691 0.963714 0.465104
O O11 0.500000 0.000000 0.500000
O O12 0.250000 0.973455 0.640102
O O13 0.170239 0.250000 0.647319
O O14 0.134547 0.968614 0.715747
O O15 0.250000 0.976976 0.414210
O O16 0.331704 0.250000 0.407271
O O17 0.353145 0.974622 0.335750
O O18 0.750000 0.476001 0.745270
O O19 0.831264 0.750000 0.737686
O O20 0.883210 0.461648 0.787458
O O21 0.469148 0.750000 0.152204
O O22 0.516108 0.039053 0.202864
O O23 0.421636 0.250000 0.759525
#
# Coordination Sequence:
#
# PCOD9449936 Si02
#       8
#     8   8   8   8   8   8   8   8
#     4  10  20  36  55  76 103 138 177 215 257 310
#     4  10  21  36  55  80 107 137 175 219 267 316
#     4  10  20  33  52  78 105 135 172 215 260 308
#     4   9  18  33  54  78 105 140 179 217 258 307
#     4   8  15  31  54  75  97 131 176 216 248 294
#     4   9  19  35  54  77 104 136 177 220 258 304
#     4  10  21  34  53  80 110 141 172 212 266 321
#     4  10  20  35  55  81 109 140 178 218 260 313
#
# _framework density 21.596558000000002
#
# number of rings (size 3 to 8) (size 9 to 14) (size 15 to 20)
#    0.000    2.500    1.250    1.500    1.750    4.000 
#    0.000    1.875    0.000    3.000    0.000    0.000 
#    0.000    0.000    0.000    0.000    0.000    0.000 
#
# Total GULP energy -357028.385779 kJ/mol
# GULP energy per Si atom -5578.568528 kJ/mol
# Density = 2.154740 g / cm^3
# Si number density = 21.596558 Si / 1000 Ang^3
#
#
#
# Elastic Constant Matrix: (Units=GPa)
#
#
# Indices 1 2 3 4 5 6 
#
# 1 121.3893 -4.8389 123.1615 0.0000 0.0000 0.0000
# 2 -4.8389 69.4812 0.0267 0.0000 0.0000 0.0000
# 3 123.1615 0.0267 220.4799 0.0000 0.0000 0.0000
# 4 0.0000 0.0000 0.0000 -5.4594 0.0000 0.0000
# 5 0.0000 0.0000 0.0000 0.0000 45.9238 0.0000
# 6 0.0000 0.0000 0.0000 0.0000 0.0000 14.6255
#
#
#
# Elastic Compliance Matrix: (Units=1/GPa)
#
#
# Indices 1 2 3 4 5 6 
#
# 1 0.019138 0.001337 -0.010691 0.000000 0.000000 0.000000
# 2 0.001337 0.014486 -0.000749 0.000000 0.000000 0.000000
# 3 -0.010691 -0.000749 0.010508 0.000000 0.000000 0.000000
# 4 0.000000 0.000000 0.000000 -0.183169 0.000000 0.000000
# 5 0.000000 0.000000 0.000000 0.000000 0.021775 0.000000
# 6 0.000000 0.000000 0.000000 0.000000 0.000000 0.068374
#
#
# Mechanical properties :
#
#
# Convention : Reuss Voigt Hill
#
# Bulk Modulus (GPa) = 41.79450 72.00546 56.89998
# Shear Modulus (GPa) = -241.45484 30.55138 -105.45173
#
# Velocity S-wave (km/s) = -10.58514 3.76525 -6.99529
# Velocity P-wave (km/s) = 11.40172 7.23301 6.23229
#
# Compressibility (1/GPa) = 0.02392659
#
# Stress axis : x y z
#
# Youngs Moduli (GPa) = 52.25145 69.03324 95.16874
#
# Poissons Ratio (x) = -0.09229 1.01744
# Poissons Ratio (y) = -0.06986 0.07124
# Poissons Ratio (z) = 0.55861 0.05168
#
# Static dielectric constant tensor:
#      x y z
#    x 1.828520 0.000000 0.000000 
#    y 0.000000 1.847210 0.000000 
#    z 0.000000 0.000000 1.779770 
# 
# From -- ./inp_files/27661.got.cif
#   From: 2010.05.17/outbox.cif.g08.bks.cpg/sg59_14_cif.got.tgz:27661.got - 2010.06.03 14:40:33.
