data_PCOD9449036
_publ_section_title
;
Structure prediction by ZEFSAII (Michael W. Deem and Ramdas Pophale) SiO2 
 PCOD9449036
Probable space group: P M M N
;
_chemical_formula_sum "Si O2"
_cell_formula_units_Z 40
_cell_length_a 10.402359
_cell_length_b 8.956016
_cell_length_c 25.119719
_cell_angle_alpha 90.000000
_cell_angle_beta 90.000000
_cell_angle_gamma 90.000000
_cell_volume 2340.245805
_symmetry_space_group_name_H-M "P M M N"
_symmetry_group_IT_number 59
_space_group.IT_coordinate_system_code '2'
_symmetry_cell_setting 'orthorhombic'
loop_
_space_group_symop_operation_xyz
x,y,z
1/2-x,1/2-y,z
1/2+x,-y,-z
-x,1/2+y,-z
-x,-y,-z
1/2+x,1/2+y,-z
1/2-x,y,z
x,1/2-y,z
loop_
_atom_site_type_symbol
_atom_site_label
_atom_site_fract_x
_atom_site_fract_y
_atom_site_fract_z
Si Si1 0.900787 0.071330 0.541466
Si Si2 0.250000 0.070190 0.058241
Si Si3 0.597140 0.427915 0.761755
Si Si4 0.512829 0.430905 0.878558
Si Si5 0.750000 0.568927 0.065123
Si Si6 0.405826 0.420368 0.347272
O O1 0.750000 0.027800 0.532078
O O2 0.907296 0.250000 0.538670
O O3 0.937554 0.016099 0.600684
O O4 0.000000 0.000000 0.500000
O O5 0.250000 0.250000 0.060371
O O6 0.373681 0.005496 0.088114
O O7 0.250000 0.021862 0.996409
O O8 0.750000 0.457800 0.769173
O O9 0.583818 0.250000 0.753837
O O10 0.527379 0.470562 0.816406
O O11 0.550771 0.510697 0.708743
O O12 0.525465 0.250000 0.881949
O O13 0.377881 0.477418 0.903950
O O14 0.750000 0.750000 0.064892
O O15 0.250000 0.420078 0.344640
O O16 0.449429 0.250000 0.353668
#
# Coordination Sequence:
#
# PCOD9449036 Si02
#       6
#     8   4   8   8   4   8
#     4  10  20  34  54  80 110 143 179 219 260 307
#     4  11  21  33  51  79 105 131 170 217 260 307
#     4   9  16  28  48  73  97 126 168 215 259 305
#     4  10  19  35  55  75 100 136 174 212 259 313
#     4   9  20  35  53  75 103 135 172 213 258 313
#     4   9  17  29  48  75 104 135 170 214 264 307
#
# _framework density 17.092220999999999
#
# number of rings (size 3 to 8) (size 9 to 14) (size 15 to 20)
#    0.000    2.400    1.000    2.100    0.000    4.400 
#    0.000    1.500    2.200    0.000    0.000    0.000 
#    0.000    0.000    0.000    0.000    0.000    0.000 
#
# Total GULP energy -223064.463063 kJ/mol
# GULP energy per Si atom -5576.611577 kJ/mol
# Density = 1.705332 g / cm^3
# Si number density = 17.092221 Si / 1000 Ang^3
#
#
#
# Elastic Constant Matrix: (Units=GPa)
#
#
# Indices 1 2 3 4 5 6 
#
# 1 100.8411 38.7254 78.9354 0.0000 0.0000 0.0000
# 2 38.7254 50.0037 60.0533 0.0000 0.0000 0.0000
# 3 78.9354 60.0533 182.1261 0.0000 0.0000 0.0000
# 4 0.0000 0.0000 0.0000 31.0572 0.0000 0.0000
# 5 0.0000 0.0000 0.0000 0.0000 19.3760 0.0000
# 6 0.0000 0.0000 0.0000 0.0000 0.0000 4.4046
#
#
#
# Elastic Compliance Matrix: (Units=1/GPa)
#
#
# Indices 1 2 3 4 5 6 
#
# 1 0.016316 -0.006859 -0.004810 0.000000 0.000000 0.000000
# 2 -0.006859 0.035994 -0.008896 0.000000 0.000000 0.000000
# 3 -0.004810 -0.008896 0.010508 0.000000 0.000000 0.000000
# 4 0.000000 0.000000 0.000000 0.032199 0.000000 0.000000
# 5 0.000000 0.000000 0.000000 0.000000 0.051610 0.000000
# 6 0.000000 0.000000 0.000000 0.000000 0.000000 0.227033
#
#
# Mechanical properties :
#
#
# Convention : Reuss Voigt Hill
#
# Bulk Modulus (GPa) = 46.10627 76.48879 61.29753
# Shear Modulus (GPa) = 11.84780 21.31800 16.58290
#
# Velocity S-wave (km/s) = 2.63567 3.53545 3.11819
# Velocity P-wave (km/s) = 6.02461 7.84307 6.99320
#
# Compressibility (1/GPa) = 0.02168902
#
# Stress axis : x y z
#
# Youngs Moduli (GPa) = 61.29123 27.78228 95.16193
#
# Poissons Ratio (x) = 0.19057 0.45769
# Poissons Ratio (y) = 0.42042 0.84652
# Poissons Ratio (z) = 0.29478 0.24714
#
# Static dielectric constant tensor:
#      x y z
#    x 1.562290 0.000000 0.000000 
#    y 0.000000 1.577040 0.000000 
#    z 0.000000 0.000000 1.568780 
# 
# From -- ./inp_files/32421.got.cif
#   From: 2010.05.17/outbox.cif.g08.bks.cpg/sg59_17_cif.got.tgz:32421.got - 2010.06.03 14:40:33.
