data_PCOD9449249
_publ_section_title
;
Structure prediction by ZEFSAII (Michael W. Deem and Ramdas Pophale) SiO2 
 PCOD9449249
Probable space group: P M M N
;
_chemical_formula_sum "Si O2"
_cell_formula_units_Z 48
_cell_length_a 8.132874
_cell_length_b 16.466577
_cell_length_c 17.536423
_cell_angle_alpha 90.000000
_cell_angle_beta 90.000000
_cell_angle_gamma 90.000000
_cell_volume 2348.488219
_symmetry_space_group_name_H-M "P M M N"
_symmetry_group_IT_number 59
_space_group.IT_coordinate_system_code '2'
_symmetry_cell_setting 'orthorhombic'
loop_
_space_group_symop_operation_xyz
x,y,z
1/2-x,1/2-y,z
1/2+x,-y,-z
-x,1/2+y,-z
-x,-y,-z
1/2+x,1/2+y,-z
1/2-x,y,z
x,1/2-y,z
loop_
_atom_site_type_symbol
_atom_site_label
_atom_site_fract_x
_atom_site_fract_y
_atom_site_fract_z
Si Si1 0.549104 0.843606 0.507994
Si Si2 0.948508 0.343037 0.191528
Si Si3 0.445414 0.389761 0.660412
Si Si4 0.548200 0.750000 0.226897
Si Si5 0.444859 0.431279 0.340437
Si Si6 0.947054 0.750000 0.052158
Si Si7 0.446386 0.585984 0.964947
O O1 0.750000 0.846847 0.507963
O O2 0.503141 0.750000 0.520456
O O3 0.489796 0.871358 0.424723
O O4 0.491363 0.898354 0.578307
O O5 0.750000 0.347639 0.195979
O O6 0.992723 0.250000 0.173539
O O7 0.018407 0.369252 0.272627
O O8 0.005895 0.399965 0.122053
O O9 0.250000 0.375809 0.656273
O O10 0.507294 0.328133 0.724609
O O11 0.477677 0.482555 0.679565
O O12 0.750000 0.750000 0.224720
O O13 0.492829 0.750000 0.139760
O O14 0.250000 0.442119 0.347188
O O15 0.750000 0.750000 0.052184
O O16 0.002123 0.833356 0.011437
O O17 0.250000 0.585605 0.962821
O O18 0.500000 0.500000 0.000000
#
# Coordination Sequence:
#
# PCOD9449249 Si02
#       7
#     8   8   8   4   8   4   8
#     4   9  17  33  57  82 112 153 198 242 289 344
#     4  10  22  43  65  85 116 158 201 242 291 356
#     4  10  19  37  61  82 110 155 203 242 287 350
#     4   9  20  37  61  86 109 148 200 243 287 349
#     4  11  23  35  54  89 124 152 190 243 299 348
#     4  11  23  41  65  96 127 160 206 259 311 371
#     4  11  24  44  67  94 125 164 207 255 313 375
#
# _framework density 20.438680000000002
#
# number of rings (size 3 to 8) (size 9 to 14) (size 15 to 20)
#    0.000    1.833    1.667    2.250    2.333    2.333 
#    0.000    2.083    0.000    2.000    0.000    0.000 
#    0.000    0.000    0.000    0.000    0.000    0.000 
#
# Total GULP energy -268120.467008 kJ/mol
# GULP energy per Si atom -5585.843063 kJ/mol
# Density = 2.039216 g / cm^3
# Si number density = 20.438680 Si / 1000 Ang^3
#
#
#
# Elastic Constant Matrix: (Units=GPa)
#
#
# Indices 1 2 3 4 5 6 
#
# 1 10.6919 -1.7586 7.4402 0.0000 0.0000 0.0000
# 2 -1.7586 79.2721 12.3954 0.0000 0.0000 0.0000
# 3 7.4402 12.3954 107.2470 0.0000 0.0000 0.0000
# 4 0.0000 0.0000 0.0000 20.6075 0.0000 0.0000
# 5 0.0000 0.0000 0.0000 0.0000 21.2958 0.0000
# 6 0.0000 0.0000 0.0000 0.0000 0.0000 27.0090
#
#
#
# Elastic Compliance Matrix: (Units=1/GPa)
#
#
# Indices 1 2 3 4 5 6 
#
# 1 0.099131 0.003335 -0.007263 0.000000 0.000000 0.000000
# 2 0.003335 0.012959 -0.001729 0.000000 0.000000 0.000000
# 3 -0.007263 -0.001729 0.010028 0.000000 0.000000 0.000000
# 4 0.000000 0.000000 0.000000 0.048526 0.000000 0.000000
# 5 0.000000 0.000000 0.000000 0.000000 0.046958 0.000000
# 6 0.000000 0.000000 0.000000 0.000000 0.000000 0.037025
#
#
# Mechanical properties :
#
#
# Convention : Reuss Voigt Hill
#
# Bulk Modulus (GPa) = 9.02496 25.92947 17.47721
# Shear Modulus (GPa) = 16.50848 25.72473 21.11660
#
# Velocity S-wave (km/s) = 2.84510 3.55157 3.21778
# Velocity P-wave (km/s) = 3.90103 5.43435 4.73023
#
# Compressibility (1/GPa) = 0.11080379
#
# Stress axis : x y z
#
# Youngs Moduli (GPa) = 10.08769 77.16569 99.72112
#
# Poissons Ratio (x) = -0.25733 0.72423
# Poissons Ratio (y) = -0.03364 0.17243
# Poissons Ratio (z) = 0.07326 0.13343
#
# Static dielectric constant tensor:
#      x y z
#    x 1.741080 0.000000 0.000000 
#    y 0.000000 1.510230 0.000000 
#    z 0.000000 0.000000 1.730610 
# 
# From -- ./inp_files/25616.got.cif
#   From: 2010.05.17/outbox.cif.g08.bks.cpg/sg59_13_cif.got.tgz:25616.got - 2010.06.03 14:40:33.
