data_PCOD9449402
_publ_section_title
;
Structure prediction by ZEFSAII (Michael W. Deem and Ramdas Pophale) SiO2 
 PCOD9449402
Probable space group: P M M N
;
_chemical_formula_sum "Si O2"
_cell_formula_units_Z 48
_cell_length_a 9.578262
_cell_length_b 8.177684
_cell_length_c 32.591077
_cell_angle_alpha 90.000000
_cell_angle_beta 90.000000
_cell_angle_gamma 90.000000
_cell_volume 2552.793876
_symmetry_space_group_name_H-M "P M M N"
_symmetry_group_IT_number 59
_space_group.IT_coordinate_system_code '2'
_symmetry_cell_setting 'orthorhombic'
loop_
_space_group_symop_operation_xyz
x,y,z
1/2-x,1/2-y,z
1/2+x,-y,-z
-x,1/2+y,-z
-x,-y,-z
1/2+x,1/2+y,-z
1/2-x,y,z
x,1/2-y,z
loop_
_atom_site_type_symbol
_atom_site_label
_atom_site_fract_x
_atom_site_fract_y
_atom_site_fract_z
Si Si1 0.910095 0.447621 0.204114
Si Si2 0.089870 0.447678 0.460864
Si Si3 0.590480 0.554980 0.961547
Si Si4 0.590519 0.445065 0.872866
Si Si5 0.080012 0.560578 0.707091
Si Si6 0.088077 0.549553 0.617305
O O1 0.750000 0.502982 0.198304
O O2 0.907574 0.250000 0.206907
O O3 0.962265 0.510467 0.248757
O O4 0.002188 0.495570 0.165603
O O5 0.250000 0.505668 0.463312
O O6 0.092473 0.250000 0.459852
O O7 0.000000 0.500000 0.500000
O O8 0.011555 0.503381 0.419465
O O9 0.750000 0.491288 0.965147
O O10 0.595133 0.750000 0.961290
O O11 0.534124 0.498408 0.917329
O O12 0.500000 0.500000 0.000000
O O13 0.750000 0.508484 0.870004
O O14 0.594078 0.250000 0.872084
O O15 0.250000 0.562111 0.707736
O O16 0.033155 0.750000 0.706603
O O17 0.042486 0.489807 0.662629
O O18 0.250000 0.502373 0.610065
O O19 0.087009 0.750000 0.618586
#
# Coordination Sequence:
#
# PCOD9449402 Si02
#       6
#     8   8   8   8   8   8
#     4   9  17  30  50  76 102 127 159 200 242 285
#     4  10  20  32  47  69  96 125 159 199 242 290
#     4  10  21  37  57  79 102 130 165 204 247 295
#     4  10  21  36  52  71  99 135 170 203 241 285
#     4   7  11  22  42  68  95 121 152 192 237 284
#     4   8  13  24  44  67  91 121 155 193 239 287
#
# _framework density 18.802928000000001
#
# number of rings (size 3 to 8) (size 9 to 14) (size 15 to 20)
#    0.000    3.000    0.000    3.500    0.000    4.000 
#    0.000    0.833    0.000    4.000    0.000    2.333 
#    0.000    0.000    0.000    0.000    0.000    0.000 
#
# Total GULP energy -267441.499440 kJ/mol
# GULP energy per Si atom -5571.697905 kJ/mol
# Density = 1.876013 g / cm^3
# Si number density = 18.802928 Si / 1000 Ang^3
#
#
#
# Elastic Constant Matrix: (Units=GPa)
#
#
# Indices 1 2 3 4 5 6 
#
# 1 84.1345 9.7865 98.0937 0.0000 0.0000 0.0000
# 2 9.7865 13.9984 17.0739 0.0000 0.0000 0.0000
# 3 98.0937 17.0739 238.9230 0.0000 0.0000 0.0000
# 4 0.0000 0.0000 0.0000 21.7709 0.0000 0.0000
# 5 0.0000 0.0000 0.0000 0.0000 35.2602 0.0000
# 6 0.0000 0.0000 0.0000 0.0000 0.0000 17.4653
#
#
#
# Elastic Compliance Matrix: (Units=1/GPa)
#
#
# Indices 1 2 3 4 5 6 
#
# 1 0.023118 -0.005023 -0.009132 0.000000 0.000000 0.000000
# 2 -0.005023 0.079349 -0.003608 0.000000 0.000000 0.000000
# 3 -0.009132 -0.003608 0.008193 0.000000 0.000000 0.000000
# 4 0.000000 0.000000 0.000000 0.045933 0.000000 0.000000
# 5 0.000000 0.000000 0.000000 0.000000 0.028361 0.000000
# 6 0.000000 0.000000 0.000000 0.000000 0.000000 0.057257
#
#
# Mechanical properties :
#
#
# Convention : Reuss Voigt Hill
#
# Bulk Modulus (GPa) = 13.30985 65.21824 39.26405
# Shear Modulus (GPa) = 16.51361 29.03941 22.77651
#
# Velocity S-wave (km/s) = 2.96674 3.93416 3.48419
# Velocity P-wave (km/s) = 4.33928 7.44293 6.09207
#
# Compressibility (1/GPa) = 0.07513232
#
# Stress axis : x y z
#
# Youngs Moduli (GPa) = 43.25724 12.60252 122.05976
#
# Poissons Ratio (x) = 0.06330 1.11469
# Poissons Ratio (y) = 0.21729 0.44041
# Poissons Ratio (z) = 0.39504 0.04547
#
# Static dielectric constant tensor:
#      x y z
#    x 1.641910 0.000000 0.000000 
#    y 0.000000 1.676000 0.000000 
#    z 0.000000 0.000000 1.671510 
# 
# From -- ./inp_files/32913.got.cif
#   From: 2010.05.17/outbox.cif.g08.bks.cpg/sg59_17_cif.got.tgz:32913.got - 2010.06.03 14:40:33.
