data_PCOD9449670
_publ_section_title
;
Structure prediction by ZEFSAII (Michael W. Deem and Ramdas Pophale) SiO2 
 PCOD9449670
Probable space group: P M M N
;
_chemical_formula_sum "Si O2"
_cell_formula_units_Z 64
_cell_length_a 8.554060
_cell_length_b 20.440813
_cell_length_c 20.828969
_cell_angle_alpha 90.000000
_cell_angle_beta 90.000000
_cell_angle_gamma 90.000000
_cell_volume 3641.985656
_symmetry_space_group_name_H-M "P M M N"
_symmetry_group_IT_number 59
_space_group.IT_coordinate_system_code '2'
_symmetry_cell_setting 'orthorhombic'
loop_
_space_group_symop_operation_xyz
x,y,z
1/2-x,1/2-y,z
1/2+x,-y,-z
-x,1/2+y,-z
-x,-y,-z
1/2+x,1/2+y,-z
1/2-x,y,z
x,1/2-y,z
loop_
_atom_site_type_symbol
_atom_site_label
_atom_site_fract_x
_atom_site_fract_y
_atom_site_fract_z
Si Si1 0.437053 0.575882 0.181977
Si Si2 0.438562 0.174098 0.924269
Si Si3 0.940171 0.573713 0.822503
Si Si4 0.937542 0.572127 0.323167
Si Si5 0.061137 0.325156 0.568853
Si Si6 0.562536 0.573553 0.676409
Si Si7 0.059246 0.175062 0.070440
Si Si8 0.437151 0.825296 0.572385
O O1 0.250000 0.576106 0.187221
O O2 0.490654 0.626151 0.128033
O O3 0.487010 0.501427 0.165188
O O4 0.506494 0.591333 0.251958
O O5 0.250000 0.169870 0.921420
O O6 0.480987 0.250000 0.912364
O O7 0.487091 0.157938 0.997499
O O8 0.750000 0.575412 0.823871
O O9 0.987551 0.590365 0.749556
O O10 0.996664 0.624233 0.876128
O O11 0.750000 0.569668 0.323795
O O12 0.990165 0.624507 0.376321
O O13 0.002377 0.499701 0.337137
O O14 0.250000 0.326574 0.566326
O O15 0.013427 0.250000 0.582671
O O16 0.997115 0.342891 0.498705
O O17 0.750000 0.572658 0.675004
O O18 0.501031 0.625413 0.625419
O O19 0.250000 0.174580 0.071203
O O20 0.011438 0.250000 0.083689
O O21 0.250000 0.827232 0.572671
O O22 0.487455 0.750000 0.584897
#
# Coordination Sequence:
#
# PCOD9449670 Si02
#       8
#     8   8   8   8   8   8   8   8
#     4  10  20  33  49  72 103 135 166 204 250 302
#     4   9  18  32  50  72  97 127 166 210 252 297
#     4   8  16  30  47  71 101 129 163 207 249 293
#     4  10  20  35  55  77 103 135 170 211 256 303
#     4   9  19  36  56  77 100 128 166 211 256 302
#     4  10  20  34  53  77 106 138 172 212 255 303
#     4   8  14  27  48  72  97 126 163 207 251 295
#     4  10  21  36  54  77 105 136 170 209 253 303
#
# _framework density 17.572831000000001
#
# number of rings (size 3 to 8) (size 9 to 14) (size 15 to 20)
#    0.000    2.750    0.000    3.000    0.000    4.000 
#    0.000    2.500    0.000    3.750    0.000    0.000 
#    0.000    0.000    0.000    0.000    0.000    0.000 
#
# Total GULP energy -356904.535870 kJ/mol
# GULP energy per Si atom -5576.633373 kJ/mol
# Density = 1.753283 g / cm^3
# Si number density = 17.572831 Si / 1000 Ang^3
#
#
#
# Elastic Constant Matrix: (Units=GPa)
#
#
# Indices 1 2 3 4 5 6 
#
# 1 23.2120 28.9159 34.5166 0.0000 0.0000 0.0000
# 2 28.9159 124.9716 137.5239 0.0000 0.0000 0.0000
# 3 34.5166 137.5239 178.5598 0.0000 0.0000 0.0000
# 4 0.0000 0.0000 0.0000 44.4728 0.0000 0.0000
# 5 0.0000 0.0000 0.0000 0.0000 19.3336 0.0000
# 6 0.0000 0.0000 0.0000 0.0000 0.0000 18.7769
#
#
#
# Elastic Compliance Matrix: (Units=1/GPa)
#
#
# Indices 1 2 3 4 5 6 
#
# 1 0.061522 -0.007529 -0.006094 0.000000 0.000000 0.000000
# 2 -0.007529 0.053407 -0.039678 0.000000 0.000000 0.000000
# 3 -0.006094 -0.039678 0.037338 0.000000 0.000000 0.000000
# 4 0.000000 0.000000 0.000000 0.022486 0.000000 0.000000
# 5 0.000000 0.000000 0.000000 0.000000 0.051723 0.000000
# 6 0.000000 0.000000 0.000000 0.000000 0.000000 0.053257
#
#
# Mechanical properties :
#
#
# Convention : Reuss Voigt Hill
#
# Bulk Modulus (GPa) = 21.89857 80.96182 51.43019
# Shear Modulus (GPa) = 12.45157 24.90246 18.67702
#
# Velocity S-wave (km/s) = 2.66478 3.76852 3.26365
# Velocity P-wave (km/s) = 4.68580 8.06894 6.59790
#
# Compressibility (1/GPa) = 0.04566509
#
# Stress axis : x y z
#
# Youngs Moduli (GPa) = 16.25437 18.72410 26.78269
#
# Poissons Ratio (x) = 0.14098 0.16320
# Poissons Ratio (y) = 0.12238 1.06268
# Poissons Ratio (z) = 0.09905 0.74293
#
# Static dielectric constant tensor:
#      x y z
#    x 1.598140 0.000000 0.000000 
#    y 0.000000 1.585760 0.000000 
#    z 0.000000 0.000000 1.577770 
# 
# From -- ./inp_files/26264.got.cif
#   From: 2010.05.17/outbox.cif.g08.bks.cpg/sg59_14_cif.got.tgz:26264.got - 2010.06.03 14:40:33.
