data_PCOD9449093
_publ_section_title
;
Structure prediction by ZEFSAII (Michael W. Deem and Ramdas Pophale) SiO2 
 PCOD9449093
Probable space group: P M M N
;
_chemical_formula_sum "Si O2"
_cell_formula_units_Z 48
_cell_length_a 31.901051
_cell_length_b 7.823668
_cell_length_c 9.235607
_cell_angle_alpha 90.000000
_cell_angle_beta 90.000000
_cell_angle_gamma 90.000000
_cell_volume 2305.052643
_symmetry_space_group_name_H-M "P M M N"
_symmetry_group_IT_number 59
_space_group.IT_coordinate_system_code '2'
_symmetry_cell_setting 'orthorhombic'
loop_
_space_group_symop_operation_xyz
x,y,z
1/2-x,1/2-y,z
1/2+x,-y,-z
-x,1/2+y,-z
-x,-y,-z
1/2+x,1/2+y,-z
1/2-x,y,z
x,1/2-y,z
loop_
_atom_site_type_symbol
_atom_site_label
_atom_site_fract_x
_atom_site_fract_y
_atom_site_fract_z
Si Si1 0.332888 0.960130 0.835355
Si Si2 0.082850 0.539781 0.335340
Si Si3 0.750000 0.043561 0.335325
Si Si4 0.834874 0.453199 0.834287
Si Si5 0.084866 0.546492 0.665929
Si Si6 0.499616 0.453708 0.831395
Si Si7 0.250000 0.048781 0.327478
O O1 0.332711 0.750000 0.836499
O O2 0.291694 0.014856 0.747941
O O3 0.374907 0.018611 0.754030
O O4 0.332189 0.019357 0.001607
O O5 0.082791 0.750000 0.335778
O O6 0.124960 0.481269 0.254129
O O7 0.082261 0.480860 0.501708
O O8 0.041421 0.482940 0.249754
O O9 0.750000 0.250000 0.331165
O O10 0.750000 0.992541 0.502566
O O11 0.841270 0.250000 0.847017
O O12 0.791889 0.480071 0.748417
O O13 0.090833 0.750000 0.654129
O O14 0.042226 0.516522 0.752756
O O15 0.499839 0.250000 0.820322
O O16 0.500000 0.500000 0.000000
O O17 0.250000 0.250000 0.308092
#
# Coordination Sequence:
#
# PCOD9449093 Si02
#       7
#     8   8   4   8   8   8   4
#     4   9  18  33  60  89 109 135 184 235 273 316
#     4   9  19  35  59  85 110 141 184 229 270 316
#     4  10  19  36  60  84 108 146 193 232 268 318
#     4  10  19  37  62  84 105 140 185 228 269 321
#     4  10  19  35  57  84 114 144 177 224 277 327
#     4  11  22  37  56  82 112 147 186 227 272 324
#     4  12  25  38  52  80 116 148 179 222 276 330
#
# _framework density 20.823819
#
# number of rings (size 3 to 8) (size 9 to 14) (size 15 to 20)
#    0.000    2.000    0.000    4.250    0.000    6.667 
#    0.000   10.000    0.000    0.000    0.000    0.000 
#    0.000    0.000    0.000    0.000    0.000    0.000 
#
# Total GULP energy -268281.469075 kJ/mol
# GULP energy per Si atom -5589.197272 kJ/mol
# Density = 2.077642 g / cm^3
# Si number density = 20.823819 Si / 1000 Ang^3
#
#
#
# Elastic Constant Matrix: (Units=GPa)
#
#
# Indices 1 2 3 4 5 6 
#
# 1 213.5119 -15.4938 127.0656 0.0000 0.0000 0.0000
# 2 -15.4938 14.9980 -9.1128 0.0000 0.0000 0.0000
# 3 127.0656 -9.1128 233.9239 0.0000 0.0000 0.0000
# 4 0.0000 0.0000 0.0000 6.2958 0.0000 0.0000
# 5 0.0000 0.0000 0.0000 0.0000 35.1266 0.0000
# 6 0.0000 0.0000 0.0000 0.0000 0.0000 19.4482
#
#
#
# Elastic Compliance Matrix: (Units=1/GPa)
#
#
# Indices 1 2 3 4 5 6 
#
# 1 0.007305 0.005260 -0.003763 0.000000 0.000000 0.000000
# 2 0.005260 0.072080 -0.000049 0.000000 0.000000 0.000000
# 3 -0.003763 -0.000049 0.006317 0.000000 0.000000 0.000000
# 4 0.000000 0.000000 0.000000 0.158836 0.000000 0.000000
# 5 0.000000 0.000000 0.000000 0.000000 0.028468 0.000000
# 6 0.000000 0.000000 0.000000 0.000000 0.000000 0.051419
#
#
# Mechanical properties :
#
#
# Convention : Reuss Voigt Hill
#
# Bulk Modulus (GPa) = 11.28711 74.15019 42.71865
# Shear Modulus (GPa) = 14.24253 36.17243 25.20748
#
# Velocity S-wave (km/s) = 2.61809 4.17234 3.48302
# Velocity P-wave (km/s) = 3.81723 7.67443 6.06086
#
# Compressibility (1/GPa) = 0.08859667
#
# Stress axis : x y z
#
# Youngs Moduli (GPa) = 136.89865 13.87356 158.30348
#
# Poissons Ratio (x) = -0.07297 0.59569
# Poissons Ratio (y) = -0.72006 0.00778
# Poissons Ratio (z) = 0.51514 0.00068
#
# Static dielectric constant tensor:
#      x y z
#    x 1.660640 0.000000 0.000000 
#    y 0.000000 1.784760 0.000000 
#    z 0.000000 0.000000 1.707800 
# 
# From -- ./inp_files/12998.got.cif
#   From: 2010.05.17/outbox.cif.g08.bks.cpg/sg59_7_cif.got.tgz:12998.got - 2010.06.03 14:40:33.
