data_PCOD9449089
_publ_section_title
;
Structure prediction by ZEFSAII (Michael W. Deem and Ramdas Pophale) SiO2 
 PCOD9449089
Probable space group: P M M N
;
_chemical_formula_sum "Si O2"
_cell_formula_units_Z 48
_cell_length_a 7.620869
_cell_length_b 19.179376
_cell_length_c 16.941917
_cell_angle_alpha 90.000000
_cell_angle_beta 90.000000
_cell_angle_gamma 90.000000
_cell_volume 2476.290089
_symmetry_space_group_name_H-M "P M M N"
_symmetry_group_IT_number 59
_space_group.IT_coordinate_system_code '2'
_symmetry_cell_setting 'orthorhombic'
loop_
_space_group_symop_operation_xyz
x,y,z
1/2-x,1/2-y,z
1/2+x,-y,-z
-x,1/2+y,-z
-x,-y,-z
1/2+x,1/2+y,-z
1/2-x,y,z
x,1/2-y,z
loop_
_atom_site_type_symbol
_atom_site_label
_atom_site_fract_x
_atom_site_fract_y
_atom_site_fract_z
Si Si1 0.750000 0.168105 0.894050
Si Si2 0.543168 0.578921 0.191041
Si Si3 0.538559 0.672482 0.498967
Si Si4 0.537447 0.560641 0.373207
Si Si5 0.750000 0.331949 0.082812
Si Si6 0.958562 0.094225 0.346289
Si Si7 0.550939 0.917206 0.831201
O O1 0.750000 0.250000 0.873955
O O2 0.580441 0.129499 0.858294
O O3 0.750000 0.161344 0.988489
O O4 0.750000 0.593471 0.181738
O O5 0.496506 0.584263 0.284096
O O6 0.507928 0.498273 0.167971
O O7 0.750000 0.673006 0.492425
O O8 0.474744 0.750000 0.479740
O O9 0.470510 0.613425 0.439211
O O10 0.493619 0.651621 0.588128
O O11 0.750000 0.559510 0.379003
O O12 0.477862 0.480555 0.380370
O O13 0.750000 0.250000 0.103168
O O14 0.581547 0.370345 0.119391
O O15 0.750000 0.088592 0.332299
O O16 0.041606 0.105172 0.260808
O O17 0.750000 0.912015 0.859751
#
# Coordination Sequence:
#
# PCOD9449089 Si02
#       7
#     4   8   8   8   4   8   8
#     4  11  26  44  64  97 134 168 205 255 322 384
#     4  10  20  41  68  97 127 164 214 263 313 372
#     4  10  20  33  49  78 116 156 205 250 296 357
#     4   8  17  34  58  82 112 154 201 253 304 355
#     4  11  26  46  64  93 136 166 201 261 322 384
#     4  10  19  35  57  82 117 155 201 257 306 358
#     4  11  21  41  69  96 123 162 215 263 314 377
#
# _framework density 19.383835999999999
#
# number of rings (size 3 to 8) (size 9 to 14) (size 15 to 20)
#    0.000    2.000    2.500    2.000    0.000    3.667 
#    1.500    3.333    0.000    0.000    0.000    0.000 
#    0.000    0.000    0.000    0.000    0.000    0.000 
#
# Total GULP energy -268150.465020 kJ/mol
# GULP energy per Si atom -5586.468021 kJ/mol
# Density = 1.933972 g / cm^3
# Si number density = 19.383836 Si / 1000 Ang^3
#
#
#
# Elastic Constant Matrix: (Units=GPa)
#
#
# Indices 1 2 3 4 5 6 
#
# 1 105.9084 31.0368 25.8609 0.0000 0.0000 0.0000
# 2 31.0368 69.3430 45.1187 0.0000 0.0000 0.0000
# 3 25.8609 45.1187 53.5873 0.0000 0.0000 0.0000
# 4 0.0000 0.0000 0.0000 103.0771 0.0000 0.0000
# 5 0.0000 0.0000 0.0000 0.0000 4.6288 0.0000
# 6 0.0000 0.0000 0.0000 0.0000 0.0000 21.5216
#
#
#
# Elastic Compliance Matrix: (Units=1/GPa)
#
#
# Indices 1 2 3 4 5 6 
#
# 1 0.011026 -0.003257 -0.002579 0.000000 0.000000 0.000000
# 2 -0.003257 0.032856 -0.026091 0.000000 0.000000 0.000000
# 3 -0.002579 -0.026091 0.041874 0.000000 0.000000 0.000000
# 4 0.000000 0.000000 0.000000 0.009701 0.000000 0.000000
# 5 0.000000 0.000000 0.000000 0.000000 0.216041 0.000000
# 6 0.000000 0.000000 0.000000 0.000000 0.000000 0.046465
#
#
# Mechanical properties :
#
#
# Convention : Reuss Voigt Hill
#
# Bulk Modulus (GPa) = 45.66032 48.09683 46.87858
# Shear Modulus (GPa) = 11.65181 34.30031 22.97606
#
# Velocity S-wave (km/s) = 2.45441 4.21114 3.44658
# Velocity P-wave (km/s) = 5.62487 6.96503 6.33052
#
# Compressibility (1/GPa) = 0.02190085
#
# Stress axis : x y z
#
# Youngs Moduli (GPa) = 90.69170 30.43618 23.88139
#
# Poissons Ratio (x) = 0.09914 0.06158
# Poissons Ratio (y) = 0.29542 0.62310
# Poissons Ratio (z) = 0.23386 0.79412
#
# Static dielectric constant tensor:
#      x y z
#    x 1.698660 0.000000 0.000000 
#    y 0.000000 1.663470 0.000000 
#    z 0.000000 0.000000 1.649380 
# 
# From -- ./inp_files/20565.got.cif
#   From: 2010.05.17/outbox.cif.g08.bks.cpg/sg59_11_cif.got.tgz:20565.got - 2010.06.03 14:40:33.
