data_PCOD9449764
_publ_section_title
;
Structure prediction by ZEFSAII (Michael W. Deem and Ramdas Pophale) SiO2 
 PCOD9449764
Probable space group: P M M N
;
_chemical_formula_sum "Si O2"
_cell_formula_units_Z 56
_cell_length_a 7.760778
_cell_length_b 24.885495
_cell_length_c 14.334092
_cell_angle_alpha 90.000000
_cell_angle_beta 90.000000
_cell_angle_gamma 90.000000
_cell_volume 2768.354686
_symmetry_space_group_name_H-M "P M M N"
_symmetry_group_IT_number 59
_space_group.IT_coordinate_system_code '2'
_symmetry_cell_setting 'orthorhombic'
loop_
_space_group_symop_operation_xyz
x,y,z
1/2-x,1/2-y,z
1/2+x,-y,-z
-x,1/2+y,-z
-x,-y,-z
1/2+x,1/2+y,-z
1/2-x,y,z
x,1/2-y,z
loop_
_atom_site_type_symbol
_atom_site_label
_atom_site_fract_x
_atom_site_fract_y
_atom_site_fract_z
Si Si1 0.954735 0.310195 0.772194
Si Si2 0.453525 0.584778 0.540357
Si Si3 0.959154 0.688625 0.646251
Si Si4 0.958288 0.811781 0.014983
Si Si5 0.956957 0.086135 0.666591
Si Si6 0.544657 0.026898 0.274464
Si Si7 0.955183 0.871010 0.833461
O O1 0.750000 0.307277 0.754977
O O2 0.026698 0.250000 0.756714
O O3 0.025238 0.358234 0.708915
O O4 0.978897 0.324003 0.881116
O O5 0.250000 0.572893 0.536979
O O6 0.477640 0.646984 0.568533
O O7 0.526375 0.574811 0.437625
O O8 0.527256 0.550795 0.627144
O O9 0.750000 0.687574 0.645718
O O10 0.014579 0.750000 0.633597
O O11 0.019633 0.664627 0.745942
O O12 0.750000 0.813985 0.018046
O O13 0.006824 0.750000 0.993098
O O14 0.022199 0.850320 0.932515
O O15 0.750000 0.091124 0.659257
O O16 0.993815 0.034925 0.730926
O O17 0.750000 0.030285 0.277722
O O18 0.487031 0.067339 0.193599
O O19 0.750000 0.862665 0.835697
#
# Coordination Sequence:
#
# PCOD9449764 Si02
#       7
#     8   8   8   8   8   8   8
#     4   9  19  35  53  74  99 126 160 202 243 286
#     4   9  19  33  49  71  98 130 167 205 244 289
#     4   9  17  29  46  71 102 132 162 198 241 290
#     4   9  17  31  53  78 101 128 163 201 242 289
#     4  10  20  35  54  72  94 130 169 200 240 293
#     4  10  20  33  50  75 103 127 160 206 248 286
#     4   9  17  31  51  73 100 133 164 195 238 294
#
# _framework density 20.228622000000001
#
# number of rings (size 3 to 8) (size 9 to 14) (size 15 to 20)
#    0.000    2.714    0.000    1.286    0.000    4.857 
#    0.000    2.143    0.000    4.286    0.000    0.000 
#    0.000    0.000    0.000    0.000    0.000    0.000 
#
# Total GULP energy -312399.333903 kJ/mol
# GULP energy per Si atom -5578.559534 kJ/mol
# Density = 2.018258 g / cm^3
# Si number density = 20.228622 Si / 1000 Ang^3
#
#
#
# Elastic Constant Matrix: (Units=GPa)
#
#
# Indices 1 2 3 4 5 6 
#
# 1 23.3555 -11.8978 -2.2727 0.0000 0.0000 0.0000
# 2 -11.8978 85.4674 17.7591 0.0000 0.0000 0.0000
# 3 -2.2727 17.7591 30.6937 0.0000 0.0000 0.0000
# 4 0.0000 0.0000 0.0000 22.0132 0.0000 0.0000
# 5 0.0000 0.0000 0.0000 0.0000 11.3704 0.0000
# 6 0.0000 0.0000 0.0000 0.0000 0.0000 17.2471
#
#
#
# Elastic Compliance Matrix: (Units=1/GPa)
#
#
# Indices 1 2 3 4 5 6 
#
# 1 0.046088 0.006487 -0.000341 0.000000 0.000000 0.000000
# 2 0.006487 0.014212 -0.007743 0.000000 0.000000 0.000000
# 3 -0.000341 -0.007743 0.037035 0.000000 0.000000 0.000000
# 4 0.000000 0.000000 0.000000 0.045427 0.000000 0.000000
# 5 0.000000 0.000000 0.000000 0.000000 0.087948 0.000000
# 6 0.000000 0.000000 0.000000 0.000000 0.000000 0.057981
#
#
# Mechanical properties :
#
#
# Convention : Reuss Voigt Hill
#
# Bulk Modulus (GPa) = 10.62235 16.29930 13.46083
# Shear Modulus (GPa) = 15.46724 19.18801 17.32762
#
# Velocity S-wave (km/s) = 2.76818 3.08321 2.92993
# Velocity P-wave (km/s) = 3.93442 4.55521 4.25615
#
# Compressibility (1/GPa) = 0.09414111
#
# Stress axis : x y z
#
# Youngs Moduli (GPa) = 21.69778 70.36204 27.00179
#
# Poissons Ratio (x) = -0.45641 0.00919
# Poissons Ratio (y) = -0.14074 0.20907
# Poissons Ratio (z) = 0.00739 0.54479
#
# Static dielectric constant tensor:
#      x y z
#    x 1.746430 0.000000 0.000000 
#    y 0.000000 1.717810 0.000000 
#    z 0.000000 0.000000 1.717170 
# 
# From -- ./inp_files/21029.got.cif
#   From: 2010.05.17/outbox.cif.g08.bks.cpg/sg59_11_cif.got.tgz:21029.got - 2010.06.03 14:40:33.
