data_PCOD9449846
_publ_section_title
;
Structure prediction by ZEFSAII (Michael W. Deem and Ramdas Pophale) SiO2 
 PCOD9449846
Probable space group: P M M N
;
_chemical_formula_sum "Si O2"
_cell_formula_units_Z 58
_cell_length_a 29.894883
_cell_length_b 7.353552
_cell_length_c 12.651971
_cell_angle_alpha 90.000000
_cell_angle_beta 90.000000
_cell_angle_gamma 90.000000
_cell_volume 2781.328037
_symmetry_space_group_name_H-M "P M M N"
_symmetry_group_IT_number 59
_space_group.IT_coordinate_system_code '2'
_symmetry_cell_setting 'orthorhombic'
loop_
_space_group_symop_operation_xyz
x,y,z
1/2-x,1/2-y,z
1/2+x,-y,-z
-x,1/2+y,-z
-x,-y,-z
1/2+x,1/2+y,-z
1/2-x,y,z
x,1/2-y,z
loop_
_atom_site_type_symbol
_atom_site_label
_atom_site_fract_x
_atom_site_fract_y
_atom_site_fract_z
Si Si1 0.465276 0.027620 0.359664
Si Si2 0.670367 0.971554 0.971814
Si Si3 0.699974 0.532238 0.194932
Si Si4 0.438778 0.541164 0.600344
Si Si5 0.386009 0.037855 0.214147
Si Si6 0.300578 0.970002 0.362495
Si Si7 0.750000 0.250000 0.924326
Si Si8 0.158997 0.960476 0.582755
O O1 0.465381 0.250000 0.363259
O O2 0.516563 0.966172 0.344491
O O3 0.428597 0.961605 0.276053
O O4 0.449923 0.964725 0.475593
O O5 0.677571 0.750000 0.962298
O O6 0.627578 0.024703 0.902233
O O7 0.711085 0.089874 0.927171
O O8 0.668549 0.015566 0.096634
O O9 0.750000 0.468261 0.166379
O O10 0.700793 0.750000 0.201651
O O11 0.686926 0.465636 0.310096
O O12 0.435152 0.750000 0.636936
O O13 0.389579 0.456538 0.608105
O O14 0.395957 0.250000 0.203941
O O15 0.340997 0.021136 0.284977
O O16 0.250000 0.032575 0.336490
O O17 0.298394 0.750000 0.360343
O O18 0.314989 0.032960 0.480417
O O19 0.150421 0.750000 0.554391
#
# Coordination Sequence:
#
# PCOD9449846 Si02
#       8
#     8   8   8   8   8   8   2   8
#     4   9  17  31  53  76 102 139 177 213 274 332
#     4  10  23  39  55  84 113 140 193 237 272 321
#     4  10  21  37  55  74 104 140 181 232 266 311
#     4   9  17  31  51  78 105 134 173 225 271 318
#     4  10  21  35  52  74 107 142 175 224 270 329
#     4  10  21  33  46  70 105 140 175 214 262 324
#     4  12  22  36  64  82 102 160 182 236 280 324
#     4  10  20  33  51  76 107 138 175 224 270 321
#
# _framework density 20.853348
#
# number of rings (size 3 to 8) (size 9 to 14) (size 15 to 20)
#    0.000    2.207    2.069    0.621    2.897    2.207 
#    0.000    0.000    0.000    0.828    0.000    0.000 
#    0.000    0.000    0.000    0.000    0.000    0.000 
#
# Total GULP energy -322941.881400 kJ/mol
# GULP energy per Si atom -5567.963472 kJ/mol
# Density = 2.080589 g / cm^3
# Si number density = 20.853348 Si / 1000 Ang^3
#
#
#
# Elastic Constant Matrix: (Units=GPa)
#
#
# Indices 1 2 3 4 5 6 
#
# 1 53.1212 -9.0480 -6.5050 0.0000 0.0000 0.0000
# 2 -9.0480 85.0376 -16.7444 0.0000 0.0000 0.0000
# 3 -6.5050 -16.7444 61.5787 0.0000 0.0000 0.0000
# 4 0.0000 0.0000 0.0000 201.0742 0.0000 0.0000
# 5 0.0000 0.0000 0.0000 0.0000 26.8636 0.0000
# 6 0.0000 0.0000 0.0000 0.0000 0.0000 5.4173
#
#
#
# Elastic Compliance Matrix: (Units=1/GPa)
#
#
# Indices 1 2 3 4 5 6 
#
# 1 0.019615 0.002636 0.002789 0.000000 0.000000 0.000000
# 2 0.002636 0.012779 0.003753 0.000000 0.000000 0.000000
# 3 0.002789 0.003753 0.017555 0.000000 0.000000 0.000000
# 4 0.000000 0.000000 0.000000 0.004973 0.000000 0.000000
# 5 0.000000 0.000000 0.000000 0.000000 0.037225 0.000000
# 6 0.000000 0.000000 0.000000 0.000000 0.000000 0.184592
#
#
# Mechanical properties :
#
#
# Convention : Reuss Voigt Hill
#
# Bulk Modulus (GPa) = 14.63994 15.01584 14.82789
# Shear Modulus (GPa) = 17.78401 62.14003 39.96202
#
# Velocity S-wave (km/s) = 2.92346 5.46473 4.38235
# Velocity P-wave (km/s) = 4.29316 6.85814 5.72124
#
# Compressibility (1/GPa) = 0.06830629
#
# Stress axis : x y z
#
# Youngs Moduli (GPa) = 50.98028 78.25301 56.96503
#
# Poissons Ratio (x) = -0.20629 -0.15887
# Poissons Ratio (y) = -0.13440 -0.21381
# Poissons Ratio (z) = -0.14218 -0.29371
#
# Static dielectric constant tensor:
#      x y z
#    x 1.777020 0.000000 0.000000 
#    y 0.000000 1.806990 0.000000 
#    z 0.000000 0.000000 1.746350 
# 
# From -- ./inp_files/19188.got.cif
#   From: 2010.05.17/outbox.cif.g08.bks.cpg/sg59_10_cif.got.tgz:19188.got - 2010.06.03 14:40:33.
