data_PCOD9449085
_publ_section_title
;
Structure prediction by ZEFSAII (Michael W. Deem and Ramdas Pophale) SiO2 
 PCOD9449085
Probable space group: P M M N
;
_chemical_formula_sum "Si O2"
_cell_formula_units_Z 64
_cell_length_a 18.119090
_cell_length_b 8.403176
_cell_length_c 22.100282
_cell_angle_alpha 90.000000
_cell_angle_beta 90.000000
_cell_angle_gamma 90.000000
_cell_volume 3364.942576
_symmetry_space_group_name_H-M "P M M N"
_symmetry_group_IT_number 59
_space_group.IT_coordinate_system_code '2'
_symmetry_cell_setting 'orthorhombic'
loop_
_space_group_symop_operation_xyz
x,y,z
1/2-x,1/2-y,z
1/2+x,-y,-z
-x,1/2+y,-z
-x,-y,-z
1/2+x,1/2+y,-z
1/2-x,y,z
x,1/2-y,z
loop_
_atom_site_type_symbol
_atom_site_label
_atom_site_fract_x
_atom_site_fract_y
_atom_site_fract_z
Si Si1 0.017818 0.059166 0.566723
Si Si2 0.553116 0.559685 0.686425
Si Si3 0.165964 0.438349 0.003974
Si Si4 0.436792 0.938764 0.107520
Si Si5 0.898498 0.061277 0.117494
Si Si6 0.830357 0.941487 0.374484
Si Si7 0.101858 0.557832 0.745889
Si Si8 0.334205 0.941711 0.219376
O O1 0.017559 0.250000 0.567520
O O2 0.099200 0.000759 0.587535
O O3 0.000000 0.000000 0.500000
O O4 0.961903 0.999288 0.618519
O O5 0.555470 0.750000 0.686624
O O6 0.481069 0.508381 0.725780
O O7 0.625119 0.493901 0.719450
O O8 0.250000 0.487952 0.017601
O O9 0.159265 0.250000 0.015120
O O10 0.146875 0.474407 0.934510
O O11 0.108225 0.528432 0.046442
O O12 0.450586 0.750000 0.113899
O O13 0.385012 0.994687 0.163061
O O14 0.514708 0.027359 0.107648
O O15 0.884885 0.250000 0.113151
O O16 0.881234 0.007277 0.185905
O O17 0.750000 0.999355 0.394817
O O18 0.830687 0.750000 0.377762
O O19 0.844758 0.991005 0.305337
O O20 0.104061 0.750000 0.744154
O O21 0.250000 0.999972 0.214803
O O22 0.332401 0.750000 0.217207
#
# Coordination Sequence:
#
# PCOD9449085 Si02
#       8
#     8   8   8   8   8   8   8   8
#     4  10  20  36  59  85 114 152 194 234 279 331
#     4  10  19  35  57  82 113 146 185 228 272 329
#     4  11  25  42  57  77 108 146 189 237 289 345
#     4  11  22  38  61  84 110 145 188 235 286 343
#     4  11  22  38  59  83 112 146 187 233 282 340
#     4   9  19  35  56  83 114 147 185 230 278 329
#     4   9  19  34  54  81 111 143 180 223 272 329
#     4  10  21  36  56  84 115 146 183 230 284 338
#
# _framework density 19.019641
#
# number of rings (size 3 to 8) (size 9 to 14) (size 15 to 20)
#    0.000    1.875    1.250    2.625    0.000    5.000 
#    0.000    3.125    0.000    2.250    0.000    0.000 
#    0.000    0.000    0.000    0.000    0.000    0.000 
#
# Total GULP energy -357486.831306 kJ/mol
# GULP energy per Si atom -5585.731739 kJ/mol
# Density = 1.897635 g / cm^3
# Si number density = 19.019641 Si / 1000 Ang^3
#
#
#
# Elastic Constant Matrix: (Units=GPa)
#
#
# Indices 1 2 3 4 5 6 
#
# 1 46.5145 -4.2760 2.6545 0.0000 0.0000 0.0000
# 2 -4.2760 8.3532 -7.6779 0.0000 0.0000 0.0000
# 3 2.6545 -7.6779 93.1127 0.0000 0.0000 0.0000
# 4 0.0000 0.0000 0.0000 27.8623 0.0000 0.0000
# 5 0.0000 0.0000 0.0000 0.0000 13.5907 0.0000
# 6 0.0000 0.0000 0.0000 0.0000 0.0000 18.5417
#
#
#
# Elastic Compliance Matrix: (Units=1/GPa)
#
#
# Indices 1 2 3 4 5 6 
#
# 1 0.022570 0.011861 0.000335 0.000000 0.000000 0.000000
# 2 0.011861 0.135765 0.010857 0.000000 0.000000 0.000000
# 3 0.000335 0.010857 0.011625 0.000000 0.000000 0.000000
# 4 0.000000 0.000000 0.000000 0.035891 0.000000 0.000000
# 5 0.000000 0.000000 0.000000 0.000000 0.073580 0.000000
# 6 0.000000 0.000000 0.000000 0.000000 0.000000 0.053932
#
#
# Mechanical properties :
#
#
# Convention : Reuss Voigt Hill
#
# Bulk Modulus (GPa) = 4.62822 14.37573 9.50197
# Shear Modulus (GPa) = 13.91670 22.48427 18.20049
#
# Velocity S-wave (km/s) = 2.70793 3.44199 3.09679
# Velocity P-wave (km/s) = 3.49512 4.83437 4.21823
#
# Compressibility (1/GPa) = 0.21606594
#
# Stress axis : x y z
#
# Youngs Moduli (GPa) = 44.30672 7.36564 86.01877
#
# Poissons Ratio (x) = -0.08736 -0.02878
# Poissons Ratio (y) = -0.52553 -0.93389
# Poissons Ratio (z) = -0.01483 -0.07997
#
# Static dielectric constant tensor:
#      x y z
#    x 1.663180 0.000000 0.000000 
#    y 0.000000 1.645920 0.000000 
#    z 0.000000 0.000000 1.642650 
# 
# From -- ./inp_files/30676.got.cif
#   From: 2010.05.17/outbox.cif.g08.bks.cpg/sg59_16_cif.got.tgz:30676.got - 2010.06.03 14:40:33.
