data_PCOD9449154
_publ_section_title
;
Structure prediction by ZEFSAII (Michael W. Deem and Ramdas Pophale) SiO2 
 PCOD9449154
Probable space group: P M M N
;
_chemical_formula_sum "Si O2"
_cell_formula_units_Z 56
_cell_length_a 22.797406
_cell_length_b 10.648761
_cell_length_c 12.387964
_cell_angle_alpha 90.000000
_cell_angle_beta 90.000000
_cell_angle_gamma 90.000000
_cell_volume 3007.353277
_symmetry_space_group_name_H-M "P M M N"
_symmetry_group_IT_number 59
_space_group.IT_coordinate_system_code '2'
_symmetry_cell_setting 'orthorhombic'
loop_
_space_group_symop_operation_xyz
x,y,z
1/2-x,1/2-y,z
1/2+x,-y,-z
-x,1/2+y,-z
-x,-y,-z
1/2+x,1/2+y,-z
1/2-x,y,z
x,1/2-y,z
loop_
_atom_site_type_symbol
_atom_site_label
_atom_site_fract_x
_atom_site_fract_y
_atom_site_fract_z
Si Si1 0.178606 0.250000 0.298306
Si Si2 0.492849 0.896789 0.405545
Si Si3 0.179843 0.250000 0.045496
Si Si4 0.876242 0.897643 0.330667
Si Si5 0.320134 0.022725 0.892869
Si Si6 0.681020 0.389990 0.477641
Si Si7 0.683446 0.394750 0.901653
Si Si8 0.129483 0.517023 0.313340
O O1 0.250000 0.250000 0.313851
O O2 0.147868 0.374758 0.342399
O O3 0.165039 0.250000 0.170285
O O4 0.483987 0.750000 0.440967
O O5 0.553512 0.898629 0.339734
O O6 0.563335 0.057344 0.661644
O O7 0.500000 0.000000 0.500000
O O8 0.250000 0.250000 0.042479
O O9 0.161283 0.368897 0.976534
O O10 0.857333 0.750000 0.342637
O O11 0.853380 0.953317 0.217617
O O12 0.851670 0.994557 0.420007
O O13 0.250000 0.028878 0.870260
O O14 0.331659 0.905205 0.971377
O O15 0.750000 0.401299 0.455857
O O16 0.661700 0.250000 0.441186
O O17 0.668936 0.400811 0.605292
O O18 0.750000 0.447675 0.891706
O O19 0.684224 0.250000 0.871704
O O20 0.644790 0.461555 0.811562
#
# Coordination Sequence:
#
# PCOD9449154 Si02
#       8
#     4   8   4   8   8   8   8   8
#     4  11  22  36  63 103 131 155 201 261 314 380
#     4  11  25  44  65  86 118 169 223 266 312 369
#     4   9  16  32  57  87 121 155 188 233 308 374
#     4  11  24  41  63  90 119 162 217 265 307 363
#     4  10  19  35  60  89 123 158 195 249 314 375
#     4  11  24  39  58  88 123 159 198 252 322 386
#     4  10  20  35  60  92 126 164 202 245 310 385
#     4  12  23  39  63  90 126 161 204 258 319 376
#
# _framework density 18.621024999999999
#
# number of rings (size 3 to 8) (size 9 to 14) (size 15 to 20)
#    0.000    1.286    3.571    3.000    2.000    2.571 
#    0.000    2.143    0.000    0.000    0.000    0.000 
#    0.000    0.000    0.000    0.000    0.000    0.000 
#
# Total GULP energy -312199.184568 kJ/mol
# GULP energy per Si atom -5574.985439 kJ/mol
# Density = 1.857864 g / cm^3
# Si number density = 18.621025 Si / 1000 Ang^3
#
#
#
# Elastic Constant Matrix: (Units=GPa)
#
#
# Indices 1 2 3 4 5 6 
#
# 1 90.7843 50.6868 37.1762 0.0000 0.0000 0.0000
# 2 50.6868 125.8725 42.7227 0.0000 0.0000 0.0000
# 3 37.1762 42.7227 98.0367 0.0000 0.0000 0.0000
# 4 0.0000 0.0000 0.0000 27.7547 0.0000 0.0000
# 5 0.0000 0.0000 0.0000 0.0000 19.4351 0.0000
# 6 0.0000 0.0000 0.0000 0.0000 0.0000 25.3479
#
#
#
# Elastic Compliance Matrix: (Units=1/GPa)
#
#
# Indices 1 2 3 4 5 6 
#
# 1 0.015244 -0.004902 -0.003645 0.000000 0.000000 0.000000
# 2 -0.004902 0.010900 -0.002891 0.000000 0.000000 0.000000
# 3 -0.003645 -0.002891 0.012842 0.000000 0.000000 0.000000
# 4 0.000000 0.000000 0.000000 0.036030 0.000000 0.000000
# 5 0.000000 0.000000 0.000000 0.000000 0.051453 0.000000
# 6 0.000000 0.000000 0.000000 0.000000 0.000000 0.039451
#
#
# Mechanical properties :
#
#
# Convention : Reuss Voigt Hill
#
# Bulk Modulus (GPa) = 62.06825 63.98500 63.02662
# Shear Modulus (GPa) = 25.75120 26.78139 26.26629
#
# Velocity S-wave (km/s) = 3.72278 3.79652 3.75983
# Velocity P-wave (km/s) = 7.20302 7.32491 7.26422
#
# Compressibility (1/GPa) = 0.01611130
#
# Stress axis : x y z
#
# Youngs Moduli (GPa) = 65.59837 91.74630 77.86774
#
# Poissons Ratio (x) = 0.44970 0.28381
# Poissons Ratio (y) = 0.32153 0.22513
# Poissons Ratio (z) = 0.23909 0.26525
#
# Static dielectric constant tensor:
#      x y z
#    x 1.625600 0.000000 0.000000 
#    y 0.000000 1.750340 0.000000 
#    z 0.000000 0.000000 1.649720 
# 
# From -- ./inp_files/18729.got.cif
#   From: 2010.05.17/outbox.cif.g08.bks.cpg/sg59_10_cif.got.tgz:18729.got - 2010.06.03 14:40:33.
