data_PCOD9449084
_publ_section_title
;
Structure prediction by ZEFSAII (Michael W. Deem and Ramdas Pophale) SiO2 
 PCOD9449084
Probable space group: P M M N
;
_chemical_formula_sum "Si O2"
_cell_formula_units_Z 40
_cell_length_a 7.464846
_cell_length_b 24.993802
_cell_length_c 9.940994
_cell_angle_alpha 90.000000
_cell_angle_beta 90.000000
_cell_angle_gamma 90.000000
_cell_volume 1854.739791
_symmetry_space_group_name_H-M "P M M N"
_symmetry_group_IT_number 59
_space_group.IT_coordinate_system_code '2'
_symmetry_cell_setting 'orthorhombic'
loop_
_space_group_symop_operation_xyz
x,y,z
1/2-x,1/2-y,z
1/2+x,-y,-z
-x,1/2+y,-z
-x,-y,-z
1/2+x,1/2+y,-z
1/2-x,y,z
x,1/2-y,z
loop_
_atom_site_type_symbol
_atom_site_label
_atom_site_fract_x
_atom_site_fract_y
_atom_site_fract_z
Si Si1 0.040423 0.653488 0.202826
Si Si2 0.469680 0.651999 0.511539
Si Si3 0.037404 0.031493 0.863913
Si Si4 0.969743 0.250000 0.987352
Si Si5 0.036486 0.960860 0.621997
Si Si6 0.468246 0.750000 0.700615
O O1 0.250000 0.666435 0.215648
O O2 0.968411 0.656886 0.356168
O O3 0.970845 0.697413 0.096684
O O4 0.027824 0.592520 0.149801
O O5 0.250000 0.651167 0.506601
O O6 0.531936 0.596828 0.578459
O O7 0.522842 0.699195 0.611565
O O8 0.250000 0.035888 0.845463
O O9 0.962260 0.992244 0.749533
O O10 0.000000 0.000000 0.000000
O O11 0.750000 0.250000 0.992080
O O12 0.028032 0.250000 0.143722
O O13 0.250000 0.954456 0.642819
O O14 0.000000 0.000000 0.500000
O O15 0.250000 0.750000 0.704609
#
# Coordination Sequence:
#
# PCOD9449084 Si02
#       6
#     8   8   8   4   8   4
#     4  10  19  35  57  82 112 146 187 229 279 335
#     4   9  17  30  51  78 109 140 173 225 280 327
#     4  11  24  38  56  83 116 152 190 231 285 342
#     4   9  19  31  52  83 112 146 187 232 274 327
#     4  10  20  35  56  83 111 142 182 228 279 333
#     4   9  17  29  49  79 110 138 179 228 278 323
#
# _framework density 21.566367
#
# number of rings (size 3 to 8) (size 9 to 14) (size 15 to 20)
#    0.000    2.200    2.000    1.200    2.800    3.200 
#    0.000    0.500    0.000    0.000    0.000    0.700 
#    0.000    0.000    0.000    0.000    0.000    0.000 
#
# Total GULP energy -223281.024486 kJ/mol
# GULP energy per Si atom -5582.025612 kJ/mol
# Density = 2.151728 g / cm^3
# Si number density = 21.566367 Si / 1000 Ang^3
#
#
#
# Elastic Constant Matrix: (Units=GPa)
#
#
# Indices 1 2 3 4 5 6 
#
# 1 58.8370 -9.4242 -11.5722 0.0000 0.0000 0.0000
# 2 -9.4242 234.5736 142.7751 0.0000 0.0000 0.0000
# 3 -11.5722 142.7751 236.1675 0.0000 0.0000 0.0000
# 4 0.0000 0.0000 0.0000 39.2964 0.0000 0.0000
# 5 0.0000 0.0000 0.0000 0.0000 -0.6539 0.0000
# 6 0.0000 0.0000 0.0000 0.0000 0.0000 14.0136
#
#
#
# Elastic Compliance Matrix: (Units=1/GPa)
#
#
# Indices 1 2 3 4 5 6 
#
# 1 0.017173 0.000281 0.000671 0.000000 0.000000 0.000000
# 2 0.000281 0.006750 -0.004067 0.000000 0.000000 0.000000
# 3 0.000671 -0.004067 0.006726 0.000000 0.000000 0.000000
# 4 0.000000 0.000000 0.000000 0.025448 0.000000 0.000000
# 5 0.000000 0.000000 0.000000 0.000000 -1.529222 0.000000
# 6 0.000000 0.000000 0.000000 0.000000 0.000000 0.071359
#
#
# Mechanical properties :
#
#
# Convention : Reuss Voigt Hill
#
# Bulk Modulus (GPa) = 40.94911 85.90396 63.42653
# Shear Modulus (GPa) = -3.60387 37.71784 17.05699
#
# Velocity S-wave (km/s) = -1.29410 4.18655 2.81536
# Velocity P-wave (km/s) = 4.09827 7.95540 6.32788
#
# Compressibility (1/GPa) = 0.02442056
#
# Stress axis : x y z
#
# Youngs Moduli (GPa) = 58.23022 148.15765 148.68362
#
# Poissons Ratio (x) = -0.04167 -0.09983
# Poissons Ratio (y) = -0.01638 0.60465
# Poissons Ratio (z) = -0.03910 0.60251
#
# Static dielectric constant tensor:
#      x y z
#    x 1.829990 0.000000 0.000000 
#    y 0.000000 1.669490 0.000000 
#    z 0.000000 0.000000 1.714940 
# 
# From -- ./inp_files/5891.got.cif
#   From: 2010.05.17/outbox.cif.g08.bks.cpg/sg59_3_cif.got.tgz:5891.got - 2010.06.03 14:40:33.
