data_PCOD9449854
_publ_section_title
;
Structure prediction by ZEFSAII (Michael W. Deem and Ramdas Pophale) SiO2 
 PCOD9449854
Probable space group: P M M N
;
_chemical_formula_sum "Si O2"
_cell_formula_units_Z 64
_cell_length_a 27.827927
_cell_length_b 14.026493
_cell_length_c 10.231148
_cell_angle_alpha 90.000000
_cell_angle_beta 90.000000
_cell_angle_gamma 90.000000
_cell_volume 3993.505821
_symmetry_space_group_name_H-M "P M M N"
_symmetry_group_IT_number 59
_space_group.IT_coordinate_system_code '2'
_symmetry_cell_setting 'orthorhombic'
loop_
_space_group_symop_operation_xyz
x,y,z
1/2-x,1/2-y,z
1/2+x,-y,-z
-x,1/2+y,-z
-x,-y,-z
1/2+x,1/2+y,-z
1/2-x,y,z
x,1/2-y,z
loop_
_atom_site_type_symbol
_atom_site_label
_atom_site_fract_x
_atom_site_fract_y
_atom_site_fract_z
Si Si1 0.193724 0.641072 0.995335
Si Si2 0.553011 0.638686 0.726354
Si Si3 0.549631 0.363763 0.888227
Si Si4 0.596049 0.048093 0.628508
Si Si5 0.305649 0.863284 0.307717
Si Si6 0.557180 0.136070 0.364395
Si Si7 0.441187 0.137941 0.960340
Si Si8 0.608598 0.458925 0.123752
O O1 0.250000 0.635603 0.966071
O O2 0.177268 0.750000 0.970635
O O3 0.188292 0.623847 0.150869
O O4 0.162493 0.569346 0.911581
O O5 0.564487 0.750000 0.702616
O O6 0.586462 0.563790 0.651190
O O7 0.498029 0.622459 0.680928
O O8 0.556737 0.621923 0.882833
O O9 0.554437 0.250000 0.893894
O O10 0.572937 0.402070 0.756152
O O11 0.493358 0.387243 0.901314
O O12 0.576676 0.408546 0.011153
O O13 0.652086 0.077554 0.624442
O O14 0.568499 0.089017 0.503303
O O15 0.250000 0.887263 0.339981
O O16 0.312163 0.750000 0.333599
O O17 0.565988 0.250000 0.368180
O O18 0.591042 0.084999 0.258949
O O19 0.432702 0.250000 0.939542
O O20 0.402630 0.070040 0.892988
#
# Coordination Sequence:
#
# PCOD9449854 Si02
#       8
#     8   8   8   8   8   8   8   8
#     4   9  17  29  49  77 100 122 163 215 260 303
#     4  10  20  35  51  73 104 137 171 212 254 291
#     4  11  19  29  51  75  97 127 170 207 242 300
#     4  12  21  34  51  75 102 140 174 204 249 304
#     4   9  17  30  50  75 101 127 163 213 259 300
#     4  11  23  34  48  75 111 137 164 206 254 306
#     4  10  20  33  51  77 102 129 174 219 248 289
#     4  12  19  33  53  72  98 138 169 202 257 301
#
# _framework density 16.026019999999999
#
# number of rings (size 3 to 8) (size 9 to 14) (size 15 to 20)
#    0.000    1.500    3.750    4.500    0.000    0.000 
#    0.000    2.500    0.000    3.000    0.000    3.500 
#    0.000    2.000    0.000    0.000    0.000    0.000 
#
# Total GULP energy -357306.643290 kJ/mol
# GULP energy per Si atom -5582.916301 kJ/mol
# Density = 1.598954 g / cm^3
# Si number density = 16.026020 Si / 1000 Ang^3
#
#
#
# Elastic Constant Matrix: (Units=GPa)
#
#
# Indices 1 2 3 4 5 6 
#
# 1 65.8331 38.3903 3.2540 0.0000 0.0000 0.0000
# 2 38.3903 69.9431 15.3655 0.0000 0.0000 0.0000
# 3 3.2540 15.3655 43.1297 0.0000 0.0000 0.0000
# 4 0.0000 0.0000 0.0000 20.4713 0.0000 0.0000
# 5 0.0000 0.0000 0.0000 0.0000 9.0183 0.0000
# 6 0.0000 0.0000 0.0000 0.0000 0.0000 26.2677
#
#
#
# Elastic Compliance Matrix: (Units=1/GPa)
#
#
# Indices 1 2 3 4 5 6 
#
# 1 0.022683 -0.013099 0.002955 0.000000 0.000000 0.000000
# 2 -0.013099 0.023076 -0.007233 0.000000 0.000000 0.000000
# 3 0.002955 -0.007233 0.025540 0.000000 0.000000 0.000000
# 4 0.000000 0.000000 0.000000 0.048849 0.000000 0.000000
# 5 0.000000 0.000000 0.000000 0.000000 0.110886 0.000000
# 6 0.000000 0.000000 0.000000 0.000000 0.000000 0.038070
#
#
# Mechanical properties :
#
#
# Convention : Reuss Voigt Hill
#
# Bulk Modulus (GPa) = 27.36348 32.54730 29.95539
# Shear Modulus (GPa) = 15.82087 19.27786 17.54936
#
# Velocity S-wave (km/s) = 3.14538 3.47206 3.31275
# Velocity P-wave (km/s) = 5.50479 6.03546 5.77622
#
# Compressibility (1/GPa) = 0.03654507
#
# Stress axis : x y z
#
# Youngs Moduli (GPa) = 44.08659 43.33461 39.15474
#
# Poissons Ratio (x) = 0.56765 -0.11572
# Poissons Ratio (y) = 0.57750 0.28320
# Poissons Ratio (z) = -0.13030 0.31344
#
# Static dielectric constant tensor:
#      x y z
#    x 1.538830 0.000000 0.000000 
#    y 0.000000 1.554220 0.000000 
#    z 0.000000 0.000000 1.519210 
# 
# From -- ./inp_files/12220.got.cif
#   From: 2010.05.17/outbox.cif.g08.bks.cpg/sg59_7_cif.got.tgz:12220.got - 2010.06.03 14:40:33.
