data_PCOD9449335
_publ_section_title
;
Structure prediction by ZEFSAII (Michael W. Deem and Ramdas Pophale) SiO2 
 PCOD9449335
Probable space group: P M M N
;
_chemical_formula_sum "Si O2"
_cell_formula_units_Z 64
_cell_length_a 26.125479
_cell_length_b 7.334732
_cell_length_c 14.980866
_cell_angle_alpha 90.000000
_cell_angle_beta 90.000000
_cell_angle_gamma 90.000000
_cell_volume 2870.684281
_symmetry_space_group_name_H-M "P M M N"
_symmetry_group_IT_number 59
_space_group.IT_coordinate_system_code '2'
_symmetry_cell_setting 'orthorhombic'
loop_
_space_group_symop_operation_xyz
x,y,z
1/2-x,1/2-y,z
1/2+x,-y,-z
-x,1/2+y,-z
-x,-y,-z
1/2+x,1/2+y,-z
1/2-x,y,z
x,1/2-y,z
loop_
_atom_site_type_symbol
_atom_site_label
_atom_site_fract_x
_atom_site_fract_y
_atom_site_fract_z
Si Si1 0.603593 0.038209 0.083394
Si Si2 0.979002 0.467239 0.598702
Si Si3 0.905432 0.027515 0.882924
Si Si4 0.862830 0.027320 0.589084
Si Si5 0.191039 0.972618 0.789405
Si Si6 0.309314 0.528494 0.590242
Si Si7 0.307727 0.972055 0.231014
Si Si8 0.490079 0.029802 0.786468
O O1 0.615881 0.250000 0.067602
O O2 0.652323 0.960491 0.135635
O O3 0.555637 0.030095 0.149817
O O4 0.591729 0.964169 0.985296
O O5 0.976385 0.250000 0.608961
O O6 0.920706 0.534211 0.605865
O O7 0.000000 0.500000 0.500000
O O8 0.011939 0.532996 0.683353
O O9 0.906431 0.250000 0.880475
O O10 0.852373 0.970797 0.836784
O O11 0.955393 0.971157 0.827473
O O12 0.863146 0.250000 0.588568
O O13 0.842956 0.966607 0.492673
O O14 0.825749 0.973570 0.669772
O O15 0.250000 0.026081 0.803105
O O16 0.190144 0.750000 0.789571
O O17 0.174622 0.029329 0.689493
O O18 0.250000 0.476096 0.577580
O O19 0.310462 0.750000 0.589743
O O20 0.250000 0.032531 0.211069
O O21 0.307173 0.750000 0.229486
O O22 0.488523 0.250000 0.787980
#
# Coordination Sequence:
#
# PCOD9449335 Si02
#       8
#     8   8   8   8   8   8   8   8
#     4  10  20  31  51  77  97 126 171 212 244 292
#     4  10  21  34  50  72 100 132 163 201 249 297
#     4   9  17  31  46  67  99 132 165 205 252 294
#     4   9  15  25  41  63  93 127 159 193 239 293
#     4   8  15  27  41  64  99 127 148 191 254 298
#     4   8  13  21  35  57  87 120 149 181 226 281
#     4   9  15  24  42  68  98 132 166 199 246 309
#     4  10  20  36  52  68 100 138 166 200 250 300
#
# _framework density 22.294335
#
# number of rings (size 3 to 8) (size 9 to 14) (size 15 to 20)
#    0.000    2.875    1.250    1.500    1.750    2.500 
#    0.000    2.500    0.000    0.375    0.000    0.000 
#    0.000    5.500    0.000    0.000    0.000    0.000 
#
# Total GULP energy -357447.665568 kJ/mol
# GULP energy per Si atom -5585.119774 kJ/mol
# Density = 2.224359 g / cm^3
# Si number density = 22.294335 Si / 1000 Ang^3
#
#
#
# Elastic Constant Matrix: (Units=GPa)
#
#
# Indices 1 2 3 4 5 6 
#
# 1 92.9401 -9.7833 55.9108 0.0000 0.0000 0.0000
# 2 -9.7833 83.2528 -3.8418 0.0000 0.0000 0.0000
# 3 55.9108 -3.8418 166.1717 0.0000 0.0000 0.0000
# 4 0.0000 0.0000 0.0000 -1.1873 0.0000 0.0000
# 5 0.0000 0.0000 0.0000 0.0000 8.7254 0.0000
# 6 0.0000 0.0000 0.0000 0.0000 0.0000 -4.9972
#
#
#
# Elastic Compliance Matrix: (Units=1/GPa)
#
#
# Indices 1 2 3 4 5 6 
#
# 1 0.013650 0.001394 -0.004560 0.000000 0.000000 0.000000
# 2 0.001394 0.012167 -0.000188 0.000000 0.000000 0.000000
# 3 -0.004560 -0.000188 0.007548 0.000000 0.000000 0.000000
# 4 0.000000 0.000000 0.000000 -0.842221 0.000000 0.000000
# 5 0.000000 0.000000 0.000000 0.000000 0.114607 0.000000
# 6 0.000000 0.000000 0.000000 0.000000 0.000000 -0.200113
#
#
# Mechanical properties :
#
#
# Convention : Reuss Voigt Hill
#
# Bulk Modulus (GPa) = 37.51569 47.43734 42.47652
# Shear Modulus (GPa) = -5.68978 20.51345 7.41183
#
# Velocity S-wave (km/s) = -1.59927 3.03664 1.82531
# Velocity P-wave (km/s) = 3.66794 5.79818 4.85142
#
# Compressibility (1/GPa) = 0.02665551
#
# Stress axis : x y z
#
# Youngs Moduli (GPa) = 73.26130 82.19150 132.48619
#
# Poissons Ratio (x) = -0.11454 0.60419
# Poissons Ratio (y) = -0.10210 0.02485
# Poissons Ratio (z) = 0.33410 0.01542
#
# Static dielectric constant tensor:
#      x y z
#    x 1.767860 0.000000 0.000000 
#    y 0.000000 1.963150 0.000000 
#    z 0.000000 0.000000 1.817320 
# 
# From -- ./inp_files/19022.got.cif
#   From: 2010.05.17/outbox.cif.g08.bks.cpg/sg59_10_cif.got.tgz:19022.got - 2010.06.03 14:40:33.
