data_PCOD9449267
_publ_section_title
;
Structure prediction by ZEFSAII (Michael W. Deem and Ramdas Pophale) SiO2 
 PCOD9449267
Probable space group: P M M N
;
_chemical_formula_sum "Si O2"
_cell_formula_units_Z 48
_cell_length_a 24.523988
_cell_length_b 24.728654
_cell_length_c 5.079925
_cell_angle_alpha 90.000000
_cell_angle_beta 90.000000
_cell_angle_gamma 90.000000
_cell_volume 3080.696203
_symmetry_space_group_name_H-M "P M M N"
_symmetry_group_IT_number 59
_space_group.IT_coordinate_system_code '2'
_symmetry_cell_setting 'orthorhombic'
loop_
_space_group_symop_operation_xyz
x,y,z
1/2-x,1/2-y,z
1/2+x,-y,-z
-x,1/2+y,-z
-x,-y,-z
1/2+x,1/2+y,-z
1/2-x,y,z
x,1/2-y,z
loop_
_atom_site_type_symbol
_atom_site_label
_atom_site_fract_x
_atom_site_fract_y
_atom_site_fract_z
Si Si1 0.881119 0.503801 0.800630
Si Si2 0.623452 0.313052 0.785143
Si Si3 0.479348 0.060654 0.433172
Si Si4 0.313495 0.981669 0.713305
Si Si5 0.961902 0.097256 0.914172
Si Si6 0.686896 0.146814 0.275163
O O1 0.919879 0.551187 0.690506
O O2 0.837409 0.490131 0.576457
O O3 0.920077 0.451738 0.847839
O O4 0.850197 0.512921 0.074287
O O5 0.611428 0.250000 0.755443
O O6 0.571135 0.347928 0.871330
O O7 0.648485 0.336377 0.516032
O O8 0.667701 0.322546 0.014728
O O9 0.488748 0.092094 0.705005
O O10 0.500000 0.000000 0.500000
O O11 0.516939 0.086886 0.207910
O O12 0.250000 0.996256 0.728823
O O13 0.318226 0.917524 0.774187
O O14 0.750000 0.158246 0.338696
#
# Coordination Sequence:
#
# PCOD9449267 Si02
#       6
#     8   8   8   8   8   8
#     4  11  18  32  49  68  92 116 153 191 231 281
#     4  12  24  36  51  67  89 125 161 208 257 282
#     4  10  20  30  51  72  88 116 147 191 247 278
#     4  11  20  31  48  68  93 125 153 189 238 276
#     4  11  19  34  47  68  94 114 153 202 235 288
#     4  11  22  37  50  64  88 124 166 211 250 279
#
# _framework density 15.580895
#
# number of rings (size 3 to 8) (size 9 to 14) (size 15 to 20)
#    0.000    1.000    3.333    7.500    0.000    4.667 
#    0.000    0.000    0.000    0.000    0.000    0.000 
#    0.000    0.000    0.000    0.000    0.000   58.333 
#
# Total GULP energy -268055.089685 kJ/mol
# GULP energy per Si atom -5584.481035 kJ/mol
# Density = 1.554543 g / cm^3
# Si number density = 15.580895 Si / 1000 Ang^3
#
#
#
# Elastic Constant Matrix: (Units=GPa)
#
#
# Indices 1 2 3 4 5 6 
#
# 1 39.7698 11.3818 -6.3214 0.0000 0.0000 0.0000
# 2 11.3818 24.0724 -11.5987 0.0000 0.0000 0.0000
# 3 -6.3214 -11.5987 64.3373 0.0000 0.0000 0.0000
# 4 0.0000 0.0000 0.0000 2.7592 0.0000 0.0000
# 5 0.0000 0.0000 0.0000 0.0000 28.9225 0.0000
# 6 0.0000 0.0000 0.0000 0.0000 0.0000 13.6610
#
#
#
# Elastic Compliance Matrix: (Units=1/GPa)
#
#
# Indices 1 2 3 4 5 6 
#
# 1 0.029090 -0.013554 0.000415 0.000000 0.000000 0.000000
# 2 -0.013554 0.051809 0.008008 0.000000 0.000000 0.000000
# 3 0.000415 0.008008 0.017028 0.000000 0.000000 0.000000
# 4 0.000000 0.000000 0.000000 0.362423 0.000000 0.000000
# 5 0.000000 0.000000 0.000000 0.000000 0.034575 0.000000
# 6 0.000000 0.000000 0.000000 0.000000 0.000000 0.073201
#
#
# Mechanical properties :
#
#
# Convention : Reuss Voigt Hill
#
# Bulk Modulus (GPa) = 11.40730 12.78920 12.09825
# Shear Modulus (GPa) = 8.22899 18.04975 13.13937
#
# Velocity S-wave (km/s) = 2.30064 3.40730 2.90711
# Velocity P-wave (km/s) = 3.79400 4.86885 4.36464
#
# Compressibility (1/GPa) = 0.08766314
#
# Stress axis : x y z
#
# Youngs Moduli (GPa) = 34.37642 19.30182 58.72839
#
# Poissons Ratio (x) = 0.26162 -0.02435
# Poissons Ratio (y) = 0.46595 -0.47031
# Poissons Ratio (z) = -0.01425 -0.15457
#
# Static dielectric constant tensor:
#      x y z
#    x 1.542860 0.000000 0.000000 
#    y 0.000000 1.490510 0.000000 
#    z 0.000000 0.000000 1.538180 
# 
# From -- ./inp_files/3418.got.cif
#   From: 2010.05.17/outbox.cif.g08.bks.cpg/sg59_2_cif.got.tgz:3418.got - 2010.06.03 14:40:33.
