data_PCOD9449658
_publ_section_title
;
Structure prediction by ZEFSAII (Michael W. Deem and Ramdas Pophale) SiO2 
 PCOD9449658
Probable space group: P M M N
;
_chemical_formula_sum "Si O2"
_cell_formula_units_Z 56
_cell_length_a 9.179754
_cell_length_b 13.997807
_cell_length_c 24.448658
_cell_angle_alpha 90.000000
_cell_angle_beta 90.000000
_cell_angle_gamma 90.000000
_cell_volume 3141.565144
_symmetry_space_group_name_H-M "P M M N"
_symmetry_group_IT_number 59
_space_group.IT_coordinate_system_code '2'
_symmetry_cell_setting 'orthorhombic'
loop_
_space_group_symop_operation_xyz
x,y,z
1/2-x,1/2-y,z
1/2+x,-y,-z
-x,1/2+y,-z
-x,-y,-z
1/2+x,1/2+y,-z
1/2-x,y,z
x,1/2-y,z
loop_
_atom_site_type_symbol
_atom_site_label
_atom_site_fract_x
_atom_site_fract_y
_atom_site_fract_z
Si Si1 0.075488 0.547136 0.308274
Si Si2 0.927656 0.139583 0.805783
Si Si3 0.582728 0.865397 0.412513
Si Si4 0.423446 0.359839 0.366044
Si Si5 0.425074 0.535343 0.083329
Si Si6 0.416925 0.866560 0.521822
Si Si7 0.924886 0.140300 0.029820
O O1 0.250000 0.561203 0.311675
O O2 0.025812 0.588354 0.250225
O O3 0.046120 0.434945 0.318104
O O4 0.002085 0.600212 0.359120
O O5 0.750000 0.139832 0.806155
O O6 0.974595 0.250000 0.806843
O O7 0.973569 0.083160 0.860059
O O8 0.750000 0.897084 0.410748
O O9 0.581172 0.750000 0.412977
O O10 0.506284 0.897999 0.468622
O O11 0.250000 0.363128 0.377606
O O12 0.461282 0.250000 0.353155
O O13 0.507956 0.390721 0.420720
O O14 0.250000 0.523750 0.084962
O O15 0.498859 0.434387 0.070121
O O16 0.458512 0.604557 0.031894
O O17 0.250000 0.898563 0.518950
O O18 0.416650 0.750000 0.520507
O O19 0.750000 0.134739 0.036182
O O20 0.969807 0.250000 0.037380
#
# Coordination Sequence:
#
# PCOD9449658 Si02
#       7
#     8   8   8   8   8   8   8
#     4  10  20  33  51  73  95 125 164 201 239 287
#     4   9  17  31  52  76 101 129 163 203 244 288
#     4  10  20  33  49  71 100 129 155 192 245 297
#     4   9  18  33  50  68  93 123 155 195 243 292
#     4   9  17  30  50  76 103 134 174 213 248 290
#     4   9  17  30  50  73  94 120 157 198 240 291
#     4   9  17  30  49  74 106 141 172 206 252 300
#
# _framework density 17.825510000000001
#
# number of rings (size 3 to 8) (size 9 to 14) (size 15 to 20)
#    0.000    2.714    0.000    1.714    0.000    6.286 
#    0.000    1.429    0.000    4.714    0.000    2.000 
#    0.000    0.000    0.000    0.000    0.000    0.000 
#
# Total GULP energy -312457.196526 kJ/mol
# GULP energy per Si atom -5579.592795 kJ/mol
# Density = 1.778494 g / cm^3
# Si number density = 17.825510 Si / 1000 Ang^3
#
#
#
# Elastic Constant Matrix: (Units=GPa)
#
#
# Indices 1 2 3 4 5 6 
#
# 1 29.1269 41.3941 41.9436 0.0000 0.0000 0.0000
# 2 41.3941 136.2698 90.1837 0.0000 0.0000 0.0000
# 3 41.9436 90.1837 155.4208 0.0000 0.0000 0.0000
# 4 0.0000 0.0000 0.0000 27.7653 0.0000 0.0000
# 5 0.0000 0.0000 0.0000 0.0000 21.6044 0.0000
# 6 0.0000 0.0000 0.0000 0.0000 0.0000 21.3335
#
#
#
# Elastic Compliance Matrix: (Units=1/GPa)
#
#
# Indices 1 2 3 4 5 6 
#
# 1 0.069726 -0.014168 -0.010596 0.000000 0.000000 0.000000
# 2 -0.014168 0.014792 -0.004760 0.000000 0.000000 0.000000
# 3 -0.010596 -0.004760 0.012056 0.000000 0.000000 0.000000
# 4 0.000000 0.000000 0.000000 0.036016 0.000000 0.000000
# 5 0.000000 0.000000 0.000000 0.000000 0.046287 0.000000
# 6 0.000000 0.000000 0.000000 0.000000 0.000000 0.046875
#
#
# Mechanical properties :
#
#
# Convention : Reuss Voigt Hill
#
# Bulk Modulus (GPa) = 26.64787 74.20669 50.42728
# Shear Modulus (GPa) = 16.81760 23.96036 20.38898
#
# Velocity S-wave (km/s) = 3.07491 3.67026 3.38569
# Velocity P-wave (km/s) = 5.25247 7.72534 6.60566
#
# Compressibility (1/GPa) = 0.03752646
#
# Stress axis : x y z
#
# Youngs Moduli (GPa) = 14.34184 67.60383 82.94936
#
# Poissons Ratio (x) = 0.95780 0.87894
# Poissons Ratio (y) = 0.20319 0.39481
# Poissons Ratio (z) = 0.15197 0.32177
#
# Static dielectric constant tensor:
#      x y z
#    x 1.601590 0.000000 0.000000 
#    y 0.000000 1.642370 0.000000 
#    z 0.000000 0.000000 1.573090 
# 
# From -- ./inp_files/29162.got.cif
#   From: 2010.05.17/outbox.cif.g08.bks.cpg/sg59_15_cif.got.tgz:29162.got - 2010.06.03 14:40:33.
