data_PCOD9449701
_publ_section_title
;
Structure prediction by ZEFSAII (Michael W. Deem and Ramdas Pophale) SiO2 
 PCOD9449701
Probable space group: P M M N
;
_chemical_formula_sum "Si O2"
_cell_formula_units_Z 40
_cell_length_a 9.348336
_cell_length_b 7.815835
_cell_length_c 27.305716
_cell_angle_alpha 90.000000
_cell_angle_beta 90.000000
_cell_angle_gamma 90.000000
_cell_volume 1995.093551
_symmetry_space_group_name_H-M "P M M N"
_symmetry_group_IT_number 59
_space_group.IT_coordinate_system_code '2'
_symmetry_cell_setting 'orthorhombic'
loop_
_space_group_symop_operation_xyz
x,y,z
1/2-x,1/2-y,z
1/2+x,-y,-z
-x,1/2+y,-z
-x,-y,-z
1/2+x,1/2+y,-z
1/2-x,y,z
x,1/2-y,z
loop_
_atom_site_type_symbol
_atom_site_label
_atom_site_fract_x
_atom_site_fract_y
_atom_site_fract_z
Si Si1 0.088638 0.547663 0.547677
Si Si2 0.584762 0.544825 0.347390
Si Si3 0.412958 0.043900 0.951325
Si Si4 0.082689 0.458847 0.759485
Si Si5 0.914749 0.459658 0.855604
O O1 0.250000 0.471647 0.545380
O O2 0.101448 0.750000 0.547667
O O3 0.019653 0.500773 0.600165
O O4 0.000000 0.500000 0.500000
O O5 0.750000 0.482822 0.349353
O O6 0.587715 0.750000 0.345373
O O7 0.528302 0.485980 0.294460
O O8 0.250000 0.979486 0.953475
O O9 0.406751 0.250000 0.948078
O O10 0.495882 0.983163 0.902913
O O11 0.500000 0.000000 0.000000
O O12 0.250000 0.507574 0.764475
O O13 0.080287 0.250000 0.760188
O O14 0.989977 0.516936 0.805414
O O15 0.750000 0.513325 0.858535
O O16 0.916055 0.250000 0.855537
#
# Coordination Sequence:
#
# PCOD9449701 Si02
#       5
#     8   8   8   8   8
#     4  10  20  33  50  72  97 127 163 201 241 286
#     4   8  14  26  45  67  91 120 153 191 236 285
#     4  10  20  33  50  72  98 129 165 205 247 290
#     4   8  13  23  41  63  85 113 152 194 235 281
#     4   9  16  26  42  66  95 124 155 195 241 286
#
# _framework density 20.049185000000001
#
# number of rings (size 3 to 8) (size 9 to 14) (size 15 to 20)
#    0.000    3.000    0.000    3.000    0.000    4.800 
#    0.000    1.000    0.000    4.800    0.000    2.800 
#    0.000    0.000    0.000    0.000    0.000    0.000 
#
# Total GULP energy -222941.015785 kJ/mol
# GULP energy per Si atom -5573.525395 kJ/mol
# Density = 2.000355 g / cm^3
# Si number density = 20.049185 Si / 1000 Ang^3
#
#
#
# Elastic Constant Matrix: (Units=GPa)
#
#
# Indices 1 2 3 4 5 6 
#
# 1 118.0789 6.0713 109.8555 0.0000 0.0000 0.0000
# 2 6.0713 23.3087 11.8340 0.0000 0.0000 0.0000
# 3 109.8555 11.8340 262.9408 0.0000 0.0000 0.0000
# 4 0.0000 0.0000 0.0000 20.6359 0.0000 0.0000
# 5 0.0000 0.0000 0.0000 0.0000 33.7038 0.0000
# 6 0.0000 0.0000 0.0000 0.0000 0.0000 8.9132
#
#
#
# Elastic Compliance Matrix: (Units=1/GPa)
#
#
# Indices 1 2 3 4 5 6 
#
# 1 0.013865 -0.000686 -0.005762 0.000000 0.000000 0.000000
# 2 -0.000686 0.043940 -0.001691 0.000000 0.000000 0.000000
# 3 -0.005762 -0.001691 0.006286 0.000000 0.000000 0.000000
# 4 0.000000 0.000000 0.000000 0.048459 0.000000 0.000000
# 5 0.000000 0.000000 0.000000 0.000000 0.029670 0.000000
# 6 0.000000 0.000000 0.000000 0.000000 0.000000 0.112194
#
#
# Mechanical properties :
#
#
# Convention : Reuss Voigt Hill
#
# Bulk Modulus (GPa) = 20.91473 73.31668 47.11570
# Shear Modulus (GPa) = 17.44416 31.08841 24.26629
#
# Velocity S-wave (km/s) = 2.95289 3.94205 3.48277
# Velocity P-wave (km/s) = 4.69898 7.57413 6.30269
#
# Compressibility (1/GPa) = 0.04781320
#
# Stress axis : x y z
#
# Youngs Moduli (GPa) = 72.12599 22.75855 159.07219
#
# Poissons Ratio (x) = 0.01561 0.91653
# Poissons Ratio (y) = 0.04949 0.26898
# Poissons Ratio (z) = 0.41557 0.03848
#
# Static dielectric constant tensor:
#      x y z
#    x 1.673210 0.000000 0.000000 
#    y 0.000000 1.749460 0.000000 
#    z 0.000000 0.000000 1.731240 
# 
# From -- ./inp_files/31122.got.cif
#   From: 2010.05.17/outbox.cif.g08.bks.cpg/sg59_16_cif.got.tgz:31122.got - 2010.06.03 14:40:33.
