data_PCOD9449948
_publ_section_title
;
Structure prediction by ZEFSAII (Michael W. Deem and Ramdas Pophale) SiO2 
 PCOD9449948
Probable space group: P M M N
;
_chemical_formula_sum "Si O2"
_cell_formula_units_Z 40
_cell_length_a 9.748299
_cell_length_b 8.576903
_cell_length_c 26.439553
_cell_angle_alpha 90.000000
_cell_angle_beta 90.000000
_cell_angle_gamma 90.000000
_cell_volume 2210.616709
_symmetry_space_group_name_H-M "P M M N"
_symmetry_group_IT_number 59
_space_group.IT_coordinate_system_code '2'
_symmetry_cell_setting 'orthorhombic'
loop_
_space_group_symop_operation_xyz
x,y,z
1/2-x,1/2-y,z
1/2+x,-y,-z
-x,1/2+y,-z
-x,-y,-z
1/2+x,1/2+y,-z
1/2-x,y,z
x,1/2-y,z
loop_
_atom_site_type_symbol
_atom_site_label
_atom_site_fract_x
_atom_site_fract_y
_atom_site_fract_z
Si Si1 0.590177 0.563609 0.045676
Si Si2 0.408433 0.062262 0.545123
Si Si3 0.408381 0.938756 0.247099
Si Si4 0.408982 0.936723 0.844086
Si Si5 0.908408 0.559992 0.341218
O O1 0.750000 0.521756 0.037429
O O2 0.579421 0.750000 0.047971
O O3 0.550011 0.494005 0.100063
O O4 0.500000 0.500000 0.000000
O O5 0.250000 0.015498 0.537915
O O6 0.413787 0.250000 0.544634
O O7 0.449168 0.011069 0.601956
O O8 0.500000 0.000000 0.500000
O O9 0.250000 0.990173 0.246671
O O10 0.409120 0.750000 0.247141
O O11 0.489565 0.992340 0.297320
O O12 0.492002 0.995973 0.198526
O O13 0.250000 0.987241 0.835471
O O14 0.412588 0.750000 0.842698
O O15 0.750000 0.512278 0.331891
O O16 0.908559 0.750000 0.340963
#
# Coordination Sequence:
#
# PCOD9449948 Si02
#       5
#     8   8   8   8   8
#     4  10  21  37  58  83 109 139 175 214 257 303
#     4   9  18  32  50  74 102 132 169 211 255 305
#     4  10  20  33  52  79 105 130 166 212 260 308
#     4  10  21  37  56  77 103 138 177 213 252 302
#     4   8  15  30  51  72  97 132 172 212 253 301
#
# _framework density 18.094498999999999
#
# number of rings (size 3 to 8) (size 9 to 14) (size 15 to 20)
#    0.000    2.600    0.000    3.000    0.000    5.600 
#    0.000    3.000    0.000    1.200    0.000    0.000 
#    0.000    0.000    0.000    0.000    0.000    0.000 
#
# Total GULP energy -223161.303420 kJ/mol
# GULP energy per Si atom -5579.032585 kJ/mol
# Density = 1.805332 g / cm^3
# Si number density = 18.094499 Si / 1000 Ang^3
#
#
#
# Elastic Constant Matrix: (Units=GPa)
#
#
# Indices 1 2 3 4 5 6 
#
# 1 121.5067 27.6278 133.4386 0.0000 0.0000 0.0000
# 2 27.6278 12.0978 31.9084 0.0000 0.0000 0.0000
# 3 133.4386 31.9084 208.7409 0.0000 0.0000 0.0000
# 4 0.0000 0.0000 0.0000 31.0257 0.0000 0.0000
# 5 0.0000 0.0000 0.0000 0.0000 40.0662 0.0000
# 6 0.0000 0.0000 0.0000 0.0000 0.0000 25.0150
#
#
#
# Elastic Compliance Matrix: (Units=1/GPa)
#
#
# Indices 1 2 3 4 5 6 
#
# 1 0.034524 -0.034571 -0.016785 0.000000 0.000000 0.000000
# 2 -0.034571 0.173117 -0.004363 0.000000 0.000000 0.000000
# 3 -0.016785 -0.004363 0.016187 0.000000 0.000000 0.000000
# 4 0.000000 0.000000 0.000000 0.032231 0.000000 0.000000
# 5 0.000000 0.000000 0.000000 0.000000 0.024959 0.000000
# 6 0.000000 0.000000 0.000000 0.000000 0.000000 0.039976
#
#
# Mechanical properties :
#
#
# Convention : Reuss Voigt Hill
#
# Bulk Modulus (GPa) = 8.89759 80.92165 44.90962
# Shear Modulus (GPa) = 10.64063 29.17943 19.91003
#
# Velocity S-wave (km/s) = 2.42762 4.02009 3.32073
# Velocity P-wave (km/s) = 3.57572 8.14659 6.29098
#
# Compressibility (1/GPa) = 0.11239001
#
# Stress axis : x y z
#
# Youngs Moduli (GPa) = 28.96534 5.77643 61.77615
#
# Poissons Ratio (x) = 0.19970 1.03692
# Poissons Ratio (y) = 1.00137 0.26953
# Poissons Ratio (z) = 0.48618 0.02520
#
# Static dielectric constant tensor:
#      x y z
#    x 1.608790 0.000000 0.000000 
#    y 0.000000 1.622270 0.000000 
#    z 0.000000 0.000000 1.599020 
# 
# From -- ./inp_files/31128.got.cif
#   From: 2010.05.17/outbox.cif.g08.bks.cpg/sg59_16_cif.got.tgz:31128.got - 2010.06.03 14:40:33.
