data_PCOD9449069
_publ_section_title
;
Structure prediction by ZEFSAII (Michael W. Deem and Ramdas Pophale) SiO2 
 PCOD9449069
Probable space group: P M M N
;
_chemical_formula_sum "Si O2"
_cell_formula_units_Z 64
_cell_length_a 20.457287
_cell_length_b 8.749873
_cell_length_c 18.186048
_cell_angle_alpha 90.000000
_cell_angle_beta 90.000000
_cell_angle_gamma 90.000000
_cell_volume 3255.278280
_symmetry_space_group_name_H-M "P M M N"
_symmetry_group_IT_number 59
_space_group.IT_coordinate_system_code '2'
_symmetry_cell_setting 'orthorhombic'
loop_
_space_group_symop_operation_xyz
x,y,z
1/2-x,1/2-y,z
1/2+x,-y,-z
-x,1/2+y,-z
-x,-y,-z
1/2+x,1/2+y,-z
1/2-x,y,z
x,1/2-y,z
loop_
_atom_site_type_symbol
_atom_site_label
_atom_site_fract_x
_atom_site_fract_y
_atom_site_fract_z
Si Si1 0.569109 0.921461 0.195917
Si Si2 0.914097 0.066057 0.429695
Si Si3 0.823726 0.065499 0.867549
Si Si4 0.649497 0.928390 0.707481
Si Si5 0.176106 0.567242 0.712027
Si Si6 0.979633 0.079087 0.660837
Si Si7 0.966213 0.064248 0.926909
Si Si8 0.180872 0.933533 0.446461
O O1 0.587000 0.750000 0.171549
O O2 0.516016 0.983938 0.138319
O O3 0.633828 0.011971 0.218212
O O4 0.530168 0.910052 0.272305
O O5 0.924270 0.250000 0.430585
O O6 0.862411 0.032090 0.363715
O O7 0.980233 0.980161 0.408673
O O8 0.880140 0.015352 0.505019
O O9 0.750000 0.018550 0.893412
O O10 0.824805 0.250000 0.867690
O O11 0.890538 0.015868 0.910400
O O12 0.831591 0.008749 0.783606
O O13 0.663875 0.750000 0.712794
O O14 0.573888 0.961778 0.689676
O O15 0.680776 0.001597 0.635150
O O16 0.250000 0.506267 0.711623
O O17 0.178964 0.750000 0.715016
O O18 0.048252 0.750000 0.351349
O O19 0.965340 0.250000 0.928675
O O20 0.000000 0.000000 0.000000
O O21 0.250000 0.976396 0.482918
O O22 0.178647 0.750000 0.444115
#
# Coordination Sequence:
#
# PCOD9449069 Si02
#       8
#     8   8   8   8   8   8   8   8
#     4   9  18  34  55  79 111 146 185 228 272 331
#     4   9  18  33  53  78 107 142 190 244 295 342
#     4  10  21  41  67  90 117 155 196 237 283 342
#     4  12  24  36  55  83 115 147 188 244 296 342
#     4   9  17  30  51  80 111 143 186 239 288 334
#     4  10  19  35  57  79 107 146 189 232 284 348
#     4  10  21  39  62  91 120 151 187 226 276 336
#     4  10  21  37  55  74 104 150 195 237 294 359
#
# _framework density 19.660378000000001
#
# number of rings (size 3 to 8) (size 9 to 14) (size 15 to 20)
#    0.000    2.125    1.250    2.250    0.000    6.250 
#    0.000    0.625    0.000    4.500    0.000    0.000 
#    0.000    0.000    0.000    0.000    0.000    0.000 
#
# Total GULP energy -356813.857874 kJ/mol
# GULP energy per Si atom -5575.216529 kJ/mol
# Density = 1.961563 g / cm^3
# Si number density = 19.660378 Si / 1000 Ang^3
#
#
#
# Elastic Constant Matrix: (Units=GPa)
#
#
# Indices 1 2 3 4 5 6 
#
# 1 121.5509 12.8102 45.9717 0.0000 0.0000 0.0000
# 2 12.8102 7.4142 11.0714 0.0000 0.0000 0.0000
# 3 45.9717 11.0714 87.1751 0.0000 0.0000 0.0000
# 4 0.0000 0.0000 0.0000 25.8727 0.0000 0.0000
# 5 0.0000 0.0000 0.0000 0.0000 -12.1701 0.0000
# 6 0.0000 0.0000 0.0000 0.0000 0.0000 23.5922
#
#
#
# Elastic Compliance Matrix: (Units=1/GPa)
#
#
# Indices 1 2 3 4 5 6 
#
# 1 0.011209 -0.013006 -0.004259 0.000000 0.000000 0.000000
# 2 -0.013006 0.181535 -0.016196 0.000000 0.000000 0.000000
# 3 -0.004259 -0.016196 0.015774 0.000000 0.000000 0.000000
# 4 0.000000 0.000000 0.000000 0.038651 0.000000 0.000000
# 5 0.000000 0.000000 0.000000 0.000000 -0.082168 0.000000
# 6 0.000000 0.000000 0.000000 0.000000 0.000000 0.042387
#
#
# Mechanical properties :
#
#
# Convention : Reuss Voigt Hill
#
# Bulk Modulus (GPa) = 7.06242 39.53854 23.30048
# Shear Modulus (GPa) = 15.55167 17.21142 16.38154
#
# Velocity S-wave (km/s) = 2.81555 2.96199 2.88970
# Velocity P-wave (km/s) = 3.76428 5.64378 4.79698
#
# Compressibility (1/GPa) = 0.14159454
#
# Stress axis : x y z
#
# Youngs Moduli (GPa) = 89.21776 5.50857 63.39509
#
# Poissons Ratio (x) = 0.07165 0.27000
# Poissons Ratio (y) = 1.16040 1.02677
# Poissons Ratio (z) = 0.37998 0.08922
#
# Static dielectric constant tensor:
#      x y z
#    x 1.771070 0.000000 0.000000 
#    y 0.000000 1.680370 0.000000 
#    z 0.000000 0.000000 1.677950 
# 
# From -- ./inp_files/28192.got.cif
#   From: 2010.05.17/outbox.cif.g08.bks.cpg/sg59_15_cif.got.tgz:28192.got - 2010.06.03 14:40:33.
