data_PCOD9449122
_publ_section_title
;
Structure prediction by ZEFSAII (Michael W. Deem and Ramdas Pophale) SiO2 
 PCOD9449122
Probable space group: P M M N
;
_chemical_formula_sum "Si O2"
_cell_formula_units_Z 40
_cell_length_a 7.453134
_cell_length_b 19.659748
_cell_length_c 12.030043
_cell_angle_alpha 90.000000
_cell_angle_beta 90.000000
_cell_angle_gamma 90.000000
_cell_volume 1762.722938
_symmetry_space_group_name_H-M "P M M N"
_symmetry_group_IT_number 59
_space_group.IT_coordinate_system_code '2'
_symmetry_cell_setting 'orthorhombic'
loop_
_space_group_symop_operation_xyz
x,y,z
1/2-x,1/2-y,z
1/2+x,-y,-z
-x,1/2+y,-z
-x,-y,-z
1/2+x,1/2+y,-z
1/2-x,y,z
x,1/2-y,z
loop_
_atom_site_type_symbol
_atom_site_label
_atom_site_fract_x
_atom_site_fract_y
_atom_site_fract_z
Si Si1 0.038846 0.175564 0.052648
Si Si2 0.955092 0.541103 0.834483
Si Si3 0.969133 0.328086 0.591710
Si Si4 0.032685 0.609575 0.174130
Si Si5 0.036801 0.562834 0.581864
O O1 0.250000 0.177595 0.081543
O O2 0.963448 0.250000 0.080952
O O3 0.021045 0.161643 0.921568
O O4 0.960821 0.108369 0.111496
O O5 0.750000 0.537720 0.875874
O O6 0.034554 0.466320 0.854977
O O7 0.953525 0.550930 0.701821
O O8 0.750000 0.328902 0.592453
O O9 0.026397 0.250000 0.591402
O O10 0.027209 0.366121 0.704346
O O11 0.026106 0.370288 0.483769
O O12 0.250000 0.606779 0.177414
O O13 0.250000 0.567726 0.598986
O O14 0.000000 0.500000 0.500000
#
# Coordination Sequence:
#
# PCOD9449122 Si02
#       5
#     8   8   8   8   8
#     4  10  22  38  55  80 117 152 181 226 284 334
#     4  10  21  38  58  81 111 147 189 230 276 329
#     4   9  18  33  54  81 111 143 180 226 278 323
#     4  10  19  35  59  82 107 144 189 234 274 323
#     4  11  21  36  58  83 113 147 183 227 275 329
#
# _framework density 22.692163999999998
#
# number of rings (size 3 to 8) (size 9 to 14) (size 15 to 20)
#    0.000    2.000    2.000    1.800    0.000    3.600 
#    0.000    0.000    0.000    3.000    0.000    0.000 
#    0.000    0.000    0.000    0.000    0.000    0.000 
#
# Total GULP energy -223582.731560 kJ/mol
# GULP energy per Si atom -5589.568289 kJ/mol
# Density = 2.264052 g / cm^3
# Si number density = 22.692164 Si / 1000 Ang^3
#
#
#
# Elastic Constant Matrix: (Units=GPa)
#
#
# Indices 1 2 3 4 5 6 
#
# 1 76.4518 5.9546 -11.0247 0.0000 0.0000 0.0000
# 2 5.9546 177.0747 12.9595 0.0000 0.0000 0.0000
# 3 -11.0247 12.9595 52.4134 0.0000 0.0000 0.0000
# 4 0.0000 0.0000 0.0000 35.9063 0.0000 0.0000
# 5 0.0000 0.0000 0.0000 0.0000 20.3140 0.0000
# 6 0.0000 0.0000 0.0000 0.0000 0.0000 4.3233
#
#
#
# Elastic Compliance Matrix: (Units=1/GPa)
#
#
# Indices 1 2 3 4 5 6 
#
# 1 0.013569 -0.000677 0.003022 0.000000 0.000000 0.000000
# 2 -0.000677 0.005785 -0.001573 0.000000 0.000000 0.000000
# 3 0.003022 -0.001573 0.020104 0.000000 0.000000 0.000000
# 4 0.000000 0.000000 0.000000 0.027850 0.000000 0.000000
# 5 0.000000 0.000000 0.000000 0.000000 0.049227 0.000000
# 6 0.000000 0.000000 0.000000 0.000000 0.000000 0.231303
#
#
# Mechanical properties :
#
#
# Convention : Reuss Voigt Hill
#
# Bulk Modulus (GPa) = 24.39034 35.74651 30.06843
# Shear Modulus (GPa) = 13.89036 31.97875 22.93455
#
# Velocity S-wave (km/s) = 2.47679 3.75806 3.18257
# Velocity P-wave (km/s) = 4.35328 5.88368 5.17536
#
# Compressibility (1/GPa) = 0.04099983
#
# Stress axis : x y z
#
# Youngs Moduli (GPa) = 73.69942 172.85399 49.74244
#
# Poissons Ratio (x) = 0.11709 -0.15030
# Poissons Ratio (y) = 0.04993 0.07824
# Poissons Ratio (z) = -0.22269 0.27189
#
# Static dielectric constant tensor:
#      x y z
#    x 1.855250 0.000000 0.000000 
#    y 0.000000 1.850900 0.000000 
#    z 0.000000 0.000000 1.789170 
# 
# From -- ./inp_files/13840.got.cif
#   From: 2010.05.17/outbox.cif.g08.bks.cpg/sg59_7_cif.got.tgz:13840.got - 2010.06.03 14:40:33.
