data_PCOD9449540
_publ_section_title
;
Structure prediction by ZEFSAII (Michael W. Deem and Ramdas Pophale) SiO2 
 PCOD9449540
Probable space group: P M M N
;
_chemical_formula_sum "Si O2"
_cell_formula_units_Z 64
_cell_length_a 15.336025
_cell_length_b 7.541656
_cell_length_c 24.990286
_cell_angle_alpha 90.000000
_cell_angle_beta 90.000000
_cell_angle_gamma 90.000000
_cell_volume 2890.352112
_symmetry_space_group_name_H-M "P M M N"
_symmetry_group_IT_number 59
_space_group.IT_coordinate_system_code '2'
_symmetry_cell_setting 'orthorhombic'
loop_
_space_group_symop_operation_xyz
x,y,z
1/2-x,1/2-y,z
1/2+x,-y,-z
-x,1/2+y,-z
-x,-y,-z
1/2+x,1/2+y,-z
1/2-x,y,z
x,1/2-y,z
loop_
_atom_site_type_symbol
_atom_site_label
_atom_site_fract_x
_atom_site_fract_y
_atom_site_fract_z
Si Si1 0.472871 0.039617 0.132868
Si Si2 0.651460 0.466578 0.087276
Si Si3 0.512790 0.462777 0.562295
Si Si4 0.152214 0.537053 0.034996
Si Si5 0.651430 0.039626 0.646874
Si Si6 0.844368 0.453304 0.253206
Si Si7 0.843021 0.535636 0.376288
Si Si8 0.540894 0.964299 0.753332
O O1 0.482580 0.250000 0.139342
O O2 0.571111 0.970232 0.123150
O O3 0.426401 0.979124 0.187683
O O4 0.416741 0.012030 0.079817
O O5 0.750000 0.522375 0.101358
O O6 0.651871 0.250000 0.088291
O O7 0.633125 0.521681 0.025727
O O8 0.500000 0.500000 0.500000
O O9 0.514307 0.250000 0.567522
O O10 0.596012 0.530572 0.596022
O O11 0.426204 0.528282 0.592019
O O12 0.250000 0.474689 0.048804
O O13 0.154195 0.750000 0.033011
O O14 0.750000 0.967313 0.651565
O O15 0.659380 0.250000 0.638751
O O16 0.595642 0.019650 0.701577
O O17 0.750000 0.530432 0.235686
O O18 0.845728 0.250000 0.232830
O O19 0.841469 0.454667 0.317550
O O20 0.940436 0.530106 0.244400
O O21 0.750000 0.496630 0.403122
O O22 0.848576 0.750000 0.369882
O O23 0.538597 0.750000 0.749316
#
# Coordination Sequence:
#
# PCOD9449540 Si02
#       8
#     8   8   8   8   8   8   8   8
#     4  10  20  32  50  78 107 136 173 220 270 315
#     4   8  15  30  52  76 103 137 175 215 264 323
#     4  10  21  36  55  81 109 136 169 212 258 308
#     4   9  18  33  52  73  99 135 179 222 265 317
#     4  10  22  41  61  79 104 143 187 223 257 302
#     4   9  17  30  50  75 101 130 164 203 250 304
#     4   9  17  31  52  76 101 129 162 201 247 300
#     4  10  21  35  52  78 110 140 175 219 265 314
#
# _framework density 22.14263
#
# number of rings (size 3 to 8) (size 9 to 14) (size 15 to 20)
#    0.000    2.625    1.250    1.125    0.000    3.500 
#    0.000    5.000    0.000    1.125    0.000    1.750 
#    0.000    0.000    0.000    0.000    0.000    0.000 
#
# Total GULP energy -356872.192925 kJ/mol
# GULP energy per Si atom -5576.128014 kJ/mol
# Density = 2.209223 g / cm^3
# Si number density = 22.142630 Si / 1000 Ang^3
#
#
#
# Elastic Constant Matrix: (Units=GPa)
#
#
# Indices 1 2 3 4 5 6 
#
# 1 151.4679 8.5454 82.1125 0.0000 0.0000 0.0000
# 2 8.5454 52.4994 -1.3103 0.0000 0.0000 0.0000
# 3 82.1125 -1.3103 145.8321 0.0000 0.0000 0.0000
# 4 0.0000 0.0000 0.0000 5.9127 0.0000 0.0000
# 5 0.0000 0.0000 0.0000 0.0000 -1.6284 0.0000
# 6 0.0000 0.0000 0.0000 0.0000 0.0000 12.0501
#
#
#
# Elastic Compliance Matrix: (Units=1/GPa)
#
#
# Indices 1 2 3 4 5 6 
#
# 1 0.009653 -0.001707 -0.005451 0.000000 0.000000 0.000000
# 2 -0.001707 0.019354 0.001135 0.000000 0.000000 0.000000
# 3 -0.005451 0.001135 0.009937 0.000000 0.000000 0.000000
# 4 0.000000 0.000000 0.000000 0.169128 0.000000 0.000000
# 5 0.000000 0.000000 0.000000 0.000000 -0.614084 0.000000
# 6 0.000000 0.000000 0.000000 0.000000 0.000000 0.082987
#
#
# Mechanical properties :
#
#
# Convention : Reuss Voigt Hill
#
# Bulk Modulus (GPa) = 37.17721 58.72163 47.94942
# Shear Modulus (GPa) = -16.55555 20.63031 2.03738
#
# Velocity S-wave (km/s) = -2.73734 3.05569 0.96027
# Velocity P-wave (km/s) = 2.61451 6.24715 4.78866
#
# Compressibility (1/GPa) = 0.02689820
#
# Stress axis : x y z
#
# Youngs Moduli (GPa) = 103.59155 51.66869 100.63892
#
# Poissons Ratio (x) = 0.08822 0.54856
# Poissons Ratio (y) = 0.17686 -0.11425
# Poissons Ratio (z) = 0.56465 -0.05866
#
# Static dielectric constant tensor:
#      x y z
#    x 1.848440 0.000000 0.000000 
#    y 0.000000 1.869730 0.000000 
#    z 0.000000 0.000000 1.805620 
# 
# From -- ./inp_files/32096.got.cif
#   From: 2010.05.17/outbox.cif.g08.bks.cpg/sg59_17_cif.got.tgz:32096.got - 2010.06.03 14:40:33.
