data_PCOD9449979
_publ_section_title
;
Structure prediction by ZEFSAII (Michael W. Deem and Ramdas Pophale) SiO2 
 PCOD9449979
Probable space group: P M M N
;
_chemical_formula_sum "Si O2"
_cell_formula_units_Z 48
_cell_length_a 23.573313
_cell_length_b 10.931075
_cell_length_c 9.640101
_cell_angle_alpha 90.000000
_cell_angle_beta 90.000000
_cell_angle_gamma 90.000000
_cell_volume 2484.077155
_symmetry_space_group_name_H-M "P M M N"
_symmetry_group_IT_number 59
_space_group.IT_coordinate_system_code '2'
_symmetry_cell_setting 'orthorhombic'
loop_
_space_group_symop_operation_xyz
x,y,z
1/2-x,1/2-y,z
1/2+x,-y,-z
-x,1/2+y,-z
-x,-y,-z
1/2+x,1/2+y,-z
1/2-x,y,z
x,1/2-y,z
loop_
_atom_site_type_symbol
_atom_site_label
_atom_site_fract_x
_atom_site_fract_y
_atom_site_fract_z
Si Si1 0.895709 0.499150 0.220271
Si Si2 0.515223 0.390310 0.680963
Si Si3 0.182640 0.388349 0.000000
Si Si4 0.818104 0.109364 0.790194
Si Si5 0.617152 0.395917 0.507910
Si Si6 0.540394 0.383332 0.984376
O O1 0.956043 0.551413 0.273731
O O2 0.855959 0.591484 0.135847
O O3 0.866948 0.450025 0.359563
O O4 0.912881 0.398878 0.103644
O O5 0.502899 0.250000 0.643801
O O6 0.555802 0.444030 0.562742
O O7 0.554269 0.388156 0.820891
O O8 0.250000 0.399747 0.968900
O O9 0.173056 0.250000 0.053906
O O10 0.167236 0.496540 0.107669
O O11 0.750000 0.110667 0.787286
O O12 0.835064 0.250000 0.831353
O O13 0.840300 0.084119 0.634960
O O14 0.611480 0.250000 0.490992
O O15 0.512187 0.250000 0.004478
O O16 0.500000 0.500000 0.000000
#
# Coordination Sequence:
#
# PCOD9449979 Si02
#       6
#     8   8   8   8   8   8
#     4  11  20  32  53  80 112 146 183 230 281 334
#     4   9  18  33  50  71 105 148 187 223 267 323
#     4  10  22  40  60  82 109 143 186 236 287 339
#     4   9  19  38  62  84 108 143 186 229 276 335
#     4  10  20  33  52  80 113 146 182 226 274 328
#     4   9  18  32  52  77 106 143 186 227 269 320
#
# _framework density 19.323072
#
# number of rings (size 3 to 8) (size 9 to 14) (size 15 to 20)
#    0.000    2.333    0.000    2.500    0.000    4.000 
#    0.000    1.667    0.000    6.000    0.000    0.000 
#    0.000    0.000    0.000    0.000    0.000    0.000 
#
# Total GULP energy -267203.882135 kJ/mol
# GULP energy per Si atom -5566.747544 kJ/mol
# Density = 1.927909 g / cm^3
# Si number density = 19.323072 Si / 1000 Ang^3
#
#
#
# Elastic Constant Matrix: (Units=GPa)
#
#
# Indices 1 2 3 4 5 6 
#
# 1 53.1124 39.9772 28.5966 0.0000 0.0000 0.0000
# 2 39.9772 112.1362 56.9547 0.0000 0.0000 0.0000
# 3 28.5966 56.9547 123.4586 0.0000 0.0000 0.0000
# 4 0.0000 0.0000 0.0000 23.4039 0.0000 0.0000
# 5 0.0000 0.0000 0.0000 0.0000 26.4291 0.0000
# 6 0.0000 0.0000 0.0000 0.0000 0.0000 21.8755
#
#
#
# Elastic Compliance Matrix: (Units=1/GPa)
#
#
# Indices 1 2 3 4 5 6 
#
# 1 0.026224 -0.008181 -0.002300 0.000000 0.000000 0.000000
# 2 -0.008181 0.014199 -0.004655 0.000000 0.000000 0.000000
# 3 -0.002300 -0.004655 0.010780 0.000000 0.000000 0.000000
# 4 0.000000 0.000000 0.000000 0.042728 0.000000 0.000000
# 5 0.000000 0.000000 0.000000 0.000000 0.037837 0.000000
# 6 0.000000 0.000000 0.000000 0.000000 0.000000 0.045713
#
#
# Mechanical properties :
#
#
# Convention : Reuss Voigt Hill
#
# Bulk Modulus (GPa) = 47.77736 59.97380 53.87558
# Shear Modulus (GPa) = 23.28497 25.22027 24.25262
#
# Velocity S-wave (km/s) = 3.47513 3.61666 3.54660
# Velocity P-wave (km/s) = 6.39384 6.96743 6.68679
#
# Compressibility (1/GPa) = 0.02093042
#
# Stress axis : x y z
#
# Youngs Moduli (GPa) = 38.13292 70.42921 92.76166
#
# Poissons Ratio (x) = 0.57616 0.21338
# Poissons Ratio (y) = 0.31195 0.43184
# Poissons Ratio (z) = 0.08772 0.32787
#
# Static dielectric constant tensor:
#      x y z
#    x 1.736700 0.000000 0.000000 
#    y 0.000000 1.657910 0.000000 
#    z 0.000000 0.000000 1.686730 
# 
# From -- ./inp_files/12029.got.cif
#   From: 2010.05.17/outbox.cif.g08.bks.cpg/sg59_7_cif.got.tgz:12029.got - 2010.06.03 14:40:33.
