data_PCOD9449618
_publ_section_title
;
Structure prediction by ZEFSAII (Michael W. Deem and Ramdas Pophale) SiO2 
 PCOD9449618
Probable space group: P M M N
;
_chemical_formula_sum "Si O2"
_cell_formula_units_Z 56
_cell_length_a 14.791086
_cell_length_b 9.629090
_cell_length_c 18.426985
_cell_angle_alpha 90.000000
_cell_angle_beta 90.000000
_cell_angle_gamma 90.000000
_cell_volume 2624.457779
_symmetry_space_group_name_H-M "P M M N"
_symmetry_group_IT_number 59
_space_group.IT_coordinate_system_code '2'
_symmetry_cell_setting 'orthorhombic'
loop_
_space_group_symop_operation_xyz
x,y,z
1/2-x,1/2-y,z
1/2+x,-y,-z
-x,1/2+y,-z
-x,-y,-z
1/2+x,1/2+y,-z
1/2-x,y,z
x,1/2-y,z
loop_
_atom_site_type_symbol
_atom_site_label
_atom_site_fract_x
_atom_site_fract_y
_atom_site_fract_z
Si Si1 0.639573 0.590358 0.371119
Si Si2 0.646774 0.599958 0.109055
Si Si3 0.073791 0.411011 0.040510
Si Si4 0.639348 0.090379 0.510101
Si Si5 0.145726 0.419030 0.193058
Si Si6 0.139133 0.089543 0.352352
Si Si7 0.360401 0.906361 0.766982
O O1 0.750000 0.594189 0.372070
O O2 0.608518 0.750000 0.372314
O O3 0.611400 0.502141 0.441363
O O4 0.613745 0.507295 0.298665
O O5 0.750000 0.609900 0.134378
O O6 0.602032 0.750000 0.124135
O O7 0.649278 0.584081 0.022462
O O8 0.609311 0.474083 0.156771
O O9 0.047059 0.250000 0.048643
O O10 0.100024 0.466678 0.118983
O O11 0.000000 0.500000 0.000000
O O12 0.750000 0.092723 0.509717
O O13 0.608900 0.250000 0.505405
O O14 0.611417 0.013244 0.583864
O O15 0.250000 0.464026 0.190142
O O16 0.145920 0.250000 0.191475
O O17 0.107936 0.456067 0.272114
O O18 0.250000 0.090429 0.350150
O O19 0.112185 0.250000 0.366100
O O20 0.250000 0.896283 0.765548
O O21 0.395745 0.750000 0.758547
#
# Coordination Sequence:
#
# PCOD9449618 Si02
#       7
#     8   8   8   8   8   8   8
#     4   9  15  22  33  50  76 112 150 182 213 255
#     4   9  17  30  48  67  87 116 155 192 224 265
#     4  10  20  33  49  69  93 119 148 186 231 276
#     4   9  15  21  30  48  78 113 144 175 216 263
#     4   8  14  27  48  69  87 114 155 195 226 263
#     4   8  13  22  37  56  77 104 142 184 220 256
#     4   9  16  25  38  58  84 112 143 182 227 269
#
# _framework density 21.33774
#
# number of rings (size 3 to 8) (size 9 to 14) (size 15 to 20)
#    0.000    3.143    0.000    2.571    0.000    7.429 
#    0.000    0.714    0.000    2.143    0.000    0.000 
#    0.000    1.143    0.000    3.429    0.000    7.857 
#
# Total GULP energy -312265.935865 kJ/mol
# GULP energy per Si atom -5576.177426 kJ/mol
# Density = 2.128917 g / cm^3
# Si number density = 21.337740 Si / 1000 Ang^3
#
#
#
# Elastic Constant Matrix: (Units=GPa)
#
#
# Indices 1 2 3 4 5 6 
#
# 1 38.3095 21.0634 22.8663 0.0000 0.0000 0.0000
# 2 21.0634 125.6140 46.8919 0.0000 0.0000 0.0000
# 3 22.8663 46.8919 55.9344 0.0000 0.0000 0.0000
# 4 0.0000 0.0000 0.0000 16.0159 0.0000 0.0000
# 5 0.0000 0.0000 0.0000 0.0000 1.0834 0.0000
# 6 0.0000 0.0000 0.0000 0.0000 0.0000 6.6390
#
#
#
# Elastic Compliance Matrix: (Units=1/GPa)
#
#
# Indices 1 2 3 4 5 6 
#
# 1 0.034578 -0.000759 -0.013500 0.000000 0.000000 0.000000
# 2 -0.000759 0.011604 -0.009418 0.000000 0.000000 0.000000
# 3 -0.013500 -0.009418 0.031292 0.000000 0.000000 0.000000
# 4 0.000000 0.000000 0.000000 0.062438 0.000000 0.000000
# 5 0.000000 0.000000 0.000000 0.000000 0.923044 0.000000
# 6 0.000000 0.000000 0.000000 0.000000 0.000000 0.150625
#
#
# Mechanical properties :
#
#
# Convention : Reuss Voigt Hill
#
# Bulk Modulus (GPa) = 33.19865 44.61124 38.90494
# Shear Modulus (GPa) = 3.93399 13.35007 8.64203
#
# Velocity S-wave (km/s) = 1.35929 2.50402 2.01467
# Velocity P-wave (km/s) = 4.24924 5.41413 4.86666
#
# Compressibility (1/GPa) = 0.03012171
#
# Stress axis : x y z
#
# Youngs Moduli (GPa) = 28.92009 86.17890 31.95705
#
# Poissons Ratio (x) = 0.06539 0.43141
# Poissons Ratio (y) = 0.02194 0.30096
# Poissons Ratio (z) = 0.39041 0.81161
#
# Static dielectric constant tensor:
#      x y z
#    x 1.019040 0.000000 0.000000 
#    y 0.000000 1.755670 0.000000 
#    z 0.000000 0.000000 1.783190 
# 
# From -- ./inp_files/28070.got.cif
#   From: 2010.05.17/outbox.cif.g08.bks.cpg/sg59_15_cif.got.tgz:28070.got - 2010.06.03 14:40:33.
