data_PCOD9449956
_publ_section_title
;
Structure prediction by ZEFSAII (Michael W. Deem and Ramdas Pophale) SiO2 
 PCOD9449956
Probable space group: P M M N
;
_chemical_formula_sum "Si O2"
_cell_formula_units_Z 64
_cell_length_a 8.849653
_cell_length_b 18.143377
_cell_length_c 22.118111
_cell_angle_alpha 90.000000
_cell_angle_beta 90.000000
_cell_angle_gamma 90.000000
_cell_volume 3551.341204
_symmetry_space_group_name_H-M "P M M N"
_symmetry_group_IT_number 59
_space_group.IT_coordinate_system_code '2'
_symmetry_cell_setting 'orthorhombic'
loop_
_space_group_symop_operation_xyz
x,y,z
1/2-x,1/2-y,z
1/2+x,-y,-z
-x,1/2+y,-z
-x,-y,-z
1/2+x,1/2+y,-z
1/2-x,y,z
x,1/2-y,z
loop_
_atom_site_type_symbol
_atom_site_label
_atom_site_fract_x
_atom_site_fract_y
_atom_site_fract_z
Si Si1 0.568693 0.024820 0.936796
Si Si2 0.932165 0.666085 0.499733
Si Si3 0.432171 0.665299 0.725897
Si Si4 0.569506 0.949999 0.812791
Si Si5 0.432003 0.402817 0.627963
Si Si6 0.932159 0.426460 0.392376
Si Si7 0.430266 0.891524 0.244035
Si Si8 0.069826 0.166791 0.876401
O O1 0.750000 0.026109 0.939719
O O2 0.508990 0.104912 0.917014
O O3 0.525252 0.970416 0.881326
O O4 0.500000 0.000000 0.000000
O O5 0.750000 0.662701 0.503753
O O6 0.980260 0.750000 0.512918
O O7 0.973132 0.643363 0.431459
O O8 0.000765 0.609611 0.547614
O O9 0.250000 0.664872 0.726349
O O10 0.483507 0.750000 0.725062
O O11 0.490616 0.619779 0.783163
O O12 0.481413 0.621703 0.665543
O O13 0.750000 0.939896 0.811212
O O14 0.534274 0.023064 0.773117
O O15 0.250000 0.399849 0.635460
O O16 0.475100 0.488262 0.616414
O O17 0.509176 0.375994 0.689323
O O18 0.750000 0.423714 0.395780
O O19 0.250000 0.882212 0.240360
O O20 0.509426 0.844602 0.191705
O O21 0.250000 0.155653 0.877232
O O22 0.036658 0.250000 0.896403
#
# Coordination Sequence:
#
# PCOD9449956 Si02
#       8
#     8   8   8   8   8   8   8   8
#     4  10  21  38  61  89 118 153 195 235 277 328
#     4  10  22  37  51  72 103 137 176 225 279 336
#     4  10  20  33  52  79 107 137 178 226 275 327
#     4   9  19  35  54  79 110 141 177 219 265 322
#     4  10  20  35  55  77 103 140 182 224 276 336
#     4  10  20  35  55  76 100 136 182 228 273 330
#     4  10  20  34  55  83 112 142 180 227 277 333
#     4  10  21  37  59  87 119 155 193 234 281 331
#
# _framework density 18.021359
#
# number of rings (size 3 to 8) (size 9 to 14) (size 15 to 20)
#    0.000    2.125    1.250    2.625    0.000    6.500 
#    0.000    1.875    0.000    0.750    0.000    0.000 
#    0.000    0.000    0.000    0.000    0.000    0.000 
#
# Total GULP energy -357339.857402 kJ/mol
# GULP energy per Si atom -5583.435272 kJ/mol
# Density = 1.798034 g / cm^3
# Si number density = 18.021359 Si / 1000 Ang^3
#
#
#
# Elastic Constant Matrix: (Units=GPa)
#
#
# Indices 1 2 3 4 5 6 
#
# 1 22.2506 18.8797 27.1479 0.0000 0.0000 0.0000
# 2 18.8797 48.6855 18.5871 0.0000 0.0000 0.0000
# 3 27.1479 18.5871 116.2529 0.0000 0.0000 0.0000
# 4 0.0000 0.0000 0.0000 17.2752 0.0000 0.0000
# 5 0.0000 0.0000 0.0000 0.0000 34.2098 0.0000
# 6 0.0000 0.0000 0.0000 0.0000 0.0000 23.6405
#
#
#
# Elastic Compliance Matrix: (Units=1/GPa)
#
#
# Indices 1 2 3 4 5 6 
#
# 1 0.088600 -0.028179 -0.016185 0.000000 0.000000 0.000000
# 2 -0.028179 0.030838 0.001650 0.000000 0.000000 0.000000
# 3 -0.016185 0.001650 0.012118 0.000000 0.000000 0.000000
# 4 0.000000 0.000000 0.000000 0.057886 0.000000 0.000000
# 5 0.000000 0.000000 0.000000 0.000000 0.029231 0.000000
# 6 0.000000 0.000000 0.000000 0.000000 0.000000 0.042300
#
#
# Mechanical properties :
#
#
# Convention : Reuss Voigt Hill
#
# Bulk Modulus (GPa) = 21.67908 35.15760 28.41834
# Shear Modulus (GPa) = 13.82064 23.19671 18.50868
#
# Velocity S-wave (km/s) = 2.77231 3.59162 3.20823
# Velocity P-wave (km/s) = 4.72264 6.06225 5.43388
#
# Compressibility (1/GPa) = 0.04612742
#
# Stress axis : x y z
#
# Youngs Moduli (GPa) = 11.28666 32.42788 82.52398
#
# Poissons Ratio (x) = 0.91379 1.33564
# Poissons Ratio (y) = 0.31805 -0.13617
# Poissons Ratio (z) = 0.18267 -0.05351
#
# Static dielectric constant tensor:
#      x y z
#    x 1.604920 0.000000 0.000000 
#    y 0.000000 1.610980 0.000000 
#    z 0.000000 0.000000 1.592830 
# 
# From -- ./inp_files/29469.got.cif
#   From: 2010.05.17/outbox.cif.g08.bks.cpg/sg59_15_cif.got.tgz:29469.got - 2010.06.03 14:40:33.
