data_PCOD9449611
_publ_section_title
;
Structure prediction by ZEFSAII (Michael W. Deem and Ramdas Pophale) SiO2 
 PCOD9449611
Probable space group: P M M N
;
_chemical_formula_sum "Si O2"
_cell_formula_units_Z 56
_cell_length_a 9.293593
_cell_length_b 14.902371
_cell_length_c 21.388414
_cell_angle_alpha 90.000000
_cell_angle_beta 90.000000
_cell_angle_gamma 90.000000
_cell_volume 2962.221994
_symmetry_space_group_name_H-M "P M M N"
_symmetry_group_IT_number 59
_space_group.IT_coordinate_system_code '2'
_symmetry_cell_setting 'orthorhombic'
loop_
_space_group_symop_operation_xyz
x,y,z
1/2-x,1/2-y,z
1/2+x,-y,-z
-x,1/2+y,-z
-x,-y,-z
1/2+x,1/2+y,-z
1/2-x,y,z
x,1/2-y,z
loop_
_atom_site_type_symbol
_atom_site_label
_atom_site_fract_x
_atom_site_fract_y
_atom_site_fract_z
Si Si1 0.077626 0.345851 0.780311
Si Si2 0.087678 0.647248 0.968719
Si Si3 0.577106 0.458871 0.268401
Si Si4 0.076700 0.145476 0.521332
Si Si5 0.922574 0.461864 0.411757
Si Si6 0.914372 0.098708 0.898984
Si Si7 0.587339 0.603729 0.848257
O O1 0.250000 0.348022 0.784411
O O2 0.035554 0.250000 0.750845
O O3 0.035509 0.436897 0.744926
O O4 0.011604 0.349900 0.849553
O O5 0.250000 0.613616 0.955244
O O6 0.095784 0.750000 0.989759
O O7 0.997620 0.646745 0.905574
O O8 0.028753 0.597475 0.030105
O O9 0.750000 0.451268 0.260093
O O10 0.541812 0.439541 0.340185
O O11 0.497414 0.398254 0.217091
O O12 0.250000 0.145662 0.514434
O O13 0.034187 0.250000 0.533714
O O14 0.003129 0.104442 0.459291
O O15 0.043112 0.066883 0.572276
O O16 0.750000 0.452396 0.419918
O O17 0.750000 0.133594 0.901210
O O18 0.907031 0.999189 0.871482
O O19 0.750000 0.637180 0.841427
#
# Coordination Sequence:
#
# PCOD9449611 Si02
#       7
#     8   8   8   8   8   8   8
#     4   9  17  28  44  69  98 126 159 201 247 294
#     4  10  20  33  49  68  91 121 157 198 245 294
#     4   9  18  33  51  70  97 133 167 199 238 287
#     4   9  18  33  54  81 111 139 167 204 250 294
#     4   9  18  33  54  79 106 138 174 208 243 290
#     4   9  18  32  49  68  91 122 157 194 243 300
#     4  10  20  33  50  71  94 122 158 199 241 287
#
# _framework density 18.904727999999999
#
# number of rings (size 3 to 8) (size 9 to 14) (size 15 to 20)
#    0.000    2.714    0.000    1.286    0.000    3.714 
#    0.000    3.571    0.000    0.857    0.000    8.000 
#    0.000    0.000    0.000    0.000    0.000    0.000 
#
# Total GULP energy -311845.986400 kJ/mol
# GULP energy per Si atom -5568.678329 kJ/mol
# Density = 1.886170 g / cm^3
# Si number density = 18.904728 Si / 1000 Ang^3
#
#
#
# Elastic Constant Matrix: (Units=GPa)
#
#
# Indices 1 2 3 4 5 6 
#
# 1 20.8597 -0.6103 23.6403 0.0000 0.0000 0.0000
# 2 -0.6103 37.3950 -10.9614 0.0000 0.0000 0.0000
# 3 23.6403 -10.9614 101.3708 0.0000 0.0000 0.0000
# 4 0.0000 0.0000 0.0000 12.5202 0.0000 0.0000
# 5 0.0000 0.0000 0.0000 0.0000 27.7432 0.0000
# 6 0.0000 0.0000 0.0000 0.0000 0.0000 1.8571
#
#
#
# Elastic Compliance Matrix: (Units=1/GPa)
#
#
# Indices 1 2 3 4 5 6 
#
# 1 0.065608 -0.003526 -0.015681 0.000000 0.000000 0.000000
# 2 -0.003526 0.027806 0.003829 0.000000 0.000000 0.000000
# 3 -0.015681 0.003829 0.013936 0.000000 0.000000 0.000000
# 4 0.000000 0.000000 0.000000 0.079871 0.000000 0.000000
# 5 0.000000 0.000000 0.000000 0.000000 0.036045 0.000000
# 6 0.000000 0.000000 0.000000 0.000000 0.000000 0.538480
#
#
# Mechanical properties :
#
#
# Convention : Reuss Voigt Hill
#
# Bulk Modulus (GPa) = 13.05593 20.41807 16.73700
# Shear Modulus (GPa) = 6.11222 18.26124 12.18673
#
# Velocity S-wave (km/s) = 1.80005 3.11136 2.54173
# Velocity P-wave (km/s) = 3.35282 4.87149 4.18168
#
# Compressibility (1/GPa) = 0.07659352
#
# Stress axis : x y z
#
# Youngs Moduli (GPa) = 15.24210 35.96298 71.75761
#
# Poissons Ratio (x) = 0.12680 1.12526
# Poissons Ratio (y) = 0.05374 -0.27476
# Poissons Ratio (z) = 0.23902 -0.13770
#
# Static dielectric constant tensor:
#      x y z
#    x 1.658330 0.000000 0.000000 
#    y 0.000000 1.702860 0.000000 
#    z 0.000000 0.000000 1.640370 
# 
# From -- ./inp_files/29038.got.cif
#   From: 2010.05.17/outbox.cif.g08.bks.cpg/sg59_15_cif.got.tgz:29038.got - 2010.06.03 14:40:33.
