data_PCOD9449690
_publ_section_title
;
Structure prediction by ZEFSAII (Michael W. Deem and Ramdas Pophale) SiO2 
 PCOD9449690
Probable space group: P M M N
;
_chemical_formula_sum "Si O2"
_cell_formula_units_Z 56
_cell_length_a 8.830356
_cell_length_b 18.713093
_cell_length_c 20.193354
_cell_angle_alpha 90.000000
_cell_angle_beta 90.000000
_cell_angle_gamma 90.000000
_cell_volume 3336.815909
_symmetry_space_group_name_H-M "P M M N"
_symmetry_group_IT_number 59
_space_group.IT_coordinate_system_code '2'
_symmetry_cell_setting 'orthorhombic'
loop_
_space_group_symop_operation_xyz
x,y,z
1/2-x,1/2-y,z
1/2+x,-y,-z
-x,1/2+y,-z
-x,-y,-z
1/2+x,1/2+y,-z
1/2-x,y,z
x,1/2-y,z
loop_
_atom_site_type_symbol
_atom_site_label
_atom_site_fract_x
_atom_site_fract_y
_atom_site_fract_z
Si Si1 0.569273 0.465961 0.066925
Si Si2 0.931639 0.034748 0.656390
Si Si3 0.933557 0.833264 0.428967
Si Si4 0.071825 0.166586 0.015528
Si Si5 0.431873 0.435335 0.457658
Si Si6 0.576604 0.334283 0.871807
Si Si7 0.929776 0.546845 0.201434
O O1 0.750000 0.470665 0.062017
O O2 0.512617 0.384784 0.065923
O O3 0.522405 0.503631 0.135291
O O4 0.500000 0.500000 0.000000
O O5 0.750000 0.042213 0.654786
O O6 0.000685 0.106413 0.621355
O O7 0.974313 0.962307 0.615722
O O8 0.989666 0.027035 0.730791
O O9 0.750000 0.835037 0.423276
O O10 0.980444 0.750000 0.419141
O O11 0.975981 0.863270 0.502838
O O12 0.250000 0.149696 0.012476
O O13 0.054134 0.250000 0.031075
O O14 0.999101 0.153969 0.943331
O O15 0.500000 0.500000 0.500000
O O16 0.250000 0.437200 0.460489
O O17 0.750000 0.360771 0.872023
O O18 0.579143 0.250000 0.860679
O O19 0.478341 0.372968 0.816786
O O20 0.750000 0.540145 0.208694
#
# Coordination Sequence:
#
# PCOD9449690 Si02
#       7
#     8   8   8   8   8   8   8
#     4  11  22  35  54  77 101 132 175 227 273 316
#     4  10  20  33  50  72 102 138 172 209 251 300
#     4   9  17  31  53  79 106 135 166 203 247 297
#     4  10  20  34  53  76 101 129 163 208 262 318
#     4   8  15  29  49  73  98 128 166 202 239 285
#     4  10  20  33  50  72  98 130 167 207 255 310
#     4  11  23  36  51  73 101 137 176 215 263 314
#
# _framework density 16.782465999999999
#
# number of rings (size 3 to 8) (size 9 to 14) (size 15 to 20)
#    0.000    2.143    1.429    2.143    0.000    4.857 
#    0.000    0.000    0.000    0.857    0.000    2.000 
#    0.000    0.000    0.000    0.000    0.000    0.000 
#
# Total GULP energy -311925.129438 kJ/mol
# GULP energy per Si atom -5570.091597 kJ/mol
# Density = 1.674427 g / cm^3
# Si number density = 16.782466 Si / 1000 Ang^3
#
#
#
# Elastic Constant Matrix: (Units=GPa)
#
#
# Indices 1 2 3 4 5 6 
#
# 1 30.5093 20.9153 33.2462 0.0000 0.0000 0.0000
# 2 20.9153 46.4177 40.8677 0.0000 0.0000 0.0000
# 3 33.2462 40.8677 111.6108 0.0000 0.0000 0.0000
# 4 0.0000 0.0000 0.0000 17.7402 0.0000 0.0000
# 5 0.0000 0.0000 0.0000 0.0000 21.8371 0.0000
# 6 0.0000 0.0000 0.0000 0.0000 0.0000 23.5704
#
#
#
# Elastic Compliance Matrix: (Units=1/GPa)
#
#
# Indices 1 2 3 4 5 6 
#
# 1 0.055016 -0.015291 -0.010789 0.000000 0.000000 0.000000
# 2 -0.015291 0.036043 -0.008643 0.000000 0.000000 0.000000
# 3 -0.010789 -0.008643 0.015338 0.000000 0.000000 0.000000
# 4 0.000000 0.000000 0.000000 0.056369 0.000000 0.000000
# 5 0.000000 0.000000 0.000000 0.000000 0.045794 0.000000
# 6 0.000000 0.000000 0.000000 0.000000 0.000000 0.042426
#
#
# Mechanical properties :
#
#
# Convention : Reuss Voigt Hill
#
# Bulk Modulus (GPa) = 27.06210 42.06624 34.56417
# Shear Modulus (GPa) = 15.02637 18.86343 16.94490
#
# Velocity S-wave (km/s) = 2.99550 3.35624 3.18099
# Velocity P-wave (km/s) = 5.30323 6.33555 5.84224
#
# Compressibility (1/GPa) = 0.03695205
#
# Stress axis : x y z
#
# Youngs Moduli (GPa) = 18.17649 27.74488 65.19666
#
# Poissons Ratio (x) = 0.42423 0.70342
# Poissons Ratio (y) = 0.27793 0.56348
# Poissons Ratio (z) = 0.19611 0.23979
#
# Static dielectric constant tensor:
#      x y z
#    x 1.568810 0.000000 0.000000 
#    y 0.000000 1.603020 0.000000 
#    z 0.000000 0.000000 1.576870 
# 
# From -- ./inp_files/29640.got.cif
#   From: 2010.05.17/outbox.cif.g08.bks.cpg/sg59_15_cif.got.tgz:29640.got - 2010.06.03 14:40:33.
