data_PCOD9449567
_publ_section_title
;
Structure prediction by ZEFSAII (Michael W. Deem and Ramdas Pophale) SiO2 
 PCOD9449567
Probable space group: P M M N
;
_chemical_formula_sum "Si O2"
_cell_formula_units_Z 56
_cell_length_a 14.101363
_cell_length_b 23.587956
_cell_length_c 9.333833
_cell_angle_alpha 90.000000
_cell_angle_beta 90.000000
_cell_angle_gamma 90.000000
_cell_volume 3104.641280
_symmetry_space_group_name_H-M "P M M N"
_symmetry_group_IT_number 59
_space_group.IT_coordinate_system_code '2'
_symmetry_cell_setting 'orthorhombic'
loop_
_space_group_symop_operation_xyz
x,y,z
1/2-x,1/2-y,z
1/2+x,-y,-z
-x,1/2+y,-z
-x,-y,-z
1/2+x,1/2+y,-z
1/2-x,y,z
x,1/2-y,z
loop_
_atom_site_type_symbol
_atom_site_label
_atom_site_fract_x
_atom_site_fract_y
_atom_site_fract_z
Si Si1 0.465366 0.683058 0.220672
Si Si2 0.857634 0.998033 0.671981
Si Si3 0.997714 0.097484 0.028212
Si Si4 0.359261 0.621495 0.465408
Si Si5 0.859314 0.998387 0.017443
Si Si6 0.643606 0.682320 0.419718
Si Si7 0.036959 0.115362 0.343312
O O1 0.459888 0.750000 0.190859
O O2 0.387940 0.664216 0.337971
O O3 0.566124 0.669929 0.297739
O O4 0.459781 0.644180 0.080696
O O5 0.750000 0.979067 0.636768
O O6 0.931942 0.949795 0.630909
O O7 0.873278 0.058357 0.598879
O O8 0.861422 0.005024 0.844133
O O9 0.039570 0.123986 0.173150
O O10 0.915217 0.053190 0.074277
O O11 0.078008 0.057626 0.954601
O O12 0.250000 0.628272 0.506565
O O13 0.433317 0.628052 0.593846
O O14 0.750000 0.994542 0.063431
O O15 0.750000 0.664461 0.381289
O O16 0.642569 0.750000 0.439382
O O17 0.609133 0.653032 0.565249
#
# Coordination Sequence:
#
# PCOD9449567 Si02
#       7
#     8   8   8   8   8   8   8
#     4  10  21  37  58  80 105 141 185 228 265 313
#     4   9  16  30  53  77 104 140 180 220 262 316
#     4  10  20  34  54  81 111 141 179 223 271 326
#     4  10  20  35  53  75 106 144 183 223 264 314
#     4   9  18  33  53  76 108 147 180 218 270 322
#     4   9  19  37  57  77 106 144 182 221 269 323
#     4  10  20  32  53  80 112 140 173 222 275 328
#
# _framework density 18.037510999999999
#
# number of rings (size 3 to 8) (size 9 to 14) (size 15 to 20)
#    0.000    2.429    1.429    0.857    0.000    2.571 
#    0.000    0.000    0.000    1.714    0.000    2.000 
#    0.000    0.000    0.000    0.000    0.000    0.000 
#
# Total GULP energy -312313.033004 kJ/mol
# GULP energy per Si atom -5577.018446 kJ/mol
# Density = 1.799646 g / cm^3
# Si number density = 18.037511 Si / 1000 Ang^3
#
#
#
# Elastic Constant Matrix: (Units=GPa)
#
#
# Indices 1 2 3 4 5 6 
#
# 1 77.3876 10.9054 -11.5176 0.0000 0.0000 0.0000
# 2 10.9054 44.3984 22.6059 0.0000 0.0000 0.0000
# 3 -11.5176 22.6059 29.9596 0.0000 0.0000 0.0000
# 4 0.0000 0.0000 0.0000 24.1943 0.0000 0.0000
# 5 0.0000 0.0000 0.0000 0.0000 11.1530 0.0000
# 6 0.0000 0.0000 0.0000 0.0000 0.0000 23.5571
#
#
#
# Elastic Compliance Matrix: (Units=1/GPa)
#
#
# Indices 1 2 3 4 5 6 
#
# 1 0.016974 -0.012165 0.015704 0.000000 0.000000 0.000000
# 2 -0.012165 0.045294 -0.038853 0.000000 0.000000 0.000000
# 3 0.015704 -0.038853 0.068732 0.000000 0.000000 0.000000
# 4 0.000000 0.000000 0.000000 0.041332 0.000000 0.000000
# 5 0.000000 0.000000 0.000000 0.000000 0.089662 0.000000
# 6 0.000000 0.000000 0.000000 0.000000 0.000000 0.042450
#
#
# Mechanical properties :
#
#
# Convention : Reuss Voigt Hill
#
# Bulk Modulus (GPa) = 16.56400 21.74811 19.15606
# Shear Modulus (GPa) = 12.65201 20.43102 16.54152
#
# Velocity S-wave (km/s) = 2.65132 3.36921 3.03159
# Velocity P-wave (km/s) = 4.30995 5.21716 4.78510
#
# Compressibility (1/GPa) = 0.06037188
#
# Stress axis : x y z
#
# Youngs Moduli (GPa) = 58.91510 22.07814 14.54931
#
# Poissons Ratio (x) = 0.26859 -0.22849
# Poissons Ratio (y) = 0.71672 0.56528
# Poissons Ratio (z) = -0.92523 0.85780
#
# Static dielectric constant tensor:
#      x y z
#    x 1.634740 0.000000 0.000000 
#    y 0.000000 1.609980 0.000000 
#    z 0.000000 0.000000 1.593730 
# 
# From -- ./inp_files/9384.got.cif
#   From: 2010.05.17/outbox.cif.g08.bks.cpg/sg59_5_cif.got.tgz:9384.got - 2010.06.03 14:40:33.
