data_PCOD9449821
_publ_section_title
;
Structure prediction by ZEFSAII (Michael W. Deem and Ramdas Pophale) SiO2 
 PCOD9449821
Probable space group: P M M N
;
_chemical_formula_sum "Si O2"
_cell_formula_units_Z 48
_cell_length_a 7.443144
_cell_length_b 9.818349
_cell_length_c 29.171934
_cell_angle_alpha 90.000000
_cell_angle_beta 90.000000
_cell_angle_gamma 90.000000
_cell_volume 2131.867009
_symmetry_space_group_name_H-M "P M M N"
_symmetry_group_IT_number 59
_space_group.IT_coordinate_system_code '2'
_symmetry_cell_setting 'orthorhombic'
loop_
_space_group_symop_operation_xyz
x,y,z
1/2-x,1/2-y,z
1/2+x,-y,-z
-x,1/2+y,-z
-x,-y,-z
1/2+x,1/2+y,-z
1/2-x,y,z
x,1/2-y,z
loop_
_atom_site_type_symbol
_atom_site_label
_atom_site_fract_x
_atom_site_fract_y
_atom_site_fract_z
Si Si1 0.469329 0.591433 0.369551
Si Si2 0.969311 0.594459 0.716438
Si Si3 0.541116 0.250000 0.078241
Si Si4 0.035041 0.092089 0.455324
Si Si5 0.466561 0.037440 0.896865
Si Si6 0.536831 0.396512 0.792670
Si Si7 0.532649 0.750000 0.028236
O O1 0.250000 0.595138 0.370428
O O2 0.527739 0.750000 0.371432
O O3 0.521698 0.509760 0.323789
O O4 0.529696 0.497613 0.412156
O O5 0.750000 0.600291 0.715827
O O6 0.030974 0.750000 0.710327
O O7 0.030147 0.525298 0.764021
O O8 0.750000 0.250000 0.091896
O O9 0.460386 0.386574 0.097891
O O10 0.534455 0.250000 0.023268
O O11 0.250000 0.102621 0.450402
O O12 0.968368 0.250000 0.457867
O O13 0.000000 0.000000 0.500000
O O14 0.250000 0.037951 0.899920
O O15 0.510536 0.092982 0.846981
O O16 0.527398 0.123363 0.940693
O O17 0.750000 0.393461 0.784468
O O18 0.463614 0.250000 0.776861
O O19 0.750000 0.750000 0.025550
#
# Coordination Sequence:
#
# PCOD9449821 Si02
#       7
#     8   8   4   8   8   8   4
#     4   9  16  28  48  73 103 139 177 218 266 318
#     4   9  17  29  47  73 104 133 165 212 263 307
#     4  10  22  36  54  78 104 132 166 206 249 294
#     4  10  20  33  51  77 108 144 186 229 275 325
#     4  10  21  37  54  75 104 136 167 202 248 302
#     4  10  20  33  51  76 102 130 167 209 252 298
#     4  10  20  36  56  76 100 134 170 204 245 296
#
# _framework density 22.515476
#
# number of rings (size 3 to 8) (size 9 to 14) (size 15 to 20)
#    0.000    2.333    0.833    2.000    1.167    6.333 
#    0.000    0.000    0.000    1.000    0.000    0.000 
#    0.000    0.000    0.000    0.000    0.000    0.000 
#
# Total GULP energy -268033.456548 kJ/mol
# GULP energy per Si atom -5584.030345 kJ/mol
# Density = 2.246423 g / cm^3
# Si number density = 22.515476 Si / 1000 Ang^3
#
#
#
# Elastic Constant Matrix: (Units=GPa)
#
#
# Indices 1 2 3 4 5 6 
#
# 1 68.4839 6.4134 -14.6294 0.0000 0.0000 0.0000
# 2 6.4134 228.2152 62.2431 0.0000 0.0000 0.0000
# 3 -14.6294 62.2431 94.2952 0.0000 0.0000 0.0000
# 4 0.0000 0.0000 0.0000 41.8895 0.0000 0.0000
# 5 0.0000 0.0000 0.0000 0.0000 10.0381 0.0000
# 6 0.0000 0.0000 0.0000 0.0000 0.0000 18.8327
#
#
#
# Elastic Compliance Matrix: (Units=1/GPa)
#
#
# Indices 1 2 3 4 5 6 
#
# 1 0.015424 -0.001325 0.003267 0.000000 0.000000 0.000000
# 2 -0.001325 0.005458 -0.003808 0.000000 0.000000 0.000000
# 3 0.003267 -0.003808 0.013626 0.000000 0.000000 0.000000
# 4 0.000000 0.000000 0.000000 0.023872 0.000000 0.000000
# 5 0.000000 0.000000 0.000000 0.000000 0.099620 0.000000
# 6 0.000000 0.000000 0.000000 0.000000 0.000000 0.053099
#
#
# Mechanical properties :
#
#
# Convention : Reuss Voigt Hill
#
# Bulk Modulus (GPa) = 32.49232 55.44983 43.97107
# Shear Modulus (GPa) = 22.21349 36.61653 29.41501
#
# Velocity S-wave (km/s) = 3.14441 4.03709 3.61839
# Velocity P-wave (km/s) = 5.25790 6.81262 6.08511
#
# Compressibility (1/GPa) = 0.03077650
#
# Stress axis : x y z
#
# Youngs Moduli (GPa) = 64.83415 183.22914 73.39169
#
# Poissons Ratio (x) = 0.24270 -0.23979
# Poissons Ratio (y) = 0.08588 0.27948
# Poissons Ratio (z) = -0.21183 0.69774
#
# Static dielectric constant tensor:
#      x y z
#    x 1.879210 0.000000 0.000000 
#    y 0.000000 1.775420 0.000000 
#    z 0.000000 0.000000 1.776760 
# 
# From -- ./inp_files/33046.got.cif
#   From: 2010.05.17/outbox.cif.g08.bks.cpg/sg59_17_cif.got.tgz:33046.got - 2010.06.03 14:40:33.
