data_PCOD9449374
_publ_section_title
;
Structure prediction by ZEFSAII (Michael W. Deem and Ramdas Pophale) SiO2 
 PCOD9449374
Probable space group: P M M N
;
_chemical_formula_sum "Si O2"
_cell_formula_units_Z 40
_cell_length_a 7.625372
_cell_length_b 15.457820
_cell_length_c 15.792312
_cell_angle_alpha 90.000000
_cell_angle_beta 90.000000
_cell_angle_gamma 90.000000
_cell_volume 1861.465522
_symmetry_space_group_name_H-M "P M M N"
_symmetry_group_IT_number 59
_space_group.IT_coordinate_system_code '2'
_symmetry_cell_setting 'orthorhombic'
loop_
_space_group_symop_operation_xyz
x,y,z
1/2-x,1/2-y,z
1/2+x,-y,-z
-x,1/2+y,-z
-x,-y,-z
1/2+x,1/2+y,-z
1/2-x,y,z
x,1/2-y,z
loop_
_atom_site_type_symbol
_atom_site_label
_atom_site_fract_x
_atom_site_fract_y
_atom_site_fract_z
Si Si1 0.459372 0.936003 0.739598
Si Si2 0.463730 0.109655 0.663644
Si Si3 0.464807 0.250000 0.529215
Si Si4 0.958635 0.750000 0.663199
Si Si5 0.961160 0.750000 0.199209
Si Si6 0.957270 0.250000 0.997613
Si Si7 0.961172 0.070695 0.070704
O O1 0.250000 0.947723 0.742748
O O2 0.490237 0.838348 0.709883
O O3 0.527391 0.949638 0.835080
O O4 0.525472 0.011556 0.676977
O O5 0.250000 0.110051 0.660235
O O6 0.520924 0.165142 0.582270
O O7 0.514507 0.166228 0.746150
O O8 0.250000 0.250000 0.528811
O O9 0.527547 0.250000 0.433115
O O10 0.750000 0.750000 0.658350
O O11 0.750000 0.750000 0.196836
O O12 0.022891 0.750000 0.103357
O O13 0.750000 0.250000 0.015842
O O14 0.030613 0.162913 0.038502
O O15 0.750000 0.075976 0.076639
O O16 0.000000 0.000000 0.000000
#
# Coordination Sequence:
#
# PCOD9449374 Si02
#       7
#     8   8   4   4   4   4   8
#     4  10  20  36  56  76 102 139 178 213 254 308
#     4   8  15  30  55  80 100 128 168 213 259 308
#     4   8  16  32  52  79 109 130 159 212 270 315
#     4  11  23  36  52  76 107 140 174 215 261 307
#     4   9  16  30  54  80 100 126 171 214 247 298
#     4  10  20  32  46  69 106 142 164 199 262 312
#     4  10  21  36  54  77 105 137 174 215 256 301
#
# _framework density 21.488444000000001
#
# number of rings (size 3 to 8) (size 9 to 14) (size 15 to 20)
#    0.000    2.600    0.000    3.300    0.000    5.600 
#    0.000    2.000    0.000    6.000    0.000    0.000 
#    0.000    0.000    0.000    0.000    0.000    0.000 
#
# Total GULP energy -223315.127150 kJ/mol
# GULP energy per Si atom -5582.878179 kJ/mol
# Density = 2.143954 g / cm^3
# Si number density = 21.488444 Si / 1000 Ang^3
#
#
#
# Elastic Constant Matrix: (Units=GPa)
#
#
# Indices 1 2 3 4 5 6 
#
# 1 39.0985 -1.7391 0.8985 0.0000 0.0000 0.0000
# 2 -1.7391 173.4366 67.4621 0.0000 0.0000 0.0000
# 3 0.8985 67.4621 138.0775 0.0000 0.0000 0.0000
# 4 0.0000 0.0000 0.0000 3.0467 0.0000 0.0000
# 5 0.0000 0.0000 0.0000 0.0000 15.0154 0.0000
# 6 0.0000 0.0000 0.0000 0.0000 0.0000 6.1181
#
#
#
# Elastic Compliance Matrix: (Units=1/GPa)
#
#
# Indices 1 2 3 4 5 6 
#
# 1 0.025602 0.000397 -0.000361 0.000000 0.000000 0.000000
# 2 0.000397 0.007125 -0.003484 0.000000 0.000000 0.000000
# 3 -0.000361 -0.003484 0.008947 0.000000 0.000000 0.000000
# 4 0.000000 0.000000 0.000000 0.328226 0.000000 0.000000
# 5 0.000000 0.000000 0.000000 0.000000 0.066598 0.000000
# 6 0.000000 0.000000 0.000000 0.000000 0.000000 0.163450
#
#
# Mechanical properties :
#
#
# Convention : Reuss Voigt Hill
#
# Bulk Modulus (GPa) = 28.75263 53.76173 41.25718
# Shear Modulus (GPa) = 8.08492 23.76878 15.92685
#
# Velocity S-wave (km/s) = 1.94181 3.32944 2.72542
# Velocity P-wave (km/s) = 4.29384 6.31296 5.39864
#
# Compressibility (1/GPa) = 0.03477943
#
# Stress axis : x y z
#
# Youngs Moduli (GPa) = 39.05891 140.35451 111.77312
#
# Poissons Ratio (x) = -0.05572 0.04030
# Poissons Ratio (y) = -0.01551 0.38938
# Poissons Ratio (z) = 0.01408 0.48894
#
# Static dielectric constant tensor:
#      x y z
#    x 1.806050 0.000000 0.000000 
#    y 0.000000 1.855290 0.000000 
#    z 0.000000 0.000000 1.750610 
# 
# From -- ./inp_files/20043.got.cif
#   From: 2010.05.17/outbox.cif.g08.bks.cpg/sg59_11_cif.got.tgz:20043.got - 2010.06.03 14:40:33.
