data_PCOD9449879
_publ_section_title
;
Structure prediction by ZEFSAII (Michael W. Deem and Ramdas Pophale) SiO2 
 PCOD9449879
Probable space group: P M M N
;
_chemical_formula_sum "Si O2"
_cell_formula_units_Z 64
_cell_length_a 14.346074
_cell_length_b 8.927510
_cell_length_c 26.663989
_cell_angle_alpha 90.000000
_cell_angle_beta 90.000000
_cell_angle_gamma 90.000000
_cell_volume 3414.982901
_symmetry_space_group_name_H-M "P M M N"
_symmetry_group_IT_number 59
_space_group.IT_coordinate_system_code '2'
_symmetry_cell_setting 'orthorhombic'
loop_
_space_group_symop_operation_xyz
x,y,z
1/2-x,1/2-y,z
1/2+x,-y,-z
-x,1/2+y,-z
-x,-y,-z
1/2+x,1/2+y,-z
1/2-x,y,z
x,1/2-y,z
loop_
_atom_site_type_symbol
_atom_site_label
_atom_site_fract_x
_atom_site_fract_y
_atom_site_fract_z
Si Si1 0.140251 0.929523 0.915553
Si Si2 0.468023 0.570381 0.127328
Si Si3 0.863660 0.921601 0.476859
Si Si4 0.362535 0.924436 0.420130
Si Si5 0.356471 0.569690 0.628708
Si Si6 0.957103 0.569677 0.676218
Si Si7 0.859360 0.931055 0.779434
Si Si8 0.642776 0.068161 0.971092
O O1 0.250000 0.957794 0.907871
O O2 0.126310 0.750000 0.912817
O O3 0.116955 0.980984 0.972686
O O4 0.073109 0.011078 0.876881
O O5 0.465458 0.750000 0.129324
O O6 0.411927 0.503078 0.173709
O O7 0.419064 0.518377 0.075373
O O8 0.750000 0.921996 0.478413
O O9 0.895063 0.750000 0.476580
O O10 0.894894 0.004124 0.527333
O O11 0.886918 0.002827 0.424891
O O12 0.250000 0.937009 0.418427
O O13 0.387001 0.750000 0.418946
O O14 0.404094 0.006064 0.372006
O O15 0.250000 0.521196 0.639439
O O16 0.355742 0.750000 0.624352
O O17 0.434185 0.527719 0.669494
O O18 0.951125 0.750000 0.674646
O O19 0.909042 0.520649 0.727736
O O20 0.750000 0.971328 0.778946
O O21 0.865491 0.750000 0.782804
O O22 0.750000 0.024062 0.962231
O O23 0.640291 0.250000 0.972147
#
# Coordination Sequence:
#
# PCOD9449879 Si02
#       8
#     8   8   8   8   8   8   8   8
#     4   9  18  34  55  78 109 149 188 225 266 316
#     4  11  21  33  54  82 112 145 181 225 274 323
#     4   9  17  30  50  76 106 140 174 207 249 307
#     4  10  20  33  51  77 108 139 172 214 264 317
#     4   9  18  34  55  78 104 132 166 212 262 310
#     4  10  21  37  57  78 101 135 178 222 266 310
#     4  10  22  40  59  79 106 139 177 222 268 319
#     4   8  15  29  50  78 111 146 183 222 267 320
#
# _framework density 18.740943000000001
#
# number of rings (size 3 to 8) (size 9 to 14) (size 15 to 20)
#    0.000    2.500    0.000    3.000    0.000    5.250 
#    0.000    1.250    0.000    3.750    0.000    0.000 
#    0.000    0.000    0.000    0.000    0.000    0.000 
#
# Total GULP energy -357221.752792 kJ/mol
# GULP energy per Si atom -5581.589887 kJ/mol
# Density = 1.869829 g / cm^3
# Si number density = 18.740943 Si / 1000 Ang^3
#
#
#
# Elastic Constant Matrix: (Units=GPa)
#
#
# Indices 1 2 3 4 5 6 
#
# 1 110.2942 39.4771 95.5791 0.0000 0.0000 0.0000
# 2 39.4771 21.2601 37.8130 0.0000 0.0000 0.0000
# 3 95.5791 37.8130 122.1089 0.0000 0.0000 0.0000
# 4 0.0000 0.0000 0.0000 24.2244 0.0000 0.0000
# 5 0.0000 0.0000 0.0000 0.0000 35.6923 0.0000
# 6 0.0000 0.0000 0.0000 0.0000 0.0000 18.9124
#
#
#
# Elastic Compliance Matrix: (Units=1/GPa)
#
#
# Indices 1 2 3 4 5 6 
#
# 1 0.039586 -0.040949 -0.018305 0.000000 0.000000 0.000000
# 2 -0.040949 0.147062 -0.013488 0.000000 0.000000 0.000000
# 3 -0.018305 -0.013488 0.026694 0.000000 0.000000 0.000000
# 4 0.000000 0.000000 0.000000 0.041281 0.000000 0.000000
# 5 0.000000 0.000000 0.000000 0.000000 0.028017 0.000000
# 6 0.000000 0.000000 0.000000 0.000000 0.000000 0.052875
#
#
# Mechanical properties :
#
#
# Convention : Reuss Voigt Hill
#
# Bulk Modulus (GPa) = 14.73649 66.60018 40.66833
# Shear Modulus (GPa) = 9.92814 21.15209 15.54011
#
# Velocity S-wave (km/s) = 2.30414 3.36319 2.88272
# Velocity P-wave (km/s) = 3.86770 7.12010 5.72953
#
# Compressibility (1/GPa) = 0.06785878
#
# Stress axis : x y z
#
# Youngs Moduli (GPa) = 25.26139 6.79985 37.46120
#
# Poissons Ratio (x) = 0.27844 0.68573
# Poissons Ratio (y) = 1.03442 0.50528
# Poissons Ratio (z) = 0.46241 0.09172
#
# Static dielectric constant tensor:
#      x y z
#    x 1.683200 0.000000 0.000000 
#    y 0.000000 1.624990 0.000000 
#    z 0.000000 0.000000 1.616890 
# 
# From -- ./inp_files/32105.got.cif
#   From: 2010.05.17/outbox.cif.g08.bks.cpg/sg59_17_cif.got.tgz:32105.got - 2010.06.03 14:40:33.
