data_PCOD9449833
_publ_section_title
;
Structure prediction by ZEFSAII (Michael W. Deem and Ramdas Pophale) SiO2 
 PCOD9449833
Probable space group: P M M N
;
_chemical_formula_sum "Si O2"
_cell_formula_units_Z 56
_cell_length_a 13.969543
_cell_length_b 9.729148
_cell_length_c 22.209578
_cell_angle_alpha 90.000000
_cell_angle_beta 90.000000
_cell_angle_gamma 90.000000
_cell_volume 3018.542642
_symmetry_space_group_name_H-M "P M M N"
_symmetry_group_IT_number 59
_space_group.IT_coordinate_system_code '2'
_symmetry_cell_setting 'orthorhombic'
loop_
_space_group_symop_operation_xyz
x,y,z
1/2-x,1/2-y,z
1/2+x,-y,-z
-x,1/2+y,-z
-x,-y,-z
1/2+x,1/2+y,-z
1/2-x,y,z
x,1/2-y,z
loop_
_atom_site_type_symbol
_atom_site_label
_atom_site_fract_x
_atom_site_fract_y
_atom_site_fract_z
Si Si1 0.138652 0.413243 0.029947
Si Si2 0.856040 0.491031 0.548097
Si Si3 0.481194 0.412545 0.909328
Si Si4 0.358791 0.090570 0.792487
Si Si5 0.148064 0.090763 0.318140
Si Si6 0.935625 0.416026 0.312704
Si Si7 0.566404 0.899842 0.426400
O O1 0.250000 0.450836 0.031667
O O2 0.130410 0.250000 0.041604
O O3 0.074242 0.498185 0.076310
O O4 0.093753 0.438535 0.963772
O O5 0.750000 0.424837 0.544946
O O6 0.854920 0.580649 0.609128
O O7 0.874481 0.574790 0.487185
O O8 0.953282 0.403790 0.556075
O O9 0.503623 0.250000 0.910559
O O10 0.431117 0.444333 0.846202
O O11 0.250000 0.083816 0.815647
O O12 0.375823 0.250000 0.773968
O O13 0.371185 0.987114 0.737309
O O14 0.250000 0.026131 0.299133
O O15 0.150313 0.250000 0.300754
O O16 0.045366 0.037381 0.297507
O O17 0.930217 0.250000 0.313781
O O18 0.914692 0.480752 0.378117
O O19 0.588732 0.750000 0.400556
#
# Coordination Sequence:
#
# PCOD9449833 Si02
#       7
#     8   8   8   8   8   8   8
#     4   9  17  31  53  82 115 147 176 210 258 312
#     4   9  18  31  49  73 100 129 162 204 254 307
#     4   9  18  33  54  80 109 141 180 222 259 300
#     4  10  21  38  58  76  98 135 180 220 258 302
#     4   8  14  28  50  72  94 123 159 199 248 307
#     4  10  21  36  53  74 102 134 170 215 261 304
#     4  10  20  33  51  76 104 134 169 209 256 312
#
# _framework density 18.551998000000001
#
# number of rings (size 3 to 8) (size 9 to 14) (size 15 to 20)
#    0.000    2.714    0.000    1.286    0.000    8.000 
#    0.000    0.714    0.000    6.429    0.000    0.000 
#    0.000    0.000    0.000    0.000    0.000    0.000 
#
# Total GULP energy -311862.509856 kJ/mol
# GULP energy per Si atom -5568.973390 kJ/mol
# Density = 1.850977 g / cm^3
# Si number density = 18.551998 Si / 1000 Ang^3
#
#
#
# Elastic Constant Matrix: (Units=GPa)
#
#
# Indices 1 2 3 4 5 6 
#
# 1 94.8905 28.3411 29.7079 0.0000 0.0000 0.0000
# 2 28.3411 66.0938 34.0265 0.0000 0.0000 0.0000
# 3 29.7079 34.0265 54.0002 0.0000 0.0000 0.0000
# 4 0.0000 0.0000 0.0000 21.0975 0.0000 0.0000
# 5 0.0000 0.0000 0.0000 0.0000 22.9485 0.0000
# 6 0.0000 0.0000 0.0000 0.0000 0.0000 18.5160
#
#
#
# Elastic Compliance Matrix: (Units=1/GPa)
#
#
# Indices 1 2 3 4 5 6 
#
# 1 0.013076 -0.002818 -0.005418 0.000000 0.000000 0.000000
# 2 -0.002818 0.023002 -0.012944 0.000000 0.000000 0.000000
# 3 -0.005418 -0.012944 0.029655 0.000000 0.000000 0.000000
# 4 0.000000 0.000000 0.000000 0.047399 0.000000 0.000000
# 5 0.000000 0.000000 0.000000 0.000000 0.043576 0.000000
# 6 0.000000 0.000000 0.000000 0.000000 0.000000 0.054007
#
#
# Mechanical properties :
#
#
# Convention : Reuss Voigt Hill
#
# Bulk Modulus (GPa) = 42.78255 44.34839 43.56547
# Shear Modulus (GPa) = 19.16685 20.70635 19.93660
#
# Velocity S-wave (km/s) = 3.21774 3.34447 3.28172
# Velocity P-wave (km/s) = 6.07586 6.23464 6.15576
#
# Compressibility (1/GPa) = 0.02337401
#
# Stress axis : x y z
#
# Youngs Moduli (GPa) = 76.47366 43.47451 33.72057
#
# Poissons Ratio (x) = 0.12250 0.18271
# Poissons Ratio (y) = 0.21548 0.43647
# Poissons Ratio (z) = 0.41437 0.56273
#
# Static dielectric constant tensor:
#      x y z
#    x 1.688180 0.000000 0.000000 
#    y 0.000000 1.636290 0.000000 
#    z 0.000000 0.000000 1.612880 
# 
# From -- ./inp_files/30356.got.cif
#   From: 2010.05.17/outbox.cif.g08.bks.cpg/sg59_16_cif.got.tgz:30356.got - 2010.06.03 14:40:33.
