data_PCOD9449202
_publ_section_title
;
Structure prediction by ZEFSAII (Michael W. Deem and Ramdas Pophale) SiO2 
 PCOD9449202
Probable space group: P M M N
;
_chemical_formula_sum "Si O2"
_cell_formula_units_Z 64
_cell_length_a 20.242023
_cell_length_b 15.734369
_cell_length_c 8.406982
_cell_angle_alpha 90.000000
_cell_angle_beta 90.000000
_cell_angle_gamma 90.000000
_cell_volume 2677.585592
_symmetry_space_group_name_H-M "P M M N"
_symmetry_group_IT_number 59
_space_group.IT_coordinate_system_code '2'
_symmetry_cell_setting 'orthorhombic'
loop_
_space_group_symop_operation_xyz
x,y,z
1/2-x,1/2-y,z
1/2+x,-y,-z
-x,1/2+y,-z
-x,-y,-z
1/2+x,1/2+y,-z
1/2-x,y,z
x,1/2-y,z
loop_
_atom_site_type_symbol
_atom_site_label
_atom_site_fract_x
_atom_site_fract_y
_atom_site_fract_z
Si Si1 0.328256 0.909579 0.733231
Si Si2 0.085387 0.023156 0.233005
Si Si3 0.876606 0.656804 0.017336
Si Si4 0.823461 0.346813 0.944719
Si Si5 0.670855 0.395989 0.598640
Si Si6 0.676290 0.891172 0.345217
Si Si7 0.518122 0.347497 0.809917
Si Si8 0.455834 0.344767 0.468195
O O1 0.250000 0.887665 0.747786
O O2 0.358471 0.889951 0.904865
O O3 0.353543 0.863951 0.572801
O O4 0.333324 0.008645 0.691668
O O5 0.124779 0.080542 0.107677
O O6 0.036672 0.083665 0.333653
O O7 0.137922 0.985268 0.358192
O O8 0.050779 0.940124 0.157448
O O9 0.868036 0.750000 0.942573
O O10 0.829249 0.648531 0.168864
O O11 0.949175 0.651122 0.096112
O O12 0.750000 0.386776 0.931328
O O13 0.817774 0.250000 0.994773
O O14 0.845593 0.346426 0.760760
O O15 0.750000 0.400783 0.585188
O O16 0.750000 0.878054 0.410737
O O17 0.617382 0.855355 0.453657
O O18 0.542927 0.250000 0.846311
O O19 0.503811 0.352529 0.620193
O O20 0.462578 0.250000 0.401383
#
# Coordination Sequence:
#
# PCOD9449202 Si02
#       8
#     8   8   8   8   8   8   8   8
#     4   9  17  32  52  76 109 153 202 242 287 351
#     4  12  21  36  62  88 117 156 197 240 306 365
#     4  10  22  38  58  88 121 153 197 249 299 358
#     4   9  18  32  50  73 105 150 201 250 300 350
#     4  10  21  35  53  84 122 156 197 249 299 357
#     4  10  19  36  59  82 116 161 200 234 289 361
#     4   9  21  41  61  84 113 150 198 248 299 358
#     4  10  21  37  59  87 118 150 192 245 294 354
#
# _framework density 23.90213
#
# number of rings (size 3 to 8) (size 9 to 14) (size 15 to 20)
#    0.000    2.125    1.250    3.000    0.000    3.500 
#    0.000    2.500    0.000    2.250    0.000    0.000 
#    0.000    0.000    0.000    0.000    0.000    0.000 
#
# Total GULP energy -356916.227806 kJ/mol
# GULP energy per Si atom -5576.816059 kJ/mol
# Density = 2.384773 g / cm^3
# Si number density = 23.902130 Si / 1000 Ang^3
#
#
#
# Elastic Constant Matrix: (Units=GPa)
#
#
# Indices 1 2 3 4 5 6 
#
# 1 37.9223 18.0702 5.8274 0.0000 0.0000 0.0000
# 2 18.0702 119.1075 44.9104 0.0000 0.0000 0.0000
# 3 5.8274 44.9104 134.5645 0.0000 0.0000 0.0000
# 4 0.0000 0.0000 0.0000 26.5411 0.0000 0.0000
# 5 0.0000 0.0000 0.0000 0.0000 23.4292 0.0000
# 6 0.0000 0.0000 0.0000 0.0000 0.0000 14.9573
#
#
#
# Elastic Compliance Matrix: (Units=1/GPa)
#
#
# Indices 1 2 3 4 5 6 
#
# 1 0.028431 -0.004403 0.000238 0.000000 0.000000 0.000000
# 2 -0.004403 0.010286 -0.003242 0.000000 0.000000 0.000000
# 3 0.000238 -0.003242 0.008503 0.000000 0.000000 0.000000
# 4 0.000000 0.000000 0.000000 0.037677 0.000000 0.000000
# 5 0.000000 0.000000 0.000000 0.000000 0.042682 0.000000
# 6 0.000000 0.000000 0.000000 0.000000 0.000000 0.066857
#
#
# Mechanical properties :
#
#
# Convention : Reuss Voigt Hill
#
# Bulk Modulus (GPa) = 30.85826 47.69005 39.27415
# Shear Modulus (GPa) = 22.72175 27.83794 25.27985
#
# Velocity S-wave (km/s) = 3.08655 3.41642 3.25567
# Velocity P-wave (km/s) = 5.06366 5.96306 5.53167
#
# Compressibility (1/GPa) = 0.03240624
#
# Stress axis : x y z
#
# Youngs Moduli (GPa) = 35.17256 97.21612 117.60304
#
# Poissons Ratio (x) = 0.42807 -0.02803
# Poissons Ratio (y) = 0.15487 0.38131
# Poissons Ratio (z) = -0.00838 0.31521
#
# Static dielectric constant tensor:
#      x y z
#    x 2.001200 0.000000 0.000000 
#    y 0.000000 1.935350 0.000000 
#    z 0.000000 0.000000 1.927230 
# 
# From -- ./inp_files/12203.got.cif
#   From: 2010.05.17/outbox.cif.g08.bks.cpg/sg59_7_cif.got.tgz:12203.got - 2010.06.03 14:40:33.
