data_PCOD9449421
_publ_section_title
;
Structure prediction by ZEFSAII (Michael W. Deem and Ramdas Pophale) SiO2 
 PCOD9449421
Probable space group: P M M N
;
_chemical_formula_sum "Si O2"
_cell_formula_units_Z 64
_cell_length_a 15.160757
_cell_length_b 7.871519
_cell_length_c 26.985826
_cell_angle_alpha 90.000000
_cell_angle_beta 90.000000
_cell_angle_gamma 90.000000
_cell_volume 3220.439544
_symmetry_space_group_name_H-M "P M M N"
_symmetry_group_IT_number 59
_space_group.IT_coordinate_system_code '2'
_symmetry_cell_setting 'orthorhombic'
loop_
_space_group_symop_operation_xyz
x,y,z
1/2-x,1/2-y,z
1/2+x,-y,-z
-x,1/2+y,-z
-x,-y,-z
1/2+x,1/2+y,-z
1/2-x,y,z
x,1/2-y,z
loop_
_atom_site_type_symbol
_atom_site_label
_atom_site_fract_x
_atom_site_fract_y
_atom_site_fract_z
Si Si1 0.000914 0.454679 0.057342
Si Si2 0.649820 0.950755 0.492426
Si Si3 0.149835 0.044800 0.131020
Si Si4 0.851715 0.452503 0.758603
Si Si5 0.999705 0.948517 0.683014
Si Si6 0.149135 0.957468 0.868909
Si Si7 0.148422 0.542614 0.757119
Si Si8 0.986052 0.448629 0.571088
O O1 0.000729 0.250000 0.060264
O O2 0.916618 0.516626 0.088575
O O3 0.086663 0.516026 0.087350
O O4 0.000000 0.500000 0.000000
O O5 0.750000 0.021020 0.491151
O O6 0.657671 0.750000 0.482523
O O7 0.576978 0.019356 0.453218
O O8 0.599682 0.971965 0.544866
O O9 0.250000 0.981637 0.125775
O O10 0.151607 0.250000 0.129548
O O11 0.117257 0.995248 0.185713
O O12 0.750000 0.511739 0.754786
O O13 0.852985 0.250000 0.752409
O O14 0.914284 0.531961 0.717589
O O15 0.016090 0.750000 0.673835
O O16 0.081235 0.018632 0.715456
O O17 0.987567 0.031490 0.629778
O O18 0.250000 0.010010 0.877450
O O19 0.148000 0.750000 0.868884
O O20 0.123250 0.010193 0.813076
O O21 0.250000 0.493211 0.748391
O O22 0.145539 0.750000 0.756840
O O23 0.982183 0.250000 0.558357
#
# Coordination Sequence:
#
# PCOD9449421 Si02
#       8
#     8   8   8   8   8   8   8   8
#     4  10  20  32  47  70  97 126 162 203 249 300
#     4   9  19  38  61  80 102 138 181 221 263 311
#     4   9  18  34  54  73  96 129 168 209 255 309
#     4  10  21  36  54  77 104 135 173 216 261 309
#     4  11  21  33  53  80 111 144 173 207 253 306
#     4   8  14  27  47  68  91 121 158 199 240 285
#     4   8  15  29  50  76 102 129 166 209 250 297
#     4  10  21  36  54  80 111 140 174 217 262 306
#
# _framework density 19.873063999999999
#
# number of rings (size 3 to 8) (size 9 to 14) (size 15 to 20)
#    0.000    2.625    0.000    2.625    0.000    5.500 
#    0.000    0.000    0.000    1.125    0.000    3.500 
#    0.000    0.000    0.000    0.000    0.000    0.000 
#
# Total GULP energy -357072.305106 kJ/mol
# GULP energy per Si atom -5579.254767 kJ/mol
# Density = 1.982783 g / cm^3
# Si number density = 19.873064 Si / 1000 Ang^3
#
#
#
# Elastic Constant Matrix: (Units=GPa)
#
#
# Indices 1 2 3 4 5 6 
#
# 1 110.5290 -0.7210 65.7886 0.0000 0.0000 0.0000
# 2 -0.7210 20.7000 -9.3236 0.0000 0.0000 0.0000
# 3 65.7886 -9.3236 137.0527 0.0000 0.0000 0.0000
# 4 0.0000 0.0000 0.0000 18.8749 0.0000 0.0000
# 5 0.0000 0.0000 0.0000 0.0000 -38.7319 0.0000
# 6 0.0000 0.0000 0.0000 0.0000 0.0000 7.5152
#
#
#
# Elastic Compliance Matrix: (Units=1/GPa)
#
#
# Indices 1 2 3 4 5 6 
#
# 1 0.012780 -0.002391 -0.006297 0.000000 0.000000 0.000000
# 2 -0.002391 0.050284 0.004569 0.000000 0.000000 0.000000
# 3 -0.006297 0.004569 0.010630 0.000000 0.000000 0.000000
# 4 0.000000 0.000000 0.000000 0.052980 0.000000 0.000000
# 5 0.000000 0.000000 0.000000 0.000000 -0.025819 0.000000
# 6 0.000000 0.000000 0.000000 0.000000 0.000000 0.133064
#
#
# Mechanical properties :
#
#
# Convention : Reuss Voigt Hill
#
# Bulk Modulus (GPa) = 15.27797 42.19663 28.73730
# Shear Modulus (GPa) = 18.94095 11.70082 15.32088
#
# Velocity S-wave (km/s) = 3.09058 2.42911 2.77959
# Velocity P-wave (km/s) = 4.52106 5.39876 4.97929
#
# Compressibility (1/GPa) = 0.06545371
#
# Stress axis : x y z
#
# Youngs Moduli (GPa) = 78.24635 19.88720 94.07153
#
# Poissons Ratio (x) = 0.04756 0.59241
# Poissons Ratio (y) = 0.18711 -0.42978
# Poissons Ratio (z) = 0.49275 -0.09086
#
# Static dielectric constant tensor:
#      x y z
#    x 1.713930 0.000000 0.000000 
#    y 0.000000 1.736940 0.000000 
#    z 0.000000 0.000000 1.661340 
# 
# From -- ./inp_files/32166.got.cif
#   From: 2010.05.17/outbox.cif.g08.bks.cpg/sg59_17_cif.got.tgz:32166.got - 2010.06.03 14:40:33.
