data_PCOD9449512
_publ_section_title
;
Structure prediction by ZEFSAII (Michael W. Deem and Ramdas Pophale) SiO2 
 PCOD9449512
Probable space group: P M M N
;
_chemical_formula_sum "Si O2"
_cell_formula_units_Z 64
_cell_length_a 20.524051
_cell_length_b 8.866961
_cell_length_c 20.551460
_cell_angle_alpha 90.000000
_cell_angle_beta 90.000000
_cell_angle_gamma 90.000000
_cell_volume 3740.077173
_symmetry_space_group_name_H-M "P M M N"
_symmetry_group_IT_number 59
_space_group.IT_coordinate_system_code '2'
_symmetry_cell_setting 'orthorhombic'
loop_
_space_group_symop_operation_xyz
x,y,z
1/2-x,1/2-y,z
1/2+x,-y,-z
-x,1/2+y,-z
-x,-y,-z
1/2+x,1/2+y,-z
1/2-x,y,z
x,1/2-y,z
loop_
_atom_site_type_symbol
_atom_site_label
_atom_site_fract_x
_atom_site_fract_y
_atom_site_fract_z
Si Si1 0.174499 0.068235 0.824952
Si Si2 0.927694 0.069748 0.424803
Si Si3 0.431070 0.567934 0.425106
Si Si4 0.176179 0.566396 0.321780
Si Si5 0.174097 0.568439 0.172497
Si Si6 0.825267 0.931560 0.325518
Si Si7 0.575551 0.569695 0.930634
Si Si8 0.575326 0.069593 0.071945
O O1 0.250000 0.026992 0.838879
O O2 0.170052 0.250000 0.829704
O O3 0.160649 0.026943 0.749696
O O4 0.124223 0.994360 0.874375
O O5 0.929804 0.250000 0.420237
O O6 0.913380 0.029148 0.500295
O O7 0.874379 0.005551 0.375833
O O8 0.998816 0.002416 0.409976
O O9 0.436273 0.750000 0.421388
O O10 0.376535 0.516093 0.374217
O O11 0.250000 0.516973 0.336837
O O12 0.176667 0.750000 0.322938
O O13 0.160540 0.523535 0.247429
O O14 0.250000 0.531965 0.158883
O O15 0.167623 0.750000 0.168162
O O16 0.125160 0.491839 0.122762
O O17 0.750000 0.972873 0.338997
O O18 0.830131 0.750000 0.329850
O O19 0.579957 0.750000 0.935144
O O20 0.500385 0.529996 0.913759
O O21 0.590334 0.498639 0.001040
O O22 0.580377 0.250000 0.069150
#
# Coordination Sequence:
#
# PCOD9449512 Si02
#       8
#     8   8   8   8   8   8   8   8
#     4   9  19  36  56  77 101 132 170 208 249 301
#     4  10  20  32  49  75 105 134 168 213 257 299
#     4   9  18  33  52  73 100 136 173 208 251 303
#     4   8  15  30  52  75  97 125 166 211 249 291
#     4   9  18  33  53  76 100 127 163 207 251 294
#     4   9  19  36  55  74 100 135 172 208 249 303
#     4  10  21  36  53  74 102 135 168 202 243 296
#     4  10  21  36  54  77 103 131 166 208 251 293
#
# _framework density 17.111946
#
# number of rings (size 3 to 8) (size 9 to 14) (size 15 to 20)
#    0.000    2.750    0.000    2.625    0.000    5.250 
#    0.000    6.875    0.000    1.125    0.000    0.000 
#    0.000    0.000    0.000    0.000    0.000    0.000 
#
# Total GULP energy -356929.093618 kJ/mol
# GULP energy per Si atom -5577.017088 kJ/mol
# Density = 1.707300 g / cm^3
# Si number density = 17.111946 Si / 1000 Ang^3
#
#
#
# Elastic Constant Matrix: (Units=GPa)
#
#
# Indices 1 2 3 4 5 6 
#
# 1 152.8801 53.1795 143.2471 0.0000 0.0000 0.0000
# 2 53.1795 30.1245 52.1826 0.0000 0.0000 0.0000
# 3 143.2471 52.1826 156.0198 0.0000 0.0000 0.0000
# 4 0.0000 0.0000 0.0000 29.3388 0.0000 0.0000
# 5 0.0000 0.0000 0.0000 0.0000 43.5473 0.0000
# 6 0.0000 0.0000 0.0000 0.0000 0.0000 28.3024
#
#
#
# Elastic Compliance Matrix: (Units=1/GPa)
#
#
# Indices 1 2 3 4 5 6 
#
# 1 0.052167 -0.021692 -0.040642 0.000000 0.000000 0.000000
# 2 -0.021692 0.087937 -0.009496 0.000000 0.000000 0.000000
# 3 -0.040642 -0.009496 0.046900 0.000000 0.000000 0.000000
# 4 0.000000 0.000000 0.000000 0.034085 0.000000 0.000000
# 5 0.000000 0.000000 0.000000 0.000000 0.022964 0.000000
# 6 0.000000 0.000000 0.000000 0.000000 0.000000 0.035333
#
#
# Mechanical properties :
#
#
# Convention : Reuss Voigt Hill
#
# Bulk Modulus (GPa) = 23.06995 92.91586 57.99291
# Shear Modulus (GPa) = 11.42877 26.26536 18.84706
#
# Velocity S-wave (km/s) = 2.58715 3.92205 3.32233
# Velocity P-wave (km/s) = 4.73661 8.65602 6.97718
#
# Compressibility (1/GPa) = 0.04334643
#
# Stress axis : x y z
#
# Youngs Moduli (GPa) = 19.16905 11.37174 21.32198
#
# Poissons Ratio (x) = 0.24667 0.86656
# Poissons Ratio (y) = 0.41581 0.20247
# Poissons Ratio (z) = 0.77906 0.10798
#
# Static dielectric constant tensor:
#      x y z
#    x 1.559550 0.000000 0.000000 
#    y 0.000000 1.575480 0.000000 
#    z 0.000000 0.000000 1.559880 
# 
# From -- ./inp_files/30670.got.cif
#   From: 2010.05.17/outbox.cif.g08.bks.cpg/sg59_16_cif.got.tgz:30670.got - 2010.06.03 14:40:33.
