data_PCOD9449228
_publ_section_title
;
Structure prediction by ZEFSAII (Michael W. Deem and Ramdas Pophale) SiO2 
 PCOD9449228
Probable space group: P M M N
;
_chemical_formula_sum "Si O2"
_cell_formula_units_Z 56
_cell_length_a 22.351512
_cell_length_b 8.489884
_cell_length_c 15.246892
_cell_angle_alpha 90.000000
_cell_angle_beta 90.000000
_cell_angle_gamma 90.000000
_cell_volume 2893.276818
_symmetry_space_group_name_H-M "P M M N"
_symmetry_group_IT_number 59
_space_group.IT_coordinate_system_code '2'
_symmetry_cell_setting 'orthorhombic'
loop_
_space_group_symop_operation_xyz
x,y,z
1/2-x,1/2-y,z
1/2+x,-y,-z
-x,1/2+y,-z
-x,-y,-z
1/2+x,1/2+y,-z
1/2-x,y,z
x,1/2-y,z
loop_
_atom_site_type_symbol
_atom_site_label
_atom_site_fract_x
_atom_site_fract_y
_atom_site_fract_z
Si Si1 0.622967 0.936593 0.128612
Si Si2 0.582650 0.938124 0.768137
Si Si3 0.957013 0.559600 0.297637
Si Si4 0.061854 0.565229 0.038304
Si Si5 0.250000 0.929398 0.827381
Si Si6 0.372338 0.061881 0.547554
Si Si7 0.750000 0.428581 0.380654
Si Si8 0.319642 0.057605 0.366101
O O1 0.613138 0.750000 0.116996
O O2 0.582246 0.988242 0.211948
O O3 0.691095 0.975998 0.148067
O O4 0.606984 0.025367 0.039542
O O5 0.580269 0.750000 0.763830
O O6 0.644130 0.989542 0.720836
O O7 0.524290 0.002316 0.717384
O O8 0.578209 0.989286 0.868960
O O9 0.956620 0.750000 0.299188
O O10 0.924565 0.502115 0.387268
O O11 0.056054 0.750000 0.052607
O O12 0.000000 0.500000 0.000000
O O13 0.250000 0.750000 0.863243
O O14 0.250000 0.916481 0.723028
O O15 0.380067 0.250000 0.542866
O O16 0.360904 0.004546 0.448312
O O17 0.309152 0.020868 0.591863
O O18 0.750000 0.250000 0.417597
O O19 0.250000 0.005282 0.371981
O O20 0.317564 0.250000 0.369130
#
# Coordination Sequence:
#
# PCOD9449228 Si02
#       8
#     8   8   8   8   4   8   4   8
#     4  11  22  38  61  90 122 160 204 250 304 368
#     4  11  23  39  62  90 120 156 200 252 306 360
#     4  10  21  35  58  91 124 157 197 244 300 361
#     4  12  24  41  65  89 117 156 200 252 308 369
#     4  11  23  37  55  86 129 166 199 249 308 362
#     4  10  19  36  62  86 115 159 205 241 285 354
#     4  11  21  31  51  86 123 156 195 243 296 346
#     4   9  19  38  65  90 115 156 209 252 289 345
#
# _framework density 19.355217
#
# number of rings (size 3 to 8) (size 9 to 14) (size 15 to 20)
#    0.000    1.429    3.571    2.571    0.000    2.286 
#    1.286    1.429    0.000    0.000    0.000    0.000 
#    0.000    0.000    0.000    0.000    0.000    0.000 
#
# Total GULP energy -312571.401789 kJ/mol
# GULP energy per Si atom -5581.632175 kJ/mol
# Density = 1.931116 g / cm^3
# Si number density = 19.355217 Si / 1000 Ang^3
#
#
#
# Elastic Constant Matrix: (Units=GPa)
#
#
# Indices 1 2 3 4 5 6 
#
# 1 84.4783 7.8525 55.8000 0.0000 0.0000 0.0000
# 2 7.8525 9.4676 13.0255 0.0000 0.0000 0.0000
# 3 55.8000 13.0255 137.7240 0.0000 0.0000 0.0000
# 4 0.0000 0.0000 0.0000 17.3661 0.0000 0.0000
# 5 0.0000 0.0000 0.0000 0.0000 12.6741 0.0000
# 6 0.0000 0.0000 0.0000 0.0000 0.0000 28.6573
#
#
#
# Elastic Compliance Matrix: (Units=1/GPa)
#
#
# Indices 1 2 3 4 5 6 
#
# 1 0.016376 -0.005120 -0.006151 0.000000 0.000000 0.000000
# 2 -0.005120 0.123024 -0.009561 0.000000 0.000000 0.000000
# 3 -0.006151 -0.009561 0.010657 0.000000 0.000000 0.000000
# 4 0.000000 0.000000 0.000000 0.057583 0.000000 0.000000
# 5 0.000000 0.000000 0.000000 0.000000 0.078901 0.000000
# 6 0.000000 0.000000 0.000000 0.000000 0.000000 0.034895
#
#
# Mechanical properties :
#
#
# Convention : Reuss Voigt Hill
#
# Bulk Modulus (GPa) = 9.22564 42.78066 26.00315
# Shear Modulus (GPa) = 12.52410 22.07231 17.29820
#
# Velocity S-wave (km/s) = 2.54651 3.38062 2.99276
# Velocity P-wave (km/s) = 3.66376 6.11465 5.04044
#
# Compressibility (1/GPa) = 0.10839355
#
# Stress axis : x y z
#
# Youngs Moduli (GPa) = 61.06528 8.12852 93.83447
#
# Poissons Ratio (x) = 0.04162 0.57714
# Poissons Ratio (y) = 0.31267 0.89712
# Poissons Ratio (z) = 0.37559 0.07771
#
# Static dielectric constant tensor:
#      x y z
#    x 1.679980 0.000000 0.000000 
#    y 0.000000 1.693920 0.000000 
#    z 0.000000 0.000000 1.686070 
# 
# From -- ./inp_files/24403.got.cif
#   From: 2010.05.17/outbox.cif.g08.bks.cpg/sg59_13_cif.got.tgz:24403.got - 2010.06.03 14:40:33.
