data_PCOD9449119
_publ_section_title
;
Structure prediction by ZEFSAII (Michael W. Deem and Ramdas Pophale) SiO2 
 PCOD9449119
Probable space group: P M M N
;
_chemical_formula_sum "Si O2"
_cell_formula_units_Z 48
_cell_length_a 10.100622
_cell_length_b 7.991620
_cell_length_c 29.506917
_cell_angle_alpha 90.000000
_cell_angle_beta 90.000000
_cell_angle_gamma 90.000000
_cell_volume 2381.808160
_symmetry_space_group_name_H-M "P M M N"
_symmetry_group_IT_number 59
_space_group.IT_coordinate_system_code '2'
_symmetry_cell_setting 'orthorhombic'
loop_
_space_group_symop_operation_xyz
x,y,z
1/2-x,1/2-y,z
1/2+x,-y,-z
-x,1/2+y,-z
-x,-y,-z
1/2+x,1/2+y,-z
1/2-x,y,z
x,1/2-y,z
loop_
_atom_site_type_symbol
_atom_site_label
_atom_site_fract_x
_atom_site_fract_y
_atom_site_fract_z
Si Si1 0.032379 0.049811 0.104599
Si Si2 0.602227 0.545042 0.794541
Si Si3 0.600054 0.949883 0.539253
Si Si4 0.250000 0.450205 0.930277
Si Si5 0.900452 0.447795 0.641393
Si Si6 0.900360 0.449706 0.281249
Si Si7 0.750000 0.954854 0.966011
O O1 0.049296 0.250000 0.105688
O O2 0.078408 0.988637 0.153840
O O3 0.123238 0.988805 0.063125
O O4 0.881242 0.009291 0.094839
O O5 0.750000 0.495177 0.779497
O O6 0.599610 0.750000 0.794423
O O7 0.487370 0.485172 0.760986
O O8 0.750000 0.006798 0.528466
O O9 0.600542 0.750000 0.542954
O O10 0.500000 0.000000 0.500000
O O11 0.566240 0.020195 0.588815
O O12 0.250000 0.250000 0.931488
O O13 0.250000 0.513425 0.982311
O O14 0.750000 0.515045 0.649258
O O15 0.896614 0.250000 0.649236
O O16 0.011095 0.520767 0.674329
O O17 0.750000 0.516330 0.283962
O O18 0.890048 0.250000 0.275213
O O19 0.750000 0.750000 0.967439
#
# Coordination Sequence:
#
# PCOD9449119 Si02
#       7
#     8   8   8   4   8   8   4
#     4  10  19  35  59  82 103 138 185 228 270 324
#     4   9  17  32  57  84 106 133 178 232 278 323
#     4  10  21  37  59  87 118 154 195 239 286 333
#     4  11  23  35  49  77 117 149 173 217 276 329
#     4  10  21  38  59  82 111 151 196 235 274 328
#     4  10  21  35  55  85 115 140 173 225 285 338
#     4   9  18  35  57  81 107 137 183 231 270 321
#
# _framework density 20.152757000000001
#
# number of rings (size 3 to 8) (size 9 to 14) (size 15 to 20)
#    0.000    2.167    0.833    2.250    1.167    3.667 
#    0.000    2.083    0.000    1.000    0.000    0.000 
#    0.000    0.000    0.000    0.000    0.000    0.000 
#
# Total GULP energy -268036.066487 kJ/mol
# GULP energy per Si atom -5584.084718 kJ/mol
# Density = 2.010689 g / cm^3
# Si number density = 20.152757 Si / 1000 Ang^3
#
#
#
# Elastic Constant Matrix: (Units=GPa)
#
#
# Indices 1 2 3 4 5 6 
#
# 1 156.4546 1.0463 77.5864 0.0000 0.0000 0.0000
# 2 1.0463 14.9889 -0.4100 0.0000 0.0000 0.0000
# 3 77.5864 -0.4100 106.0186 0.0000 0.0000 0.0000
# 4 0.0000 0.0000 0.0000 13.1576 0.0000 0.0000
# 5 0.0000 0.0000 0.0000 0.0000 36.3165 0.0000
# 6 0.0000 0.0000 0.0000 0.0000 0.0000 4.5146
#
#
#
# Elastic Compliance Matrix: (Units=1/GPa)
#
#
# Indices 1 2 3 4 5 6 
#
# 1 0.010045 -0.000902 -0.007354 0.000000 0.000000 0.000000
# 2 -0.000902 0.066804 0.000919 0.000000 0.000000 0.000000
# 3 -0.007354 0.000919 0.014818 0.000000 0.000000 0.000000
# 4 0.000000 0.000000 0.000000 0.076002 0.000000 0.000000
# 5 0.000000 0.000000 0.000000 0.000000 0.027536 0.000000
# 6 0.000000 0.000000 0.000000 0.000000 0.000000 0.221504
#
#
# Mechanical properties :
#
#
# Convention : Reuss Voigt Hill
#
# Bulk Modulus (GPa) = 12.98861 48.21195 30.60028
# Shear Modulus (GPa) = 10.93977 24.08036 17.51006
#
# Velocity S-wave (km/s) = 2.33243 3.46047 2.95085
# Velocity P-wave (km/s) = 3.70306 6.31994 5.17950
#
# Compressibility (1/GPa) = 0.07699051
#
# Stress axis : x y z
#
# Youngs Moduli (GPa) = 99.55434 14.96917 67.48553
#
# Poissons Ratio (x) = 0.01351 0.49632
# Poissons Ratio (y) = 0.08983 -0.06200
# Poissons Ratio (z) = 0.73217 -0.01375
#
# Static dielectric constant tensor:
#      x y z
#    x 1.697310 0.000000 0.000000 
#    y 0.000000 1.714640 0.000000 
#    z 0.000000 0.000000 1.688600 
# 
# From -- ./inp_files/33087.got.cif
#   From: 2010.05.17/outbox.cif.g08.bks.cpg/sg59_17_cif.got.tgz:33087.got - 2010.06.03 14:40:33.
