data_PCOD9449234
_publ_section_title
;
Structure prediction by ZEFSAII (Michael W. Deem and Ramdas Pophale) SiO2 
 PCOD9449234
Probable space group: P M M N
;
_chemical_formula_sum "Si O2"
_cell_formula_units_Z 48
_cell_length_a 15.515398
_cell_length_b 8.620570
_cell_length_c 19.474962
_cell_angle_alpha 90.000000
_cell_angle_beta 90.000000
_cell_angle_gamma 90.000000
_cell_volume 2604.806832
_symmetry_space_group_name_H-M "P M M N"
_symmetry_group_IT_number 59
_space_group.IT_coordinate_system_code '2'
_symmetry_cell_setting 'orthorhombic'
loop_
_space_group_symop_operation_xyz
x,y,z
1/2-x,1/2-y,z
1/2+x,-y,-z
-x,1/2+y,-z
-x,-y,-z
1/2+x,1/2+y,-z
1/2-x,y,z
x,1/2-y,z
loop_
_atom_site_type_symbol
_atom_site_label
_atom_site_fract_x
_atom_site_fract_y
_atom_site_fract_z
Si Si1 0.750000 0.065616 0.080028
Si Si2 0.407333 0.062445 0.171474
Si Si3 0.596565 0.935811 0.172190
Si Si4 0.347759 0.438960 0.324393
Si Si5 0.150462 0.437344 0.673098
Si Si6 0.750000 0.937515 0.926591
Si Si7 0.498099 0.936041 0.576721
O O1 0.750000 0.250000 0.081134
O O2 0.666395 0.003726 0.120248
O O3 0.750000 0.006029 0.002234
O O4 0.413186 0.250000 0.171218
O O5 0.377254 0.014645 0.247946
O O6 0.334502 0.016714 0.116843
O O7 0.500562 0.992906 0.156539
O O8 0.600759 0.750000 0.169193
O O9 0.621021 0.983667 0.250145
O O10 0.250000 0.491048 0.337946
O O11 0.346936 0.250000 0.324907
O O12 0.418071 0.489764 0.379954
O O13 0.250000 0.482700 0.662647
O O14 0.145741 0.250000 0.669241
O O15 0.085954 0.508088 0.617812
O O16 0.750000 0.750000 0.930960
O O17 0.499179 0.750000 0.574932
O O18 0.500000 0.000000 0.500000
#
# Coordination Sequence:
#
# PCOD9449234 Si02
#       7
#     4   8   8   8   8   4   8
#     4  12  26  42  62  88 123 160 203 250 297 363
#     4  10  19  36  63  93 118 152 202 250 299 360
#     4  11  22  39  63  91 123 158 199 249 306 362
#     4   9  17  33  59  88 115 150 198 246 294 352
#     4  10  21  39  62  87 117 156 200 247 302 361
#     4  10  22  40  64  90 125 160 195 252 309 357
#     4  11  23  38  59  88 124 160 200 249 301 358
#
# _framework density 18.427468999999999
#
# number of rings (size 3 to 8) (size 9 to 14) (size 15 to 20)
#    0.000    1.667    3.333    1.750    0.000    3.000 
#    0.000    1.667    0.000    3.500    0.000    0.000 
#    0.000    0.000    0.000    0.000    0.000    0.000 
#
# Total GULP energy -268191.279227 kJ/mol
# GULP energy per Si atom -5587.318317 kJ/mol
# Density = 1.838553 g / cm^3
# Si number density = 18.427469 Si / 1000 Ang^3
#
#
#
# Elastic Constant Matrix: (Units=GPa)
#
#
# Indices 1 2 3 4 5 6 
#
# 1 220.1225 49.9661 121.9132 0.0000 0.0000 0.0000
# 2 49.9661 34.0922 49.7887 0.0000 0.0000 0.0000
# 3 121.9132 49.7887 194.8856 0.0000 0.0000 0.0000
# 4 0.0000 0.0000 0.0000 26.0690 0.0000 0.0000
# 5 0.0000 0.0000 0.0000 0.0000 33.0136 0.0000
# 6 0.0000 0.0000 0.0000 0.0000 0.0000 22.5714
#
#
#
# Elastic Compliance Matrix: (Units=1/GPa)
#
#
# Indices 1 2 3 4 5 6 
#
# 1 0.007856 -0.006918 -0.003147 0.000000 0.000000 0.000000
# 2 -0.006918 0.052881 -0.009182 0.000000 0.000000 0.000000
# 3 -0.003147 -0.009182 0.009446 0.000000 0.000000 0.000000
# 4 0.000000 0.000000 0.000000 0.038360 0.000000 0.000000
# 5 0.000000 0.000000 0.000000 0.000000 0.030291 0.000000
# 6 0.000000 0.000000 0.000000 0.000000 0.000000 0.044304
#
#
# Mechanical properties :
#
#
# Convention : Reuss Voigt Hill
#
# Bulk Modulus (GPa) = 31.55723 99.15959 65.35841
# Shear Modulus (GPa) = 21.53356 31.49297 26.51326
#
# Velocity S-wave (km/s) = 3.42213 4.13852 3.79725
# Velocity P-wave (km/s) = 5.72511 8.76151 7.40071
#
# Compressibility (1/GPa) = 0.03168846
#
# Stress axis : x y z
#
# Youngs Moduli (GPa) = 127.28533 18.91021 105.86685
#
# Poissons Ratio (x) = 0.13082 0.33319
# Poissons Ratio (y) = 0.88059 0.97209
# Poissons Ratio (z) = 0.40059 0.17364
#
# Static dielectric constant tensor:
#      x y z
#    x 1.614310 0.000000 0.000000 
#    y 0.000000 1.630790 0.000000 
#    z 0.000000 0.000000 1.603060 
# 
# From -- ./inp_files/27439.got.cif
#   From: 2010.05.17/outbox.cif.g08.bks.cpg/sg59_14_cif.got.tgz:27439.got - 2010.06.03 14:40:33.
