data_PCOD9449134
_publ_section_title
;
Structure prediction by ZEFSAII (Michael W. Deem and Ramdas Pophale) SiO2 
 PCOD9449134
Probable space group: P M M N
;
_chemical_formula_sum "Si O2"
_cell_formula_units_Z 56
_cell_length_a 7.789471
_cell_length_b 22.216726
_cell_length_c 15.429085
_cell_angle_alpha 90.000000
_cell_angle_beta 90.000000
_cell_angle_gamma 90.000000
_cell_volume 2670.104110
_symmetry_space_group_name_H-M "P M M N"
_symmetry_group_IT_number 59
_space_group.IT_coordinate_system_code '2'
_symmetry_cell_setting 'orthorhombic'
loop_
_space_group_symop_operation_xyz
x,y,z
1/2-x,1/2-y,z
1/2+x,-y,-z
-x,1/2+y,-z
-x,-y,-z
1/2+x,1/2+y,-z
1/2-x,y,z
x,1/2-y,z
loop_
_atom_site_type_symbol
_atom_site_label
_atom_site_fract_x
_atom_site_fract_y
_atom_site_fract_z
Si Si1 0.044640 0.750000 0.705241
Si Si2 0.955033 0.180647 0.871125
Si Si3 0.449143 0.063017 0.542226
Si Si4 0.554942 0.750000 0.896156
Si Si5 0.542094 0.913618 0.265661
Si Si6 0.051768 0.621587 0.960279
Si Si7 0.539741 0.456660 0.201391
Si Si8 0.044669 0.621425 0.631682
O O1 0.250000 0.750000 0.725425
O O2 0.005673 0.689537 0.655147
O O3 0.943077 0.750000 0.793568
O O4 0.750000 0.184236 0.885930
O O5 0.019470 0.250000 0.876449
O O6 0.984724 0.147463 0.780574
O O7 0.026720 0.134769 0.944910
O O8 0.250000 0.057698 0.560670
O O9 0.525940 0.078983 0.635830
O O10 0.478341 0.108212 0.463746
O O11 0.500000 0.000000 0.500000
O O12 0.750000 0.750000 0.930478
O O13 0.458777 0.810768 0.922422
O O14 0.750000 0.912906 0.265107
O O15 0.489036 0.973863 0.213027
O O16 0.250000 0.602924 0.971857
O O17 0.978858 0.576661 0.886768
O O18 0.750000 0.453487 0.200359
O O19 0.483666 0.420977 0.288701
O O20 0.250000 0.612870 0.628688
#
# Coordination Sequence:
#
# PCOD9449134 Si02
#       8
#     4   8   8   4   8   8   8   8
#     4  10  20  36  58  81 114 161 196 229 288 358
#     4  10  22  40  62  86 111 149 202 246 280 332
#     4  11  22  38  61  86 114 152 193 239 293 350
#     4  12  22  30  50  87 122 151 192 241 284 334
#     4  10  22  40  59  84 117 152 189 234 295 352
#     4  10  19  37  62  83 112 155 194 233 286 347
#     4   9  17  33  60  88 115 148 187 228 282 355
#     4  10  19  35  59  86 116 152 196 238 288 350
#
# _framework density 20.972964999999999
#
# number of rings (size 3 to 8) (size 9 to 14) (size 15 to 20)
#    0.000    1.857    3.571    1.071    0.000    3.143 
#    1.286    0.714    0.000    0.000    0.000    0.000 
#    0.000    0.000    0.000    0.000    0.000    0.000 
#
# Total GULP energy -312381.371776 kJ/mol
# GULP energy per Si atom -5578.238782 kJ/mol
# Density = 2.092523 g / cm^3
# Si number density = 20.972965 Si / 1000 Ang^3
#
#
#
# Elastic Constant Matrix: (Units=GPa)
#
#
# Indices 1 2 3 4 5 6 
#
# 1 9.7327 17.3684 12.9185 0.0000 0.0000 0.0000
# 2 17.3684 69.9458 45.4735 0.0000 0.0000 0.0000
# 3 12.9185 45.4735 150.0218 0.0000 0.0000 0.0000
# 4 0.0000 0.0000 0.0000 15.3422 0.0000 0.0000
# 5 0.0000 0.0000 0.0000 0.0000 16.9220 0.0000
# 6 0.0000 0.0000 0.0000 0.0000 0.0000 16.3675
#
#
#
# Elastic Compliance Matrix: (Units=1/GPa)
#
#
# Indices 1 2 3 4 5 6 
#
# 1 0.185255 -0.044375 -0.002502 0.000000 0.000000 0.000000
# 2 -0.044375 0.028435 -0.004798 0.000000 0.000000 0.000000
# 3 -0.002502 -0.004798 0.008335 0.000000 0.000000 0.000000
# 4 0.000000 0.000000 0.000000 0.065180 0.000000 0.000000
# 5 0.000000 0.000000 0.000000 0.000000 0.059095 0.000000
# 6 0.000000 0.000000 0.000000 0.000000 0.000000 0.061097
#
#
# Mechanical properties :
#
#
# Convention : Reuss Voigt Hill
#
# Bulk Modulus (GPa) = 8.42627 42.35792 25.39210
# Shear Modulus (GPa) = 9.08590 19.98900 14.53745
#
# Velocity S-wave (km/s) = 2.08365 3.09056 2.63563
# Velocity P-wave (km/s) = 3.13292 5.74244 4.62552
#
# Compressibility (1/GPa) = 0.11867643
#
# Stress axis : x y z
#
# Youngs Moduli (GPa) = 5.39797 35.16826 119.96996
#
# Poissons Ratio (x) = 1.56058 0.30016
# Poissons Ratio (y) = 0.23953 0.57559
# Poissons Ratio (z) = 0.01351 0.16873
#
# Static dielectric constant tensor:
#      x y z
#    x 1.812080 0.000000 0.000000 
#    y 0.000000 1.684540 0.000000 
#    z 0.000000 0.000000 1.806750 
# 
# From -- ./inp_files/21108.got.cif
#   From: 2010.05.17/outbox.cif.g08.bks.cpg/sg59_11_cif.got.tgz:21108.got - 2010.06.03 14:40:33.
