data_PCOD9449636
_publ_section_title
;
Structure prediction by ZEFSAII (Michael W. Deem and Ramdas Pophale) SiO2 
 PCOD9449636
Probable space group: P M M N
;
_chemical_formula_sum "Si O2"
_cell_formula_units_Z 64
_cell_length_a 14.128013
_cell_length_b 9.185704
_cell_length_c 29.748741
_cell_angle_alpha 90.000000
_cell_angle_beta 90.000000
_cell_angle_gamma 90.000000
_cell_volume 3860.665042
_symmetry_space_group_name_H-M "P M M N"
_symmetry_group_IT_number 59
_space_group.IT_coordinate_system_code '2'
_symmetry_cell_setting 'orthorhombic'
loop_
_space_group_symop_operation_xyz
x,y,z
1/2-x,1/2-y,z
1/2+x,-y,-z
-x,1/2+y,-z
-x,-y,-z
1/2+x,1/2+y,-z
1/2-x,y,z
x,1/2-y,z
loop_
_atom_site_type_symbol
_atom_site_label
_atom_site_fract_x
_atom_site_fract_y
_atom_site_fract_z
Si Si1 0.359448 0.422484 0.606696
Si Si2 0.141525 0.427215 0.155918
Si Si3 0.864531 0.582111 0.574822
Si Si4 0.958357 0.077049 0.658857
Si Si5 0.862068 0.575742 0.741792
Si Si6 0.641002 0.575363 0.020661
Si Si7 0.473685 0.424946 0.069634
Si Si8 0.365490 0.583594 0.515109
O O1 0.250000 0.456933 0.616973
O O2 0.364685 0.250000 0.595905
O O3 0.431681 0.450886 0.647021
O O4 0.389995 0.511606 0.562663
O O5 0.250000 0.473489 0.146971
O O6 0.142478 0.250000 0.155217
O O7 0.115771 0.469033 0.206853
O O8 0.071314 0.474837 0.116652
O O9 0.750000 0.579810 0.575547
O O10 0.894928 0.750000 0.577845
O O11 0.901695 0.491874 0.617074
O O12 0.895753 0.510421 0.527807
O O13 0.942978 0.250000 0.660095
O O14 0.922839 0.005040 0.704539
O O15 0.750000 0.547720 0.734402
O O16 0.875397 0.750000 0.737988
O O17 0.750000 0.530063 0.024284
O O18 0.636210 0.750000 0.026121
O O19 0.571826 0.499189 0.056068
O O20 0.599330 0.542378 0.971059
O O21 0.485397 0.250000 0.071007
O O22 0.250000 0.584752 0.514123
O O23 0.398039 0.750000 0.511519
#
# Coordination Sequence:
#
# PCOD9449636 Si02
#       8
#     8   8   8   8   8   8   8   8
#     4   9  19  36  53  67  87 117 152 187 224 269
#     4   8  14  27  49  73  94 120 156 194 231 275
#     4  10  20  33  49  69  96 129 156 178 214 269
#     4  11  22  33  49  72  94 119 151 189 231 272
#     4   9  18  33  52  73  97 123 149 182 230 285
#     4   9  17  28  42  64  98 135 165 197 241 288
#     4   9  16  27  46  70  93 123 166 208 239 274
#     4   9  17  30  49  72  95 118 148 187 225 261
#
# _framework density 16.577453999999999
#
# number of rings (size 3 to 8) (size 9 to 14) (size 15 to 20)
#    0.000    2.750    0.000    2.625    0.000    7.250 
#    0.000    0.625    0.000    2.625    0.000    3.500 
#    0.000    0.000    0.000    0.000    0.000    0.000 
#
# Total GULP energy -357008.457587 kJ/mol
# GULP energy per Si atom -5578.257150 kJ/mol
# Density = 1.653972 g / cm^3
# Si number density = 16.577454 Si / 1000 Ang^3
#
#
#
# Elastic Constant Matrix: (Units=GPa)
#
#
# Indices 1 2 3 4 5 6 
#
# 1 105.7079 48.2940 79.7948 0.0000 0.0000 0.0000
# 2 48.2940 48.1093 55.4423 0.0000 0.0000 0.0000
# 3 79.7948 55.4423 142.4010 0.0000 0.0000 0.0000
# 4 0.0000 0.0000 0.0000 24.6594 0.0000 0.0000
# 5 0.0000 0.0000 0.0000 0.0000 29.8903 0.0000
# 6 0.0000 0.0000 0.0000 0.0000 0.0000 22.1101
#
#
#
# Elastic Compliance Matrix: (Units=1/GPa)
#
#
# Indices 1 2 3 4 5 6 
#
# 1 0.020078 -0.013040 -0.006174 0.000000 0.000000 0.000000
# 2 -0.013040 0.046172 -0.010669 0.000000 0.000000 0.000000
# 3 -0.006174 -0.010669 0.014636 0.000000 0.000000 0.000000
# 4 0.000000 0.000000 0.000000 0.040552 0.000000 0.000000
# 5 0.000000 0.000000 0.000000 0.000000 0.033456 0.000000
# 6 0.000000 0.000000 0.000000 0.000000 0.000000 0.045228
#
#
# Mechanical properties :
#
#
# Convention : Reuss Voigt Hill
#
# Bulk Modulus (GPa) = 47.35054 73.69783 60.52418
# Shear Modulus (GPa) = 18.73162 22.84446 20.78804
#
# Velocity S-wave (km/s) = 3.36511 3.71623 3.54502
# Velocity P-wave (km/s) = 6.61240 7.93517 7.30380
#
# Compressibility (1/GPa) = 0.02111909
#
# Stress axis : x y z
#
# Youngs Moduli (GPa) = 49.80606 21.65813 68.32562
#
# Poissons Ratio (x) = 0.28243 0.42181
# Poissons Ratio (y) = 0.64949 0.72899
# Poissons Ratio (z) = 0.30748 0.23108
#
# Static dielectric constant tensor:
#      x y z
#    x 1.577720 0.000000 0.000000 
#    y 0.000000 1.554890 0.000000 
#    z 0.000000 0.000000 1.532890 
# 
# From -- ./inp_files/33246.got.cif
#   From: 2010.05.17/outbox.cif.g08.bks.cpg/sg59_17_cif.got.tgz:33246.got - 2010.06.03 14:40:33.
