data_PCOD9449546
_publ_section_title
;
Structure prediction by ZEFSAII (Michael W. Deem and Ramdas Pophale) SiO2 
 PCOD9449546
Probable space group: P M M N
;
_chemical_formula_sum "Si O2"
_cell_formula_units_Z 64
_cell_length_a 9.083391
_cell_length_b 20.334177
_cell_length_c 19.111140
_cell_angle_alpha 90.000000
_cell_angle_beta 90.000000
_cell_angle_gamma 90.000000
_cell_volume 3529.890249
_symmetry_space_group_name_H-M "P M M N"
_symmetry_group_IT_number 59
_space_group.IT_coordinate_system_code '2'
_symmetry_cell_setting 'orthorhombic'
loop_
_space_group_symop_operation_xyz
x,y,z
1/2-x,1/2-y,z
1/2+x,-y,-z
-x,1/2+y,-z
-x,-y,-z
1/2+x,1/2+y,-z
1/2-x,y,z
x,1/2-y,z
loop_
_atom_site_type_symbol
_atom_site_label
_atom_site_fract_x
_atom_site_fract_y
_atom_site_fract_z
Si Si1 0.928136 0.032490 0.432798
Si Si2 0.573562 0.326487 0.770468
Si Si3 0.926621 0.320714 0.406341
Si Si4 0.423956 0.172510 0.922100
Si Si5 0.574373 0.950645 0.292038
Si Si6 0.917625 0.434854 0.185622
Si Si7 0.919575 0.678699 0.741598
Si Si8 0.580412 0.432851 0.018493
O O1 0.750000 0.030801 0.436608
O O2 0.967693 0.994008 0.360595
O O3 0.977103 0.108872 0.434161
O O4 0.000000 0.000000 0.500000
O O5 0.750000 0.332749 0.775160
O O6 0.540181 0.250000 0.751081
O O7 0.500979 0.338183 0.846821
O O8 0.509299 0.381858 0.718596
O O9 0.750000 0.320926 0.409941
O O10 0.978041 0.250000 0.436830
O O11 0.978497 0.321268 0.326326
O O12 0.250000 0.157604 0.916061
O O13 0.440299 0.250000 0.938959
O O14 0.497401 0.127023 0.980778
O O15 0.750000 0.938301 0.296060
O O16 0.547838 0.996145 0.223418
O O17 0.750000 0.418177 0.209164
O O18 0.919737 0.432565 0.102457
O O19 0.030993 0.380940 0.211583
O O20 0.750000 0.672343 0.719644
O O21 0.936202 0.750000 0.777197
O O22 0.750000 0.432950 0.994626
O O23 0.500000 0.500000 0.000000
#
# Coordination Sequence:
#
# PCOD9449546 Si02
#       8
#     8   8   8   8   8   8   8   8
#     4  10  21  37  58  86 117 151 188 230 282 340
#     4  10  21  37  59  87 114 143 186 238 288 340
#     4   9  17  34  59  81 107 146 187 224 266 321
#     4  10  21  38  59  81 111 153 194 235 287 345
#     4  10  20  37  59  83 112 146 187 231 280 342
#     4  10  21  37  55  77 107 145 187 229 275 333
#     4  10  20  32  50  80 112 140 176 224 272 318
#     4  11  23  37  56  81 110 146 189 238 290 342
#
# _framework density 18.130876000000001
#
# number of rings (size 3 to 8) (size 9 to 14) (size 15 to 20)
#    0.000    2.000    1.250    2.250    0.000    6.250 
#    0.000    3.125    0.000    2.250    0.000    0.000 
#    0.000    0.000    0.000    0.000    0.000    0.000 
#
# Total GULP energy -356842.255627 kJ/mol
# GULP energy per Si atom -5575.660244 kJ/mol
# Density = 1.808961 g / cm^3
# Si number density = 18.130876 Si / 1000 Ang^3
#
#
#
# Elastic Constant Matrix: (Units=GPa)
#
#
# Indices 1 2 3 4 5 6 
#
# 1 42.1744 57.7433 26.2078 0.0000 0.0000 0.0000
# 2 57.7433 153.6945 62.1316 0.0000 0.0000 0.0000
# 3 26.2078 62.1316 58.9079 0.0000 0.0000 0.0000
# 4 0.0000 0.0000 0.0000 24.4061 0.0000 0.0000
# 5 0.0000 0.0000 0.0000 0.0000 28.4865 0.0000
# 6 0.0000 0.0000 0.0000 0.0000 0.0000 32.7341
#
#
#
# Elastic Compliance Matrix: (Units=1/GPa)
#
#
# Indices 1 2 3 4 5 6 
#
# 1 0.049414 -0.016871 -0.004189 0.000000 0.000000 0.000000
# 2 -0.016871 0.017103 -0.010533 0.000000 0.000000 0.000000
# 3 -0.004189 -0.010533 0.029949 0.000000 0.000000 0.000000
# 4 0.000000 0.000000 0.000000 0.040973 0.000000 0.000000
# 5 0.000000 0.000000 0.000000 0.000000 0.035104 0.000000
# 6 0.000000 0.000000 0.000000 0.000000 0.000000 0.030549
#
#
# Mechanical properties :
#
#
# Convention : Reuss Voigt Hill
#
# Bulk Modulus (GPa) = 30.04954 60.77136 45.41045
# Shear Modulus (GPa) = 18.02630 24.37162 21.19896
#
# Velocity S-wave (km/s) = 3.15657 3.67032 3.42309
# Velocity P-wave (km/s) = 5.46762 7.18001 6.38151
#
# Compressibility (1/GPa) = 0.03327838
#
# Stress axis : x y z
#
# Youngs Moduli (GPa) = 20.23730 58.46929 33.39024
#
# Poissons Ratio (x) = 0.98645 0.13988
# Poissons Ratio (y) = 0.34143 0.35170
# Poissons Ratio (z) = 0.08478 0.61586
#
# Static dielectric constant tensor:
#      x y z
#    x 1.603550 0.000000 0.000000 
#    y 0.000000 1.662710 0.000000 
#    z 0.000000 0.000000 1.589790 
# 
# From -- ./inp_files/26362.got.cif
#   From: 2010.05.17/outbox.cif.g08.bks.cpg/sg59_14_cif.got.tgz:26362.got - 2010.06.03 14:40:33.
