data_PCOD9449449
_publ_section_title
;
Structure prediction by ZEFSAII (Michael W. Deem and Ramdas Pophale) SiO2 
 PCOD9449449
Probable space group: P M M N
;
_chemical_formula_sum "Si O2"
_cell_formula_units_Z 48
_cell_length_a 13.262816
_cell_length_b 12.527790
_cell_length_c 15.332779
_cell_angle_alpha 90.000000
_cell_angle_beta 90.000000
_cell_angle_gamma 90.000000
_cell_volume 2547.599091
_symmetry_space_group_name_H-M "P M M N"
_symmetry_group_IT_number 59
_space_group.IT_coordinate_system_code '2'
_symmetry_cell_setting 'orthorhombic'
loop_
_space_group_symop_operation_xyz
x,y,z
1/2-x,1/2-y,z
1/2+x,-y,-z
-x,1/2+y,-z
-x,-y,-z
1/2+x,1/2+y,-z
1/2-x,y,z
x,1/2-y,z
loop_
_atom_site_type_symbol
_atom_site_label
_atom_site_fract_x
_atom_site_fract_y
_atom_site_fract_z
Si Si1 0.634038 0.625145 0.482713
Si Si2 0.860174 0.372048 0.297927
Si Si3 0.135981 0.468597 0.865217
Si Si4 0.970306 0.493377 0.626303
Si Si5 0.131605 0.870530 0.011107
Si Si6 0.441276 0.628971 0.200918
O O1 0.750000 0.611773 0.450558
O O2 0.624688 0.750000 0.508552
O O3 0.545228 0.596356 0.414244
O O4 0.611623 0.541040 0.560365
O O5 0.750000 0.383430 0.341287
O O6 0.871532 0.250000 0.271246
O O7 0.859928 0.446275 0.213335
O O8 0.951938 0.409910 0.356388
O O9 0.250000 0.429275 0.881317
O O10 0.056848 0.381841 0.832336
O O11 0.095181 0.535698 0.947711
O O12 0.927684 0.448954 0.717204
O O13 0.250000 0.863653 0.989943
O O14 0.088546 0.750000 0.997406
O O15 0.119884 0.896793 0.113073
O O16 0.418271 0.750000 0.226912
#
# Coordination Sequence:
#
# PCOD9449449 Si02
#       6
#     8   8   8   8   8   8
#     4  10  21  37  56  75  97 128 164 203 252 310
#     4   9  16  27  46  72  99 125 157 199 243 286
#     4   9  17  29  46  69  97 131 167 200 236 280
#     4  10  20  34  52  74 100 127 162 204 250 303
#     4   9  17  30  48  69  95 128 165 203 242 284
#     4  10  20  32  48  72 100 130 164 202 244 289
#
# _framework density 18.841270000000002
#
# number of rings (size 3 to 8) (size 9 to 14) (size 15 to 20)
#    0.000    2.500    0.000    2.500    0.000    3.667 
#    0.000    0.000    0.000   10.500    0.000    0.000 
#    0.000    0.000    0.000    0.000    0.000    0.000 
#
# Total GULP energy -267311.085001 kJ/mol
# GULP energy per Si atom -5568.980938 kJ/mol
# Density = 1.879839 g / cm^3
# Si number density = 18.841270 Si / 1000 Ang^3
#
#
#
# Elastic Constant Matrix: (Units=GPa)
#
#
# Indices 1 2 3 4 5 6 
#
# 1 28.5829 2.5199 -10.3740 0.0000 0.0000 0.0000
# 2 2.5199 40.1215 -4.2337 0.0000 0.0000 0.0000
# 3 -10.3740 -4.2337 34.5697 0.0000 0.0000 0.0000
# 4 0.0000 0.0000 0.0000 12.0953 0.0000 0.0000
# 5 0.0000 0.0000 0.0000 0.0000 23.3897 0.0000
# 6 0.0000 0.0000 0.0000 0.0000 0.0000 15.9695
#
#
#
# Elastic Compliance Matrix: (Units=1/GPa)
#
#
# Indices 1 2 3 4 5 6 
#
# 1 0.039323 -0.001241 0.011648 0.000000 0.000000 0.000000
# 2 -0.001241 0.025290 0.002725 0.000000 0.000000 0.000000
# 3 0.011648 0.002725 0.032756 0.000000 0.000000 0.000000
# 4 0.000000 0.000000 0.000000 0.082677 0.000000 0.000000
# 5 0.000000 0.000000 0.000000 0.000000 0.042754 0.000000
# 6 0.000000 0.000000 0.000000 0.000000 0.000000 0.062619
#
#
# Mechanical properties :
#
#
# Convention : Reuss Voigt Hill
#
# Bulk Modulus (GPa) = 8.08835 8.78874 8.43854
# Shear Modulus (GPa) = 16.64639 17.98169 17.31404
#
# Velocity S-wave (km/s) = 2.97561 3.09265 3.03469
# Velocity P-wave (km/s) = 4.01346 4.17461 4.09483
#
# Compressibility (1/GPa) = 0.12363464
#
# Stress axis : x y z
#
# Youngs Moduli (GPa) = 25.43033 39.54176 30.52847
#
# Poissons Ratio (x) = 0.04906 -0.35561
# Poissons Ratio (y) = 0.03155 -0.08319
# Poissons Ratio (z) = -0.29622 -0.10775
#
# Static dielectric constant tensor:
#      x y z
#    x 1.713250 0.000000 0.000000 
#    y 0.000000 1.648750 0.000000 
#    z 0.000000 0.000000 1.663390 
# 
# From -- ./inp_files/22390.got.cif
#   From: 2010.05.17/outbox.cif.g08.bks.cpg/sg59_12_cif.got.tgz:22390.got - 2010.06.03 14:40:33.
