data_PCOD9449456
_publ_section_title
;
Structure prediction by ZEFSAII (Michael W. Deem and Ramdas Pophale) SiO2 
 PCOD9449456
Probable space group: P M M N
;
_chemical_formula_sum "Si O2"
_cell_formula_units_Z 64
_cell_length_a 7.966280
_cell_length_b 24.151225
_cell_length_c 16.510642
_cell_angle_alpha 90.000000
_cell_angle_beta 90.000000
_cell_angle_gamma 90.000000
_cell_volume 3176.571914
_symmetry_space_group_name_H-M "P M M N"
_symmetry_group_IT_number 59
_space_group.IT_coordinate_system_code '2'
_symmetry_cell_setting 'orthorhombic'
loop_
_space_group_symop_operation_xyz
x,y,z
1/2-x,1/2-y,z
1/2+x,-y,-z
-x,1/2+y,-z
-x,-y,-z
1/2+x,1/2+y,-z
1/2-x,y,z
x,1/2-y,z
loop_
_atom_site_type_symbol
_atom_site_label
_atom_site_fract_x
_atom_site_fract_y
_atom_site_fract_z
Si Si1 0.551994 0.530202 0.895429
Si Si2 0.947396 0.310853 0.333692
Si Si3 0.054803 0.184179 0.510695
Si Si4 0.454161 0.921534 0.726602
Si Si5 0.947452 0.089664 0.948828
Si Si6 0.549461 0.814391 0.167864
Si Si7 0.044512 0.120983 0.670496
Si Si8 0.548259 0.994596 0.406140
O O1 0.750000 0.528469 0.912836
O O2 0.518965 0.547184 0.804387
O O3 0.483428 0.467807 0.909631
O O4 0.475436 0.575644 0.956604
O O5 0.750000 0.306513 0.316176
O O6 0.024994 0.250000 0.326122
O O7 0.017246 0.358762 0.277673
O O8 0.963147 0.329082 0.427276
O O9 0.250000 0.168210 0.500397
O O10 0.046269 0.250000 0.521186
O O11 0.992186 0.156520 0.592362
O O12 0.250000 0.921810 0.729107
O O13 0.507365 0.952545 0.645069
O O14 0.750000 0.092305 0.932653
O O15 0.018714 0.145730 0.909640
O O16 0.750000 0.810037 0.177479
O O17 0.486834 0.750000 0.163179
O O18 0.486171 0.849408 0.246619
O O19 0.250000 0.120656 0.674503
O O20 0.989803 0.059143 0.645354
O O21 0.750000 0.992064 0.405039
O O22 0.500000 0.000000 0.500000
#
# Coordination Sequence:
#
# PCOD9449456 Si02
#       8
#     8   8   8   8   8   8   8   8
#     4  10  21  37  60  86 107 134 175 220 266 321
#     4   9  18  32  48  67  95 131 168 207 255 308
#     4   9  16  27  45  67  91 125 171 215 251 293
#     4  10  20  34  52  75 103 135 172 215 265 318
#     4  10  21  38  59  83 111 140 171 213 268 326
#     4  10  20  35  57  83 112 148 188 228 270 323
#     4   9  17  30  48  71 101 137 176 219 267 316
#     4  10  20  32  48  72 104 142 181 224 275 326
#
# _framework density 20.147504999999999
#
# number of rings (size 3 to 8) (size 9 to 14) (size 15 to 20)
#    0.000    2.375    0.000    2.625    0.000    5.250 
#    0.000    1.875    0.000    3.750    0.000    0.000 
#    0.000    0.000    0.000    0.000    0.000    0.000 
#
# Total GULP energy -356799.828952 kJ/mol
# GULP energy per Si atom -5574.997327 kJ/mol
# Density = 2.010165 g / cm^3
# Si number density = 20.147505 Si / 1000 Ang^3
#
#
#
# Elastic Constant Matrix: (Units=GPa)
#
#
# Indices 1 2 3 4 5 6 
#
# 1 14.9683 16.2401 -1.8742 0.0000 0.0000 0.0000
# 2 16.2401 122.5517 58.3723 0.0000 0.0000 0.0000
# 3 -1.8742 58.3723 84.9644 0.0000 0.0000 0.0000
# 4 0.0000 0.0000 0.0000 29.5171 0.0000 0.0000
# 5 0.0000 0.0000 0.0000 0.0000 35.6788 0.0000
# 6 0.0000 0.0000 0.0000 0.0000 0.0000 13.3059
#
#
#
# Elastic Compliance Matrix: (Units=1/GPa)
#
#
# Indices 1 2 3 4 5 6 
#
# 1 0.089280 -0.018980 0.015009 0.000000 0.000000 0.000000
# 2 -0.018980 0.016164 -0.011523 0.000000 0.000000 0.000000
# 3 0.015009 -0.011523 0.020018 0.000000 0.000000 0.000000
# 4 0.000000 0.000000 0.000000 0.033879 0.000000 0.000000
# 5 0.000000 0.000000 0.000000 0.000000 0.028028 0.000000
# 6 0.000000 0.000000 0.000000 0.000000 0.000000 0.075154
#
#
# Mechanical properties :
#
#
# Convention : Reuss Voigt Hill
#
# Bulk Modulus (GPa) = 10.58508 40.88451 25.73480
# Shear Modulus (GPa) = 15.38453 25.68345 20.53399
#
# Velocity S-wave (km/s) = 2.76632 3.57427 3.19593
# Velocity P-wave (km/s) = 3.93301 6.11314 5.13999
#
# Compressibility (1/GPa) = 0.09447255
#
# Stress axis : x y z
#
# Youngs Moduli (GPa) = 11.20071 61.86708 49.95611
#
# Poissons Ratio (x) = 1.17424 -0.74979
# Poissons Ratio (y) = 0.21259 0.57567
# Poissons Ratio (z) = -0.16811 0.71292
#
# Static dielectric constant tensor:
#      x y z
#    x 1.731450 0.000000 0.000000 
#    y 0.000000 1.771510 0.000000 
#    z 0.000000 0.000000 1.682970 
# 
# From -- ./inp_files/21632.got.cif
#   From: 2010.05.17/outbox.cif.g08.bks.cpg/sg59_11_cif.got.tgz:21632.got - 2010.06.03 14:40:33.
