data_PCOD9449964
_publ_section_title
;
Structure prediction by ZEFSAII (Michael W. Deem and Ramdas Pophale) SiO2 
 PCOD9449964
Probable space group: P M M N
;
_chemical_formula_sum "Si O2"
_cell_formula_units_Z 48
_cell_length_a 24.053082
_cell_length_b 8.934552
_cell_length_c 12.926343
_cell_angle_alpha 90.000000
_cell_angle_beta 90.000000
_cell_angle_gamma 90.000000
_cell_volume 2777.916507
_symmetry_space_group_name_H-M "P M M N"
_symmetry_group_IT_number 59
_space_group.IT_coordinate_system_code '2'
_symmetry_cell_setting 'orthorhombic'
loop_
_space_group_symop_operation_xyz
x,y,z
1/2-x,1/2-y,z
1/2+x,-y,-z
-x,1/2+y,-z
-x,-y,-z
1/2+x,1/2+y,-z
1/2-x,y,z
x,1/2-y,z
loop_
_atom_site_type_symbol
_atom_site_label
_atom_site_fract_x
_atom_site_fract_y
_atom_site_fract_z
Si Si1 0.000423 0.069683 0.885617
Si Si2 0.619561 0.071131 0.801469
Si Si3 0.619409 0.570340 0.202486
Si Si4 0.815534 0.571635 0.991445
Si Si5 0.685262 0.928962 0.613464
Si Si6 0.185423 0.928735 0.610137
O O1 0.001352 0.250000 0.896902
O O2 0.056300 0.026104 0.824855
O O3 0.944258 0.028303 0.825238
O O4 0.000000 0.000000 0.000000
O O5 0.622534 0.250000 0.791207
O O6 0.645323 0.995444 0.700377
O O7 0.655113 0.017659 0.899988
O O8 0.621116 0.750000 0.218067
O O9 0.656135 0.535950 0.100947
O O10 0.645430 0.491009 0.301456
O O11 0.750000 0.541242 0.994622
O O12 0.823253 0.750000 0.972953
O O13 0.750000 0.965116 0.639074
O O14 0.680293 0.750000 0.609682
O O15 0.673451 0.997811 0.500976
O O16 0.250000 0.965661 0.636095
O O17 0.180833 0.750000 0.602225
#
# Coordination Sequence:
#
# PCOD9449964 Si02
#       6
#     8   8   8   8   8   8
#     4  10  21  37  57  80 109 148 190 230 273 324
#     4  11  22  35  54  82 113 144 182 230 281 327
#     4  10  20  36  57  80 109 147 189 228 269 326
#     4  10  20  33  52  79 110 145 184 225 271 328
#     4  10  21  38  60  83 109 146 188 226 271 332
#     4  10  21  37  58  85 115 144 178 227 283 332
#
# _framework density 17.279136999999999
#
# number of rings (size 3 to 8) (size 9 to 14) (size 15 to 20)
#    0.000    1.833    1.667    2.500    0.000    7.000 
#    0.000    0.833    0.000    0.000    0.000    0.000 
#    0.000    0.000    0.000    0.000    0.000    0.000 
#
# Total GULP energy -268113.506354 kJ/mol
# GULP energy per Si atom -5585.698049 kJ/mol
# Density = 1.723981 g / cm^3
# Si number density = 17.279137 Si / 1000 Ang^3
#
#
#
# Elastic Constant Matrix: (Units=GPa)
#
#
# Indices 1 2 3 4 5 6 
#
# 1 155.3060 64.0888 109.0560 0.0000 0.0000 0.0000
# 2 64.0888 47.9711 65.9942 0.0000 0.0000 0.0000
# 3 109.0560 65.9942 152.3945 0.0000 0.0000 0.0000
# 4 0.0000 0.0000 0.0000 34.3618 0.0000 0.0000
# 5 0.0000 0.0000 0.0000 0.0000 10.3338 0.0000
# 6 0.0000 0.0000 0.0000 0.0000 0.0000 25.9032
#
#
#
# Elastic Compliance Matrix: (Units=1/GPa)
#
#
# Indices 1 2 3 4 5 6 
#
# 1 0.015974 -0.013890 -0.005416 0.000000 0.000000 0.000000
# 2 -0.013890 0.063644 -0.017621 0.000000 0.000000 0.000000
# 3 -0.005416 -0.017621 0.018069 0.000000 0.000000 0.000000
# 4 0.000000 0.000000 0.000000 0.029102 0.000000 0.000000
# 5 0.000000 0.000000 0.000000 0.000000 0.096770 0.000000
# 6 0.000000 0.000000 0.000000 0.000000 0.000000 0.038605
#
#
# Mechanical properties :
#
#
# Convention : Reuss Voigt Hill
#
# Bulk Modulus (GPa) = 41.96006 92.66105 67.31055
# Shear Modulus (GPa) = 14.53647 21.88861 18.21254
#
# Velocity S-wave (km/s) = 2.90362 3.56303 3.25009
# Velocity P-wave (km/s) = 5.96470 8.40650 7.28859
#
# Compressibility (1/GPa) = 0.02383219
#
# Stress axis : x y z
#
# Youngs Moduli (GPa) = 62.60162 15.71240 55.34425
#
# Poissons Ratio (x) = 0.21824 0.29976
# Poissons Ratio (y) = 0.86953 0.97523
# Poissons Ratio (z) = 0.33907 0.27687
#
# Static dielectric constant tensor:
#      x y z
#    x 1.583680 0.000000 0.000000 
#    y 0.000000 1.578600 0.000000 
#    z 0.000000 0.000000 1.541530 
# 
# From -- ./inp_files/14324.got.cif
#   From: 2010.05.17/outbox.cif.g08.bks.cpg/sg59_8_cif.got.tgz:14324.got - 2010.06.03 14:40:33.
