data_PCOD9449824
_publ_section_title
;
Structure prediction by ZEFSAII (Michael W. Deem and Ramdas Pophale) SiO2 
 PCOD9449824
Probable space group: P M M N
;
_chemical_formula_sum "Si O2"
_cell_formula_units_Z 64
_cell_length_a 23.796708
_cell_length_b 8.789217
_cell_length_c 19.594820
_cell_angle_alpha 90.000000
_cell_angle_beta 90.000000
_cell_angle_gamma 90.000000
_cell_volume 4098.343418
_symmetry_space_group_name_H-M "P M M N"
_symmetry_group_IT_number 59
_space_group.IT_coordinate_system_code '2'
_symmetry_cell_setting 'orthorhombic'
loop_
_space_group_symop_operation_xyz
x,y,z
1/2-x,1/2-y,z
1/2+x,-y,-z
-x,1/2+y,-z
-x,-y,-z
1/2+x,1/2+y,-z
1/2-x,y,z
x,1/2-y,z
loop_
_atom_site_type_symbol
_atom_site_label
_atom_site_fract_x
_atom_site_fract_y
_atom_site_fract_z
Si Si1 0.975725 0.068320 0.604806
Si Si2 0.184759 0.933290 0.882197
Si Si3 0.086547 0.932694 0.981239
Si Si4 0.911257 0.931713 0.480450
Si Si5 0.005307 0.933058 0.746312
Si Si6 0.369061 0.068224 0.746137
Si Si7 0.315544 0.931923 0.609634
Si Si8 0.524616 0.567258 0.896776
O O1 0.969928 0.250000 0.607794
O O2 0.037046 0.034212 0.571561
O O3 0.930556 0.998517 0.552881
O O4 0.974754 0.996941 0.679630
O O5 0.250000 0.967242 0.894272
O O6 0.179020 0.750000 0.872783
O O7 0.144294 0.977791 0.944766
O O8 0.162838 0.013412 0.813923
O O9 0.085478 0.750000 0.986261
O O10 0.034925 0.978988 0.931350
O O11 0.072790 0.000647 0.054971
O O12 0.905623 0.750000 0.484269
O O13 0.855524 0.005781 0.449916
O O14 0.008033 0.750000 0.743510
O O15 0.976440 0.978545 0.817806
O O16 0.068539 0.997947 0.746621
O O17 0.372848 0.250000 0.743462
O O18 0.336560 0.007377 0.679814
O O19 0.250000 0.966597 0.598354
O O20 0.321938 0.750000 0.615182
O O21 0.527228 0.750000 0.899483
#
# Coordination Sequence:
#
# PCOD9449824 Si02
#       8
#     8   8   8   8   8   8   8   8
#     4  10  20  33  51  76 103 131 165 205 253 303
#     4  10  20  35  52  69  95 133 172 206 243 290
#     4   9  17  31  48  70  95 125 163 203 246 292
#     4  10  20  34  52  75 101 133 168 207 251 295
#     4  11  20  33  52  73 101 134 168 204 248 301
#     4  12  23  33  47  71 102 135 172 209 245 288
#     4  11  23  37  53  72  99 138 176 210 249 291
#     4   9  18  31  48  70  96 127 161 200 248 296
#
# _framework density 15.616066999999999
#
# number of rings (size 3 to 8) (size 9 to 14) (size 15 to 20)
#    0.000    1.750    2.500    3.000    0.000    5.250 
#    0.000    0.000    0.000    0.000    0.000    0.875 
#    0.000    3.000    0.000    0.000    0.000    0.000 
#
# Total GULP energy -357306.492642 kJ/mol
# GULP energy per Si atom -5582.913948 kJ/mol
# Density = 1.558052 g / cm^3
# Si number density = 15.616067 Si / 1000 Ang^3
#
#
#
# Elastic Constant Matrix: (Units=GPa)
#
#
# Indices 1 2 3 4 5 6 
#
# 1 91.4628 38.5619 76.5788 0.0000 0.0000 0.0000
# 2 38.5619 46.4977 53.9675 0.0000 0.0000 0.0000
# 3 76.5788 53.9675 157.8901 0.0000 0.0000 0.0000
# 4 0.0000 0.0000 0.0000 29.2794 0.0000 0.0000
# 5 0.0000 0.0000 0.0000 0.0000 15.9704 0.0000
# 6 0.0000 0.0000 0.0000 0.0000 0.0000 20.4655
#
#
#
# Elastic Compliance Matrix: (Units=1/GPa)
#
#
# Indices 1 2 3 4 5 6 
#
# 1 0.020470 -0.009039 -0.006839 0.000000 0.000000 0.000000
# 2 -0.009039 0.039641 -0.009165 0.000000 0.000000 0.000000
# 3 -0.006839 -0.009165 0.012783 0.000000 0.000000 0.000000
# 4 0.000000 0.000000 0.000000 0.034154 0.000000 0.000000
# 5 0.000000 0.000000 0.000000 0.000000 0.062616 0.000000
# 6 0.000000 0.000000 0.000000 0.000000 0.000000 0.048863
#
#
# Mechanical properties :
#
#
# Convention : Reuss Voigt Hill
#
# Bulk Modulus (GPa) = 43.84494 70.45187 57.14841
# Shear Modulus (GPa) = 18.10183 21.59254 19.84719
#
# Velocity S-wave (km/s) = 3.40837 3.72252 3.56890
# Velocity P-wave (km/s) = 6.60508 7.98055 7.32517
#
# Compressibility (1/GPa) = 0.02280765
#
# Stress axis : x y z
#
# Youngs Moduli (GPa) = 48.85125 25.22671 78.22853
#
# Poissons Ratio (x) = 0.22803 0.53498
# Poissons Ratio (y) = 0.44158 0.71698
# Poissons Ratio (z) = 0.33408 0.23121
#
# Static dielectric constant tensor:
#      x y z
#    x 1.501020 0.000000 0.000000 
#    y 0.000000 1.520910 0.000000 
#    z 0.000000 0.000000 1.512280 
# 
# From -- ./inp_files/28143.got.cif
#   From: 2010.05.17/outbox.cif.g08.bks.cpg/sg59_15_cif.got.tgz:28143.got - 2010.06.03 14:40:33.
