data_PCOD9449980
_publ_section_title
;
Structure prediction by ZEFSAII (Michael W. Deem and Ramdas Pophale) SiO2 
 PCOD9449980
Probable space group: P M M N
;
_chemical_formula_sum "Si O2"
_cell_formula_units_Z 64
_cell_length_a 9.010932
_cell_length_b 14.072795
_cell_length_c 26.477158
_cell_angle_alpha 90.000000
_cell_angle_beta 90.000000
_cell_angle_gamma 90.000000
_cell_volume 3357.541897
_symmetry_space_group_name_H-M "P M M N"
_symmetry_group_IT_number 59
_space_group.IT_coordinate_system_code '2'
_symmetry_cell_setting 'orthorhombic'
loop_
_space_group_symop_operation_xyz
x,y,z
1/2-x,1/2-y,z
1/2+x,-y,-z
-x,1/2+y,-z
-x,-y,-z
1/2+x,1/2+y,-z
1/2-x,y,z
x,1/2-y,z
loop_
_atom_site_type_symbol
_atom_site_label
_atom_site_fract_x
_atom_site_fract_y
_atom_site_fract_z
Si Si1 0.920458 0.634070 0.480268
Si Si2 0.922659 0.635904 0.972067
Si Si3 0.573658 0.361887 0.920446
Si Si4 0.427724 0.137705 0.218374
Si Si5 0.070976 0.359722 0.633493
Si Si6 0.079993 0.864914 0.582004
Si Si7 0.573267 0.537079 0.676186
Si Si8 0.427058 0.535265 0.876440
O O1 0.750000 0.603112 0.487143
O O2 0.918667 0.750000 0.480623
O O3 0.972462 0.609828 0.423773
O O4 0.018867 0.603397 0.527464
O O5 0.750000 0.606055 0.974919
O O6 0.925433 0.750000 0.965716
O O7 0.003552 0.589161 0.924748
O O8 0.006368 0.614685 0.024373
O O9 0.750000 0.378966 0.920149
O O10 0.548035 0.250000 0.911528
O O11 0.491639 0.428954 0.880760
O O12 0.250000 0.126427 0.210150
O O13 0.459432 0.250000 0.219281
O O14 0.465572 0.090799 0.272108
O O15 0.514884 0.087096 0.173480
O O16 0.250000 0.363392 0.635267
O O17 0.026775 0.250000 0.641360
O O18 0.000214 0.433614 0.671778
O O19 0.250000 0.895693 0.588305
O O20 0.075165 0.750000 0.582731
O O21 0.984905 0.904009 0.628172
O O22 0.750000 0.528892 0.673616
O O23 0.250000 0.535567 0.879065
#
# Coordination Sequence:
#
# PCOD9449980 Si02
#       8
#     8   8   8   8   8   8   8   8
#     4   8  15  30  52  77 107 144 183 223 270 326
#     4  10  20  35  57  86 122 161 198 238 284 335
#     4  10  21  38  60  86 119 158 198 239 281 329
#     4  10  23  44  65  84 110 145 187 234 281 331
#     4   9  19  37  59  82 111 146 183 227 278 330
#     4  10  20  33  52  80 113 147 183 226 277 334
#     4  11  23  38  59  84 109 143 186 231 281 336
#     4  12  24  37  58  87 118 152 192 238 288 342
#
# _framework density 19.061564000000001
#
# number of rings (size 3 to 8) (size 9 to 14) (size 15 to 20)
#    0.000    2.000    0.000    4.500    0.000    6.750 
#    0.000    1.875    0.000    0.750    0.000    0.000 
#    0.000    0.000    0.000    0.000    0.000    0.000 
#
# Total GULP energy -357755.425919 kJ/mol
# GULP energy per Si atom -5589.928530 kJ/mol
# Density = 1.901818 g / cm^3
# Si number density = 19.061564 Si / 1000 Ang^3
#
#
#
# Elastic Constant Matrix: (Units=GPa)
#
#
# Indices 1 2 3 4 5 6 
#
# 1 97.2541 59.9739 72.5177 0.0000 0.0000 0.0000
# 2 59.9739 103.0631 72.2212 0.0000 0.0000 0.0000
# 3 72.5177 72.2212 111.2755 0.0000 0.0000 0.0000
# 4 0.0000 0.0000 0.0000 35.4806 0.0000 0.0000
# 5 0.0000 0.0000 0.0000 0.0000 29.0168 0.0000
# 6 0.0000 0.0000 0.0000 0.0000 0.0000 31.0517
#
#
#
# Elastic Compliance Matrix: (Units=1/GPa)
#
#
# Indices 1 2 3 4 5 6 
#
# 1 0.021263 -0.004885 -0.010687 0.000000 0.000000 0.000000
# 2 -0.004885 0.018919 -0.009096 0.000000 0.000000 0.000000
# 3 -0.010687 -0.009096 0.021855 0.000000 0.000000 0.000000
# 4 0.000000 0.000000 0.000000 0.028184 0.000000 0.000000
# 5 0.000000 0.000000 0.000000 0.000000 0.034463 0.000000
# 6 0.000000 0.000000 0.000000 0.000000 0.000000 0.032204
#
#
# Mechanical properties :
#
#
# Convention : Reuss Voigt Hill
#
# Bulk Modulus (GPa) = 78.72465 80.11315 79.41890
# Shear Modulus (GPa) = 23.75779 26.23516 24.99647
#
# Velocity S-wave (km/s) = 3.53423 3.71393 3.62519
# Velocity P-wave (km/s) = 7.61868 7.77887 7.69919
#
# Compressibility (1/GPa) = 0.01270250
#
# Stress axis : x y z
#
# Youngs Moduli (GPa) = 47.02950 52.85682 45.75655
#
# Poissons Ratio (x) = 0.25818 0.48900
# Poissons Ratio (y) = 0.22972 0.41619
# Poissons Ratio (z) = 0.50260 0.48077
#
# Static dielectric constant tensor:
#      x y z
#    x 1.634220 0.000000 0.000000 
#    y 0.000000 1.703810 0.000000 
#    z 0.000000 0.000000 1.624410 
# 
# From -- ./inp_files/31552.got.cif
#   From: 2010.05.17/outbox.cif.g08.bks.cpg/sg59_16_cif.got.tgz:31552.got - 2010.06.03 14:40:33.
