data_PCOD9449972
_publ_section_title
;
Structure prediction by ZEFSAII (Michael W. Deem and Ramdas Pophale) SiO2 
 PCOD9449972
Probable space group: P M M N
;
_chemical_formula_sum "Si O2"
_cell_formula_units_Z 64
_cell_length_a 19.687631
_cell_length_b 9.006612
_cell_length_c 20.490356
_cell_angle_alpha 90.000000
_cell_angle_beta 90.000000
_cell_angle_gamma 90.000000
_cell_volume 3633.326436
_symmetry_space_group_name_H-M "P M M N"
_symmetry_group_IT_number 59
_space_group.IT_coordinate_system_code '2'
_symmetry_cell_setting 'orthorhombic'
loop_
_space_group_symop_operation_xyz
x,y,z
1/2-x,1/2-y,z
1/2+x,-y,-z
-x,1/2+y,-z
-x,-y,-z
1/2+x,1/2+y,-z
1/2-x,y,z
x,1/2-y,z
loop_
_atom_site_type_symbol
_atom_site_label
_atom_site_fract_x
_atom_site_fract_y
_atom_site_fract_z
Si Si1 0.067556 0.072414 0.233343
Si Si2 0.095623 0.926353 0.954969
Si Si3 0.828425 0.925056 0.153298
Si Si4 0.087044 0.927164 0.731313
Si Si5 0.169926 0.426932 0.614572
Si Si6 0.329893 0.929323 0.334619
Si Si7 0.456126 0.573031 0.095518
Si Si8 0.332341 0.579685 0.480606
O O1 0.073648 0.250000 0.227353
O O2 0.992894 0.038793 0.262975
O O3 0.124633 0.007064 0.280627
O O4 0.070228 0.997918 0.162083
O O5 0.095726 0.750000 0.943161
O O6 0.156506 0.004197 0.917005
O O7 0.091900 0.951358 0.032567
O O8 0.027325 0.996680 0.924057
O O9 0.750000 0.945017 0.171902
O O10 0.843378 0.750000 0.152165
O O11 0.875893 0.005058 0.205657
O O12 0.095153 0.750000 0.731224
O O13 0.123372 0.995691 0.668307
O O14 0.250000 0.467086 0.624083
O O15 0.164766 0.250000 0.620432
O O16 0.149165 0.479696 0.542139
O O17 0.250000 0.966634 0.327505
O O18 0.335361 0.750000 0.330078
O O19 0.353237 0.970763 0.408255
O O20 0.465997 0.750000 0.103027
O O21 0.250000 0.582453 0.478225
O O22 0.354884 0.750000 0.491111
#
# Coordination Sequence:
#
# PCOD9449972 Si02
#       8
#     8   8   8   8   8   8   8   8
#     4  11  23  37  56  84 114 145 185 230 276 331
#     4  10  20  35  56  83 108 138 183 227 273 327
#     4  11  23  37  55  81 113 150 190 232 280 331
#     4  11  23  37  53  77 110 149 191 231 274 328
#     4  10  20  33  52  80 111 144 185 231 277 327
#     4   9  19  37  61  86 110 140 180 225 279 342
#     4  10  20  35  58  82 108 143 181 225 273 324
#     4   8  15  31  55  80 106 139 180 224 272 331
#
# _framework density 17.614712000000001
#
# number of rings (size 3 to 8) (size 9 to 14) (size 15 to 20)
#    0.000    2.000    1.250    3.375    0.000    7.000 
#    0.000    2.500    0.000    0.750    0.000    0.000 
#    0.000    0.000    0.000    0.000    0.000    0.000 
#
# Total GULP energy -357229.016596 kJ/mol
# GULP energy per Si atom -5581.703384 kJ/mol
# Density = 1.757462 g / cm^3
# Si number density = 17.614712 Si / 1000 Ang^3
#
#
#
# Elastic Constant Matrix: (Units=GPa)
#
#
# Indices 1 2 3 4 5 6 
#
# 1 70.6109 50.9215 61.5462 0.0000 0.0000 0.0000
# 2 50.9215 73.4172 66.3266 0.0000 0.0000 0.0000
# 3 61.5462 66.3266 147.6641 0.0000 0.0000 0.0000
# 4 0.0000 0.0000 0.0000 32.0646 0.0000 0.0000
# 5 0.0000 0.0000 0.0000 0.0000 28.7737 0.0000
# 6 0.0000 0.0000 0.0000 0.0000 0.0000 26.1042
#
#
#
# Elastic Compliance Matrix: (Units=1/GPa)
#
#
# Indices 1 2 3 4 5 6 
#
# 1 0.030732 -0.016398 -0.005444 0.000000 0.000000 0.000000
# 2 -0.016398 0.031672 -0.007392 0.000000 0.000000 0.000000
# 3 -0.005444 -0.007392 0.012361 0.000000 0.000000 0.000000
# 4 0.000000 0.000000 0.000000 0.031187 0.000000 0.000000
# 5 0.000000 0.000000 0.000000 0.000000 0.034754 0.000000
# 6 0.000000 0.000000 0.000000 0.000000 0.000000 0.038308
#
#
# Mechanical properties :
#
#
# Convention : Reuss Voigt Hill
#
# Bulk Modulus (GPa) = 61.35258 72.14233 66.74746
# Shear Modulus (GPa) = 20.58348 24.91502 22.74925
#
# Velocity S-wave (km/s) = 3.42210 3.76499 3.59763
# Velocity P-wave (km/s) = 7.10776 7.74240 7.43186
#
# Compressibility (1/GPa) = 0.01629923
#
# Stress axis : x y z
#
# Youngs Moduli (GPa) = 32.53901 31.57400 80.89827
#
# Poissons Ratio (x) = 0.51774 0.44040
# Poissons Ratio (y) = 0.53356 0.59796
# Poissons Ratio (z) = 0.17714 0.23338
#
# Static dielectric constant tensor:
#      x y z
#    x 1.584240 0.000000 0.000000 
#    y 0.000000 1.585340 0.000000 
#    z 0.000000 0.000000 1.602360 
# 
# From -- ./inp_files/28263.got.cif
#   From: 2010.05.17/outbox.cif.g08.bks.cpg/sg59_15_cif.got.tgz:28263.got - 2010.06.03 14:40:33.
