data_PCOD9449238
_publ_section_title
;
Structure prediction by ZEFSAII (Michael W. Deem and Ramdas Pophale) SiO2 
 PCOD9449238
Probable space group: P M M N
;
_chemical_formula_sum "Si O2"
_cell_formula_units_Z 44
_cell_length_a 16.424767
_cell_length_b 12.865904
_cell_length_c 8.036159
_cell_angle_alpha 90.000000
_cell_angle_beta 90.000000
_cell_angle_gamma 90.000000
_cell_volume 1698.196904
_symmetry_space_group_name_H-M "P M M N"
_symmetry_group_IT_number 59
_space_group.IT_coordinate_system_code '2'
_symmetry_cell_setting 'orthorhombic'
loop_
_space_group_symop_operation_xyz
x,y,z
1/2-x,1/2-y,z
1/2+x,-y,-z
-x,1/2+y,-z
-x,-y,-z
1/2+x,1/2+y,-z
1/2-x,y,z
x,1/2-y,z
loop_
_atom_site_type_symbol
_atom_site_label
_atom_site_fract_x
_atom_site_fract_y
_atom_site_fract_z
Si Si1 0.415161 0.584078 0.195904
Si Si2 0.750000 0.130518 0.008406
Si Si3 0.153055 0.870135 0.563197
Si Si4 0.750000 0.861435 0.779197
Si Si5 0.250000 0.072678 0.856182
Si Si6 0.918317 0.579121 0.291686
Si Si7 0.924915 0.635424 0.666841
O O1 0.338470 0.613302 0.081837
O O2 0.383995 0.617607 0.377835
O O3 0.508563 0.618972 0.173516
O O4 0.435852 0.460535 0.209259
O O5 0.750000 0.250000 0.058145
O O6 0.750000 0.052546 0.162634
O O7 0.250000 0.889041 0.534010
O O8 0.142273 0.750000 0.618163
O O9 0.102376 0.955591 0.671851
O O10 0.750000 0.750000 0.864867
O O11 0.673205 0.867802 0.663821
O O12 0.750000 0.930369 0.942220
O O13 0.168037 0.117388 0.779010
O O14 0.945149 0.616854 0.474897
O O15 0.951487 0.750000 0.721513
#
# Coordination Sequence:
#
# PCOD9449238 Si02
#       7
#     8   4   8   4   4   8   8
#     4  11  22  41  67 102 132 176 225 279 339 393
#     4  12  26  46  70  92 132 184 232 276 330 404
#     4  10  19  36  66 100 137 177 223 276 336 395
#     4  10  21  40  66  87 122 176 219 257 323 403
#     4  12  25  46  64  91 138 176 225 271 339 393
#     4  11  25  39  68 101 140 172 218 286 339 397
#     4  10  20  39  66  97 130 170 216 271 332 398
#
# _framework density 25.909834
#
# number of rings (size 3 to 8) (size 9 to 14) (size 15 to 20)
#    0.000    1.273    3.636    3.273    2.545    5.818 
#    0.000    0.000    0.000    0.000    0.000    0.000 
#    0.000    0.000    0.000    0.000    0.000    0.000 
#
# Total GULP energy -245367.680514 kJ/mol
# GULP energy per Si atom -5576.538194 kJ/mol
# Density = 2.585086 g / cm^3
# Si number density = 25.909834 Si / 1000 Ang^3
#
#
#
# Elastic Constant Matrix: (Units=GPa)
#
#
# Indices 1 2 3 4 5 6 
#
# 1 187.9080 -0.5917 30.7078 0.0000 0.0000 0.0000
# 2 -0.5917 123.1922 -8.0546 0.0000 0.0000 0.0000
# 3 30.7078 -8.0546 65.2801 0.0000 0.0000 0.0000
# 4 0.0000 0.0000 0.0000 -0.1995 0.0000 0.0000
# 5 0.0000 0.0000 0.0000 0.0000 17.5884 0.0000
# 6 0.0000 0.0000 0.0000 0.0000 0.0000 6.9035
#
#
#
# Elastic Compliance Matrix: (Units=1/GPa)
#
#
# Indices 1 2 3 4 5 6 
#
# 1 0.005768 -0.000151 -0.002732 0.000000 0.000000 0.000000
# 2 -0.000151 0.008187 0.001081 0.000000 0.000000 0.000000
# 3 -0.002732 0.001081 0.016737 0.000000 0.000000 0.000000
# 4 0.000000 0.000000 0.000000 -5.013584 0.000000 0.000000
# 5 0.000000 0.000000 0.000000 0.000000 0.056856 0.000000
# 6 0.000000 0.000000 0.000000 0.000000 0.000000 0.144853
#
#
# Mechanical properties :
#
#
# Convention : Reuss Voigt Hill
#
# Bulk Modulus (GPa) = 36.91514 46.72256 41.81885
# Shear Modulus (GPa) = -1.04854 28.47976 13.71561
#
# Velocity S-wave (km/s) = -0.63684 3.31900 2.30328
# Velocity P-wave (km/s) = 3.70644 5.72360 4.82168
#
# Compressibility (1/GPa) = 0.02708916
#
# Stress axis : x y z
#
# Youngs Moduli (GPa) = 173.37945 122.13947 59.74782
#
# Poissons Ratio (x) = 0.01843 0.16322
# Poissons Ratio (y) = 0.02616 -0.06460
# Poissons Ratio (z) = 0.47363 -0.13206
#
# Static dielectric constant tensor:
#      x y z
#    x 2.142560 0.000000 0.000000 
#    y 0.000000 2.313800 0.000000 
#    z 0.000000 0.000000 1.988060 
# 
# From -- ./inp_files/10228.got.cif
#   From: 2010.05.17/outbox.cif.g08.bks.cpg/sg59_6_cif.got.tgz:10228.got - 2010.06.03 14:40:33.
