data_PCOD9449796
_publ_section_title
;
Structure prediction by ZEFSAII (Michael W. Deem and Ramdas Pophale) SiO2 
 PCOD9449796
Probable space group: P M M N
;
_chemical_formula_sum "Si O2"
_cell_formula_units_Z 48
_cell_length_a 9.515720
_cell_length_b 8.744565
_cell_length_c 31.916403
_cell_angle_alpha 90.000000
_cell_angle_beta 90.000000
_cell_angle_gamma 90.000000
_cell_volume 2655.790450
_symmetry_space_group_name_H-M "P M M N"
_symmetry_group_IT_number 59
_space_group.IT_coordinate_system_code '2'
_symmetry_cell_setting 'orthorhombic'
loop_
_space_group_symop_operation_xyz
x,y,z
1/2-x,1/2-y,z
1/2+x,-y,-z
-x,1/2+y,-z
-x,-y,-z
1/2+x,1/2+y,-z
1/2-x,y,z
x,1/2-y,z
loop_
_atom_site_type_symbol
_atom_site_label
_atom_site_fract_x
_atom_site_fract_y
_atom_site_fract_z
Si Si1 0.588949 0.933990 0.289427
Si Si2 0.586986 0.064827 0.038895
Si Si3 0.917134 0.931673 0.786815
Si Si4 0.584142 0.565682 0.383977
Si Si5 0.587434 0.563580 0.880119
Si Si6 0.413341 0.066737 0.461088
O O1 0.750000 0.984879 0.283277
O O2 0.588190 0.750000 0.289496
O O3 0.545286 0.981434 0.336458
O O4 0.494958 0.992017 0.251715
O O5 0.750000 0.017900 0.037188
O O6 0.582275 0.250000 0.037524
O O7 0.512475 0.015057 0.082138
O O8 0.500000 0.000000 0.000000
O O9 0.750000 0.955662 0.783615
O O10 0.943032 0.750000 0.784962
O O11 0.958675 0.986295 0.833566
O O12 0.750000 0.529885 0.390322
O O13 0.571299 0.750000 0.387075
O O14 0.487908 0.489146 0.418712
O O15 0.750000 0.516842 0.887159
O O16 0.587748 0.750000 0.879394
O O17 0.250000 0.017981 0.462671
O O18 0.417158 0.250000 0.463186
O O19 0.500000 0.000000 0.500000
#
# Coordination Sequence:
#
# PCOD9449796 Si02
#       6
#     8   8   8   8   8   8
#     4   9  19  35  53  75 105 139 173 210 253 300
#     4  10  20  33  51  75 100 128 165 207 251 302
#     4   9  18  32  51  76 103 131 167 210 253 300
#     4   9  19  37  58  78 103 137 176 215 254 299
#     4   8  15  30  50  70  96 131 167 205 251 299
#     4  11  24  39  56  81 110 138 171 212 256 303
#
# _framework density 18.073713000000001
#
# number of rings (size 3 to 8) (size 9 to 14) (size 15 to 20)
#    0.000    2.667    0.000    3.500    0.000    7.333 
#    0.000    7.500    0.000    1.000    0.000    0.000 
#    0.000    0.000    0.000    0.000    0.000    0.000 
#
# Total GULP energy -267735.160222 kJ/mol
# GULP energy per Si atom -5577.815838 kJ/mol
# Density = 1.803258 g / cm^3
# Si number density = 18.073713 Si / 1000 Ang^3
#
#
#
# Elastic Constant Matrix: (Units=GPa)
#
#
# Indices 1 2 3 4 5 6 
#
# 1 101.8941 39.0504 100.7598 0.0000 0.0000 0.0000
# 2 39.0504 14.1436 44.6376 0.0000 0.0000 0.0000
# 3 100.7598 44.6376 189.1700 0.0000 0.0000 0.0000
# 4 0.0000 0.0000 0.0000 33.2398 0.0000 0.0000
# 5 0.0000 0.0000 0.0000 0.0000 41.1151 0.0000
# 6 0.0000 0.0000 0.0000 0.0000 0.0000 28.4339
#
#
#
# Elastic Compliance Matrix: (Units=1/GPa)
#
#
# Indices 1 2 3 4 5 6 
#
# 1 -0.061005 0.258075 -0.028403 0.000000 0.000000 0.000000
# 2 0.258075 -0.814802 0.054804 0.000000 0.000000 0.000000
# 3 -0.028403 0.054804 0.007483 0.000000 0.000000 0.000000
# 4 0.000000 0.000000 0.000000 0.030084 0.000000 0.000000
# 5 0.000000 0.000000 0.000000 0.000000 0.024322 0.000000
# 6 0.000000 0.000000 0.000000 0.000000 0.000000 0.035169
#
#
# Mechanical properties :
#
#
# Convention : Reuss Voigt Hill
#
# Bulk Modulus (GPa) = -3.34032 74.90038 35.78003
# Shear Modulus (GPa) = -3.45425 28.60841 12.57708
#
# Velocity S-wave (km/s) = -1.38396 3.98285 2.64081
# Velocity P-wave (km/s) = 2.09904 7.91722 5.39798
#
# Compressibility (1/GPa) = -0.29937248
#
# Stress axis : x y z
#
# Youngs Moduli (GPa) = -16.39209 -1.22729 133.63397
#
# Poissons Ratio (x) = 0.31673 3.79561
# Poissons Ratio (y) = 4.23039 -7.32362
# Poissons Ratio (z) = -0.46558 0.06726
#
# Static dielectric constant tensor:
#      x y z
#    x 1.600090 0.000000 0.000000 
#    y 0.000000 1.617710 0.000000 
#    z 0.000000 0.000000 1.614410 
# 
# From -- ./inp_files/32791.got.cif
#   From: 2010.05.17/outbox.cif.g08.bks.cpg/sg59_17_cif.got.tgz:32791.got - 2010.06.03 14:40:33.
