data_PCOD9449479
_publ_section_title
;
Structure prediction by ZEFSAII (Michael W. Deem and Ramdas Pophale) SiO2 
 PCOD9449479
Probable space group: P M M N
;
_chemical_formula_sum "Si O2"
_cell_formula_units_Z 48
_cell_length_a 9.469083
_cell_length_b 9.265335
_cell_length_c 32.008324
_cell_angle_alpha 90.000000
_cell_angle_beta 90.000000
_cell_angle_gamma 90.000000
_cell_volume 2808.225536
_symmetry_space_group_name_H-M "P M M N"
_symmetry_group_IT_number 59
_space_group.IT_coordinate_system_code '2'
_symmetry_cell_setting 'orthorhombic'
loop_
_space_group_symop_operation_xyz
x,y,z
1/2-x,1/2-y,z
1/2+x,-y,-z
-x,1/2+y,-z
-x,-y,-z
1/2+x,1/2+y,-z
1/2-x,y,z
x,1/2-y,z
loop_
_atom_site_type_symbol
_atom_site_label
_atom_site_fract_x
_atom_site_fract_y
_atom_site_fract_z
Si Si1 0.582788 0.576747 0.631163
Si Si2 0.084607 0.076037 0.704930
Si Si3 0.087153 0.925720 0.213285
Si Si4 0.078282 0.916313 0.121033
Si Si5 0.080686 0.420498 0.037166
Si Si6 0.082916 0.077885 0.463427
O O1 0.750000 0.545632 0.636285
O O2 0.566133 0.750000 0.634616
O O3 0.493159 0.496799 0.666041
O O4 0.541174 0.534341 0.583795
O O5 0.250000 0.040411 0.705527
O O6 0.071009 0.250000 0.701872
O O7 0.008973 0.029952 0.748027
O O8 0.250000 0.972410 0.219406
O O9 0.088688 0.750000 0.212126
O O10 0.035155 0.969836 0.167123
O O11 0.250000 0.914470 0.122411
O O12 0.032103 0.750000 0.115088
O O13 0.036484 0.012503 0.081770
O O14 0.250000 0.442638 0.032942
O O15 0.053374 0.250000 0.036030
O O16 0.000000 0.500000 0.000000
O O17 0.250000 0.049698 0.467454
O O18 0.062320 0.250000 0.466503
O O19 0.000000 0.000000 0.500000
#
# Coordination Sequence:
#
# PCOD9449479 Si02
#       6
#     8   8   8   8   8   8
#     4   9  19  36  54  71  95 130 169 205 242 286
#     4  10  20  32  48  74 105 133 162 199 243 289
#     4   8  14  27  48  70  92 124 165 203 239 282
#     4   8  14  27  48  70  92 123 163 204 243 283
#     4  10  20  33  50  73 100 130 164 201 243 291
#     4   9  19  35  53  74 100 128 161 202 245 291
#
# _framework density 17.092642999999999
#
# number of rings (size 3 to 8) (size 9 to 14) (size 15 to 20)
#    0.000    3.000    0.000    3.000    0.000    4.000 
#    0.000    6.667    0.000    6.000    0.000    0.000 
#    0.000    0.000    0.000    0.000    0.000    0.000 
#
# Total GULP energy -267498.212476 kJ/mol
# GULP energy per Si atom -5572.879427 kJ/mol
# Density = 1.705374 g / cm^3
# Si number density = 17.092643 Si / 1000 Ang^3
#
#
#
# Elastic Constant Matrix: (Units=GPa)
#
#
# Indices 1 2 3 4 5 6 
#
# 1 64.8794 44.0893 92.9494 0.0000 0.0000 0.0000
# 2 44.0893 45.7244 74.2007 0.0000 0.0000 0.0000
# 3 92.9494 74.2007 221.4525 0.0000 0.0000 0.0000
# 4 0.0000 0.0000 0.0000 32.6036 0.0000 0.0000
# 5 0.0000 0.0000 0.0000 0.0000 31.0818 0.0000
# 6 0.0000 0.0000 0.0000 0.0000 0.0000 23.8486
#
#
#
# Elastic Compliance Matrix: (Units=1/GPa)
#
#
# Indices 1 2 3 4 5 6 
#
# 1 0.056075 -0.034795 -0.011878 0.000000 0.000000 0.000000
# 2 -0.034795 0.069523 -0.008691 0.000000 0.000000 0.000000
# 3 -0.011878 -0.008691 0.012413 0.000000 0.000000 0.000000
# 4 0.000000 0.000000 0.000000 0.030671 0.000000 0.000000
# 5 0.000000 0.000000 0.000000 0.000000 0.032173 0.000000
# 6 0.000000 0.000000 0.000000 0.000000 0.000000 0.041931
#
#
# Mechanical properties :
#
#
# Convention : Reuss Voigt Hill
#
# Bulk Modulus (GPa) = 36.64974 83.83722 60.24348
# Shear Modulus (GPa) = 13.78903 25.56127 19.67515
#
# Velocity S-wave (km/s) = 2.84337 3.87131 3.39645
# Velocity P-wave (km/s) = 5.68050 8.31492 7.12060
#
# Compressibility (1/GPa) = 0.02728532
#
# Stress axis : x y z
#
# Youngs Moduli (GPa) = 17.83341 14.38364 80.56185
#
# Poissons Ratio (x) = 0.50047 0.95687
# Poissons Ratio (y) = 0.62051 0.70012
# Poissons Ratio (z) = 0.21182 0.12500
#
# Static dielectric constant tensor:
#      x y z
#    x 1.565580 0.000000 0.000000 
#    y 0.000000 1.567380 0.000000 
#    z 0.000000 0.000000 1.579560 
# 
# From -- ./inp_files/32894.got.cif
#   From: 2010.05.17/outbox.cif.g08.bks.cpg/sg59_17_cif.got.tgz:32894.got - 2010.06.03 14:40:33.
