data_PCOD9449258
_publ_section_title
;
Structure prediction by ZEFSAII (Michael W. Deem and Ramdas Pophale) SiO2 
 PCOD9449258
Probable space group: P M M N
;
_chemical_formula_sum "Si O2"
_cell_formula_units_Z 64
_cell_length_a 22.584653
_cell_length_b 13.852086
_cell_length_c 10.150222
_cell_angle_alpha 90.000000
_cell_angle_beta 90.000000
_cell_angle_gamma 90.000000
_cell_volume 3175.441691
_symmetry_space_group_name_H-M "P M M N"
_symmetry_group_IT_number 59
_space_group.IT_coordinate_system_code '2'
_symmetry_cell_setting 'orthorhombic'
loop_
_space_group_symop_operation_xyz
x,y,z
1/2-x,1/2-y,z
1/2+x,-y,-z
-x,1/2+y,-z
-x,-y,-z
1/2+x,1/2+y,-z
1/2-x,y,z
x,1/2-y,z
loop_
_atom_site_type_symbol
_atom_site_label
_atom_site_fract_x
_atom_site_fract_y
_atom_site_fract_z
Si Si1 0.501799 0.633207 0.617970
Si Si2 0.893750 0.634459 0.818538
Si Si3 0.403945 0.866348 0.040558
Si Si4 0.875866 0.366026 0.259225
Si Si5 0.575929 0.866454 0.374288
Si Si6 0.681377 0.465103 0.750783
Si Si7 0.317390 0.499804 0.546276
Si Si8 0.539380 0.867147 0.081698
O O1 0.501142 0.750000 0.622689
O O2 0.553631 0.604202 0.718795
O O3 0.437307 0.604861 0.667930
O O4 0.521982 0.605965 0.471488
O O5 0.886649 0.750000 0.810611
O O6 0.835512 0.576331 0.780158
O O7 0.916395 0.606962 0.963985
O O8 0.404270 0.750000 0.047507
O O9 0.472101 0.899074 0.055898
O O10 0.362411 0.905796 0.155736
O O11 0.381083 0.891632 0.894518
O O12 0.869288 0.250000 0.268760
O O13 0.825891 0.422876 0.337560
O O14 0.581767 0.750000 0.378874
O O15 0.635234 0.915933 0.427344
O O16 0.562007 0.895715 0.225086
O O17 0.750000 0.444493 0.778896
O O18 0.670318 0.450962 0.595284
O O19 0.250000 0.463830 0.542083
O O20 0.537334 0.750000 0.079974
#
# Coordination Sequence:
#
# PCOD9449258 Si02
#       8
#     8   8   8   8   8   8   8   8
#     4   9  17  34  61  91 120 149 189 237 292 358
#     4  10  19  38  63  88 123 156 187 238 296 352
#     4  10  22  42  65  89 119 153 192 245 305 358
#     4  10  22  41  65  90 117 153 195 244 302 358
#     4  10  21  38  61  92 125 158 193 236 295 357
#     4  11  26  42  58  86 118 157 209 248 285 344
#     4  11  26  43  58  84 120 160 207 248 285 340
#     4   9  19  36  61  94 124 150 188 240 302 362
#
# _framework density 20.154675999999998
#
# number of rings (size 3 to 8) (size 9 to 14) (size 15 to 20)
#    0.000    2.000    2.500    0.000    3.500    4.000 
#    0.000    3.750    0.000    2.250    0.000    0.000 
#    0.000    0.000    0.000    0.000    0.000    0.000 
#
# Total GULP energy -357708.245327 kJ/mol
# GULP energy per Si atom -5589.191333 kJ/mol
# Density = 2.010880 g / cm^3
# Si number density = 20.154676 Si / 1000 Ang^3
#
#
#
# Elastic Constant Matrix: (Units=GPa)
#
#
# Indices 1 2 3 4 5 6 
#
# 1 61.4472 5.6094 33.2361 0.0000 0.0000 0.0000
# 2 5.6094 53.8450 7.8333 0.0000 0.0000 0.0000
# 3 33.2361 7.8333 130.1467 0.0000 0.0000 0.0000
# 4 0.0000 0.0000 0.0000 25.1701 0.0000 0.0000
# 5 0.0000 0.0000 0.0000 0.0000 25.8581 0.0000
# 6 0.0000 0.0000 0.0000 0.0000 0.0000 25.0787
#
#
#
# Elastic Compliance Matrix: (Units=1/GPa)
#
#
# Indices 1 2 3 4 5 6 
#
# 1 0.018970 -0.001283 -0.004767 0.000000 0.000000 0.000000
# 2 -0.001283 0.018823 -0.000805 0.000000 0.000000 0.000000
# 3 -0.004767 -0.000805 0.008950 0.000000 0.000000 0.000000
# 4 0.000000 0.000000 0.000000 0.039730 0.000000 0.000000
# 5 0.000000 0.000000 0.000000 0.000000 0.038673 0.000000
# 6 0.000000 0.000000 0.000000 0.000000 0.000000 0.039874
#
#
# Mechanical properties :
#
#
# Convention : Reuss Voigt Hill
#
# Bulk Modulus (GPa) = 30.27415 37.64406 33.95910
# Shear Modulus (GPa) = 26.35193 28.47206 27.41199
#
# Velocity S-wave (km/s) = 3.61984 3.76264 3.69193
# Velocity P-wave (km/s) = 5.70302 6.13145 5.92112
#
# Compressibility (1/GPa) = 0.03303148
#
# Stress axis : x y z
#
# Youngs Moduli (GPa) = 52.71560 53.12755 111.73790
#
# Poissons Ratio (x) = 0.06815 0.53267
# Poissons Ratio (y) = 0.06762 0.08999
# Poissons Ratio (z) = 0.25130 0.04279
#
# Static dielectric constant tensor:
#      x y z
#    x 1.672890 0.000000 0.000000 
#    y 0.000000 1.755280 0.000000 
#    z 0.000000 0.000000 1.704940 
# 
# From -- ./inp_files/12192.got.cif
#   From: 2010.05.17/outbox.cif.g08.bks.cpg/sg59_7_cif.got.tgz:12192.got - 2010.06.03 14:40:33.
