data_PCOD9449864
_publ_section_title
;
Structure prediction by ZEFSAII (Michael W. Deem and Ramdas Pophale) SiO2 
 PCOD9449864
Probable space group: P M M N
;
_chemical_formula_sum "Si O2"
_cell_formula_units_Z 64
_cell_length_a 15.400251
_cell_length_b 9.565721
_cell_length_c 20.903550
_cell_angle_alpha 90.000000
_cell_angle_beta 90.000000
_cell_angle_gamma 90.000000
_cell_volume 3079.396108
_symmetry_space_group_name_H-M "P M M N"
_symmetry_group_IT_number 59
_space_group.IT_coordinate_system_code '2'
_symmetry_cell_setting 'orthorhombic'
loop_
_space_group_symop_operation_xyz
x,y,z
1/2-x,1/2-y,z
1/2+x,-y,-z
-x,1/2+y,-z
-x,-y,-z
1/2+x,1/2+y,-z
1/2-x,y,z
x,1/2-y,z
loop_
_atom_site_type_symbol
_atom_site_label
_atom_site_fract_x
_atom_site_fract_y
_atom_site_fract_z
Si Si1 0.351783 0.593660 0.219290
Si Si2 0.644802 0.912340 0.273112
Si Si3 0.596881 0.591149 0.895215
Si Si4 0.350139 0.408745 0.967142
Si Si5 0.899905 0.407833 0.151636
Si Si6 0.856482 0.910957 0.662183
Si Si7 0.143978 0.088821 0.582582
Si Si8 0.643743 0.410662 0.538347
O O1 0.250000 0.607631 0.234537
O O2 0.390130 0.750000 0.219018
O O3 0.357612 0.518354 0.151140
O O4 0.387690 0.492824 0.274673
O O5 0.750000 0.919718 0.271137
O O6 0.621305 0.750000 0.261752
O O7 0.616975 0.949778 0.345376
O O8 0.610056 0.011001 0.217876
O O9 0.633693 0.750000 0.891734
O O10 0.499904 0.597803 0.868853
O O11 0.598492 0.547465 0.969340
O O12 0.250000 0.405757 0.987702
O O13 0.376728 0.250000 0.949640
O O14 0.356973 0.506331 0.905964
O O15 0.865923 0.250000 0.156646
O O16 0.750000 0.907517 0.662822
O O17 0.885397 0.750000 0.661259
O O18 0.882511 0.997569 0.599467
O O19 0.250000 0.087283 0.582264
O O20 0.118626 0.250000 0.569881
O O21 0.114636 0.985484 0.526903
O O22 0.750000 0.409729 0.537895
O O23 0.615309 0.250000 0.543288
#
# Coordination Sequence:
#
# PCOD9449864 Si02
#       8
#     8   8   8   8   8   8   8   8
#     4  10  20  33  51  77 105 132 168 216 264 305
#     4   9  18  33  52  73 100 137 178 216 257 310
#     4  10  22  39  56  76 104 139 175 207 248 306
#     4  10  21  38  60  81 102 134 173 209 250 305
#     4  11  23  36  53  79 108 136 169 212 257 301
#     4   9  16  26  42  64  94 134 173 208 251 305
#     4   8  14  25  41  62  90 126 168 210 252 303
#     4   9  15  22  35  60  95 130 164 208 260 306
#
# _framework density 20.783294000000001
#
# number of rings (size 3 to 8) (size 9 to 14) (size 15 to 20)
#    0.000    2.500    0.000    3.375    0.000    8.250 
#    0.000    1.250    0.000    0.000    0.000    0.875 
#    0.000    0.000    0.000    0.000    0.000    0.000 
#
# Total GULP energy -357328.567129 kJ/mol
# GULP energy per Si atom -5583.258861 kJ/mol
# Density = 2.073599 g / cm^3
# Si number density = 20.783294 Si / 1000 Ang^3
#
#
#
# Elastic Constant Matrix: (Units=GPa)
#
#
# Indices 1 2 3 4 5 6 
#
# 1 21.0584 8.1367 5.0018 0.0000 0.0000 0.0000
# 2 8.1367 161.5578 111.4197 0.0000 0.0000 0.0000
# 3 5.0018 111.4197 142.2994 0.0000 0.0000 0.0000
# 4 0.0000 0.0000 0.0000 -3.6992 0.0000 0.0000
# 5 0.0000 0.0000 0.0000 0.0000 6.6676 0.0000
# 6 0.0000 0.0000 0.0000 0.0000 0.0000 15.4573
#
#
#
# Elastic Compliance Matrix: (Units=1/GPa)
#
#
# Indices 1 2 3 4 5 6 
#
# 1 0.048443 -0.002751 0.000451 0.000000 0.000000 0.000000
# 2 -0.002751 0.013612 -0.010562 0.000000 0.000000 0.000000
# 3 0.000451 -0.010562 0.015281 0.000000 0.000000 0.000000
# 4 0.000000 0.000000 0.000000 -0.270326 0.000000 0.000000
# 5 0.000000 0.000000 0.000000 0.000000 0.149979 0.000000
# 6 0.000000 0.000000 0.000000 0.000000 0.000000 0.064694
#
#
# Mechanical properties :
#
#
# Convention : Reuss Voigt Hill
#
# Bulk Modulus (GPa) = 19.37477 63.78134 41.57805
# Shear Modulus (GPa) = 77.38777 17.04230 47.21503
#
# Velocity S-wave (km/s) = 6.10872 2.86667 4.77149
# Velocity P-wave (km/s) = 7.68750 6.45852 7.09965
#
# Compressibility (1/GPa) = 0.05161352
#
# Stress axis : x y z
#
# Youngs Moduli (GPa) = 20.64293 73.46382 65.43987
#
# Poissons Ratio (x) = 0.20210 -0.02953
# Poissons Ratio (y) = 0.05679 0.69115
# Poissons Ratio (z) = -0.00931 0.77589
#
# Static dielectric constant tensor:
#      x y z
#    x 1.789880 0.000000 0.000000 
#    y 0.000000 1.729510 0.000000 
#    z 0.000000 0.000000 1.710120 
# 
# From -- ./inp_files/30735.got.cif
#   From: 2010.05.17/outbox.cif.g08.bks.cpg/sg59_16_cif.got.tgz:30735.got - 2010.06.03 14:40:33.
