data_PCOD9449718
_publ_section_title
;
Structure prediction by ZEFSAII (Michael W. Deem and Ramdas Pophale) SiO2 
 PCOD9449718
Probable space group: P M M N
;
_chemical_formula_sum "Si O2"
_cell_formula_units_Z 48
_cell_length_a 7.483250
_cell_length_b 9.413356
_cell_length_c 31.920375
_cell_angle_alpha 90.000000
_cell_angle_beta 90.000000
_cell_angle_gamma 90.000000
_cell_volume 2248.550897
_symmetry_space_group_name_H-M "P M M N"
_symmetry_group_IT_number 59
_space_group.IT_coordinate_system_code '2'
_symmetry_cell_setting 'orthorhombic'
loop_
_space_group_symop_operation_xyz
x,y,z
1/2-x,1/2-y,z
1/2+x,-y,-z
-x,1/2+y,-z
-x,-y,-z
1/2+x,1/2+y,-z
1/2-x,y,z
x,1/2-y,z
loop_
_atom_site_type_symbol
_atom_site_label
_atom_site_fract_x
_atom_site_fract_y
_atom_site_fract_z
Si Si1 0.036047 0.088134 0.620355
Si Si2 0.535919 0.911892 0.958029
Si Si3 0.036165 0.912259 0.285598
Si Si4 0.031435 0.086750 0.205443
Si Si5 0.035638 0.589774 0.541567
Si Si6 0.968490 0.086056 0.876912
O O1 0.250000 0.095554 0.615868
O O2 0.966547 0.250000 0.617256
O O3 0.000304 0.035436 0.667374
O O4 0.966998 0.990573 0.582912
O O5 0.750000 0.902858 0.953694
O O6 0.467501 0.750000 0.960247
O O7 0.470682 0.998394 0.917540
O O8 0.500000 0.000000 0.000000
O O9 0.250000 0.904696 0.281122
O O10 0.967097 0.750000 0.282190
O O11 0.970856 0.012168 0.248349
O O12 0.250000 0.087693 0.205587
O O13 0.973949 0.250000 0.202253
O O14 0.976663 0.994059 0.165409
O O15 0.250000 0.598361 0.545737
O O16 0.966308 0.750000 0.537840
O O17 0.000000 0.500000 0.500000
O O18 0.750000 0.087139 0.877284
O O19 0.025900 0.250000 0.877984
#
# Coordination Sequence:
#
# PCOD9449718 Si02
#       6
#     8   8   8   8   8   8
#     4   9  18  33  51  70  96 130 163 195 236 287
#     4  10  20  33  50  73 100 130 165 204 247 296
#     4   9  17  29  46  69  95 122 154 193 236 281
#     4   9  16  26  42  66  95 123 153 194 241 285
#     4  10  21  36  54  76 101 130 165 204 246 292
#     4   9  16  27  45  68  94 125 160 198 242 291
#
# _framework density 21.347083000000001
#
# number of rings (size 3 to 8) (size 9 to 14) (size 15 to 20)
#    0.000    2.667    0.000    2.000    0.000    7.333 
#    0.000    1.667    0.000    1.000    0.000    2.333 
#    0.000    0.000    0.000    0.000    0.000    0.000 
#
# Total GULP energy -268118.354216 kJ/mol
# GULP energy per Si atom -5585.799046 kJ/mol
# Density = 2.129850 g / cm^3
# Si number density = 21.347083 Si / 1000 Ang^3
#
#
#
# Elastic Constant Matrix: (Units=GPa)
#
#
# Indices 1 2 3 4 5 6 
#
# 1 60.2292 6.5932 -0.9121 0.0000 0.0000 0.0000
# 2 6.5932 209.3542 157.6228 0.0000 0.0000 0.0000
# 3 -0.9121 157.6228 244.4492 0.0000 0.0000 0.0000
# 4 0.0000 0.0000 0.0000 42.7374 0.0000 0.0000
# 5 0.0000 0.0000 0.0000 0.0000 17.5868 0.0000
# 6 0.0000 0.0000 0.0000 0.0000 0.0000 6.3019
#
#
#
# Elastic Compliance Matrix: (Units=1/GPa)
#
#
# Indices 1 2 3 4 5 6 
#
# 1 0.016737 -0.001116 0.000782 0.000000 0.000000 0.000000
# 2 -0.001116 0.009358 -0.006038 0.000000 0.000000 0.000000
# 3 0.000782 -0.006038 0.007987 0.000000 0.000000 0.000000
# 4 0.000000 0.000000 0.000000 0.023399 0.000000 0.000000
# 5 0.000000 0.000000 0.000000 0.000000 0.056861 0.000000
# 6 0.000000 0.000000 0.000000 0.000000 0.000000 0.158682
#
#
# Mechanical properties :
#
#
# Convention : Reuss Voigt Hill
#
# Bulk Modulus (GPa) = 46.86436 93.40449 70.13442
# Shear Modulus (GPa) = 17.07178 36.70713 26.88946
#
# Velocity S-wave (km/s) = 2.83101 4.15123 3.55298
# Velocity P-wave (km/s) = 5.71728 8.17478 7.05388
#
# Compressibility (1/GPa) = 0.02133818
#
# Stress axis : x y z
#
# Youngs Moduli (GPa) = 59.74700 106.86141 125.19966
#
# Poissons Ratio (x) = 0.11924 -0.09790
# Poissons Ratio (y) = 0.06667 0.75598
# Poissons Ratio (z) = -0.04672 0.64525
#
# Static dielectric constant tensor:
#      x y z
#    x 1.837860 0.000000 0.000000 
#    y 0.000000 1.757010 0.000000 
#    z 0.000000 0.000000 1.724200 
# 
# From -- ./inp_files/31242.got.cif
#   From: 2010.05.17/outbox.cif.g08.bks.cpg/sg59_16_cif.got.tgz:31242.got - 2010.06.03 14:40:33.
