data_PCOD9449529
_publ_section_title
;
Structure prediction by ZEFSAII (Michael W. Deem and Ramdas Pophale) SiO2 
 PCOD9449529
Probable space group: P M M N
;
_chemical_formula_sum "Si O2"
_cell_formula_units_Z 56
_cell_length_a 8.262897
_cell_length_b 20.393820
_cell_length_c 16.278446
_cell_angle_alpha 90.000000
_cell_angle_beta 90.000000
_cell_angle_gamma 90.000000
_cell_volume 2743.114047
_symmetry_space_group_name_H-M "P M M N"
_symmetry_group_IT_number 59
_space_group.IT_coordinate_system_code '2'
_symmetry_cell_setting 'orthorhombic'
loop_
_space_group_symop_operation_xyz
x,y,z
1/2-x,1/2-y,z
1/2+x,-y,-z
-x,1/2+y,-z
-x,-y,-z
1/2+x,1/2+y,-z
1/2-x,y,z
x,1/2-y,z
loop_
_atom_site_type_symbol
_atom_site_label
_atom_site_fract_x
_atom_site_fract_y
_atom_site_fract_z
Si Si1 0.944922 0.322906 0.171855
Si Si2 0.943649 0.454407 0.425704
Si Si3 0.443280 0.173698 0.695062
Si Si4 0.554346 0.324135 0.510277
Si Si5 0.442393 0.456270 0.245873
Si Si6 0.442995 0.582241 0.159135
Si Si7 0.947574 0.176026 0.982583
O O1 0.750000 0.321680 0.172190
O O2 0.000681 0.250000 0.197547
O O3 0.998593 0.383492 0.226227
O O4 0.997283 0.333663 0.077087
O O5 0.750000 0.455384 0.422161
O O6 0.998261 0.380292 0.447486
O O7 0.000000 0.500000 0.500000
O O8 0.009030 0.475918 0.337805
O O9 0.250000 0.167094 0.701691
O O10 0.487140 0.250000 0.709937
O O11 0.495325 0.158540 0.601867
O O12 0.525638 0.127636 0.761730
O O13 0.750000 0.323762 0.511394
O O14 0.499037 0.250000 0.491216
O O15 0.250000 0.456925 0.240368
O O16 0.508377 0.510257 0.181472
O O17 0.250000 0.576320 0.147369
O O18 0.508326 0.620814 0.079837
O O19 0.750000 0.175153 0.981392
O O20 0.996029 0.250000 0.957020
#
# Coordination Sequence:
#
# PCOD9449529 Si02
#       7
#     8   8   8   8   8   8   8
#     4   9  19  38  62  84 107 140 185 232 277 329
#     4  11  23  39  59  81 108 144 185 230 278 330
#     4  10  20  32  49  78 113 144 176 219 272 325
#     4   9  19  36  56  76  98 130 176 225 270 320
#     4  11  24  38  54  82 115 146 182 225 276 331
#     4  10  20  34  53  78 110 148 188 223 260 319
#     4   8  15  31  57  84 107 139 185 229 266 312
#
# _framework density 20.414753999999999
#
# number of rings (size 3 to 8) (size 9 to 14) (size 15 to 20)
#    0.000    2.286    0.000    3.429    0.000    8.571 
#    0.000    2.143    0.000    0.857    0.000    0.000 
#    0.000    0.000    0.000    0.000    0.000    0.000 
#
# Total GULP energy -312695.021877 kJ/mol
# GULP energy per Si atom -5583.839676 kJ/mol
# Density = 2.036829 g / cm^3
# Si number density = 20.414754 Si / 1000 Ang^3
#
#
#
# Elastic Constant Matrix: (Units=GPa)
#
#
# Indices 1 2 3 4 5 6 
#
# 1 9.2145 13.7958 5.1199 0.0000 0.0000 0.0000
# 2 13.7958 95.2331 44.8659 0.0000 0.0000 0.0000
# 3 5.1199 44.8659 59.0671 0.0000 0.0000 0.0000
# 4 0.0000 0.0000 0.0000 38.8673 0.0000 0.0000
# 5 0.0000 0.0000 0.0000 0.0000 15.4587 0.0000
# 6 0.0000 0.0000 0.0000 0.0000 0.0000 21.8533
#
#
#
# Elastic Compliance Matrix: (Units=1/GPa)
#
#
# Indices 1 2 3 4 5 6 
#
# 1 0.139551 -0.022607 0.005076 0.000000 0.000000 0.000000
# 2 -0.022607 0.020014 -0.013243 0.000000 0.000000 0.000000
# 3 0.005076 -0.013243 0.026549 0.000000 0.000000 0.000000
# 4 0.000000 0.000000 0.000000 0.025729 0.000000 0.000000
# 5 0.000000 0.000000 0.000000 0.000000 0.064689 0.000000
# 6 0.000000 0.000000 0.000000 0.000000 0.000000 0.045760
#
#
# Mechanical properties :
#
#
# Convention : Reuss Voigt Hill
#
# Bulk Modulus (GPa) = 8.02788 32.34199 20.18493
# Shear Modulus (GPa) = 11.75469 21.88472 16.81970
#
# Velocity S-wave (km/s) = 2.40217 3.27770 2.87348
# Velocity P-wave (km/s) = 3.41099 5.49557 4.57363
#
# Compressibility (1/GPa) = 0.12456586
#
# Stress axis : x y z
#
# Youngs Moduli (GPa) = 7.16583 49.96397 37.66629
#
# Poissons Ratio (x) = 1.12954 -0.19118
# Poissons Ratio (y) = 0.16200 0.49881
# Poissons Ratio (z) = -0.03637 0.66167
#
# Static dielectric constant tensor:
#      x y z
#    x 1.713470 0.000000 0.000000 
#    y 0.000000 1.754160 0.000000 
#    z 0.000000 0.000000 1.695590 
# 
# From -- ./inp_files/21077.got.cif
#   From: 2010.05.17/outbox.cif.g08.bks.cpg/sg59_11_cif.got.tgz:21077.got - 2010.06.03 14:40:33.
