data_PCOD9449578
_publ_section_title
;
Structure prediction by ZEFSAII (Michael W. Deem and Ramdas Pophale) SiO2 
 PCOD9449578
Probable space group: P M M N
;
_chemical_formula_sum "Si O2"
_cell_formula_units_Z 64
_cell_length_a 8.784414
_cell_length_b 19.673672
_cell_length_c 22.526833
_cell_angle_alpha 90.000000
_cell_angle_beta 90.000000
_cell_angle_gamma 90.000000
_cell_volume 3893.125118
_symmetry_space_group_name_H-M "P M M N"
_symmetry_group_IT_number 59
_space_group.IT_coordinate_system_code '2'
_symmetry_cell_setting 'orthorhombic'
loop_
_space_group_symop_operation_xyz
x,y,z
1/2-x,1/2-y,z
1/2+x,-y,-z
-x,1/2+y,-z
-x,-y,-z
1/2+x,1/2+y,-z
1/2-x,y,z
x,1/2-y,z
loop_
_atom_site_type_symbol
_atom_site_label
_atom_site_fract_x
_atom_site_fract_y
_atom_site_fract_z
Si Si1 0.569991 0.328345 0.875953
Si Si2 0.430001 0.039891 0.826629
Si Si3 0.567221 0.095328 0.526024
Si Si4 0.068460 0.466191 0.059299
Si Si5 0.431830 0.533038 0.300058
Si Si6 0.929223 0.034354 0.408806
Si Si7 0.430544 0.326730 0.005430
Si Si8 0.066310 0.674836 0.360739
O O1 0.750000 0.340156 0.869133
O O2 0.537147 0.250000 0.860660
O O3 0.478851 0.382133 0.837599
O O4 0.522748 0.337977 0.944708
O O5 0.250000 0.033402 0.826797
O O6 0.498255 0.018481 0.763762
O O7 0.498132 0.998391 0.881995
O O8 0.750000 0.080399 0.531626
O O9 0.533755 0.094521 0.455746
O O10 0.537080 0.158456 0.569531
O O11 0.472133 0.033852 0.554661
O O12 0.250000 0.476854 0.059803
O O13 0.036654 0.385921 0.051916
O O14 0.000000 0.500000 0.000000
O O15 0.250000 0.535445 0.296409
O O16 0.480801 0.476552 0.348078
O O17 0.484979 0.608070 0.323942
O O18 0.750000 0.036316 0.396255
O O19 0.250000 0.331453 0.990581
O O20 0.460953 0.250000 0.026295
O O21 0.250000 0.676435 0.353719
O O22 0.008066 0.750000 0.344204
#
# Coordination Sequence:
#
# PCOD9449578 Si02
#       8
#     8   8   8   8   8   8   8   8
#     4  10  20  33  50  71  96 128 166 206 247 297
#     4  12  24  36  50  70  98 134 173 215 259 309
#     4   8  14  24  41  65  90 118 152 189 229 273
#     4  11  21  34  54  78 104 132 163 207 260 312
#     4  10  20  33  47  65  91 125 165 206 246 296
#     4   9  15  25  42  64  89 116 149 191 236 279
#     4   9  18  33  53  76 100 126 157 196 247 305
#     4   8  14  26  45  68  94 125 160 196 233 277
#
# _framework density 16.439235
#
# number of rings (size 3 to 8) (size 9 to 14) (size 15 to 20)
#    0.000    2.375    1.250    3.375    0.000    2.250 
#    0.000    1.250    0.000    9.000    0.000    0.875 
#    0.000    3.000    0.000    0.000    0.000    0.000 
#
# Total GULP energy -356538.313680 kJ/mol
# GULP energy per Si atom -5570.911151 kJ/mol
# Density = 1.640182 g / cm^3
# Si number density = 16.439235 Si / 1000 Ang^3
#
#
#
# Elastic Constant Matrix: (Units=GPa)
#
#
# Indices 1 2 3 4 5 6 
#
# 1 59.2299 21.1643 43.6072 0.0000 0.0000 0.0000
# 2 21.1643 32.3173 30.7064 0.0000 0.0000 0.0000
# 3 43.6072 30.7064 118.1504 0.0000 0.0000 0.0000
# 4 0.0000 0.0000 0.0000 14.3388 0.0000 0.0000
# 5 0.0000 0.0000 0.0000 0.0000 25.5868 0.0000
# 6 0.0000 0.0000 0.0000 0.0000 0.0000 16.1317
#
#
#
# Elastic Compliance Matrix: (Units=1/GPa)
#
#
# Indices 1 2 3 4 5 6 
#
# 1 0.025534 -0.010315 -0.006743 0.000000 0.000000 0.000000
# 2 -0.010315 0.045256 -0.007955 0.000000 0.000000 0.000000
# 3 -0.006743 -0.007955 0.013020 0.000000 0.000000 0.000000
# 4 0.000000 0.000000 0.000000 0.069741 0.000000 0.000000
# 5 0.000000 0.000000 0.000000 0.000000 0.039083 0.000000
# 6 0.000000 0.000000 0.000000 0.000000 0.000000 0.061990
#
#
# Mechanical properties :
#
#
# Convention : Reuss Voigt Hill
#
# Bulk Modulus (GPa) = 29.59927 44.51705 37.05816
# Shear Modulus (GPa) = 15.82726 18.82610 17.32668
#
# Velocity S-wave (km/s) = 3.10622 3.38774 3.25003
# Velocity P-wave (km/s) = 5.55960 6.51467 6.05599
#
# Compressibility (1/GPa) = 0.03378462
#
# Stress axis : x y z
#
# Youngs Moduli (GPa) = 39.16396 22.09631 76.80459
#
# Poissons Ratio (x) = 0.22791 0.51792
# Poissons Ratio (y) = 0.40396 0.61097
# Poissons Ratio (z) = 0.26410 0.17577
#
# Static dielectric constant tensor:
#      x y z
#    x 1.566920 0.000000 0.000000 
#    y 0.000000 1.571660 0.000000 
#    z 0.000000 0.000000 1.566660 
# 
# From -- ./inp_files/31769.got.cif
#   From: 2010.05.17/outbox.cif.g08.bks.cpg/sg59_16_cif.got.tgz:31769.got - 2010.06.03 14:40:33.
