data_PCOD9449698
_publ_section_title
;
Structure prediction by ZEFSAII (Michael W. Deem and Ramdas Pophale) SiO2 
 PCOD9449698
Probable space group: P M M N
;
_chemical_formula_sum "Si O2"
_cell_formula_units_Z 48
_cell_length_a 7.515055
_cell_length_b 9.381941
_cell_length_c 32.482755
_cell_angle_alpha 90.000000
_cell_angle_beta 90.000000
_cell_angle_gamma 90.000000
_cell_volume 2290.222713
_symmetry_space_group_name_H-M "P M M N"
_symmetry_group_IT_number 59
_space_group.IT_coordinate_system_code '2'
_symmetry_cell_setting 'orthorhombic'
loop_
_space_group_symop_operation_xyz
x,y,z
1/2-x,1/2-y,z
1/2+x,-y,-z
-x,1/2+y,-z
-x,-y,-z
1/2+x,1/2+y,-z
1/2-x,y,z
x,1/2-y,z
loop_
_atom_site_type_symbol
_atom_site_label
_atom_site_fract_x
_atom_site_fract_y
_atom_site_fract_z
Si Si1 0.967902 0.085818 0.121030
Si Si2 0.463634 0.414946 0.708533
Si Si3 0.038637 0.912517 0.381282
Si Si4 0.532940 0.583516 0.201596
Si Si5 0.536691 0.911911 0.041205
Si Si6 0.536323 0.588883 0.541035
O O1 0.750000 0.084977 0.120970
O O2 0.023641 0.250000 0.118655
O O3 0.026258 0.010005 0.163155
O O4 0.028123 0.996347 0.081391
O O5 0.250000 0.413771 0.709635
O O6 0.525811 0.250000 0.707312
O O7 0.513332 0.477343 0.664328
O O8 0.523645 0.471091 0.753075
O O9 0.250000 0.901030 0.387281
O O10 0.965878 0.750000 0.382007
O O11 0.967255 0.006831 0.418586
O O12 0.750000 0.582306 0.201120
O O13 0.481174 0.750000 0.197247
O O14 0.750000 0.903279 0.045263
O O15 0.468147 0.750000 0.038811
O O16 0.500000 0.000000 0.000000
O O17 0.500000 0.500000 0.500000
O O18 0.750000 0.597428 0.545082
O O19 0.467652 0.750000 0.537818
#
# Coordination Sequence:
#
# PCOD9449698 Si02
#       6
#     8   8   8   8   8   8
#     4   9  16  26  42  65  92 121 154 193 236 282
#     4   8  14  25  43  67  92 118 150 188 229 273
#     4   9  17  30  48  69  94 124 156 190 230 279
#     4   8  13  23  40  61  85 114 150 191 231 272
#     4  10  20  33  50  72  97 126 160 198 241 289
#     4  10  21  36  53  73  97 126 160 198 240 285
#
# _framework density 20.958659000000001
#
# number of rings (size 3 to 8) (size 9 to 14) (size 15 to 20)
#    0.000    3.000    0.000    2.500    0.000    4.667 
#    0.000    2.500    0.000    2.000    0.000    2.333 
#    0.000    0.000    0.000    0.000    0.000    0.000 
#
# Total GULP energy -267731.991538 kJ/mol
# GULP energy per Si atom -5577.749824 kJ/mol
# Density = 2.091096 g / cm^3
# Si number density = 20.958659 Si / 1000 Ang^3
#
#
#
# Elastic Constant Matrix: (Units=GPa)
#
#
# Indices 1 2 3 4 5 6 
#
# 1 52.8490 6.2972 1.6260 0.0000 0.0000 0.0000
# 2 6.2972 151.7160 126.1784 0.0000 0.0000 0.0000
# 3 1.6260 126.1784 257.1963 0.0000 0.0000 0.0000
# 4 0.0000 0.0000 0.0000 35.4370 0.0000 0.0000
# 5 0.0000 0.0000 0.0000 0.0000 18.4798 0.0000
# 6 0.0000 0.0000 0.0000 0.0000 0.0000 6.2787
#
#
#
# Elastic Compliance Matrix: (Units=1/GPa)
#
#
# Indices 1 2 3 4 5 6 
#
# 1 0.019047 -0.001166 0.000452 0.000000 0.000000 0.000000
# 2 -0.001166 0.011206 -0.005490 0.000000 0.000000 0.000000
# 3 0.000452 -0.005490 0.006579 0.000000 0.000000 0.000000
# 4 0.000000 0.000000 0.000000 0.028219 0.000000 0.000000
# 5 0.000000 0.000000 0.000000 0.000000 0.054113 0.000000
# 6 0.000000 0.000000 0.000000 0.000000 0.000000 0.159270
#
#
# Mechanical properties :
#
#
# Convention : Reuss Voigt Hill
#
# Bulk Modulus (GPa) = 40.94670 81.10717 61.02693
# Shear Modulus (GPa) = 16.72339 33.88307 25.30323
#
# Velocity S-wave (km/s) = 2.82782 4.02514 3.47838
# Velocity P-wave (km/s) = 5.49922 7.77078 6.73150
#
# Compressibility (1/GPa) = 0.02442199
#
# Stress axis : x y z
#
# Youngs Moduli (GPa) = 52.50200 89.24150 152.00887
#
# Poissons Ratio (x) = 0.10408 -0.06867
# Poissons Ratio (y) = 0.06123 0.83453
# Poissons Ratio (z) = -0.02372 0.48993
#
# Static dielectric constant tensor:
#      x y z
#    x 1.820150 0.000000 0.000000 
#    y 0.000000 1.729130 0.000000 
#    z 0.000000 0.000000 1.751560 
# 
# From -- ./inp_files/31846.got.cif
#   From: 2010.05.17/outbox.cif.g08.bks.cpg/sg59_16_cif.got.tgz:31846.got - 2010.06.03 14:40:33.
