data_PCOD9449020
_publ_section_title
;
Structure prediction by ZEFSAII (Michael W. Deem and Ramdas Pophale) SiO2 
 PCOD9449020
Probable space group: P M M N
;
_chemical_formula_sum "Si O2"
_cell_formula_units_Z 64
_cell_length_a 18.526824
_cell_length_b 20.385617
_cell_length_c 7.886122
_cell_angle_alpha 90.000000
_cell_angle_beta 90.000000
_cell_angle_gamma 90.000000
_cell_volume 2978.436379
_symmetry_space_group_name_H-M "P M M N"
_symmetry_group_IT_number 59
_space_group.IT_coordinate_system_code '2'
_symmetry_cell_setting 'orthorhombic'
loop_
_space_group_symop_operation_xyz
x,y,z
1/2-x,1/2-y,z
1/2+x,-y,-z
-x,1/2+y,-z
-x,-y,-z
1/2+x,1/2+y,-z
1/2-x,y,z
x,1/2-y,z
loop_
_atom_site_type_symbol
_atom_site_label
_atom_site_fract_x
_atom_site_fract_y
_atom_site_fract_z
Si Si1 0.968594 0.385212 0.246579
Si Si2 0.666443 0.070927 0.658967
Si Si3 0.445740 0.003524 0.158534
Si Si4 0.333443 0.443219 0.577711
Si Si5 0.666699 0.172884 0.373159
Si Si6 0.834185 0.586389 0.039474
Si Si7 0.558212 0.674536 0.462908
Si Si8 0.960722 0.825131 0.079252
O O1 0.884270 0.371914 0.257008
O O2 0.002513 0.456726 0.287811
O O3 0.002363 0.336928 0.386458
O O4 0.996796 0.365591 0.061405
O O5 0.750000 0.065645 0.725678
O O6 0.661295 0.139044 0.557806
O O7 0.597611 0.060046 0.780212
O O8 0.656668 0.010463 0.525204
O O9 0.377573 0.048517 0.105043
O O10 0.500000 0.000000 0.000000
O O11 0.250000 0.424274 0.556771
O O12 0.345169 0.450704 0.780413
O O13 0.381867 0.382125 0.519137
O O14 0.750000 0.167396 0.320447
O O15 0.647485 0.250000 0.372276
O O16 0.750000 0.592546 0.004961
O O17 0.876588 0.654537 0.061041
O O18 0.585059 0.750000 0.465930
O O19 0.523436 0.663810 0.277222
O O20 0.972472 0.750000 0.039663
#
# Coordination Sequence:
#
# PCOD9449020 Si02
#       8
#     8   8   8   8   8   8   8   8
#     4  11  22  40  64  87 127 166 205 264 318 380
#     4  10  21  40  66  94 126 163 205 265 325 384
#     4  11  24  39  60  95 127 161 211 262 319 387
#     4   9  18  34  57  88 125 165 207 251 305 367
#     4  10  23  42  66  95 122 159 214 271 335 399
#     4   9  19  35  56  82 122 165 201 249 302 361
#     4  10  19  34  59  90 128 173 209 251 304 363
#     4   9  19  34  56  90 126 163 210 248 298 368
#
# _framework density 21.487784000000001
#
# number of rings (size 3 to 8) (size 9 to 14) (size 15 to 20)
#    0.000    2.125    1.250    1.500    1.750    4.000 
#    0.000    3.125    0.000    3.750    0.000    8.750 
#    0.000    0.000    0.000    0.000    0.000    0.000 
#
# Total GULP energy -357027.364601 kJ/mol
# GULP energy per Si atom -5578.552572 kJ/mol
# Density = 2.143888 g / cm^3
# Si number density = 21.487784 Si / 1000 Ang^3
#
#
#
# Elastic Constant Matrix: (Units=GPa)
#
#
# Indices 1 2 3 4 5 6 
#
# 1 121.7052 45.3249 37.3114 0.0000 0.0000 0.0000
# 2 45.3249 56.4798 9.6235 0.0000 0.0000 0.0000
# 3 37.3114 9.6235 49.3829 0.0000 0.0000 0.0000
# 4 0.0000 0.0000 0.0000 24.0927 0.0000 0.0000
# 5 0.0000 0.0000 0.0000 0.0000 35.8093 0.0000
# 6 0.0000 0.0000 0.0000 0.0000 0.0000 26.6571
#
#
#
# Elastic Compliance Matrix: (Units=1/GPa)
#
#
# Indices 1 2 3 4 5 6 
#
# 1 0.014927 -0.010402 -0.009251 0.000000 0.000000 0.000000
# 2 -0.010402 0.025563 0.002878 0.000000 0.000000 0.000000
# 3 -0.009251 0.002878 0.026678 0.000000 0.000000 0.000000
# 4 0.000000 0.000000 0.000000 0.041506 0.000000 0.000000
# 5 0.000000 0.000000 0.000000 0.000000 0.027926 0.000000
# 6 0.000000 0.000000 0.000000 0.000000 0.000000 0.037513
#
#
# Mechanical properties :
#
#
# Convention : Reuss Voigt Hill
#
# Bulk Modulus (GPa) = 29.74613 45.78750 37.76681
# Shear Modulus (GPa) = 22.84468 26.33236 24.58852
#
# Velocity S-wave (km/s) = 3.26413 3.50445 3.38642
# Velocity P-wave (km/s) = 5.29900 6.14246 5.73625
#
# Compressibility (1/GPa) = 0.03361782
#
# Stress axis : x y z
#
# Youngs Moduli (GPa) = 66.99478 39.11919 37.48346
#
# Poissons Ratio (x) = 0.40693 0.34675
# Poissons Ratio (y) = 0.69690 -0.10787
# Poissons Ratio (z) = 0.61974 -0.11258
#
# Static dielectric constant tensor:
#      x y z
#    x 1.787570 0.000000 0.000000 
#    y 0.000000 1.803570 0.000000 
#    z 0.000000 0.000000 1.829890 
# 
# From -- ./inp_files/10661.got.cif
#   From: 2010.05.17/outbox.cif.g08.bks.cpg/sg59_6_cif.got.tgz:10661.got - 2010.06.03 14:40:33.
