data_PCOD9449510
_publ_section_title
;
Structure prediction by ZEFSAII (Michael W. Deem and Ramdas Pophale) SiO2 
 PCOD9449510
Probable space group: P M M N
;
_chemical_formula_sum "Si O2"
_cell_formula_units_Z 64
_cell_length_a 23.242771
_cell_length_b 9.098093
_cell_length_c 16.525913
_cell_angle_alpha 90.000000
_cell_angle_beta 90.000000
_cell_angle_gamma 90.000000
_cell_volume 3494.650410
_symmetry_space_group_name_H-M "P M M N"
_symmetry_group_IT_number 59
_space_group.IT_coordinate_system_code '2'
_symmetry_cell_setting 'orthorhombic'
loop_
_space_group_symop_operation_xyz
x,y,z
1/2-x,1/2-y,z
1/2+x,-y,-z
-x,1/2+y,-z
-x,-y,-z
1/2+x,1/2+y,-z
1/2-x,y,z
x,1/2-y,z
loop_
_atom_site_type_symbol
_atom_site_label
_atom_site_fract_x
_atom_site_fract_y
_atom_site_fract_z
Si Si1 0.926056 0.575091 0.777143
Si Si2 0.126789 0.074914 0.829023
Si Si3 0.818697 0.086344 0.023555
Si Si4 0.502806 0.926863 0.088962
Si Si5 0.087903 0.924948 0.550875
Si Si6 0.184656 0.075777 0.138043
Si Si7 0.526694 0.424459 0.617584
Si Si8 0.318414 0.427519 0.656569
O O1 0.937006 0.750000 0.775911
O O2 0.858111 0.549681 0.788431
O O3 0.949730 0.498141 0.697919
O O4 0.955304 0.501647 0.854860
O O5 0.134525 0.250000 0.832005
O O6 0.062237 0.044670 0.861066
O O7 0.147467 0.029183 0.739349
O O8 0.166014 0.999091 0.895855
O O9 0.750000 0.094879 0.018337
O O10 0.843498 0.250000 0.025759
O O11 0.837398 0.002901 0.942857
O O12 0.496289 0.750000 0.082139
O O13 0.500000 0.000000 0.000000
O O14 0.088252 0.750000 0.566088
O O15 0.071265 0.947473 0.456614
O O16 0.146652 0.996555 0.583564
O O17 0.034245 0.001659 0.596113
O O18 0.250000 0.029178 0.154489
O O19 0.184605 0.250000 0.121382
O O20 0.518276 0.250000 0.627991
O O21 0.250000 0.464576 0.660783
O O22 0.322253 0.250000 0.648929
#
# Coordination Sequence:
#
# PCOD9449510 Si02
#       8
#     8   8   8   8   8   8   8   8
#     4  11  22  36  57  84 110 139 181 227 272 327
#     4  10  21  36  53  74 103 144 189 227 270 328
#     4  10  20  32  49  75 103 134 177 226 270 312
#     4  11  23  37  54  79 114 153 191 236 288 338
#     4  10  21  38  61  87 114 145 183 228 278 335
#     4   9  19  36  55  74 101 138 176 216 263 315
#     4  10  21  38  61  87 114 145 181 225 280 338
#     4  10  21  37  58  84 115 153 195 238 287 345
#
# _framework density 18.313704999999999
#
# number of rings (size 3 to 8) (size 9 to 14) (size 15 to 20)
#    0.000    1.875    0.000    3.750    0.000    9.500 
#    0.000    0.625    0.000    2.250    0.000    0.000 
#    0.000    0.000    0.000    0.000    0.000    0.000 
#
# Total GULP energy -357168.441884 kJ/mol
# GULP energy per Si atom -5580.756904 kJ/mol
# Density = 1.827202 g / cm^3
# Si number density = 18.313705 Si / 1000 Ang^3
#
#
#
# Elastic Constant Matrix: (Units=GPa)
#
#
# Indices 1 2 3 4 5 6 
#
# 1 94.3398 60.2067 68.5356 0.0000 0.0000 0.0000
# 2 60.2067 37.8033 46.5453 0.0000 0.0000 0.0000
# 3 68.5356 46.5453 104.4630 0.0000 0.0000 0.0000
# 4 0.0000 0.0000 0.0000 29.7208 0.0000 0.0000
# 5 0.0000 0.0000 0.0000 0.0000 27.1798 0.0000
# 6 0.0000 0.0000 0.0000 0.0000 0.0000 27.2625
#
#
#
# Elastic Compliance Matrix: (Units=1/GPa)
#
#
# Indices 1 2 3 4 5 6 
#
# 1 -0.452341 0.786479 -0.053660 0.000000 0.000000 0.000000
# 2 0.786479 -1.308841 0.067187 0.000000 0.000000 0.000000
# 3 -0.053660 0.067187 0.014841 0.000000 0.000000 0.000000
# 4 0.000000 0.000000 0.000000 0.033646 0.000000 0.000000
# 5 0.000000 0.000000 0.000000 0.000000 0.036792 0.000000
# 6 0.000000 0.000000 0.000000 0.000000 0.000000 0.036680
#
#
# Mechanical properties :
#
#
# Convention : Reuss Voigt Hill
#
# Bulk Modulus (GPa) = -6.83399 65.24235 29.20418
# Shear Modulus (GPa) = -1.52068 20.92053 9.69992
#
# Velocity S-wave (km/s) = -0.91222 3.38352 2.30392
# Velocity P-wave (km/s) = 2.20210 7.13908 4.80194
#
# Compressibility (1/GPa) = -0.14632743
#
# Stress axis : x y z
#
# Youngs Moduli (GPa) = -2.21072 -0.76403 67.37876
#
# Poissons Ratio (x) = 0.60090 3.61555
# Poissons Ratio (y) = 1.73869 -4.52697
# Poissons Ratio (z) = -0.11863 0.05133
#
# Static dielectric constant tensor:
#      x y z
#    x 1.681480 0.000000 0.000000 
#    y 0.000000 1.620990 0.000000 
#    z 0.000000 0.000000 1.612420 
# 
# From -- ./inp_files/21571.got.cif
#   From: 2010.05.17/outbox.cif.g08.bks.cpg/sg59_11_cif.got.tgz:21571.got - 2010.06.03 14:40:33.
