data_PCOD9449485
_publ_section_title
;
Structure prediction by ZEFSAII (Michael W. Deem and Ramdas Pophale) SiO2 
 PCOD9449485
Probable space group: P M M N
;
_chemical_formula_sum "Si O2"
_cell_formula_units_Z 56
_cell_length_a 21.189484
_cell_length_b 9.056076
_cell_length_c 15.558623
_cell_angle_alpha 90.000000
_cell_angle_beta 90.000000
_cell_angle_gamma 90.000000
_cell_volume 2985.599829
_symmetry_space_group_name_H-M "P M M N"
_symmetry_group_IT_number 59
_space_group.IT_coordinate_system_code '2'
_symmetry_cell_setting 'orthorhombic'
loop_
_space_group_symop_operation_xyz
x,y,z
1/2-x,1/2-y,z
1/2+x,-y,-z
-x,1/2+y,-z
-x,-y,-z
1/2+x,1/2+y,-z
1/2-x,y,z
x,1/2-y,z
loop_
_atom_site_type_symbol
_atom_site_label
_atom_site_fract_x
_atom_site_fract_y
_atom_site_fract_z
Si Si1 0.178931 0.925601 0.454516
Si Si2 0.635604 0.082885 0.202414
Si Si3 0.181111 0.072818 0.963380
Si Si4 0.008026 0.079107 0.238239
Si Si5 0.176628 0.085580 0.635861
Si Si6 0.534655 0.426368 0.583594
Si Si7 0.945137 0.570182 0.941103
O O1 0.250000 0.956051 0.416338
O O2 0.178707 0.750000 0.473945
O O3 0.110838 0.955603 0.411217
O O4 0.174661 0.020705 0.540943
O O5 0.657879 0.250000 0.191775
O O6 0.560469 0.077484 0.193233
O O7 0.668986 0.980650 0.133326
O O8 0.646668 0.026373 0.298034
O O9 0.250000 0.020804 0.992753
O O10 0.180977 0.250000 0.964414
O O11 0.121938 0.023648 0.019737
O O12 0.022636 0.250000 0.260314
O O13 0.051583 0.027038 0.159461
O O14 0.008213 0.987592 0.326125
O O15 0.250000 0.095499 0.660109
O O16 0.148576 0.250000 0.640308
O O17 0.500000 0.500000 0.500000
O O18 0.525893 0.250000 0.576712
O O19 0.950947 0.750000 0.944592
O O20 0.000000 0.500000 0.000000
#
# Coordination Sequence:
#
# PCOD9449485 Si02
#       7
#     8   8   8   8   8   8   8
#     4   9  19  37  57  76 104 145 190 235 286 340
#     4  11  21  33  51  77 110 147 186 228 281 342
#     4  10  21  36  56  83 114 148 187 235 289 339
#     4  10  22  38  56  82 114 148 189 236 285 340
#     4  10  20  32  48  74 107 142 183 229 280 341
#     4  11  23  38  59  87 117 151 191 240 292 342
#     4  10  20  38  61  83 112 149 190 235 281 334
#
# _framework density 18.756699999999999
#
# number of rings (size 3 to 8) (size 9 to 14) (size 15 to 20)
#    0.000    1.857    1.429    2.571    0.000    9.143 
#    0.000    0.714    0.000    0.857    0.000    0.000 
#    0.000    0.000    0.000    0.000    0.000    0.000 
#
# Total GULP energy -312139.852702 kJ/mol
# GULP energy per Si atom -5573.925941 kJ/mol
# Density = 1.871401 g / cm^3
# Si number density = 18.756700 Si / 1000 Ang^3
#
#
#
# Elastic Constant Matrix: (Units=GPa)
#
#
# Indices 1 2 3 4 5 6 
#
# 1 106.9940 24.6175 32.8916 0.0000 0.0000 0.0000
# 2 24.6175 17.1303 18.5528 0.0000 0.0000 0.0000
# 3 32.8916 18.5528 78.5752 0.0000 0.0000 0.0000
# 4 0.0000 0.0000 0.0000 14.0930 0.0000 0.0000
# 5 0.0000 0.0000 0.0000 0.0000 27.3757 0.0000
# 6 0.0000 0.0000 0.0000 0.0000 0.0000 21.9336
#
#
#
# Elastic Compliance Matrix: (Units=1/GPa)
#
#
# Indices 1 2 3 4 5 6 
#
# 1 0.014094 -0.018628 -0.001501 0.000000 0.000000 0.000000
# 2 -0.018628 0.103053 -0.016535 0.000000 0.000000 0.000000
# 3 -0.001501 -0.016535 0.017259 0.000000 0.000000 0.000000
# 4 0.000000 0.000000 0.000000 0.070957 0.000000 0.000000
# 5 0.000000 0.000000 0.000000 0.000000 0.036529 0.000000
# 6 0.000000 0.000000 0.000000 0.000000 0.000000 0.045592
#
#
# Mechanical properties :
#
#
# Convention : Reuss Voigt Hill
#
# Bulk Modulus (GPa) = 16.37237 39.42479 27.89858
# Shear Modulus (GPa) = 13.11742 21.12295 17.12019
#
# Velocity S-wave (km/s) = 2.64738 3.35946 3.02445
# Velocity P-wave (km/s) = 4.25354 6.00938 5.20602
#
# Compressibility (1/GPa) = 0.06107852
#
# Stress axis : x y z
#
# Youngs Moduli (GPa) = 70.95318 9.70370 57.93987
#
# Poissons Ratio (x) = 0.18076 0.08699
# Poissons Ratio (y) = 1.32170 0.95803
# Poissons Ratio (z) = 0.10653 0.16045
#
# Static dielectric constant tensor:
#      x y z
#    x 1.752700 0.000000 0.000000 
#    y 0.000000 1.648460 0.000000 
#    z 0.000000 0.000000 1.624080 
# 
# From -- ./inp_files/24201.got.cif
#   From: 2010.05.17/outbox.cif.g08.bks.cpg/sg59_13_cif.got.tgz:24201.got - 2010.06.03 14:40:33.
