data_PCOD9449255
_publ_section_title
;
Structure prediction by ZEFSAII (Michael W. Deem and Ramdas Pophale) SiO2 
 PCOD9449255
Probable space group: P M M N
;
_chemical_formula_sum "Si O2"
_cell_formula_units_Z 58
_cell_length_a 7.595662
_cell_length_b 27.591017
_cell_length_c 12.608851
_cell_angle_alpha 90.000000
_cell_angle_beta 90.000000
_cell_angle_gamma 90.000000
_cell_volume 2642.462618
_symmetry_space_group_name_H-M "P M M N"
_symmetry_group_IT_number 59
_space_group.IT_coordinate_system_code '2'
_symmetry_cell_setting 'orthorhombic'
loop_
_space_group_symop_operation_xyz
x,y,z
1/2-x,1/2-y,z
1/2+x,-y,-z
-x,1/2+y,-z
-x,-y,-z
1/2+x,1/2+y,-z
1/2-x,y,z
x,1/2-y,z
loop_
_atom_site_type_symbol
_atom_site_label
_atom_site_fract_x
_atom_site_fract_y
_atom_site_fract_z
Si Si1 0.536626 0.587268 0.656292
Si Si2 0.953407 0.826387 0.798156
Si Si3 0.535401 0.152702 0.967963
Si Si4 0.964247 0.477878 0.686857
Si Si5 0.460458 0.955100 0.075172
Si Si6 0.546633 0.619022 0.434917
Si Si7 0.458531 0.803864 0.255509
Si Si8 0.250000 0.750000 0.737530
O O1 0.750000 0.584013 0.647305
O O2 0.502145 0.618726 0.760770
O O3 0.474166 0.531929 0.658871
O O4 0.469252 0.616058 0.553056
O O5 0.750000 0.816785 0.767482
O O6 0.094556 0.791694 0.745144
O O7 0.970864 0.822296 0.925029
O O8 0.750000 0.154386 0.971033
O O9 0.475749 0.096695 0.966434
O O10 0.473961 0.176561 0.857628
O O11 0.750000 0.477098 0.684113
O O12 0.023724 0.465277 0.805902
O O13 0.028041 0.435187 0.611088
O O14 0.250000 0.950826 0.082632
O O15 0.500000 0.000000 0.000000
O O16 0.750000 0.631665 0.446264
O O17 0.478338 0.657290 0.349309
O O18 0.250000 0.799595 0.240197
O O19 0.528076 0.750000 0.280480
#
# Coordination Sequence:
#
# PCOD9449255 Si02
#       8
#     8   8   8   8   8   8   8   2
#     4   9  21  41  64  91 128 169 216 270 326 390
#     4  11  24  45  70  97 132 178 219 273 342 395
#     4  10  20  38  63  92 128 164 214 276 326 386
#     4  10  19  38  62  88 123 167 215 262 324 394
#     4  10  20  33  55  87 128 168 207 264 326 388
#     4  11  22  39  60  92 130 166 213 271 325 392
#     4  10  22  41  65  89 120 164 213 270 329 384
#     4  12  26  48  68 102 134 168 234 284 322 396
#
# _framework density 21.949221999999999
#
# number of rings (size 3 to 8) (size 9 to 14) (size 15 to 20)
#    0.000    1.793    2.069    1.862    0.966    3.034 
#    4.966    0.000    0.000    0.000    0.000    0.000 
#    0.000    0.000    0.000    0.000    0.000    0.000 
#
# Total GULP energy -323500.622020 kJ/mol
# GULP energy per Si atom -5577.596931 kJ/mol
# Density = 2.189926 g / cm^3
# Si number density = 21.949222 Si / 1000 Ang^3
#
#
#
# Elastic Constant Matrix: (Units=GPa)
#
#
# Indices 1 2 3 4 5 6 
#
# 1 71.1080 16.5253 -1.2438 0.0000 0.0000 0.0000
# 2 16.5253 114.9535 4.4229 0.0000 0.0000 0.0000
# 3 -1.2438 4.4229 71.1342 0.0000 0.0000 0.0000
# 4 0.0000 0.0000 0.0000 1.1120 0.0000 0.0000
# 5 0.0000 0.0000 0.0000 0.0000 6.1549 0.0000
# 6 0.0000 0.0000 0.0000 0.0000 0.0000 25.1131
#
#
#
# Elastic Compliance Matrix: (Units=1/GPa)
#
#
# Indices 1 2 3 4 5 6 
#
# 1 0.014560 -0.002108 0.000386 0.000000 0.000000 0.000000
# 2 -0.002108 0.009025 -0.000598 0.000000 0.000000 0.000000
# 3 0.000386 -0.000598 0.014102 0.000000 0.000000 0.000000
# 4 0.000000 0.000000 0.000000 0.899267 0.000000 0.000000
# 5 0.000000 0.000000 0.000000 0.000000 0.162472 0.000000
# 6 0.000000 0.000000 0.000000 0.000000 0.000000 0.039820
#
#
# Mechanical properties :
#
#
# Convention : Reuss Voigt Hill
#
# Bulk Modulus (GPa) = 30.26060 32.95606 31.60833
# Shear Modulus (GPa) = 4.32937 22.30876 13.31906
#
# Velocity S-wave (km/s) = 1.40596 3.19153 2.46603
# Velocity P-wave (km/s) = 4.05613 5.35055 4.74766
#
# Compressibility (1/GPa) = 0.03304627
#
# Stress axis : x y z
#
# Youngs Moduli (GPa) = 68.68254 110.80085 70.91259
#
# Poissons Ratio (x) = 0.23356 -0.02735
# Poissons Ratio (y) = 0.14478 0.04241
# Poissons Ratio (z) = -0.02649 0.06626
#
# Static dielectric constant tensor:
#      x y z
#    x 1.820010 0.000000 0.000000 
#    y 0.000000 1.792250 0.000000 
#    z 0.000000 0.000000 1.806900 
# 
# From -- ./inp_files/14636.got.cif
#   From: 2010.05.17/outbox.cif.g08.bks.cpg/sg59_8_cif.got.tgz:14636.got - 2010.06.03 14:40:33.
