data_PCOD9449434
_publ_section_title
;
Structure prediction by ZEFSAII (Michael W. Deem and Ramdas Pophale) SiO2 
 PCOD9449434
Probable space group: P M M N
;
_chemical_formula_sum "Si O2"
_cell_formula_units_Z 56
_cell_length_a 7.479617
_cell_length_b 14.369218
_cell_length_c 21.147734
_cell_angle_alpha 90.000000
_cell_angle_beta 90.000000
_cell_angle_gamma 90.000000
_cell_volume 2272.879088
_symmetry_space_group_name_H-M "P M M N"
_symmetry_group_IT_number 59
_space_group.IT_coordinate_system_code '2'
_symmetry_cell_setting 'orthorhombic'
loop_
_space_group_symop_operation_xyz
x,y,z
1/2-x,1/2-y,z
1/2+x,-y,-z
-x,1/2+y,-z
-x,-y,-z
1/2+x,1/2+y,-z
1/2-x,y,z
x,1/2-y,z
loop_
_atom_site_type_symbol
_atom_site_label
_atom_site_fract_x
_atom_site_fract_y
_atom_site_fract_z
Si Si1 0.531604 0.358156 0.405777
Si Si2 0.041714 0.863022 0.458273
Si Si3 0.455199 0.849079 0.127034
Si Si4 0.537788 0.942559 0.858076
Si Si5 0.455920 0.146710 0.682559
Si Si6 0.534362 0.044416 0.278264
Si Si7 0.038467 0.108976 0.010940
O O1 0.750000 0.361771 0.407906
O O2 0.481630 0.250000 0.401724
O O3 0.470548 0.397350 0.473949
O O4 0.470038 0.407889 0.342432
O O5 0.250000 0.887103 0.452575
O O6 0.030222 0.750000 0.462889
O O7 0.955170 0.885253 0.391180
O O8 0.250000 0.850627 0.149134
O O9 0.534960 0.750000 0.149885
O O10 0.537873 0.950978 0.140846
O O11 0.454442 0.845704 0.050521
O O12 0.750000 0.952314 0.869782
O O13 0.511222 0.906757 0.787446
O O14 0.473266 0.879716 0.916744
O O15 0.250000 0.154821 0.701999
O O16 0.537311 0.250000 0.686369
O O17 0.536473 0.061725 0.721189
O O18 0.750000 0.041554 0.282101
O O19 0.250000 0.129550 0.007598
O O20 0.000000 0.000000 0.000000
#
# Coordination Sequence:
#
# PCOD9449434 Si02
#       7
#     8   8   8   8   8   8   8
#     4   8  15  30  50  69  89 114 153 207 252 283
#     4   8  14  27  48  69  87 114 155 200 244 288
#     4   9  18  33  53  77 102 126 157 199 243 286
#     4   9  19  34  49  68  98 131 158 191 236 280
#     4   9  18  31  44  64  98 129 152 189 240 289
#     4  10  20  32  48  69  93 128 168 197 231 284
#     4   9  17  31  51  72  95 124 157 194 237 282
#
# _framework density 24.638354
#
# number of rings (size 3 to 8) (size 9 to 14) (size 15 to 20)
#    0.000    3.143    0.000    2.143    0.000    4.857 
#    0.000    1.429    0.000    3.857    0.000    0.000 
#    0.000    0.000    0.000    0.000    0.000    0.000 
#
# Total GULP energy -312376.358384 kJ/mol
# GULP energy per Si atom -5578.149257 kJ/mol
# Density = 2.458228 g / cm^3
# Si number density = 24.638354 Si / 1000 Ang^3
#
#
#
# Elastic Constant Matrix: (Units=GPa)
#
#
# Indices 1 2 3 4 5 6 
#
# 1 76.3984 -2.4400 -0.4959 0.0000 0.0000 0.0000
# 2 -2.4400 41.3296 17.3954 0.0000 0.0000 0.0000
# 3 -0.4959 17.3954 145.7941 0.0000 0.0000 0.0000
# 4 0.0000 0.0000 0.0000 5.7460 0.0000 0.0000
# 5 0.0000 0.0000 0.0000 0.0000 19.0324 0.0000
# 6 0.0000 0.0000 0.0000 0.0000 0.0000 -2.0935
#
#
#
# Elastic Compliance Matrix: (Units=1/GPa)
#
#
# Indices 1 2 3 4 5 6 
#
# 1 0.013114 0.000795 -0.000050 0.000000 0.000000 0.000000
# 2 0.000795 0.025523 -0.003043 0.000000 0.000000 0.000000
# 3 -0.000050 -0.003043 0.007222 0.000000 0.000000 0.000000
# 4 0.000000 0.000000 0.000000 0.174035 0.000000 0.000000
# 5 0.000000 0.000000 0.000000 0.000000 0.052542 0.000000
# 6 0.000000 0.000000 0.000000 0.000000 0.000000 -0.477676
#
#
# Mechanical properties :
#
#
# Convention : Reuss Voigt Hill
#
# Bulk Modulus (GPa) = 24.23389 32.49345 28.36367
# Shear Modulus (GPa) = -26.75378 21.14115 -2.80632
#
# Velocity S-wave (km/s) = -3.29881 2.93244 -1.06840
# Velocity P-wave (km/s) = 2.15693 4.96814 3.16465
#
# Compressibility (1/GPa) = 0.04126453
#
# Stress axis : x y z
#
# Youngs Moduli (GPa) = 76.25226 39.17989 138.46873
#
# Poissons Ratio (x) = -0.03116 0.00696
# Poissons Ratio (y) = -0.06065 0.42131
# Poissons Ratio (z) = 0.00384 0.11921
#
# Static dielectric constant tensor:
#      x y z
#    x 1.935120 0.000000 0.000000 
#    y 0.000000 1.993450 0.000000 
#    z 0.000000 0.000000 1.989230 
# 
# From -- ./inp_files/29328.got.cif
#   From: 2010.05.17/outbox.cif.g08.bks.cpg/sg59_15_cif.got.tgz:29328.got - 2010.06.03 14:40:33.
