data_PCOD9449259
_publ_section_title
;
Structure prediction by ZEFSAII (Michael W. Deem and Ramdas Pophale) SiO2 
 PCOD9449259
Probable space group: P M M N
;
_chemical_formula_sum "Si O2"
_cell_formula_units_Z 48
_cell_length_a 31.523283
_cell_length_b 8.452029
_cell_length_c 9.119810
_cell_angle_alpha 90.000000
_cell_angle_beta 90.000000
_cell_angle_gamma 90.000000
_cell_volume 2429.842980
_symmetry_space_group_name_H-M "P M M N"
_symmetry_group_IT_number 59
_space_group.IT_coordinate_system_code '2'
_symmetry_cell_setting 'orthorhombic'
loop_
_space_group_symop_operation_xyz
x,y,z
1/2-x,1/2-y,z
1/2+x,-y,-z
-x,1/2+y,-z
-x,-y,-z
1/2+x,1/2+y,-z
1/2-x,y,z
x,1/2-y,z
loop_
_atom_site_type_symbol
_atom_site_label
_atom_site_fract_x
_atom_site_fract_y
_atom_site_fract_z
Si Si1 0.250000 0.442227 0.660566
Si Si2 0.835018 0.559467 0.828036
Si Si3 0.418147 0.438972 0.654695
Si Si4 0.250000 0.561233 0.327760
Si Si5 0.165376 0.057567 0.832698
Si Si6 0.580220 0.063484 0.674220
Si Si7 0.002225 0.936879 0.834739
O O1 0.250000 0.250000 0.652101
O O2 0.250000 0.508916 0.497112
O O3 0.292076 0.492167 0.748565
O O4 0.837814 0.750000 0.823392
O O5 0.791756 0.506449 0.750840
O O6 0.875306 0.488586 0.744471
O O7 0.835194 0.507290 0.998088
O O8 0.415430 0.250000 0.632519
O O9 0.376614 0.491731 0.745225
O O10 0.419877 0.520853 0.497143
O O11 0.459844 0.479258 0.747369
O O12 0.250000 0.750000 0.317865
O O13 0.165495 0.250000 0.834078
O O14 0.573924 0.250000 0.693938
O O15 0.541935 0.973693 0.754241
O O16 0.009979 0.750000 0.835750
O O17 0.000000 0.000000 0.000000
#
# Coordination Sequence:
#
# PCOD9449259 Si02
#       7
#     4   8   8   4   8   8   8
#     4  10  19  38  64  90 118 158 205 252 304 366
#     4  11  22  41  66  92 121 161 207 256 310 371
#     4  11  22  40  64  93 126 165 209 258 312 372
#     4  12  25  40  58  90 128 164 205 254 308 370
#     4   9  20  37  63  92 119 153 203 255 305 364
#     4  12  25  42  63  93 128 164 205 256 312 373
#     4  12  25  43  65  92 124 164 210 260 313 372
#
# _framework density 19.754363999999999
#
# number of rings (size 3 to 8) (size 9 to 14) (size 15 to 20)
#    0.000    1.000    0.000    7.750    0.000    4.000 
#    0.000    5.833    0.000    0.000    0.000    0.000 
#    0.000    0.000    0.000    0.000    0.000    0.000 
#
# Total GULP energy -268682.147302 kJ/mol
# GULP energy per Si atom -5597.544735 kJ/mol
# Density = 1.970940 g / cm^3
# Si number density = 19.754364 Si / 1000 Ang^3
#
#
#
# Elastic Constant Matrix: (Units=GPa)
#
#
# Indices 1 2 3 4 5 6 
#
# 1 122.5375 -33.4332 41.6070 0.0000 0.0000 0.0000
# 2 -33.4332 36.3404 -20.0565 0.0000 0.0000 0.0000
# 3 41.6070 -20.0565 146.1038 0.0000 0.0000 0.0000
# 4 0.0000 0.0000 0.0000 27.0760 0.0000 0.0000
# 5 0.0000 0.0000 0.0000 0.0000 44.5637 0.0000
# 6 0.0000 0.0000 0.0000 0.0000 0.0000 12.4884
#
#
#
# Elastic Compliance Matrix: (Units=1/GPa)
#
#
# Indices 1 2 3 4 5 6 
#
# 1 0.011388 0.009400 -0.001953 0.000000 0.000000 0.000000
# 2 0.009400 0.037531 0.002475 0.000000 0.000000 0.000000
# 3 -0.001953 0.002475 0.007740 0.000000 0.000000 0.000000
# 4 0.000000 0.000000 0.000000 0.036933 0.000000 0.000000
# 5 0.000000 0.000000 0.000000 0.000000 0.022440 0.000000
# 6 0.000000 0.000000 0.000000 0.000000 0.000000 0.080074
#
#
# Mechanical properties :
#
#
# Convention : Reuss Voigt Hill
#
# Bulk Modulus (GPa) = 13.07116 31.24625 22.15870
# Shear Modulus (GPa) = 24.78139 37.94992 31.36566
#
# Velocity S-wave (km/s) = 3.54570 4.38778 3.98902
# Velocity P-wave (km/s) = 4.83672 6.44375 5.69718
#
# Compressibility (1/GPa) = 0.07650432
#
# Stress axis : x y z
#
# Youngs Moduli (GPa) = 87.80851 26.64442 129.19262
#
# Poissons Ratio (x) = -0.25045 0.25229
# Poissons Ratio (y) = -0.82536 -0.31980
# Poissons Ratio (z) = 0.17147 -0.06595
#
# Static dielectric constant tensor:
#      x y z
#    x 1.654440 0.000000 0.000000 
#    y 0.000000 1.673220 0.000000 
#    z 0.000000 0.000000 1.653450 
# 
# From -- ./inp_files/13025.got.cif
#   From: 2010.05.17/outbox.cif.g08.bks.cpg/sg59_7_cif.got.tgz:13025.got - 2010.06.03 14:40:33.
