data_PCOD9449977
_publ_section_title
;
Structure prediction by ZEFSAII (Michael W. Deem and Ramdas Pophale) SiO2 
 PCOD9449977
Probable space group: P M M N
;
_chemical_formula_sum "Si O2"
_cell_formula_units_Z 48
_cell_length_a 10.112494
_cell_length_b 8.472950
_cell_length_c 29.713753
_cell_angle_alpha 90.000000
_cell_angle_beta 90.000000
_cell_angle_gamma 90.000000
_cell_volume 2545.953278
_symmetry_space_group_name_H-M "P M M N"
_symmetry_group_IT_number 59
_space_group.IT_coordinate_system_code '2'
_symmetry_cell_setting 'orthorhombic'
loop_
_space_group_symop_operation_xyz
x,y,z
1/2-x,1/2-y,z
1/2+x,-y,-z
-x,1/2+y,-z
-x,-y,-z
1/2+x,1/2+y,-z
1/2-x,y,z
x,1/2-y,z
loop_
_atom_site_type_symbol
_atom_site_label
_atom_site_fract_x
_atom_site_fract_y
_atom_site_fract_z
Si Si1 0.599249 0.442110 0.381046
Si Si2 0.095256 0.441289 0.459989
Si Si3 0.099516 0.559586 0.722255
Si Si4 0.250000 0.442242 0.038386
Si Si5 0.250000 0.438994 0.935144
Si Si6 0.480563 0.060966 0.105139
Si Si7 0.899442 0.061363 0.796883
O O1 0.750000 0.492118 0.393939
O O2 0.601007 0.250000 0.381704
O O3 0.483246 0.492298 0.414750
O O4 0.574470 0.490583 0.329419
O O5 0.250000 0.493455 0.462658
O O6 0.097302 0.250000 0.460907
O O7 0.000000 0.500000 0.500000
O O8 0.250000 0.512718 0.733687
O O9 0.093951 0.750000 0.723006
O O10 0.997704 0.494719 0.758167
O O11 0.250000 0.250000 0.037420
O O12 0.123388 0.493421 0.067153
O O13 0.250000 0.497077 0.986986
O O14 0.250000 0.250000 0.935899
O O15 0.377841 0.499482 0.909429
O O16 0.479338 0.250000 0.105808
O O17 0.440554 0.001779 0.154273
O O18 0.750000 0.007009 0.787228
O O19 0.901038 0.250000 0.798603
#
# Coordination Sequence:
#
# PCOD9449977 Si02
#       7
#     8   8   8   4   4   8   8
#     4   8  15  31  54  79 108 142 182 230 281 332
#     4  10  20  33  52  80 112 148 191 236 282 335
#     4   9  19  36  60  87 111 140 182 230 280 338
#     4   9  20  39  63  87 115 147 189 233 276 327
#     4  11  23  39  59  89 121 149 181 229 284 335
#     4  11  22  40  62  86 113 149 192 233 274 329
#     4  11  24  40  57  81 113 149 186 229 284 338
#
# _framework density 18.853449000000001
#
# number of rings (size 3 to 8) (size 9 to 14) (size 15 to 20)
#    0.000    2.167    0.833    3.250    1.167    3.000 
#    0.000    5.000    0.000    1.000    0.000    0.000 
#    0.000    0.000    0.000    0.000    0.000    0.000 
#
# Total GULP energy -267922.593214 kJ/mol
# GULP energy per Si atom -5581.720692 kJ/mol
# Density = 1.881054 g / cm^3
# Si number density = 18.853449 Si / 1000 Ang^3
#
#
#
# Elastic Constant Matrix: (Units=GPa)
#
#
# Indices 1 2 3 4 5 6 
#
# 1 195.7461 35.1134 107.8938 0.0000 0.0000 0.0000
# 2 35.1134 17.8328 30.2615 0.0000 0.0000 0.0000
# 3 107.8938 30.2615 133.2871 0.0000 0.0000 0.0000
# 4 0.0000 0.0000 0.0000 15.3157 0.0000 0.0000
# 5 0.0000 0.0000 0.0000 0.0000 42.3375 0.0000
# 6 0.0000 0.0000 0.0000 0.0000 0.0000 3.4529
#
#
#
# Elastic Compliance Matrix: (Units=1/GPa)
#
#
# Indices 1 2 3 4 5 6 
#
# 1 0.010191 -0.009870 -0.006009 0.000000 0.000000 0.000000
# 2 -0.009870 0.100782 -0.014892 0.000000 0.000000 0.000000
# 3 -0.006009 -0.014892 0.015747 0.000000 0.000000 0.000000
# 4 0.000000 0.000000 0.000000 0.065292 0.000000 0.000000
# 5 0.000000 0.000000 0.000000 0.000000 0.023620 0.000000
# 6 0.000000 0.000000 0.000000 0.000000 0.000000 0.289612
#
#
# Mechanical properties :
#
#
# Convention : Reuss Voigt Hill
#
# Bulk Modulus (GPa) = 15.34230 77.04481 46.19355
# Shear Modulus (GPa) = 8.49600 23.79437 16.14519
#
# Velocity S-wave (km/s) = 2.12512 3.55642 2.92952
# Velocity P-wave (km/s) = 3.76521 7.60381 5.99978
#
# Compressibility (1/GPa) = 0.06517929
#
# Stress axis : x y z
#
# Youngs Moduli (GPa) = 98.12478 9.92243 63.50231
#
# Poissons Ratio (x) = 0.09794 0.38156
# Poissons Ratio (y) = 0.96852 0.94565
# Poissons Ratio (z) = 0.58959 0.14776
#
# Static dielectric constant tensor:
#      x y z
#    x 1.899960 0.000000 0.000000 
#    y 0.000000 1.652250 0.000000 
#    z 0.000000 0.000000 1.631620 
# 
# From -- ./inp_files/32943.got.cif
#   From: 2010.05.17/outbox.cif.g08.bks.cpg/sg59_17_cif.got.tgz:32943.got - 2010.06.03 14:40:33.
