data_PCOD9449503
_publ_section_title
;
Structure prediction by ZEFSAII (Michael W. Deem and Ramdas Pophale) SiO2 
 PCOD9449503
Probable space group: P M M N
;
_chemical_formula_sum "Si O2"
_cell_formula_units_Z 40
_cell_length_a 8.608039
_cell_length_b 14.834602
_cell_length_c 17.241049
_cell_angle_alpha 90.000000
_cell_angle_beta 90.000000
_cell_angle_gamma 90.000000
_cell_volume 2201.627347
_symmetry_space_group_name_H-M "P M M N"
_symmetry_group_IT_number 59
_space_group.IT_coordinate_system_code '2'
_symmetry_cell_setting 'orthorhombic'
loop_
_space_group_symop_operation_xyz
x,y,z
1/2-x,1/2-y,z
1/2+x,-y,-z
-x,1/2+y,-z
-x,-y,-z
1/2+x,1/2+y,-z
1/2-x,y,z
x,1/2-y,z
loop_
_atom_site_type_symbol
_atom_site_label
_atom_site_fract_x
_atom_site_fract_y
_atom_site_fract_z
Si Si1 0.437058 0.896013 0.417053
Si Si2 0.062769 0.103333 0.417371
Si Si3 0.436665 0.750000 0.878327
Si Si4 0.064891 0.250000 0.881676
Si Si5 0.062418 0.250000 0.294539
Si Si6 0.061920 0.750000 0.291479
Si Si7 0.436916 0.601674 0.002799
O O1 0.250000 0.893446 0.421399
O O2 0.501489 0.863346 0.499630
O O3 0.483360 0.835565 0.344271
O O4 0.487509 0.999702 0.407836
O O5 0.250000 0.105573 0.420058
O O6 0.011966 0.164113 0.345534
O O7 0.250000 0.750000 0.875678
O O8 0.500677 0.750000 0.792075
O O9 0.484039 0.661436 0.927567
O O10 0.250000 0.250000 0.888624
O O11 0.013502 0.250000 0.792505
O O12 0.998003 0.338447 0.925303
O O13 0.250000 0.250000 0.291413
O O14 0.250000 0.750000 0.282760
O O15 0.250000 0.599208 0.006074
O O16 0.500000 0.500000 0.000000
#
# Coordination Sequence:
#
# PCOD9449503 Si02
#       7
#     8   8   4   4   4   4   8
#     4   9  18  32  50  71  97 134 177 218 266 319
#     4   9  18  32  48  70 100 133 173 219 263 311
#     4   9  21  38  55  81 113 139 173 220 265 318
#     4  11  23  38  57  85 115 145 185 226 271 330
#     4  10  20  32  49  74 104 137 172 213 262 313
#     4  10  20  34  51  74 106 139 174 221 272 319
#     4  10  21  40  63  85 111 144 180 223 276 330
#
# _framework density 18.168379000000002
#
# number of rings (size 3 to 8) (size 9 to 14) (size 15 to 20)
#    0.000    2.400    0.000    2.700    0.000    5.600 
#    0.000    2.000    0.000    0.000    0.000    0.000 
#    0.000    0.000    0.000    0.000    0.000    0.000 
#
# Total GULP energy -223199.964437 kJ/mol
# GULP energy per Si atom -5579.999111 kJ/mol
# Density = 1.812703 g / cm^3
# Si number density = 18.168379 Si / 1000 Ang^3
#
#
#
# Elastic Constant Matrix: (Units=GPa)
#
#
# Indices 1 2 3 4 5 6 
#
# 1 35.4500 41.5233 41.3363 0.0000 0.0000 0.0000
# 2 41.5233 155.9360 103.1243 0.0000 0.0000 0.0000
# 3 41.3363 103.1243 198.9189 0.0000 0.0000 0.0000
# 4 0.0000 0.0000 0.0000 56.0358 0.0000 0.0000
# 5 0.0000 0.0000 0.0000 0.0000 35.7230 0.0000
# 6 0.0000 0.0000 0.0000 0.0000 0.0000 13.5963
#
#
#
# Elastic Compliance Matrix: (Units=1/GPa)
#
#
# Indices 1 2 3 4 5 6 
#
# 1 0.043630 -0.008555 -0.004631 0.000000 0.000000 0.000000
# 2 -0.008555 0.011436 -0.004151 0.000000 0.000000 0.000000
# 3 -0.004631 -0.004151 0.008142 0.000000 0.000000 0.000000
# 4 0.000000 0.000000 0.000000 0.017846 0.000000 0.000000
# 5 0.000000 0.000000 0.000000 0.000000 0.027993 0.000000
# 6 0.000000 0.000000 0.000000 0.000000 0.000000 0.073549
#
#
# Mechanical properties :
#
#
# Convention : Reuss Voigt Hill
#
# Bulk Modulus (GPa) = 35.04755 84.69697 59.87226
# Shear Modulus (GPa) = 22.04767 34.69244 28.37005
#
# Velocity S-wave (km/s) = 3.48734 4.37452 3.95588
# Velocity P-wave (km/s) = 5.96219 8.49907 7.34104
#
# Compressibility (1/GPa) = 0.02853266
#
# Stress axis : x y z
#
# Youngs Moduli (GPa) = 22.92014 87.44234 122.82703
#
# Poissons Ratio (x) = 0.74808 0.56885
# Poissons Ratio (y) = 0.19608 0.50985
# Poissons Ratio (z) = 0.10615 0.36297
#
# Static dielectric constant tensor:
#      x y z
#    x 1.613890 0.000000 0.000000 
#    y 0.000000 1.636510 0.000000 
#    z 0.000000 0.000000 1.589550 
# 
# From -- ./inp_files/20044.got.cif
#   From: 2010.05.17/outbox.cif.g08.bks.cpg/sg59_11_cif.got.tgz:20044.got - 2010.06.03 14:40:33.
