data_PCOD9449121
_publ_section_title
;
Structure prediction by ZEFSAII (Michael W. Deem and Ramdas Pophale) SiO2 
 PCOD9449121
Probable space group: P M M N
;
_chemical_formula_sum "Si O2"
_cell_formula_units_Z 40
_cell_length_a 7.667172
_cell_length_b 9.789102
_cell_length_c 24.494705
_cell_angle_alpha 90.000000
_cell_angle_beta 90.000000
_cell_angle_gamma 90.000000
_cell_volume 1838.443440
_symmetry_space_group_name_H-M "P M M N"
_symmetry_group_IT_number 59
_space_group.IT_coordinate_system_code '2'
_symmetry_cell_setting 'orthorhombic'
loop_
_space_group_symop_operation_xyz
x,y,z
1/2-x,1/2-y,z
1/2+x,-y,-z
-x,1/2+y,-z
-x,-y,-z
1/2+x,1/2+y,-z
1/2-x,y,z
x,1/2-y,z
loop_
_atom_site_type_symbol
_atom_site_label
_atom_site_fract_x
_atom_site_fract_y
_atom_site_fract_z
Si Si1 0.954746 0.541464 0.628113
Si Si2 0.041603 0.595272 0.155578
Si Si3 0.463506 0.098401 0.250385
Si Si4 0.459377 0.250000 0.586138
Si Si5 0.542725 0.406762 0.052353
Si Si6 0.536786 0.750000 0.538619
O O1 0.750000 0.576180 0.630396
O O2 0.025882 0.581386 0.687328
O O3 0.022893 0.622003 0.575227
O O4 0.977591 0.383309 0.617075
O O5 0.250000 0.606869 0.161583
O O6 0.973749 0.750000 0.147267
O O7 0.974418 0.519951 0.210002
O O8 0.012320 0.493272 0.105204
O O9 0.250000 0.092737 0.251162
O O10 0.511412 0.250000 0.230330
O O11 0.250000 0.250000 0.585362
O O12 0.524757 0.250000 0.523476
O O13 0.750000 0.394931 0.054264
O O14 0.472174 0.250000 0.050106
O O15 0.500000 0.500000 0.000000
O O16 0.750000 0.750000 0.535199
#
# Coordination Sequence:
#
# PCOD9449121 Si02
#       6
#     8   8   8   4   8   4
#     4  10  19  35  59  82 104 141 191 237 281 338
#     4  10  21  36  58  90 122 149 184 234 289 342
#     4   9  17  32  57  85 110 140 186 240 287 332
#     4  11  23  35  49  77 117 149 178 227 290 347
#     4  11  24  41  62  89 121 158 199 238 277 327
#     4   9  18  35  57  81 107 139 186 239 284 337
#
# _framework density 21.757535000000001
#
# number of rings (size 3 to 8) (size 9 to 14) (size 15 to 20)
#    0.000    2.000    1.000    2.700    1.400    5.200 
#    0.000    2.500    0.000    1.200    0.000    0.000 
#    0.000    0.000    0.000    0.000    0.000    0.000 
#
# Total GULP energy -223400.376681 kJ/mol
# GULP energy per Si atom -5585.009417 kJ/mol
# Density = 2.170801 g / cm^3
# Si number density = 21.757535 Si / 1000 Ang^3
#
#
#
# Elastic Constant Matrix: (Units=GPa)
#
#
# Indices 1 2 3 4 5 6 
#
# 1 41.8543 0.5461 3.0714 0.0000 0.0000 0.0000
# 2 0.5461 197.2753 63.3262 0.0000 0.0000 0.0000
# 3 3.0714 63.3262 117.4753 0.0000 0.0000 0.0000
# 4 0.0000 0.0000 0.0000 41.8010 0.0000 0.0000
# 5 0.0000 0.0000 0.0000 0.0000 11.3559 0.0000
# 6 0.0000 0.0000 0.0000 0.0000 0.0000 -41.0218
#
#
#
# Elastic Compliance Matrix: (Units=1/GPa)
#
#
# Indices 1 2 3 4 5 6 
#
# 1 0.023943 0.000163 -0.000714 0.000000 0.000000 0.000000
# 2 0.000163 0.006131 -0.003309 0.000000 0.000000 0.000000
# 3 -0.000714 -0.003309 0.010315 0.000000 0.000000 0.000000
# 4 0.000000 0.000000 0.000000 0.023923 0.000000 0.000000
# 5 0.000000 0.000000 0.000000 0.000000 0.088060 0.000000
# 6 0.000000 0.000000 0.000000 0.000000 0.000000 -0.024377
#
#
# Mechanical properties :
#
#
# Convention : Reuss Voigt Hill
#
# Bulk Modulus (GPa) = 30.61073 54.49914 42.55493
# Shear Modulus (GPa) = 34.10565 21.73778 27.92171
#
# Velocity S-wave (km/s) = 3.96350 3.16427 3.58622
# Velocity P-wave (km/s) = 5.91991 6.20104 6.06211
#
# Compressibility (1/GPa) = 0.03266828
#
# Stress axis : x y z
#
# Youngs Moduli (GPa) = 41.76647 163.10924 96.94689
#
# Poissons Ratio (x) = -0.02656 0.06920
# Poissons Ratio (y) = -0.00680 0.32081
# Poissons Ratio (z) = 0.02981 0.53975
#
# Static dielectric constant tensor:
#      x y z
#    x 1.828620 0.000000 0.000000 
#    y 0.000000 1.793930 0.000000 
#    z 0.000000 0.000000 1.804850 
# 
# From -- ./inp_files/32411.got.cif
#   From: 2010.05.17/outbox.cif.g08.bks.cpg/sg59_17_cif.got.tgz:32411.got - 2010.06.03 14:40:33.
