data_PCOD9449376
_publ_section_title
;
Structure prediction by ZEFSAII (Michael W. Deem and Ramdas Pophale) SiO2 
 PCOD9449376
Probable space group: P M M N
;
_chemical_formula_sum "Si O2"
_cell_formula_units_Z 64
_cell_length_a 7.439850
_cell_length_b 24.672711
_cell_length_c 16.948563
_cell_angle_alpha 90.000000
_cell_angle_beta 90.000000
_cell_angle_gamma 90.000000
_cell_volume 3111.099731
_symmetry_space_group_name_H-M "P M M N"
_symmetry_group_IT_number 59
_space_group.IT_coordinate_system_code '2'
_symmetry_cell_setting 'orthorhombic'
loop_
_space_group_symop_operation_xyz
x,y,z
1/2-x,1/2-y,z
1/2+x,-y,-z
-x,1/2+y,-z
-x,-y,-z
1/2+x,1/2+y,-z
1/2-x,y,z
x,1/2-y,z
loop_
_atom_site_type_symbol
_atom_site_label
_atom_site_fract_x
_atom_site_fract_y
_atom_site_fract_z
Si Si1 0.543659 0.018529 0.790803
Si Si2 0.536333 0.919419 0.876326
Si Si3 0.029606 0.687084 0.446364
Si Si4 0.956765 0.315856 0.381256
Si Si5 0.034246 0.623376 0.293533
Si Si6 0.464525 0.310442 0.864720
Si Si7 0.466533 0.688637 0.791013
Si Si8 0.468927 0.416978 0.948480
O O1 0.750000 0.010942 0.764974
O O2 0.463358 0.064315 0.733279
O O3 0.539575 0.046316 0.877491
O O4 0.462246 0.959697 0.809018
O O5 0.750000 0.929130 0.879088
O O6 0.510647 0.857045 0.853902
O O7 0.467777 0.931640 0.964156
O O8 0.250000 0.686841 0.447913
O O9 0.977781 0.750000 0.432998
O O10 0.966489 0.668970 0.533451
O O11 0.969291 0.648985 0.375135
O O12 0.750000 0.335006 0.380917
O O13 0.953601 0.250000 0.382228
O O14 0.036113 0.329329 0.295845
O O15 0.250000 0.618617 0.299312
O O16 0.998992 0.664820 0.221843
O O17 0.250000 0.307315 0.873724
O O18 0.538353 0.250000 0.873119
O O19 0.526111 0.355668 0.926748
O O20 0.250000 0.691296 0.784929
O O21 0.528977 0.750000 0.808406
O O22 0.250000 0.419615 0.945864
#
# Coordination Sequence:
#
# PCOD9449376 Si02
#       8
#     8   8   8   8   8   8   8   8
#     4   9  18  31  45  64  90 116 144 182 224 258
#     4  10  20  32  47  66  87 114 147 180 218 265
#     4   8  12  19  37  65  89 109 138 174 210 250
#     4   7  11  22  40  62  87 110 134 171 214 251
#     4   9  16  26  42  64  88 113 143 178 211 247
#     4   9  17  28  40  56  83 115 141 170 213 259
#     4   9  18  32  49  69  90 110 137 177 222 262
#     4   9  18  31  46  63  82 112 154 189 214 249
#
# _framework density 20.571504000000001
#
# number of rings (size 3 to 8) (size 9 to 14) (size 15 to 20)
#    0.000    3.250    0.000    2.250    0.000    2.500 
#    0.000    1.250    0.000    1.500    0.000    1.750 
#    0.000    0.000    0.000    0.000    0.000    0.000 
#
# Total GULP energy -356624.258227 kJ/mol
# GULP energy per Si atom -5572.254035 kJ/mol
# Density = 2.052468 g / cm^3
# Si number density = 20.571504 Si / 1000 Ang^3
#
#
#
# Elastic Constant Matrix: (Units=GPa)
#
#
# Indices 1 2 3 4 5 6 
#
# 1 65.7074 -5.3811 -8.2687 0.0000 0.0000 0.0000
# 2 -5.3811 65.1809 -2.3791 0.0000 0.0000 0.0000
# 3 -8.2687 -2.3791 46.2028 0.0000 0.0000 0.0000
# 4 0.0000 0.0000 0.0000 -2.3858 0.0000 0.0000
# 5 0.0000 0.0000 0.0000 0.0000 -3.2667 0.0000
# 6 0.0000 0.0000 0.0000 0.0000 0.0000 4.7431
#
#
#
# Elastic Compliance Matrix: (Units=1/GPa)
#
#
# Indices 1 2 3 4 5 6 
#
# 1 0.015696 0.001401 0.002881 0.000000 0.000000 0.000000
# 2 0.001401 0.015496 0.001049 0.000000 0.000000 0.000000
# 3 0.002881 0.001049 0.022213 0.000000 0.000000 0.000000
# 4 0.000000 0.000000 0.000000 -0.419142 0.000000 0.000000
# 5 0.000000 0.000000 0.000000 0.000000 -0.306120 0.000000
# 6 0.000000 0.000000 0.000000 0.000000 0.000000 0.210832
#
#
# Mechanical properties :
#
#
# Convention : Reuss Voigt Hill
#
# Bulk Modulus (GPa) = 15.60859 16.11480 15.86170
# Shear Modulus (GPa) = -11.10294 12.69278 0.79492
#
# Velocity S-wave (km/s) = -2.32572 2.48666 0.62230
# Velocity P-wave (km/s) = 0.62611 4.01188 2.87117
#
# Compressibility (1/GPa) = 0.06406727
#
# Stress axis : x y z
#
# Youngs Moduli (GPa) = 63.70926 64.53335 45.01798
#
# Poissons Ratio (x) = -0.09041 -0.12971
# Poissons Ratio (y) = -0.08926 -0.04721
# Poissons Ratio (z) = -0.18356 -0.06767
#
# Static dielectric constant tensor:
#      x y z
#    x 1.793370 0.000000 0.000000 
#    y 0.000000 1.751590 0.000000 
#    z 0.000000 0.000000 1.738710 
# 
# From -- ./inp_files/26475.got.cif
#   From: 2010.05.17/outbox.cif.g08.bks.cpg/sg59_14_cif.got.tgz:26475.got - 2010.06.03 14:40:33.
