data_PCOD9449195
_publ_section_title
;
Structure prediction by ZEFSAII (Michael W. Deem and Ramdas Pophale) SiO2 
 PCOD9449195
Probable space group: P M M N
;
_chemical_formula_sum "Si O2"
_cell_formula_units_Z 64
_cell_length_a 29.842785
_cell_length_b 7.595251
_cell_length_c 12.838347
_cell_angle_alpha 90.000000
_cell_angle_beta 90.000000
_cell_angle_gamma 90.000000
_cell_volume 2909.983928
_symmetry_space_group_name_H-M "P M M N"
_symmetry_group_IT_number 59
_space_group.IT_coordinate_system_code '2'
_symmetry_cell_setting 'orthorhombic'
loop_
_space_group_symop_operation_xyz
x,y,z
1/2-x,1/2-y,z
1/2+x,-y,-z
-x,1/2+y,-z
-x,-y,-z
1/2+x,1/2+y,-z
1/2-x,y,z
x,1/2-y,z
loop_
_atom_site_type_symbol
_atom_site_label
_atom_site_fract_x
_atom_site_fract_y
_atom_site_fract_z
Si Si1 0.202343 0.957695 0.903433
Si Si2 0.894903 0.039710 0.158694
Si Si3 0.032028 0.453442 0.263237
Si Si4 0.574040 0.538045 0.936592
Si Si5 0.173319 0.463007 0.128894
Si Si6 0.443826 0.965435 0.632828
Si Si7 0.396743 0.957697 0.422951
Si Si8 0.700489 0.962484 0.640827
O O1 0.250000 0.032165 0.865936
O O2 0.202244 0.750000 0.878678
O O3 0.155077 0.032662 0.862983
O O4 0.200324 0.976865 0.028142
O O5 0.891169 0.250000 0.166635
O O6 0.915543 0.977455 0.266498
O O7 0.926160 0.007246 0.058088
O O8 0.018972 0.250000 0.247931
O O9 0.038125 0.530348 0.147417
O O10 0.079516 0.459163 0.322236
O O11 0.994278 0.526321 0.340830
O O12 0.573347 0.750000 0.930625
O O13 0.622563 0.477566 0.894032
O O14 0.173879 0.250000 0.129770
O O15 0.191527 0.522864 0.240142
O O16 0.442908 0.750000 0.626790
O O17 0.421668 0.027097 0.525853
O O18 0.404815 0.750000 0.414179
O O19 0.343448 0.985643 0.423702
O O20 0.750000 0.022688 0.606509
O O21 0.701166 0.750000 0.642166
#
# Coordination Sequence:
#
# PCOD9449195 Si02
#       8
#     8   8   8   8   8   8   8   8
#     4   9  17  28  45  71 100 132 170 210 255 307
#     4   9  18  34  52  72 104 140 175 216 265 318
#     4  10  19  36  59  79 105 141 179 219 272 329
#     4   9  17  30  51  78 106 134 168 212 263 316
#     4   9  16  29  48  72 101 133 167 203 249 308
#     4   9  20  37  56  77 103 142 184 223 268 321
#     4  11  22  36  55  81 111 138 178 229 271 311
#     4  10  20  35  55  78 106 144 182 212 260 326
#
# _framework density 21.99325
#
# number of rings (size 3 to 8) (size 9 to 14) (size 15 to 20)
#    0.000    2.500    1.250    1.125    0.000    2.500 
#    0.000    3.125    0.000    2.250    0.000    0.000 
#    0.000    0.000    0.000    0.000    0.000    0.000 
#
# Total GULP energy -357126.508778 kJ/mol
# GULP energy per Si atom -5580.101700 kJ/mol
# Density = 2.194319 g / cm^3
# Si number density = 21.993250 Si / 1000 Ang^3
#
#
#
# Elastic Constant Matrix: (Units=GPa)
#
#
# Indices 1 2 3 4 5 6 
#
# 1 88.2703 -6.9291 12.5763 0.0000 0.0000 0.0000
# 2 -6.9291 47.2542 -9.5008 0.0000 0.0000 0.0000
# 3 12.5763 -9.5008 71.3640 0.0000 0.0000 0.0000
# 4 0.0000 0.0000 0.0000 16.1120 0.0000 0.0000
# 5 0.0000 0.0000 0.0000 0.0000 14.4989 0.0000
# 6 0.0000 0.0000 0.0000 0.0000 0.0000 13.3545
#
#
#
# Elastic Compliance Matrix: (Units=1/GPa)
#
#
# Indices 1 2 3 4 5 6 
#
# 1 0.011702 0.001337 -0.001884 0.000000 0.000000 0.000000
# 2 0.001337 0.021897 0.002680 0.000000 0.000000 0.000000
# 3 -0.001884 0.002680 0.014701 0.000000 0.000000 0.000000
# 4 0.000000 0.000000 0.000000 0.062065 0.000000 0.000000
# 5 0.000000 0.000000 0.000000 0.000000 0.068971 0.000000
# 6 0.000000 0.000000 0.000000 0.000000 0.000000 0.074881
#
#
# Mechanical properties :
#
#
# Convention : Reuss Voigt Hill
#
# Bulk Modulus (GPa) = 19.02390 22.13126 20.57758
# Shear Modulus (GPa) = 18.69335 22.84256 20.76796
#
# Velocity S-wave (km/s) = 2.91857 3.22625 3.07626
# Velocity P-wave (km/s) = 4.47505 4.89519 4.68983
#
# Compressibility (1/GPa) = 0.05256545
#
# Stress axis : x y z
#
# Youngs Moduli (GPa) = 85.45357 45.66844 68.02049
#
# Poissons Ratio (x) = -0.06106 0.12817
# Poissons Ratio (y) = -0.11426 -0.18226
# Poissons Ratio (z) = 0.16102 -0.12237
#
# Static dielectric constant tensor:
#      x y z
#    x 1.868170 0.000000 0.000000 
#    y 0.000000 1.826400 0.000000 
#    z 0.000000 0.000000 1.781260 
# 
# From -- ./inp_files/15050.got.cif
#   From: 2010.05.17/outbox.cif.g08.bks.cpg/sg59_8_cif.got.tgz:15050.got - 2010.06.03 14:40:33.
