data_PCOD9449522
_publ_section_title
;
Structure prediction by ZEFSAII (Michael W. Deem and Ramdas Pophale) SiO2 
 PCOD9449522
Probable space group: P M M N
;
_chemical_formula_sum "Si O2"
_cell_formula_units_Z 64
_cell_length_a 7.500060
_cell_length_b 25.541813
_cell_length_c 15.827426
_cell_angle_alpha 90.000000
_cell_angle_beta 90.000000
_cell_angle_gamma 90.000000
_cell_volume 3031.982919
_symmetry_space_group_name_H-M "P M M N"
_symmetry_group_IT_number 59
_space_group.IT_coordinate_system_code '2'
_symmetry_cell_setting 'orthorhombic'
loop_
_space_group_symop_operation_xyz
x,y,z
1/2-x,1/2-y,z
1/2+x,-y,-z
-x,1/2+y,-z
-x,-y,-z
1/2+x,1/2+y,-z
1/2-x,y,z
x,1/2-y,z
loop_
_atom_site_type_symbol
_atom_site_label
_atom_site_fract_x
_atom_site_fract_y
_atom_site_fract_z
Si Si1 0.031619 0.886330 0.767502
Si Si2 0.038215 0.961397 0.074718
Si Si3 0.466911 0.809867 0.616727
Si Si4 0.048550 0.154850 0.909288
Si Si5 0.950772 0.997133 0.256015
Si Si6 0.039711 0.117360 0.729654
Si Si7 0.041133 0.807434 0.909585
Si Si8 0.965182 0.309894 0.572529
O O1 0.250000 0.891062 0.771784
O O2 0.979720 0.848000 0.691357
O O3 0.966957 0.944797 0.743569
O O4 0.972629 0.856861 0.854160
O O5 0.250000 0.955959 0.088502
O O6 0.958468 0.904718 0.058340
O O7 0.947525 0.984944 0.156790
O O8 0.000000 0.000000 0.000000
O O9 0.250000 0.809681 0.616796
O O10 0.523673 0.750000 0.631298
O O11 0.523422 0.825596 0.521984
O O12 0.250000 0.174466 0.898873
O O13 0.968576 0.147115 0.814292
O O14 0.969994 0.185574 0.988994
O O15 0.750000 0.000966 0.292386
O O16 0.033252 0.941576 0.286966
O O17 0.250000 0.109494 0.748275
O O18 0.022438 0.152614 0.647564
O O19 0.250000 0.805435 0.887849
O O20 0.964634 0.750000 0.887194
O O21 0.750000 0.309671 0.572338
O O22 0.024135 0.250000 0.587135
#
# Coordination Sequence:
#
# PCOD9449522 Si02
#       8
#     8   8   8   8   8   8   8   8
#     4   9  16  29  51  74 100 135 169 205 250 299
#     4  11  20  31  49  71  96 128 166 209 253 295
#     4   8  14  27  49  77 103 126 161 209 254 297
#     4  10  21  36  51  69  96 133 173 209 251 301
#     4   9  18  32  49  72 100 132 173 211 246 298
#     4   9  19  34  50  70  99 133 168 208 252 301
#     4  10  20  32  49  77 107 134 169 212 258 310
#     4   9  18  32  52  77 100 124 161 209 256 303
#
# _framework density 21.1083
#
# number of rings (size 3 to 8) (size 9 to 14) (size 15 to 20)
#    0.000    2.625    0.000    4.125    0.000    6.000 
#    0.000    3.125    0.000    1.500    0.000    1.750 
#    0.000    0.000    0.000    0.000    0.000    0.000 
#
# Total GULP energy -356541.099468 kJ/mol
# GULP energy per Si atom -5570.954679 kJ/mol
# Density = 2.106026 g / cm^3
# Si number density = 21.108300 Si / 1000 Ang^3
#
#
#
# Elastic Constant Matrix: (Units=GPa)
#
#
# Indices 1 2 3 4 5 6 
#
# 1 66.1176 -3.1020 -0.2888 0.0000 0.0000 0.0000
# 2 -3.1020 114.3834 77.6595 0.0000 0.0000 0.0000
# 3 -0.2888 77.6595 104.2448 0.0000 0.0000 0.0000
# 4 0.0000 0.0000 0.0000 35.3402 0.0000 0.0000
# 5 0.0000 0.0000 0.0000 0.0000 4.0617 0.0000
# 6 0.0000 0.0000 0.0000 0.0000 0.0000 -15.6800
#
#
#
# Elastic Compliance Matrix: (Units=1/GPa)
#
#
# Indices 1 2 3 4 5 6 
#
# 1 0.015159 0.000774 -0.000535 0.000000 0.000000 0.000000
# 2 0.000774 0.017729 -0.013206 0.000000 0.000000 0.000000
# 3 -0.000535 -0.013206 0.019429 0.000000 0.000000 0.000000
# 4 0.000000 0.000000 0.000000 0.028296 0.000000 0.000000
# 5 0.000000 0.000000 0.000000 0.000000 0.246200 0.000000
# 6 0.000000 0.000000 0.000000 0.000000 0.000000 -0.063775
#
#
# Mechanical properties :
#
#
# Convention : Reuss Voigt Hill
#
# Bulk Modulus (GPa) = 37.90101 48.14256 43.02179
# Shear Modulus (GPa) = 16.79169 18.77619 17.78394
#
# Velocity S-wave (km/s) = 2.82352 2.98571 2.90575
# Velocity P-wave (km/s) = 5.35016 5.89431 5.62881
#
# Compressibility (1/GPa) = 0.02638452
#
# Stress axis : x y z
#
# Youngs Moduli (GPa) = 65.96935 56.40317 51.46861
#
# Poissons Ratio (x) = -0.04366 0.02752
# Poissons Ratio (y) = -0.05107 0.67969
# Poissons Ratio (z) = 0.03527 0.74485
#
# Static dielectric constant tensor:
#      x y z
#    x 1.838490 0.000000 0.000000 
#    y 0.000000 1.772770 0.000000 
#    z 0.000000 0.000000 1.716410 
# 
# From -- ./inp_files/21565.got.cif
#   From: 2010.05.17/outbox.cif.g08.bks.cpg/sg59_11_cif.got.tgz:21565.got - 2010.06.03 14:40:33.
