data_PCOD9449899
_publ_section_title
;
Structure prediction by ZEFSAII (Michael W. Deem and Ramdas Pophale) SiO2 
 PCOD9449899
Probable space group: P M M N
;
_chemical_formula_sum "Si O2"
_cell_formula_units_Z 64
_cell_length_a 7.872858
_cell_length_b 21.330379
_cell_length_c 17.055642
_cell_angle_alpha 90.000000
_cell_angle_beta 90.000000
_cell_angle_gamma 90.000000
_cell_volume 2864.171783
_symmetry_space_group_name_H-M "P M M N"
_symmetry_group_IT_number 59
_space_group.IT_coordinate_system_code '2'
_symmetry_cell_setting 'orthorhombic'
loop_
_space_group_symop_operation_xyz
x,y,z
1/2-x,1/2-y,z
1/2+x,-y,-z
-x,1/2+y,-z
-x,-y,-z
1/2+x,1/2+y,-z
1/2-x,y,z
x,1/2-y,z
loop_
_atom_site_type_symbol
_atom_site_label
_atom_site_fract_x
_atom_site_fract_y
_atom_site_fract_z
Si Si1 0.456502 0.989465 0.315833
Si Si2 0.458937 0.317776 0.558491
Si Si3 0.553684 0.179754 0.325576
Si Si4 0.044284 0.179521 0.901140
Si Si5 0.448993 0.350086 0.727083
Si Si6 0.055862 0.421583 0.445582
Si Si7 0.552312 0.900669 0.802866
Si Si8 0.949458 0.070750 0.022885
O O1 0.250000 0.985367 0.318719
O O2 0.516758 0.017868 0.399982
O O3 0.503280 0.038468 0.247169
O O4 0.531289 0.923426 0.291342
O O5 0.250000 0.320694 0.556155
O O6 0.507074 0.250000 0.523012
O O7 0.517320 0.318685 0.648322
O O8 0.522787 0.380838 0.515827
O O9 0.750000 0.175800 0.351151
O O10 0.491215 0.250000 0.334076
O O11 0.447974 0.130937 0.376839
O O12 0.543487 0.157492 0.235763
O O13 0.250000 0.178782 0.899846
O O14 0.991464 0.250000 0.925908
O O15 0.980714 0.167343 0.812158
O O16 0.991416 0.122697 0.957300
O O17 0.250000 0.333294 0.730168
O O18 0.250000 0.436979 0.466079
O O19 0.750000 0.891082 0.786322
O O20 0.530901 0.910897 0.894401
O O21 0.750000 0.070865 0.035100
O O22 0.000000 0.000000 0.000000
#
# Coordination Sequence:
#
# PCOD9449899 Si02
#       8
#     8   8   8   8   8   8   8   8
#     4   9  19  34  52  78 111 144 180 224 275 335
#     4   9  17  31  53  79 105 137 184 238 283 329
#     4  10  20  33  51  78 112 146 180 222 273 330
#     4  10  22  41  63  87 118 156 199 249 305 362
#     4  10  20  34  56  83 108 141 187 236 287 344
#     4   9  18  33  53  76 105 145 190 231 275 331
#     4  10  21  38  59  82 109 143 184 227 275 334
#     4  12  25  41  63  90 120 153 194 242 293 352
#
# _framework density 22.345029
#
# number of rings (size 3 to 8) (size 9 to 14) (size 15 to 20)
#    0.000    2.125    0.000    4.125    0.000    9.250 
#    0.000    0.625    0.000    1.875    0.000    0.000 
#    0.000    0.000    0.000    0.000    0.000    0.000 
#
# Total GULP energy -357375.623448 kJ/mol
# GULP energy per Si atom -5583.994116 kJ/mol
# Density = 2.229417 g / cm^3
# Si number density = 22.345029 Si / 1000 Ang^3
#
#
#
# Elastic Constant Matrix: (Units=GPa)
#
#
# Indices 1 2 3 4 5 6 
#
# 1 39.0222 -0.3837 -3.6342 0.0000 0.0000 0.0000
# 2 -0.3837 128.7373 36.4650 0.0000 0.0000 0.0000
# 3 -3.6342 36.4650 116.6909 0.0000 0.0000 0.0000
# 4 0.0000 0.0000 0.0000 12.3722 0.0000 0.0000
# 5 0.0000 0.0000 0.0000 0.0000 2.9905 0.0000
# 6 0.0000 0.0000 0.0000 0.0000 0.0000 18.3917
#
#
#
# Elastic Compliance Matrix: (Units=1/GPa)
#
#
# Indices 1 2 3 4 5 6 
#
# 1 0.025704 -0.000165 0.000852 0.000000 0.000000 0.000000
# 2 -0.000165 0.008523 -0.002669 0.000000 0.000000 0.000000
# 3 0.000852 -0.002669 0.009430 0.000000 0.000000 0.000000
# 4 0.000000 0.000000 0.000000 0.080826 0.000000 0.000000
# 5 0.000000 0.000000 0.000000 0.000000 0.334389 0.000000
# 6 0.000000 0.000000 0.000000 0.000000 0.000000 0.054372
#
#
# Mechanical properties :
#
#
# Convention : Reuss Voigt Hill
#
# Bulk Modulus (GPa) = 25.19217 38.81606 32.00412
# Shear Modulus (GPa) = 9.42616 23.55112 16.48864
#
# Velocity S-wave (km/s) = 2.05612 3.25002 2.71940
# Velocity P-wave (km/s) = 4.11527 5.61181 4.92077
#
# Compressibility (1/GPa) = 0.03969487
#
# Stress axis : x y z
#
# Youngs Moduli (GPa) = 38.90420 117.32776 106.04360
#
# Poissons Ratio (x) = 0.01932 -0.09035
# Poissons Ratio (y) = 0.00641 0.28298
# Poissons Ratio (z) = -0.03315 0.31309
#
# Static dielectric constant tensor:
#      x y z
#    x 1.820230 0.000000 0.000000 
#    y 0.000000 1.838890 0.000000 
#    z 0.000000 0.000000 1.821280 
# 
# From -- ./inp_files/26343.got.cif
#   From: 2010.05.17/outbox.cif.g08.bks.cpg/sg59_14_cif.got.tgz:26343.got - 2010.06.03 14:40:33.
