data_PCOD9449031
_publ_section_title
;
Structure prediction by ZEFSAII (Michael W. Deem and Ramdas Pophale) SiO2 
 PCOD9449031
Probable space group: P M M N
;
_chemical_formula_sum "Si O2"
_cell_formula_units_Z 64
_cell_length_a 14.863007
_cell_length_b 17.541415
_cell_length_c 12.227748
_cell_angle_alpha 90.000000
_cell_angle_beta 90.000000
_cell_angle_gamma 90.000000
_cell_volume 3187.996130
_symmetry_space_group_name_H-M "P M M N"
_symmetry_group_IT_number 59
_space_group.IT_coordinate_system_code '2'
_symmetry_cell_setting 'orthorhombic'
loop_
_space_group_symop_operation_xyz
x,y,z
1/2-x,1/2-y,z
1/2+x,-y,-z
-x,1/2+y,-z
-x,-y,-z
1/2+x,1/2+y,-z
1/2-x,y,z
x,1/2-y,z
loop_
_atom_site_type_symbol
_atom_site_label
_atom_site_fract_x
_atom_site_fract_y
_atom_site_fract_z
Si Si1 0.040230 0.097557 0.492047
Si Si2 0.144332 0.665321 0.242066
Si Si3 0.556082 0.485002 0.675277
Si Si4 0.923820 0.541662 0.146113
Si Si5 0.015484 0.833242 0.028701
Si Si6 0.348425 0.618137 0.852789
Si Si7 0.643522 0.666401 0.320489
Si Si8 0.149339 0.658572 0.597076
O O1 0.098193 0.157127 0.560899
O O2 0.023024 0.036488 0.589507
O O3 0.941785 0.128174 0.458154
O O4 0.090548 0.059639 0.388046
O O5 0.250000 0.660810 0.216932
O O6 0.128501 0.750000 0.293938
O O7 0.116250 0.590898 0.311456
O O8 0.083596 0.663281 0.132979
O O9 0.509894 0.496484 0.792333
O O10 0.858133 0.472086 0.124531
O O11 0.886984 0.603403 0.233032
O O12 0.953106 0.593035 0.044235
O O13 0.970845 0.750000 0.030411
O O14 0.074596 0.841108 0.920693
O O15 0.250000 0.645421 0.888370
O O16 0.355486 0.632488 0.723503
O O17 0.750000 0.660980 0.332519
O O18 0.618240 0.750000 0.277303
O O19 0.250000 0.633998 0.555326
O O20 0.148131 0.750000 0.592296
#
# Coordination Sequence:
#
# PCOD9449031 Si02
#       8
#     8   8   8   8   8   8   8   8
#     4  10  19  35  52  75 107 144 182 234 280 326
#     4   9  18  32  50  75 107 141 177 222 278 334
#     4   9  19  32  50  73 102 136 182 222 271 332
#     4  10  19  36  55  78 108 140 180 227 278 329
#     4  10  20  34  55  80 108 143 180 225 278 333
#     4  11  21  34  54  81 112 145 183 228 278 337
#     4  10  21  36  57  83 108 142 189 235 281 331
#     4  10  21  35  53  79 111 150 191 230 279 340
#
# _framework density 20.075305
#
# number of rings (size 3 to 8) (size 9 to 14) (size 15 to 20)
#    0.000    2.125    1.250    2.250    0.000    5.750 
#    0.000    1.250    0.000    0.000    0.000    0.000 
#    0.000    4.000    0.000    0.000    0.000    0.000 
#
# Total GULP energy -356637.042261 kJ/mol
# GULP energy per Si atom -5572.453785 kJ/mol
# Density = 2.002961 g / cm^3
# Si number density = 20.075305 Si / 1000 Ang^3
#
#
#
# Elastic Constant Matrix: (Units=GPa)
#
#
# Indices 1 2 3 4 5 6 
#
# 1 50.5203 15.3801 14.7416 0.0000 0.0000 0.0000
# 2 15.3801 73.7983 7.7498 0.0000 0.0000 0.0000
# 3 14.7416 7.7498 39.1501 0.0000 0.0000 0.0000
# 4 0.0000 0.0000 0.0000 28.7645 0.0000 0.0000
# 5 0.0000 0.0000 0.0000 0.0000 22.2853 0.0000
# 6 0.0000 0.0000 0.0000 0.0000 0.0000 22.7590
#
#
#
# Elastic Compliance Matrix: (Units=1/GPa)
#
#
# Indices 1 2 3 4 5 6 
#
# 1 0.023353 -0.004027 -0.007996 0.000000 0.000000 0.000000
# 2 -0.004027 0.014533 -0.001360 0.000000 0.000000 0.000000
# 3 -0.007996 -0.001360 0.028823 0.000000 0.000000 0.000000
# 4 0.000000 0.000000 0.000000 0.034765 0.000000 0.000000
# 5 0.000000 0.000000 0.000000 0.000000 0.044873 0.000000
# 6 0.000000 0.000000 0.000000 0.000000 0.000000 0.043939
#
#
# Mechanical properties :
#
#
# Convention : Reuss Voigt Hill
#
# Bulk Modulus (GPa) = 25.03686 26.57908 25.80797
# Shear Modulus (GPa) = 21.70453 23.13490 22.41972
#
# Velocity S-wave (km/s) = 3.29166 3.39839 3.34545
# Velocity P-wave (km/s) = 5.19088 5.35418 5.27316
#
# Compressibility (1/GPa) = 0.03994111
#
# Stress axis : x y z
#
# Youngs Moduli (GPa) = 42.82039 68.81068 34.69462
#
# Poissons Ratio (x) = 0.27712 0.27743
# Poissons Ratio (y) = 0.17245 0.04720
# Poissons Ratio (z) = 0.34240 0.09360
#
# Static dielectric constant tensor:
#      x y z
#    x 1.733860 0.000000 0.000000 
#    y 0.000000 1.798250 0.000000 
#    z 0.000000 0.000000 1.734090 
# 
# From -- ./inp_files/17231.got.cif
#   From: 2010.05.17/outbox.cif.g08.bks.cpg/sg59_9_cif.got.tgz:17231.got - 2010.06.03 14:40:33.
