data_PCOD9449221
_publ_section_title
;
Structure prediction by ZEFSAII (Michael W. Deem and Ramdas Pophale) SiO2 
 PCOD9449221
Probable space group: P M M N
;
_chemical_formula_sum "Si O2"
_cell_formula_units_Z 56
_cell_length_a 7.987884
_cell_length_b 22.101758
_cell_length_c 15.396645
_cell_angle_alpha 90.000000
_cell_angle_beta 90.000000
_cell_angle_gamma 90.000000
_cell_volume 2718.220385
_symmetry_space_group_name_H-M "P M M N"
_symmetry_group_IT_number 59
_space_group.IT_coordinate_system_code '2'
_symmetry_cell_setting 'orthorhombic'
loop_
_space_group_symop_operation_xyz
x,y,z
1/2-x,1/2-y,z
1/2+x,-y,-z
-x,1/2+y,-z
-x,-y,-z
1/2+x,1/2+y,-z
1/2-x,y,z
x,1/2-y,z
loop_
_atom_site_type_symbol
_atom_site_label
_atom_site_fract_x
_atom_site_fract_y
_atom_site_fract_z
Si Si1 0.941724 0.750000 0.681177
Si Si2 0.950812 0.319596 0.870860
Si Si3 0.444321 0.063418 0.539902
Si Si4 0.557632 0.750000 0.887741
Si Si5 0.547230 0.912365 0.267615
Si Si6 0.054451 0.622725 0.957766
Si Si7 0.545064 0.457002 0.201525
Si Si8 0.056227 0.620171 0.631147
O O1 0.750000 0.750000 0.648224
O O2 0.934639 0.750000 0.784719
O O3 0.035067 0.689756 0.653697
O O4 0.750000 0.316486 0.882835
O O5 0.012983 0.250000 0.877480
O O6 0.987001 0.352229 0.780389
O O7 0.018956 0.364500 0.946540
O O8 0.250000 0.057090 0.557517
O O9 0.518224 0.080748 0.633509
O O10 0.472285 0.109055 0.461239
O O11 0.500000 0.000000 0.500000
O O12 0.750000 0.750000 0.920982
O O13 0.464133 0.810581 0.916391
O O14 0.750000 0.910715 0.267083
O O15 0.496420 0.973416 0.215867
O O16 0.250000 0.606871 0.967981
O O17 0.984188 0.574963 0.887465
O O18 0.750000 0.453787 0.200592
O O19 0.489747 0.419212 0.287168
O O20 0.250000 0.602969 0.621221
#
# Coordination Sequence:
#
# PCOD9449221 Si02
#       8
#     4   8   8   4   8   8   8   8
#     4  11  23  37  53  86 129 160 195 249 304 356
#     4  10  22  40  61  86 115 154 205 250 287 338
#     4  11  22  39  63  89 118 155 197 248 303 362
#     4  11  21  31  51  86 121 152 195 243 286 340
#     4  10  22  41  61  86 118 153 193 241 299 356
#     4  10  19  36  61  84 115 158 196 236 290 350
#     4   9  18  34  59  89 119 151 192 235 287 361
#     4  11  21  37  61  88 119 160 203 244 300 365
#
# _framework density 20.601716
#
# number of rings (size 3 to 8) (size 9 to 14) (size 15 to 20)
#    0.000    1.714    3.571    1.286    0.000    3.143 
#    1.286    0.714    0.000    0.000    0.000    0.000 
#    0.000    0.000    0.000    0.000    0.000    0.000 
#
# Total GULP energy -312469.467562 kJ/mol
# GULP energy per Si atom -5579.811921 kJ/mol
# Density = 2.055483 g / cm^3
# Si number density = 20.601716 Si / 1000 Ang^3
#
#
#
# Elastic Constant Matrix: (Units=GPa)
#
#
# Indices 1 2 3 4 5 6 
#
# 1 18.7376 -4.6119 6.2228 0.0000 0.0000 0.0000
# 2 -4.6119 72.4197 45.7604 0.0000 0.0000 0.0000
# 3 6.2228 45.7604 144.9885 0.0000 0.0000 0.0000
# 4 0.0000 0.0000 0.0000 21.1336 0.0000 0.0000
# 5 0.0000 0.0000 0.0000 0.0000 19.9242 0.0000
# 6 0.0000 0.0000 0.0000 0.0000 0.0000 19.3416
#
#
#
# Elastic Compliance Matrix: (Units=1/GPa)
#
#
# Indices 1 2 3 4 5 6 
#
# 1 0.056419 0.006399 -0.004441 0.000000 0.000000 0.000000
# 2 0.006399 0.017974 -0.005947 0.000000 0.000000 0.000000
# 3 -0.004441 -0.005947 0.008965 0.000000 0.000000 0.000000
# 4 0.000000 0.000000 0.000000 0.047318 0.000000 0.000000
# 5 0.000000 0.000000 0.000000 0.000000 0.050190 0.000000
# 6 0.000000 0.000000 0.000000 0.000000 0.000000 0.051702
#
#
# Mechanical properties :
#
#
# Convention : Reuss Voigt Hill
#
# Bulk Modulus (GPa) = 13.26636 36.76537 25.01586
# Shear Modulus (GPa) = 18.82015 24.66486 21.74250
#
# Velocity S-wave (km/s) = 3.02573 3.46385 3.25218
# Velocity P-wave (km/s) = 4.31974 5.82084 5.12554
#
# Compressibility (1/GPa) = 0.07537863
#
# Stress axis : x y z
#
# Youngs Moduli (GPa) = 17.72462 55.63596 111.54718
#
# Poissons Ratio (x) = -0.35602 0.49539
# Poissons Ratio (y) = -0.11342 0.66343
# Poissons Ratio (z) = 0.07872 0.33089
#
# Static dielectric constant tensor:
#      x y z
#    x 1.790510 0.000000 0.000000 
#    y 0.000000 1.763320 0.000000 
#    z 0.000000 0.000000 1.155410 
# 
# From -- ./inp_files/21107.got.cif
#   From: 2010.05.17/outbox.cif.g08.bks.cpg/sg59_11_cif.got.tgz:21107.got - 2010.06.03 14:40:33.
