data_PCOD9449648
_publ_section_title
;
Structure prediction by ZEFSAII (Michael W. Deem and Ramdas Pophale) SiO2 
 PCOD9449648
Probable space group: P M M N
;
_chemical_formula_sum "Si O2"
_cell_formula_units_Z 56
_cell_length_a 9.411056
_cell_length_b 14.293791
_cell_length_c 18.507473
_cell_angle_alpha 90.000000
_cell_angle_beta 90.000000
_cell_angle_gamma 90.000000
_cell_volume 2489.619115
_symmetry_space_group_name_H-M "P M M N"
_symmetry_group_IT_number 59
_space_group.IT_coordinate_system_code '2'
_symmetry_cell_setting 'orthorhombic'
loop_
_space_group_symop_operation_xyz
x,y,z
1/2-x,1/2-y,z
1/2+x,-y,-z
-x,1/2+y,-z
-x,-y,-z
1/2+x,1/2+y,-z
1/2-x,y,z
x,1/2-y,z
loop_
_atom_site_type_symbol
_atom_site_label
_atom_site_fract_x
_atom_site_fract_y
_atom_site_fract_z
Si Si1 0.589123 0.615902 0.555538
Si Si2 0.913057 0.364346 0.024197
Si Si3 0.412992 0.863113 0.257652
Si Si4 0.591046 0.140743 0.301499
Si Si5 0.411676 0.895155 0.420772
Si Si6 0.587446 0.635369 0.833920
Si Si7 0.412836 0.135504 0.882618
O O1 0.750000 0.650177 0.565120
O O2 0.485473 0.639045 0.621518
O O3 0.598864 0.503737 0.558746
O O4 0.517690 0.645408 0.480290
O O5 0.750000 0.395937 0.022197
O O6 0.910653 0.250000 0.023754
O O7 0.000112 0.393579 0.953462
O O8 0.993337 0.391951 0.097342
O O9 0.250000 0.896413 0.249970
O O10 0.409602 0.750000 0.255119
O O11 0.463251 0.888306 0.338265
O O12 0.508971 0.893800 0.190823
O O13 0.750000 0.099054 0.303272
O O14 0.607236 0.250000 0.282642
O O15 0.487116 0.102205 0.239843
O O16 0.250000 0.856730 0.423715
O O17 0.750000 0.603586 0.839749
O O18 0.592102 0.750000 0.833241
O O19 0.250000 0.104186 0.885006
O O20 0.411583 0.250000 0.883113
#
# Coordination Sequence:
#
# PCOD9449648 Si02
#       7
#     8   8   8   8   8   8   8
#     4  10  20  34  52  72  95 124 159 199 239 282
#     4   9  15  23  37  58  87 124 161 192 227 274
#     4   9  17  30  48  69  94 124 157 193 234 280
#     4  10  20  33  49  70  97 127 159 197 241 288
#     4   9  19  35  52  71  96 126 160 196 236 285
#     4   9  16  26  41  63  92 123 155 193 236 279
#     4   9  16  25  38  60  91 123 155 193 235 275
#
# _framework density 22.493400999999999
#
# number of rings (size 3 to 8) (size 9 to 14) (size 15 to 20)
#    0.000    2.714    0.000    2.143    0.000    7.714 
#    0.000    1.429    0.000    0.000    0.000    1.000 
#    0.000    0.000    0.000    0.000    0.000    0.000 
#
# Total GULP energy -312991.270868 kJ/mol
# GULP energy per Si atom -5589.129837 kJ/mol
# Density = 2.244220 g / cm^3
# Si number density = 22.493401 Si / 1000 Ang^3
#
#
#
# Elastic Constant Matrix: (Units=GPa)
#
#
# Indices 1 2 3 4 5 6 
#
# 1 214.4695 -5.7281 137.8483 0.0000 0.0000 0.0000
# 2 -5.7281 59.3678 -8.9456 0.0000 0.0000 0.0000
# 3 137.8483 -8.9456 223.6611 0.0000 0.0000 0.0000
# 4 0.0000 0.0000 0.0000 22.2149 0.0000 0.0000
# 5 0.0000 0.0000 0.0000 0.0000 39.6251 0.0000
# 6 0.0000 0.0000 0.0000 0.0000 0.0000 0.1620
#
#
#
# Elastic Compliance Matrix: (Units=1/GPa)
#
#
# Indices 1 2 3 4 5 6 
#
# 1 0.007721 0.000028 -0.004758 0.000000 0.000000 0.000000
# 2 0.000028 0.016946 0.000660 0.000000 0.000000 0.000000
# 3 -0.004758 0.000660 0.007430 0.000000 0.000000 0.000000
# 4 0.000000 0.000000 0.000000 0.045015 0.000000 0.000000
# 5 0.000000 0.000000 0.000000 0.000000 0.025237 0.000000
# 6 0.000000 0.000000 0.000000 0.000000 0.000000 6.172023
#
#
# Mechanical properties :
#
#
# Convention : Reuss Voigt Hill
#
# Bulk Modulus (GPa) = 41.73763 82.64973 62.19368
# Shear Modulus (GPa) = 0.79485 37.35532 19.07509
#
# Velocity S-wave (km/s) = 0.59509 4.07962 2.91526
# Velocity P-wave (km/s) = 4.36669 7.68211 6.24831
#
# Compressibility (1/GPa) = 0.02395919
#
# Stress axis : x y z
#
# Youngs Moduli (GPa) = 129.50921 59.00962 134.59252
#
# Poissons Ratio (x) = -0.00166 0.64037
# Poissons Ratio (y) = -0.00364 -0.08890
# Poissons Ratio (z) = 0.61618 -0.03897
#
# Static dielectric constant tensor:
#      x y z
#    x 1.793240 0.000000 0.000000 
#    y 0.000000 1.897830 0.000000 
#    z 0.000000 0.000000 1.770880 
# 
# From -- ./inp_files/25999.got.cif
#   From: 2010.05.17/outbox.cif.g08.bks.cpg/sg59_13_cif.got.tgz:25999.got - 2010.06.03 14:40:33.
