data_PCOD9449256
_publ_section_title
;
Structure prediction by ZEFSAII (Michael W. Deem and Ramdas Pophale) SiO2 
 PCOD9449256
Probable space group: P M M N
;
_chemical_formula_sum "Si O2"
_cell_formula_units_Z 48
_cell_length_a 17.190553
_cell_length_b 15.519179
_cell_length_c 9.367455
_cell_angle_alpha 90.000000
_cell_angle_beta 90.000000
_cell_angle_gamma 90.000000
_cell_volume 2499.080268
_symmetry_space_group_name_H-M "P M M N"
_symmetry_group_IT_number 59
_space_group.IT_coordinate_system_code '2'
_symmetry_cell_setting 'orthorhombic'
loop_
_space_group_symop_operation_xyz
x,y,z
1/2-x,1/2-y,z
1/2+x,-y,-z
-x,1/2+y,-z
-x,-y,-z
1/2+x,1/2+y,-z
1/2-x,y,z
x,1/2-y,z
loop_
_atom_site_type_symbol
_atom_site_label
_atom_site_fract_x
_atom_site_fract_y
_atom_site_fract_z
Si Si1 0.904737 0.901061 0.063306
Si Si2 0.921925 0.102175 0.063756
Si Si3 0.913790 0.250000 0.296149
Si Si4 0.343301 0.904144 0.230738
Si Si5 0.340396 0.403327 0.242556
Si Si6 0.583205 0.750000 0.583464
Si Si7 0.340806 0.750000 0.417818
Si Si8 0.845123 0.750000 0.267017
O O1 0.877446 0.834265 0.183042
O O2 0.906146 0.002319 0.105581
O O3 0.849269 0.887515 0.926419
O O4 0.991400 0.885904 0.000796
O O5 0.911925 0.167084 0.193952
O O6 0.866296 0.121389 0.929452
O O7 0.847119 0.250000 0.413531
O O8 0.990933 0.250000 0.394462
O O9 0.250000 0.910311 0.238481
O O10 0.374257 0.835003 0.342943
O O11 0.373322 0.000207 0.262337
O O12 0.250000 0.399761 0.282878
O O13 0.385567 0.333312 0.332591
O O14 0.617728 0.750000 0.424801
O O15 0.250000 0.750000 0.378061
O O16 0.750000 0.750000 0.271051
#
# Coordination Sequence:
#
# PCOD9449256 Si02
#       8
#     8   8   4   8   8   4   4   4
#     4  10  21  39  62  91 120 156 199 255 299 358
#     4  10  21  39  63  91 121 152 204 254 304 356
#     4  12  24  39  59  90 121 165 198 247 302 368
#     4   9  20  38  65  90 112 152 202 249 300 355
#     4  10  19  38  63  86 117 157 198 244 295 356
#     4  12  25  39  55  89 126 165 204 242 298 366
#     4  10  23  41  58  85 120 157 196 242 301 365
#     4  12  26  41  60  92 129 167 204 249 309 365
#
# _framework density 19.207066000000001
#
# number of rings (size 3 to 8) (size 9 to 14) (size 15 to 20)
#    0.000    1.667    1.667    2.750    2.333    2.667 
#    0.000    3.333    0.000    0.000    0.000    0.000 
#    0.000    0.000    0.000    0.000    0.000    0.000 
#
# Total GULP energy -267932.210014 kJ/mol
# GULP energy per Si atom -5581.921042 kJ/mol
# Density = 1.916335 g / cm^3
# Si number density = 19.207066 Si / 1000 Ang^3
#
#
#
# Elastic Constant Matrix: (Units=GPa)
#
#
# Indices 1 2 3 4 5 6 
#
# 1 23.4087 25.1710 7.1205 0.0000 0.0000 0.0000
# 2 25.1710 126.1409 96.5890 0.0000 0.0000 0.0000
# 3 7.1205 96.5890 111.1783 0.0000 0.0000 0.0000
# 4 0.0000 0.0000 0.0000 -14.5092 0.0000 0.0000
# 5 0.0000 0.0000 0.0000 0.0000 31.2552 0.0000
# 6 0.0000 0.0000 0.0000 0.0000 0.0000 24.1922
#
#
#
# Elastic Compliance Matrix: (Units=1/GPa)
#
#
# Indices 1 2 3 4 5 6 
#
# 1 0.069362 -0.031185 0.022650 0.000000 0.000000 0.000000
# 2 -0.031185 0.037702 -0.030758 0.000000 0.000000 0.000000
# 3 0.022650 -0.030758 0.034265 0.000000 0.000000 0.000000
# 4 0.000000 0.000000 0.000000 -0.068922 0.000000 0.000000
# 5 0.000000 0.000000 0.000000 0.000000 0.031995 0.000000
# 6 0.000000 0.000000 0.000000 0.000000 0.000000 0.041336
#
#
# Mechanical properties :
#
#
# Convention : Reuss Voigt Hill
#
# Bulk Modulus (GPa) = 15.93741 57.60989 36.77365
# Shear Modulus (GPa) = 20.38841 16.97747 18.68294
#
# Velocity S-wave (km/s) = 3.26161 2.97630 3.12222
# Velocity P-wave (km/s) = 4.74340 6.47073 5.67319
#
# Compressibility (1/GPa) = 0.06274543
#
# Stress axis : x y z
#
# Youngs Moduli (GPa) = 14.41710 26.52360 29.18401
#
# Poissons Ratio (x) = 0.82713 -0.66103
# Poissons Ratio (y) = 0.44960 0.89763
# Poissons Ratio (z) = -0.32655 0.81580
#
# Static dielectric constant tensor:
#      x y z
#    x 1.695160 0.000000 0.000000 
#    y 0.000000 1.611420 0.000000 
#    z 0.000000 0.000000 1.626130 
# 
# From -- ./inp_files/10303.got.cif
#   From: 2010.05.17/outbox.cif.g08.bks.cpg/sg59_6_cif.got.tgz:10303.got - 2010.06.03 14:40:33.
