data_PCOD9449269
_publ_section_title
;
Structure prediction by ZEFSAII (Michael W. Deem and Ramdas Pophale) SiO2 
 PCOD9449269
Probable space group: P M M N
;
_chemical_formula_sum "Si O2"
_cell_formula_units_Z 64
_cell_length_a 7.696262
_cell_length_b 14.257604
_cell_length_c 23.881587
_cell_angle_alpha 90.000000
_cell_angle_beta 90.000000
_cell_angle_gamma 90.000000
_cell_volume 2620.532652
_symmetry_space_group_name_H-M "P M M N"
_symmetry_group_IT_number 59
_space_group.IT_coordinate_system_code '2'
_symmetry_cell_setting 'orthorhombic'
loop_
_space_group_symop_operation_xyz
x,y,z
1/2-x,1/2-y,z
1/2+x,-y,-z
-x,1/2+y,-z
-x,-y,-z
1/2+x,1/2+y,-z
1/2-x,y,z
x,1/2-y,z
loop_
_atom_site_type_symbol
_atom_site_label
_atom_site_fract_x
_atom_site_fract_y
_atom_site_fract_z
Si Si1 0.048306 0.106635 0.126970
Si Si2 0.956989 0.892047 0.512442
Si Si3 0.045204 0.066457 0.246696
Si Si4 0.542781 0.610062 0.992898
Si Si5 0.945709 0.851172 0.232949
Si Si6 0.548858 0.349021 0.608619
Si Si7 0.463732 0.439508 0.368141
Si Si8 0.056068 0.618613 0.114824
O O1 0.250000 0.138254 0.129638
O O2 0.972881 0.142805 0.067813
O O3 0.970626 0.112509 0.189593
O O4 0.050191 0.994490 0.116851
O O5 0.750000 0.874621 0.509584
O O6 0.042436 0.845558 0.458890
O O7 0.014718 0.880456 0.576851
O O8 0.000000 0.000000 0.500000
O O9 0.250000 0.087593 0.245019
O O10 0.978268 0.096308 0.307529
O O11 0.030877 0.952108 0.245493
O O12 0.750000 0.621288 0.990828
O O13 0.500000 0.500000 0.000000
O O14 0.480372 0.650027 0.051881
O O15 0.750000 0.855621 0.255262
O O16 0.025163 0.750000 0.249511
O O17 0.938151 0.849478 0.165341
O O18 0.750000 0.350185 0.626712
O O19 0.468581 0.250000 0.627967
O O20 0.476694 0.451283 0.625311
O O21 0.250000 0.441524 0.369064
O O22 0.250000 0.645933 0.130759
#
# Coordination Sequence:
#
# PCOD9449269 Si02
#       8
#     8   8   8   8   8   8   8   8
#     4   7  12  21  34  53  74  95 120 152 189 231
#     4   9  16  28  45  64  86 113 146 181 222 267
#     4   9  16  28  44  59  77 105 142 174 201 241
#     4   9  14  21  34  53  76  98 121 153 195 238
#     4  10  20  31  40  53  77 107 137 172 213 251
#     4   9  17  29  44  64  90 117 147 184 224 264
#     4   8  15  27  44  64  85 113 147 182 217 256
#     4   9  16  26  39  54  70  94 131 167 201 242
#
# _framework density 24.422516999999999
#
# number of rings (size 3 to 8) (size 9 to 14) (size 15 to 20)
#    0.000    3.250    0.000    3.750    0.000    1.750 
#    0.000    5.000    0.000    0.000    0.000    0.000 
#    0.000    1.000    0.000    8.250    0.000    3.625 
#
# Total GULP energy -356443.719453 kJ/mol
# GULP energy per Si atom -5569.433116 kJ/mol
# Density = 2.436693 g / cm^3
# Si number density = 24.422517 Si / 1000 Ang^3
#
#
#
# Elastic Constant Matrix: (Units=GPa)
#
#
# Indices 1 2 3 4 5 6 
#
# 1 57.4095 -8.2010 3.7514 0.0000 0.0000 0.0000
# 2 -8.2010 54.5709 -4.1501 0.0000 0.0000 0.0000
# 3 3.7514 -4.1501 226.5706 0.0000 0.0000 0.0000
# 4 0.0000 0.0000 0.0000 -59.5741 0.0000 0.0000
# 5 0.0000 0.0000 0.0000 0.0000 15.8946 0.0000
# 6 0.0000 0.0000 0.0000 0.0000 0.0000 12.4837
#
#
#
# Elastic Compliance Matrix: (Units=1/GPa)
#
#
# Indices 1 2 3 4 5 6 
#
# 1 0.017815 0.002658 -0.000246 0.000000 0.000000 0.000000
# 2 0.002658 0.018747 0.000299 0.000000 0.000000 0.000000
# 3 -0.000246 0.000299 0.004423 0.000000 0.000000 0.000000
# 4 0.000000 0.000000 0.000000 -0.016786 0.000000 0.000000
# 5 0.000000 0.000000 0.000000 0.000000 0.062914 0.000000
# 6 0.000000 0.000000 0.000000 0.000000 0.000000 0.080105
#
#
# Mechanical properties :
#
#
# Convention : Reuss Voigt Hill
#
# Bulk Modulus (GPa) = 21.54802 35.70575 28.62689
# Shear Modulus (GPa) = 28.20649 16.90421 22.55535
#
# Velocity S-wave (km/s) = 3.40212 2.63374 3.04229
# Velocity P-wave (km/s) = 4.92694 4.88882 4.90792
#
# Compressibility (1/GPa) = 0.04640797
#
# Stress axis : x y z
#
# Youngs Moduli (GPa) = 56.13381 53.34168 226.08087
#
# Poissons Ratio (x) = -0.14181 0.05568
# Poissons Ratio (y) = -0.14923 -0.06768
# Poissons Ratio (z) = 0.01382 -0.01597
#
# Static dielectric constant tensor:
#      x y z
#    x 1.906570 0.000000 0.000000 
#    y 0.000000 1.963460 0.000000 
#    z 0.000000 0.000000 2.019340 
# 
# From -- ./inp_files/31732.got.cif
#   From: 2010.05.17/outbox.cif.g08.bks.cpg/sg59_16_cif.got.tgz:31732.got - 2010.06.03 14:40:33.
