data_PCOD9449189
_publ_section_title
;
Structure prediction by ZEFSAII (Michael W. Deem and Ramdas Pophale) SiO2 
 PCOD9449189
Probable space group: P M M N
;
_chemical_formula_sum "Si O2"
_cell_formula_units_Z 48
_cell_length_a 19.710807
_cell_length_b 7.814951
_cell_length_c 15.577186
_cell_angle_alpha 90.000000
_cell_angle_beta 90.000000
_cell_angle_gamma 90.000000
_cell_volume 2399.494012
_symmetry_space_group_name_H-M "P M M N"
_symmetry_group_IT_number 59
_space_group.IT_coordinate_system_code '2'
_symmetry_cell_setting 'orthorhombic'
loop_
_space_group_symop_operation_xyz
x,y,z
1/2-x,1/2-y,z
1/2+x,-y,-z
-x,1/2+y,-z
-x,-y,-z
1/2+x,1/2+y,-z
1/2-x,y,z
x,1/2-y,z
loop_
_atom_site_type_symbol
_atom_site_label
_atom_site_fract_x
_atom_site_fract_y
_atom_site_fract_z
Si Si1 0.076677 0.045821 0.473022
Si Si2 0.923151 0.540339 0.721241
Si Si3 0.326519 0.954258 0.628721
Si Si4 0.575872 0.546061 0.029782
Si Si5 0.827816 0.959611 0.876575
Si Si6 0.926739 0.454115 0.225700
O O1 0.081363 0.250000 0.471808
O O2 0.089689 0.983331 0.376090
O O3 0.130093 0.981692 0.542797
O O4 0.000000 0.000000 0.500000
O O5 0.923537 0.750000 0.721410
O O6 0.867651 0.486656 0.790846
O O7 0.997932 0.481643 0.750843
O O8 0.250000 0.023635 0.623701
O O9 0.321134 0.750000 0.640751
O O10 0.370462 0.023644 0.708761
O O11 0.580527 0.750000 0.030560
O O12 0.588279 0.484463 0.126212
O O13 0.500000 0.500000 0.000000
O O14 0.629578 0.481920 0.959434
O O15 0.750000 0.015285 0.878140
O O16 0.828086 0.750000 0.877242
O O17 0.929604 0.250000 0.238992
#
# Coordination Sequence:
#
# PCOD9449189 Si02
#       6
#     8   8   8   8   8   8
#     4  11  21  35  59  88 115 148 192 242 287 341
#     4   9  17  32  55  81 107 140 182 226 276 334
#     4  10  22  40  59  81 116 158 193 235 296 353
#     4  11  21  34  56  85 111 145 186 230 279 335
#     4   9  18  33  53  78 108 140 176 223 278 329
#     4  10  19  36  58  81 109 145 189 232 277 338
#
# _framework density 20.004217000000001
#
# number of rings (size 3 to 8) (size 9 to 14) (size 15 to 20)
#    0.000    2.000    3.333    1.000    0.000    2.333 
#    0.000    1.667    0.000    1.500    0.000    0.000 
#    0.000    0.000    0.000    0.000    0.000    0.000 
#
# Total GULP energy -268064.259199 kJ/mol
# GULP energy per Si atom -5584.672067 kJ/mol
# Density = 1.995869 g / cm^3
# Si number density = 20.004217 Si / 1000 Ang^3
#
#
#
# Elastic Constant Matrix: (Units=GPa)
#
#
# Indices 1 2 3 4 5 6 
#
# 1 214.0655 3.8115 127.5131 0.0000 0.0000 0.0000
# 2 3.8115 19.6646 -8.3239 0.0000 0.0000 0.0000
# 3 127.5131 -8.3239 215.7329 0.0000 0.0000 0.0000
# 4 0.0000 0.0000 0.0000 27.4865 0.0000 0.0000
# 5 0.0000 0.0000 0.0000 0.0000 31.4119 0.0000
# 6 0.0000 0.0000 0.0000 0.0000 0.0000 11.4183
#
#
#
# Elastic Compliance Matrix: (Units=1/GPa)
#
#
# Indices 1 2 3 4 5 6 
#
# 1 0.007421 -0.003350 -0.004515 0.000000 0.000000 0.000000
# 2 -0.003350 0.053209 0.004033 0.000000 0.000000 0.000000
# 3 -0.004515 0.004033 0.007460 0.000000 0.000000 0.000000
# 4 0.000000 0.000000 0.000000 0.036382 0.000000 0.000000
# 5 0.000000 0.000000 0.000000 0.000000 0.031835 0.000000
# 6 0.000000 0.000000 0.000000 0.000000 0.000000 0.087579
#
#
# Mechanical properties :
#
#
# Convention : Reuss Voigt Hill
#
# Bulk Modulus (GPa) = 16.54933 77.27384 46.91158
# Shear Modulus (GPa) = 19.86558 35.82748 27.84653
#
# Velocity S-wave (km/s) = 3.15472 4.23661 3.73504
# Velocity P-wave (km/s) = 4.64333 7.91482 6.48864
#
# Compressibility (1/GPa) = 0.06042542
#
# Stress axis : x y z
#
# Youngs Moduli (GPa) = 134.75510 18.79376 134.04930
#
# Poissons Ratio (x) = 0.06295 0.60530
# Poissons Ratio (y) = 0.45139 -0.54061
# Poissons Ratio (z) = 0.60849 -0.07579
#
# Static dielectric constant tensor:
#      x y z
#    x 1.675000 0.000000 0.000000 
#    y 0.000000 1.742990 0.000000 
#    z 0.000000 0.000000 1.667540 
# 
# From -- ./inp_files/20444.got.cif
#   From: 2010.05.17/outbox.cif.g08.bks.cpg/sg59_11_cif.got.tgz:20444.got - 2010.06.03 14:40:33.
