data_PCOD9449931
_publ_section_title
;
Structure prediction by ZEFSAII (Michael W. Deem and Ramdas Pophale) SiO2 
 PCOD9449931
Probable space group: P M M N
;
_chemical_formula_sum "Si O2"
_cell_formula_units_Z 40
_cell_length_a 10.560320
_cell_length_b 7.525293
_cell_length_c 24.038296
_cell_angle_alpha 90.000000
_cell_angle_beta 90.000000
_cell_angle_gamma 90.000000
_cell_volume 1910.311416
_symmetry_space_group_name_H-M "P M M N"
_symmetry_group_IT_number 59
_space_group.IT_coordinate_system_code '2'
_symmetry_cell_setting 'orthorhombic'
loop_
_space_group_symop_operation_xyz
x,y,z
1/2-x,1/2-y,z
1/2+x,-y,-z
-x,1/2+y,-z
-x,-y,-z
1/2+x,1/2+y,-z
1/2-x,y,z
x,1/2-y,z
loop_
_atom_site_type_symbol
_atom_site_label
_atom_site_fract_x
_atom_site_fract_y
_atom_site_fract_z
Si Si1 0.750000 0.957681 0.588768
Si Si2 0.893757 0.032887 0.829468
Si Si3 0.976325 0.037143 0.380158
Si Si4 0.109017 0.962518 0.043999
Si Si5 0.250000 0.533899 0.540967
Si Si6 0.608450 0.963398 0.254737
O O1 0.750000 0.750000 0.605060
O O2 0.617801 0.035000 0.610816
O O3 0.750000 0.971025 0.522147
O O4 0.750000 0.979682 0.814599
O O5 0.895314 0.250000 0.828742
O O6 0.918909 0.975284 0.893075
O O7 0.000001 0.969587 0.786780
O O8 0.981856 0.250000 0.387601
O O9 0.874244 0.972660 0.425316
O O10 0.926954 0.001720 0.318381
O O11 0.250000 0.028188 0.027938
O O12 0.116984 0.750000 0.047605
O O13 0.000000 0.000000 0.000000
O O14 0.250000 0.750000 0.540397
O O15 0.750000 0.030977 0.242824
O O16 0.611721 0.750000 0.248629
#
# Coordination Sequence:
#
# PCOD9449931 Si02
#       6
#     4   8   8   8   4   8
#     4  10  22  36  54  78 102 130 167 208 249 298
#     4   8  16  32  52  74 103 137 172 214 260 301
#     4  10  21  37  53  74 105 136 164 203 257 306
#     4   9  18  33  53  78 109 143 178 219 265 312
#     4  10  20  36  56  74 100 136 167 200 251 308
#     4  10  20  33  52  78 102 129 171 215 252 300
#
# _framework density 20.938994000000001
#
# number of rings (size 3 to 8) (size 9 to 14) (size 15 to 20)
#    0.000    2.600    1.000    1.800    1.400    2.800 
#    0.000    3.000    0.000    1.200    0.000    0.000 
#    0.000    0.000    0.000    0.000    0.000    0.000 
#
# Total GULP energy -223324.369945 kJ/mol
# GULP energy per Si atom -5583.109249 kJ/mol
# Density = 2.089134 g / cm^3
# Si number density = 20.938994 Si / 1000 Ang^3
#
#
#
# Elastic Constant Matrix: (Units=GPa)
#
#
# Indices 1 2 3 4 5 6 
#
# 1 189.6506 0.0086 77.7422 0.0000 0.0000 0.0000
# 2 0.0086 49.7184 -15.8889 0.0000 0.0000 0.0000
# 3 77.7422 -15.8889 82.4478 0.0000 0.0000 0.0000
# 4 0.0000 0.0000 0.0000 20.4842 0.0000 0.0000
# 5 0.0000 0.0000 0.0000 0.0000 48.8193 0.0000
# 6 0.0000 0.0000 0.0000 0.0000 0.0000 0.1159
#
#
#
# Elastic Compliance Matrix: (Units=1/GPa)
#
#
# Indices 1 2 3 4 5 6 
#
# 1 0.008966 -0.002881 -0.009010 0.000000 0.000000 0.000000
# 2 -0.002881 0.022359 0.007025 0.000000 0.000000 0.000000
# 3 -0.009010 0.007025 0.021978 0.000000 0.000000 0.000000
# 4 0.000000 0.000000 0.000000 0.048818 0.000000 0.000000
# 5 0.000000 0.000000 0.000000 0.000000 0.020484 0.000000
# 6 0.000000 0.000000 0.000000 0.000000 0.000000 8.629207
#
#
# Mechanical properties :
#
#
# Convention : Reuss Voigt Hill
#
# Bulk Modulus (GPa) = 22.95004 49.50454 36.22729
# Shear Modulus (GPa) = 0.56973 31.21420 15.89196
#
# Velocity S-wave (km/s) = 0.52219 3.86517 2.75792
# Velocity P-wave (km/s) = 3.36865 6.60402 5.24218
#
# Compressibility (1/GPa) = 0.04357292
#
# Stress axis : x y z
#
# Youngs Moduli (GPa) = 111.52890 44.72492 45.49947
#
# Poissons Ratio (x) = 0.12885 0.40994
# Poissons Ratio (y) = 0.32130 -0.31965
# Poissons Ratio (z) = 1.00485 -0.31421
#
# Static dielectric constant tensor:
#      x y z
#    x 1.774430 0.000000 0.000000 
#    y 0.000000 1.798880 0.000000 
#    z 0.000000 0.000000 1.691860 
# 
# From -- ./inp_files/29962.got.cif
#   From: 2010.05.17/outbox.cif.g08.bks.cpg/sg59_15_cif.got.tgz:29962.got - 2010.06.03 14:40:33.
