data_PCOD9449805
_publ_section_title
;
Structure prediction by ZEFSAII (Michael W. Deem and Ramdas Pophale) SiO2 
 PCOD9449805
Probable space group: P M M N
;
_chemical_formula_sum "Si O2"
_cell_formula_units_Z 48
_cell_length_a 7.649473
_cell_length_b 31.696355
_cell_length_c 9.641248
_cell_angle_alpha 90.000000
_cell_angle_beta 90.000000
_cell_angle_gamma 90.000000
_cell_volume 2337.620960
_symmetry_space_group_name_H-M "P M M N"
_symmetry_group_IT_number 59
_space_group.IT_coordinate_system_code '2'
_symmetry_cell_setting 'orthorhombic'
loop_
_space_group_symop_operation_xyz
x,y,z
1/2-x,1/2-y,z
1/2+x,-y,-z
-x,1/2+y,-z
-x,-y,-z
1/2+x,1/2+y,-z
1/2-x,y,z
x,1/2-y,z
loop_
_atom_site_type_symbol
_atom_site_label
_atom_site_fract_x
_atom_site_fract_y
_atom_site_fract_z
Si Si1 0.036377 0.202337 0.340105
Si Si2 0.046012 0.876549 0.153228
Si Si3 0.537349 0.449778 0.643750
Si Si4 0.543561 0.955408 0.673394
Si Si5 0.538766 0.797841 0.341247
Si Si6 0.454984 0.376082 0.163878
O O1 0.250000 0.203159 0.337096
O O2 0.979260 0.250000 0.304776
O O3 0.985708 0.193231 0.499561
O O4 0.972760 0.165819 0.237933
O O5 0.250000 0.885166 0.132249
O O6 0.975131 0.914198 0.249995
O O7 0.025728 0.833085 0.236547
O O8 0.966895 0.874239 0.000905
O O9 0.750000 0.449657 0.642473
O O10 0.479675 0.441362 0.486129
O O11 0.473580 0.496826 0.683170
O O12 0.750000 0.959361 0.702441
O O13 0.469199 0.919426 0.773483
O O14 0.750000 0.798562 0.337927
O O15 0.483090 0.750000 0.307080
O O16 0.250000 0.376658 0.201995
#
# Coordination Sequence:
#
# PCOD9449805 Si02
#       6
#     8   8   8   8   8   8
#     4   8  15  30  53  78  99 121 158 210 259 298
#     4  11  23  35  48  72 109 144 169 201 252 312
#     4   9  19  35  53  75 103 134 169 213 264 310
#     4   9  18  34  56  78  98 127 174 224 261 301
#     4   9  18  35  59  81  99 126 169 216 256 297
#     4  10  20  33  51  75 102 134 173 214 254 299
#
# _framework density 20.533695999999999
#
# number of rings (size 3 to 8) (size 9 to 14) (size 15 to 20)
#    0.000    2.667    0.000    2.500    0.000    5.000 
#    0.000    2.500    0.000    1.000    0.000    0.000 
#    0.000    0.000    0.000    0.000    0.000    0.000 
#
# Total GULP energy -267887.178148 kJ/mol
# GULP energy per Si atom -5580.982878 kJ/mol
# Density = 2.048696 g / cm^3
# Si number density = 20.533696 Si / 1000 Ang^3
#
#
#
# Elastic Constant Matrix: (Units=GPa)
#
#
# Indices 1 2 3 4 5 6 
#
# 1 30.9087 -11.0502 -20.7635 0.0000 0.0000 0.0000
# 2 -11.0502 134.8502 97.2227 0.0000 0.0000 0.0000
# 3 -20.7635 97.2227 104.1851 0.0000 0.0000 0.0000
# 4 0.0000 0.0000 0.0000 -7.2910 0.0000 0.0000
# 5 0.0000 0.0000 0.0000 0.0000 10.0323 0.0000
# 6 0.0000 0.0000 0.0000 0.0000 0.0000 8.1649
#
#
#
# Elastic Compliance Matrix: (Units=1/GPa)
#
#
# Indices 1 2 3 4 5 6 
#
# 1 0.039683 -0.007488 0.014896 0.000000 0.000000 0.000000
# 2 -0.007488 0.024076 -0.023959 0.000000 0.000000 0.000000
# 3 0.014896 -0.023959 0.034925 0.000000 0.000000 0.000000
# 4 0.000000 0.000000 0.000000 -0.137155 0.000000 0.000000
# 5 0.000000 0.000000 0.000000 0.000000 0.099678 0.000000
# 6 0.000000 0.000000 0.000000 0.000000 0.000000 0.122475
#
#
# Mechanical properties :
#
#
# Convention : Reuss Voigt Hill
#
# Bulk Modulus (GPa) = 15.24805 44.52910 29.88858
# Shear Modulus (GPa) = 20.95164 15.81691 18.38428
#
# Velocity S-wave (km/s) = 3.19776 2.77842 2.99544
# Velocity P-wave (km/s) = 4.59089 5.65913 5.15277
#
# Compressibility (1/GPa) = 0.06558214
#
# Stress axis : x y z
#
# Youngs Moduli (GPa) = 25.19964 41.53522 28.63264
#
# Poissons Ratio (x) = 0.31100 -0.42651
# Poissons Ratio (y) = 0.18869 0.68602
# Poissons Ratio (z) = -0.37537 0.99515
#
# Static dielectric constant tensor:
#      x y z
#    x 1.768320 0.000000 0.000000 
#    y 0.000000 1.749430 0.000000 
#    z 0.000000 0.000000 1.672920 
# 
# From -- ./inp_files/6186.got.cif
#   From: 2010.05.17/outbox.cif.g08.bks.cpg/sg59_4_cif.got.tgz:6186.got - 2010.06.03 14:40:33.
