data_PCOD9449051
_publ_section_title
;
Structure prediction by ZEFSAII (Michael W. Deem and Ramdas Pophale) SiO2 
 PCOD9449051
Probable space group: P M M N
;
_chemical_formula_sum "Si O2"
_cell_formula_units_Z 48
_cell_length_a 13.733737
_cell_length_b 17.331214
_cell_length_c 7.859612
_cell_angle_alpha 90.000000
_cell_angle_beta 90.000000
_cell_angle_gamma 90.000000
_cell_volume 1870.763200
_symmetry_space_group_name_H-M "P M M N"
_symmetry_group_IT_number 59
_space_group.IT_coordinate_system_code '2'
_symmetry_cell_setting 'orthorhombic'
loop_
_space_group_symop_operation_xyz
x,y,z
1/2-x,1/2-y,z
1/2+x,-y,-z
-x,1/2+y,-z
-x,-y,-z
1/2+x,1/2+y,-z
1/2-x,y,z
x,1/2-y,z
loop_
_atom_site_type_symbol
_atom_site_label
_atom_site_fract_x
_atom_site_fract_y
_atom_site_fract_z
Si Si1 0.857865 0.514651 0.237502
Si Si2 0.426291 0.839237 0.898993
Si Si3 0.355427 0.333167 0.977348
Si Si4 0.944829 0.159626 0.481057
Si Si5 0.920858 0.045669 0.799054
Si Si6 0.146631 0.414229 0.406560
O O1 0.750000 0.481154 0.193247
O O2 0.852420 0.600637 0.159212
O O3 0.860780 0.523905 0.439940
O O4 0.972591 0.504470 0.189311
O O5 0.395755 0.750000 0.933070
O O6 0.396106 0.858822 0.704246
O O7 0.544464 0.838609 0.917947
O O8 0.393166 0.902074 0.038394
O O9 0.250000 0.333721 0.068164
O O10 0.362657 0.250000 0.889494
O O11 0.928401 0.250000 0.516199
O O12 0.919780 0.106559 0.642312
O O13 0.057499 0.142085 0.439848
O O14 0.857328 0.970534 0.757470
O O15 0.250000 0.374807 0.423473
#
# Coordination Sequence:
#
# PCOD9449051 Si02
#       6
#     8   8   8   8   8   8
#     4   8  14  25  43  69  98 129 170 218 264 313
#     4   9  18  31  51  80 108 138 179 225 275 332
#     4   8  13  22  38  63  98 137 170 202 251 318
#     4  10  20  34  56  85 112 141 180 229 289 345
#     4  10  19  35  56  76 109 152 188 228 275 328
#     4  10  21  35  52  78 112 151 192 228 270 332
#
# _framework density 25.657975
#
# number of rings (size 3 to 8) (size 9 to 14) (size 15 to 20)
#    0.000    2.833    0.000    2.500    0.000    5.667 
#    0.000    5.000    0.000    9.000    0.000    2.333 
#    0.000    0.000    0.000    0.000    0.000    0.000 
#
# Total GULP energy -267770.667210 kJ/mol
# GULP energy per Si atom -5578.555567 kJ/mol
# Density = 2.559958 g / cm^3
# Si number density = 25.657975 Si / 1000 Ang^3
#
#
#
# Elastic Constant Matrix: (Units=GPa)
#
#
# Indices 1 2 3 4 5 6 
#
# 1 75.5765 6.5920 2.1396 0.0000 0.0000 0.0000
# 2 6.5920 77.8799 47.4013 0.0000 0.0000 0.0000
# 3 2.1396 47.4013 127.0113 0.0000 0.0000 0.0000
# 4 0.0000 0.0000 0.0000 -11.7552 0.0000 0.0000
# 5 0.0000 0.0000 0.0000 0.0000 15.7313 0.0000
# 6 0.0000 0.0000 0.0000 0.0000 0.0000 21.9139
#
#
#
# Elastic Compliance Matrix: (Units=1/GPa)
#
#
# Indices 1 2 3 4 5 6 
#
# 1 0.013336 -0.001284 0.000254 0.000000 0.000000 0.000000
# 2 -0.001284 0.016738 -0.006225 0.000000 0.000000 0.000000
# 3 0.000254 -0.006225 0.010192 0.000000 0.000000 0.000000
# 4 0.000000 0.000000 0.000000 -0.085069 0.000000 0.000000
# 5 0.000000 0.000000 0.000000 0.000000 0.063568 0.000000
# 6 0.000000 0.000000 0.000000 0.000000 0.000000 0.045633
#
#
# Mechanical properties :
#
#
# Convention : Reuss Voigt Hill
#
# Bulk Modulus (GPa) = 38.82308 43.63702 41.23005
# Shear Modulus (GPa) = 57.14761 20.13365 38.64063
#
# Velocity S-wave (km/s) = 4.72453 2.80428 3.88492
# Velocity P-wave (km/s) = 6.70264 5.24685 6.01892
#
# Compressibility (1/GPa) = 0.02575787
#
# Stress axis : x y z
#
# Youngs Moduli (GPa) = 74.98281 59.74515 98.11396
#
# Poissons Ratio (x) = 0.07669 -0.02496
# Poissons Ratio (y) = 0.09625 0.61076
# Poissons Ratio (z) = -0.01908 0.37191
#
# Static dielectric constant tensor:
#      x y z
#    x 2.075830 0.000000 0.000000 
#    y 0.000000 2.211810 0.000000 
#    z 0.000000 0.000000 2.094030 
# 
# From -- ./inp_files/9058.got.cif
#   From: 2010.05.17/outbox.cif.g08.bks.cpg/sg59_5_cif.got.tgz:9058.got - 2010.06.03 14:40:33.
