data_PCOD9449244
_publ_section_title
;
Structure prediction by ZEFSAII (Michael W. Deem and Ramdas Pophale) SiO2 
 PCOD9449244
Probable space group: P M M N
;
_chemical_formula_sum "Si O2"
_cell_formula_units_Z 40
_cell_length_a 13.276282
_cell_length_b 20.032708
_cell_length_c 7.386313
_cell_angle_alpha 90.000000
_cell_angle_beta 90.000000
_cell_angle_gamma 90.000000
_cell_volume 1964.462924
_symmetry_space_group_name_H-M "P M M N"
_symmetry_group_IT_number 59
_space_group.IT_coordinate_system_code '2'
_symmetry_cell_setting 'orthorhombic'
loop_
_space_group_symop_operation_xyz
x,y,z
1/2-x,1/2-y,z
1/2+x,-y,-z
-x,1/2+y,-z
-x,-y,-z
1/2+x,1/2+y,-z
1/2-x,y,z
x,1/2-y,z
loop_
_atom_site_type_symbol
_atom_site_label
_atom_site_fract_x
_atom_site_fract_y
_atom_site_fract_z
Si Si1 0.140312 0.040827 0.886292
Si Si2 0.861691 0.169547 0.132790
Si Si3 0.067750 0.487151 0.278361
Si Si4 0.951091 0.111242 0.492658
Si Si5 0.531920 0.826935 0.157341
O O1 0.250000 0.020968 0.817732
O O2 0.120763 0.119658 0.860163
O O3 0.130887 0.024727 0.099140
O O4 0.046142 0.005364 0.789495
O O5 0.750000 0.147531 0.075455
O O6 0.862398 0.250000 0.139223
O O7 0.887470 0.141835 0.330388
O O8 0.947627 0.150283 0.989390
O O9 0.100412 0.549935 0.399201
O O10 0.050480 0.422191 0.401245
O O11 0.983181 0.163900 0.644713
O O12 0.558393 0.750000 0.124567
#
# Coordination Sequence:
#
# PCOD9449244 Si02
#       5
#     8   8   8   8   8
#     4  10  20  38  61  84 117 155 194 238 286 347
#     4  10  21  36  56  84 116 151 192 237 288 345
#     4   9  20  37  56  88 116 146 192 241 290 341
#     4  10  19  37  59  82 115 149 189 236 290 341
#     4  10  21  38  60  84 118 155 193 243 285 335
#
# _framework density 20.361799999999999
#
# number of rings (size 3 to 8) (size 9 to 14) (size 15 to 20)
#    0.000    2.200    2.000    0.600    0.000    2.800 
#    0.000   10.000    0.000    0.000    0.000    0.000 
#    0.000    0.000    0.000    0.000    0.000    0.000 
#
# Total GULP energy -223356.323866 kJ/mol
# GULP energy per Si atom -5583.908097 kJ/mol
# Density = 2.031546 g / cm^3
# Si number density = 20.361800 Si / 1000 Ang^3
#
#
#
# Elastic Constant Matrix: (Units=GPa)
#
#
# Indices 1 2 3 4 5 6 
#
# 1 76.5016 12.2664 10.9823 0.0000 0.0000 0.0000
# 2 12.2664 55.6410 9.5464 0.0000 0.0000 0.0000
# 3 10.9823 9.5464 97.4097 0.0000 0.0000 0.0000
# 4 0.0000 0.0000 0.0000 39.9385 0.0000 0.0000
# 5 0.0000 0.0000 0.0000 0.0000 3.0288 0.0000
# 6 0.0000 0.0000 0.0000 0.0000 0.0000 14.6692
#
#
#
# Elastic Compliance Matrix: (Units=1/GPa)
#
#
# Indices 1 2 3 4 5 6 
#
# 1 0.013703 -0.002803 -0.001270 0.000000 0.000000 0.000000
# 2 -0.002803 0.018853 -0.001532 0.000000 0.000000 0.000000
# 3 -0.001270 -0.001532 0.010559 0.000000 0.000000 0.000000
# 4 0.000000 0.000000 0.000000 0.025039 0.000000 0.000000
# 5 0.000000 0.000000 0.000000 0.000000 0.330162 0.000000
# 6 0.000000 0.000000 0.000000 0.000000 0.000000 0.068170
#
#
# Mechanical properties :
#
#
# Convention : Reuss Voigt Hill
#
# Bulk Modulus (GPa) = 31.34222 32.79362 32.06792
# Shear Modulus (GPa) = 10.23894 24.64445 17.44169
#
# Velocity S-wave (km/s) = 2.24486 3.48275 2.92993
# Velocity P-wave (km/s) = 4.70588 5.68447 5.21816
#
# Compressibility (1/GPa) = 0.03190584
#
# Stress axis : x y z
#
# Youngs Moduli (GPa) = 72.97450 53.04171 94.70385
#
# Poissons Ratio (x) = 0.14868 0.12030
# Poissons Ratio (y) = 0.20455 0.14505
# Poissons Ratio (z) = 0.09270 0.08124
#
# Static dielectric constant tensor:
#      x y z
#    x 1.715720 0.000000 0.000000 
#    y 0.000000 1.754690 0.000000 
#    z 0.000000 0.000000 1.727780 
# 
# From -- ./inp_files/7360.got.cif
#   From: 2010.05.17/outbox.cif.g08.bks.cpg/sg59_4_cif.got.tgz:7360.got - 2010.06.03 14:40:33.
