data_PCOD9449653
_publ_section_title
;
Structure prediction by ZEFSAII (Michael W. Deem and Ramdas Pophale) SiO2 
 PCOD9449653
Probable space group: P M M N
;
_chemical_formula_sum "Si O2"
_cell_formula_units_Z 48
_cell_length_a 14.457419
_cell_length_b 7.718246
_cell_length_c 21.384490
_cell_angle_alpha 90.000000
_cell_angle_beta 90.000000
_cell_angle_gamma 90.000000
_cell_volume 2386.207913
_symmetry_space_group_name_H-M "P M M N"
_symmetry_group_IT_number 59
_space_group.IT_coordinate_system_code '2'
_symmetry_cell_setting 'orthorhombic'
loop_
_space_group_symop_operation_xyz
x,y,z
1/2-x,1/2-y,z
1/2+x,-y,-z
-x,1/2+y,-z
-x,-y,-z
1/2+x,1/2+y,-z
1/2-x,y,z
x,1/2-y,z
loop_
_atom_site_type_symbol
_atom_site_label
_atom_site_fract_x
_atom_site_fract_y
_atom_site_fract_z
Si Si1 0.853446 0.045131 0.391562
Si Si2 0.642559 0.541103 0.531510
Si Si3 0.854957 0.041937 0.029653
Si Si4 0.855258 0.042369 0.783043
Si Si5 0.960324 0.540354 0.655947
Si Si6 0.461334 0.541343 0.094725
O O1 0.750000 0.969343 0.386486
O O2 0.845828 0.250000 0.379900
O O3 0.933830 0.976393 0.346880
O O4 0.886742 0.024797 0.463407
O O5 0.750000 0.492296 0.538620
O O6 0.636728 0.750000 0.529558
O O7 0.588534 0.478271 0.592241
O O8 0.750000 0.977515 0.039089
O O9 0.849586 0.250000 0.025106
O O10 0.900585 0.977624 0.964532
O O11 0.931609 0.002466 0.082167
O O12 0.750000 0.974714 0.784335
O O13 0.849655 0.250000 0.790121
O O14 0.916827 0.976523 0.840924
O O15 0.904100 0.007659 0.717248
O O16 0.961558 0.750000 0.653146
O O17 0.455435 0.750000 0.094489
#
# Coordination Sequence:
#
# PCOD9449653 Si02
#       6
#     8   8   8   8   8   8
#     4   9  18  32  49  69  93 123 161 203 245 289
#     4   9  17  29  46  69  95 122 155 199 250 296
#     4   9  17  31  53  79 105 133 166 204 245 288
#     4  10  21  36  53  73  98 129 163 198 239 289
#     4  10  20  33  49  70  98 130 162 199 243 289
#     4   9  18  33  52  75 104 135 166 202 244 288
#
# _framework density 20.115597999999999
#
# number of rings (size 3 to 8) (size 9 to 14) (size 15 to 20)
#    0.000    2.667    0.000    1.500    0.000    5.333 
#    0.000    2.500    0.000    6.000    0.000    0.000 
#    0.000    0.000    0.000    0.000    0.000    0.000 
#
# Total GULP energy -267767.553116 kJ/mol
# GULP energy per Si atom -5578.490690 kJ/mol
# Density = 2.006981 g / cm^3
# Si number density = 20.115598 Si / 1000 Ang^3
#
#
#
# Elastic Constant Matrix: (Units=GPa)
#
#
# Indices 1 2 3 4 5 6 
#
# 1 188.0861 7.5402 95.9814 0.0000 0.0000 0.0000
# 2 7.5402 29.1072 -2.7967 0.0000 0.0000 0.0000
# 3 95.9814 -2.7967 73.6716 0.0000 0.0000 0.0000
# 4 0.0000 0.0000 0.0000 6.1605 0.0000 0.0000
# 5 0.0000 0.0000 0.0000 0.0000 29.4371 0.0000
# 6 0.0000 0.0000 0.0000 0.0000 0.0000 18.3265
#
#
#
# Elastic Compliance Matrix: (Units=1/GPa)
#
#
# Indices 1 2 3 4 5 6 
#
# 1 0.017028 -0.006567 -0.022434 0.000000 0.000000 0.000000
# 2 -0.006567 0.037014 0.009960 0.000000 0.000000 0.000000
# 3 -0.022434 0.009960 0.043180 0.000000 0.000000 0.000000
# 4 0.000000 0.000000 0.000000 0.162325 0.000000 0.000000
# 5 0.000000 0.000000 0.000000 0.000000 0.033971 0.000000
# 6 0.000000 0.000000 0.000000 0.000000 0.000000 0.054566
#
#
# Mechanical properties :
#
#
# Convention : Reuss Voigt Hill
#
# Bulk Modulus (GPa) = 16.90875 54.70165 35.80520
# Shear Modulus (GPa) = 12.31898 23.46083 17.88991
#
# Velocity S-wave (km/s) = 2.47737 3.41882 2.98544
# Velocity P-wave (km/s) = 4.07520 6.54501 5.45180
#
# Compressibility (1/GPa) = 0.05914098
#
# Stress axis : x y z
#
# Youngs Moduli (GPa) = 58.72592 27.01687 23.15902
#
# Poissons Ratio (x) = 0.17741 0.51955
# Poissons Ratio (y) = 0.38564 -0.23067
# Poissons Ratio (z) = 1.31747 -0.26910
#
# Static dielectric constant tensor:
#      x y z
#    x 1.744900 0.000000 0.000000 
#    y 0.000000 1.736950 0.000000 
#    z 0.000000 0.000000 1.680380 
# 
# From -- ./inp_files/25492.got.cif
#   From: 2010.05.17/outbox.cif.g08.bks.cpg/sg59_13_cif.got.tgz:25492.got - 2010.06.03 14:40:33.
