data_PCOD9449595
_publ_section_title
;
Structure prediction by ZEFSAII (Michael W. Deem and Ramdas Pophale) SiO2 
 PCOD9449595
Probable space group: P M M N
;
_chemical_formula_sum "Si O2"
_cell_formula_units_Z 56
_cell_length_a 8.341227
_cell_length_b 14.360259
_cell_length_c 20.982713
_cell_angle_alpha 90.000000
_cell_angle_beta 90.000000
_cell_angle_gamma 90.000000
_cell_volume 2513.355108
_symmetry_space_group_name_H-M "P M M N"
_symmetry_group_IT_number 59
_space_group.IT_coordinate_system_code '2'
_symmetry_cell_setting 'orthorhombic'
loop_
_space_group_symop_operation_xyz
x,y,z
1/2-x,1/2-y,z
1/2+x,-y,-z
-x,1/2+y,-z
-x,-y,-z
1/2+x,1/2+y,-z
1/2-x,y,z
x,1/2-y,z
loop_
_atom_site_type_symbol
_atom_site_label
_atom_site_fract_x
_atom_site_fract_y
_atom_site_fract_z
Si Si1 0.433811 0.954372 0.147206
Si Si2 0.568883 0.640298 0.024174
Si Si3 0.557765 0.600064 0.552670
Si Si4 0.935882 0.897120 0.417800
Si Si5 0.940238 0.649834 0.694975
Si Si6 0.440567 0.057690 0.718218
Si Si7 0.436184 0.857015 0.888883
O O1 0.250000 0.934306 0.134487
O O2 0.533315 0.914763 0.088180
O O3 0.484405 0.912685 0.214996
O O4 0.463998 0.065498 0.147858
O O5 0.750000 0.620645 0.002047
O O6 0.555743 0.750000 0.038430
O O7 0.455100 0.620939 0.964284
O O8 0.750000 0.578263 0.546638
O O9 0.505040 0.644154 0.485180
O O10 0.457234 0.506550 0.565779
O O11 0.543687 0.654575 0.618228
O O12 0.750000 0.870225 0.411959
O O13 0.005266 0.891671 0.346187
O O14 0.750000 0.640441 0.709218
O O15 0.997482 0.750000 0.721587
O O16 0.024902 0.553278 0.712520
O O17 0.250000 0.070988 0.720612
O O18 0.250000 0.864101 0.870707
O O19 0.490320 0.750000 0.880672
#
# Coordination Sequence:
#
# PCOD9449595 Si02
#       7
#     8   8   8   8   8   8   8
#     4  12  24  37  56  81 112 149 188 229 272 324
#     4  10  21  39  63  88 113 141 177 224 275 325
#     4   8  13  23  41  63  85 112 149 194 245 298
#     4   8  14  25  42  63  86 113 150 200 250 297
#     4   9  17  29  45  67  97 131 167 209 259 318
#     4  10  20  33  48  68  97 134 176 218 261 313
#     4  10  21  38  60  86 116 148 183 224 270 321
#
# _framework density 22.280974000000001
#
# number of rings (size 3 to 8) (size 9 to 14) (size 15 to 20)
#    0.000    2.429    0.000    3.000    0.000    3.143 
#    0.000    0.000    0.000    0.857    0.000    4.000 
#    0.000    0.000    0.000    0.000    0.000    0.000 
#
# Total GULP energy -312291.066743 kJ/mol
# GULP energy per Si atom -5576.626192 kJ/mol
# Density = 2.223026 g / cm^3
# Si number density = 22.280974 Si / 1000 Ang^3
#
#
#
# Elastic Constant Matrix: (Units=GPa)
#
#
# Indices 1 2 3 4 5 6 
#
# 1 29.1627 6.5760 -8.7440 0.0000 0.0000 0.0000
# 2 6.5760 25.6917 5.8461 0.0000 0.0000 0.0000
# 3 -8.7440 5.8461 114.1406 0.0000 0.0000 0.0000
# 4 0.0000 0.0000 0.0000 -33.2360 0.0000 0.0000
# 5 0.0000 0.0000 0.0000 0.0000 27.6321 0.0000
# 6 0.0000 0.0000 0.0000 0.0000 0.0000 9.0135
#
#
#
# Elastic Compliance Matrix: (Units=1/GPa)
#
#
# Indices 1 2 3 4 5 6 
#
# 1 0.037665 -0.010419 0.003419 0.000000 0.000000 0.000000
# 2 -0.010419 0.042264 -0.002963 0.000000 0.000000 0.000000
# 3 0.003419 -0.002963 0.009175 0.000000 0.000000 0.000000
# 4 0.000000 0.000000 0.000000 -0.030088 0.000000 0.000000
# 5 0.000000 0.000000 0.000000 0.000000 0.036190 0.000000
# 6 0.000000 0.000000 0.000000 0.000000 0.000000 0.110944
#
#
# Mechanical properties :
#
#
# Convention : Reuss Voigt Hill
#
# Bulk Modulus (GPa) = 14.45531 19.59459 17.02495
# Shear Modulus (GPa) = 20.06948 11.70304 15.88626
#
# Velocity S-wave (km/s) = 3.00450 2.29432 2.67310
# Velocity P-wave (km/s) = 4.30556 3.97893 4.14546
#
# Compressibility (1/GPa) = 0.06917872
#
# Stress axis : x y z
#
# Youngs Moduli (GPa) = 26.54995 23.66075 108.99418
#
# Poissons Ratio (x) = 0.24651 -0.37265
# Poissons Ratio (y) = 0.27662 0.32293
# Poissons Ratio (z) = -0.09078 0.07010
#
# Static dielectric constant tensor:
#      x y z
#    x 1.764240 0.000000 0.000000 
#    y 0.000000 1.834150 0.000000 
#    z 0.000000 0.000000 1.882010 
# 
# From -- ./inp_files/29122.got.cif
#   From: 2010.05.17/outbox.cif.g08.bks.cpg/sg59_15_cif.got.tgz:29122.got - 2010.06.03 14:40:33.
