data_PCOD9449667
_publ_section_title
;
Structure prediction by ZEFSAII (Michael W. Deem and Ramdas Pophale) SiO2 
 PCOD9449667
Probable space group: P M M N
;
_chemical_formula_sum "Si O2"
_cell_formula_units_Z 56
_cell_length_a 8.879250
_cell_length_b 18.720898
_cell_length_c 20.249827
_cell_angle_alpha 90.000000
_cell_angle_beta 90.000000
_cell_angle_gamma 90.000000
_cell_volume 3366.078797
_symmetry_space_group_name_H-M "P M M N"
_symmetry_group_IT_number 59
_space_group.IT_coordinate_system_code '2'
_symmetry_cell_setting 'orthorhombic'
loop_
_space_group_symop_operation_xyz
x,y,z
1/2-x,1/2-y,z
1/2+x,-y,-z
-x,1/2+y,-z
-x,-y,-z
1/2+x,1/2+y,-z
1/2-x,y,z
x,1/2-y,z
loop_
_atom_site_type_symbol
_atom_site_label
_atom_site_fract_x
_atom_site_fract_y
_atom_site_fract_z
Si Si1 0.067234 0.526233 0.846774
Si Si2 0.923501 0.834035 0.481759
Si Si3 0.572638 0.467572 0.304031
Si Si4 0.073767 0.965893 0.433918
Si Si5 0.577984 0.168085 0.381661
Si Si6 0.067496 0.832407 0.930820
Si Si7 0.068907 0.936427 0.044000
O O1 0.250000 0.524127 0.850977
O O2 0.020781 0.520747 0.770425
O O3 0.021369 0.603078 0.880217
O O4 0.999633 0.458408 0.885767
O O5 0.750000 0.853406 0.469790
O O6 0.943398 0.750000 0.470069
O O7 0.032230 0.882708 0.439182
O O8 0.965585 0.846845 0.558436
O O9 0.750000 0.485873 0.307466
O O10 0.491799 0.505084 0.365377
O O11 0.556909 0.383915 0.320921
O O12 0.250000 0.978831 0.436999
O O13 0.000000 0.000000 0.500000
O O14 0.750000 0.156836 0.406927
O O15 0.563191 0.250000 0.362341
O O16 0.250000 0.830066 0.926701
O O17 0.014701 0.750000 0.920344
O O18 0.029771 0.863951 0.003981
O O19 0.250000 0.941092 0.045876
O O20 0.000000 0.000000 0.000000
#
# Coordination Sequence:
#
# PCOD9449667 Si02
#       7
#     8   8   8   8   8   8   8
#     4   9  18  31  48  71 101 136 169 203 247 300
#     4  10  20  34  53  75  98 125 159 206 264 317
#     4  10  20  33  49  72 102 135 170 211 258 308
#     4  12  23  35  53  75 100 132 174 222 265 308
#     4   9  17  29  46  69  97 129 164 203 249 305
#     4   8  14  26  47  75 102 128 162 202 241 284
#     4   9  16  28  48  71  96 128 164 202 241 286
#
# _framework density 16.636566999999999
#
# number of rings (size 3 to 8) (size 9 to 14) (size 15 to 20)
#    0.000    2.429    1.429    3.000    0.000    2.000 
#    0.000    2.857    0.000   11.571    0.000    8.000 
#    0.000    0.000    0.000    0.000    0.000    0.000 
#
# Total GULP energy -311742.692873 kJ/mol
# GULP energy per Si atom -5566.833801 kJ/mol
# Density = 1.659870 g / cm^3
# Si number density = 16.636567 Si / 1000 Ang^3
#
#
#
# Elastic Constant Matrix: (Units=GPa)
#
#
# Indices 1 2 3 4 5 6 
#
# 1 42.8988 19.9066 42.3734 0.0000 0.0000 0.0000
# 2 19.9066 42.3058 42.4524 0.0000 0.0000 0.0000
# 3 42.3734 42.4524 129.1114 0.0000 0.0000 0.0000
# 4 0.0000 0.0000 0.0000 19.2967 0.0000 0.0000
# 5 0.0000 0.0000 0.0000 0.0000 23.6327 0.0000
# 6 0.0000 0.0000 0.0000 0.0000 0.0000 21.0175
#
#
#
# Elastic Compliance Matrix: (Units=1/GPa)
#
#
# Indices 1 2 3 4 5 6 
#
# 1 0.036058 -0.007599 -0.009335 0.000000 0.000000 0.000000
# 2 -0.007599 0.036878 -0.009632 0.000000 0.000000 0.000000
# 3 -0.009335 -0.009632 0.013976 0.000000 0.000000 0.000000
# 4 0.000000 0.000000 0.000000 0.051822 0.000000 0.000000
# 5 0.000000 0.000000 0.000000 0.000000 0.042314 0.000000
# 6 0.000000 0.000000 0.000000 0.000000 0.000000 0.047579
#
#
# Mechanical properties :
#
#
# Convention : Reuss Voigt Hill
#
# Bulk Modulus (GPa) = 29.60344 47.08676 38.34510
# Shear Modulus (GPa) = 17.06366 20.09496 18.57931
#
# Velocity S-wave (km/s) = 3.20609 3.47923 3.34544
# Velocity P-wave (km/s) = 5.61588 6.67118 6.16615
#
# Compressibility (1/GPa) = 0.03377986
#
# Stress axis : x y z
#
# Youngs Moduli (GPa) = 27.73316 27.11628 71.55120
#
# Poissons Ratio (x) = 0.20606 0.66796
# Poissons Ratio (y) = 0.21074 0.68916
# Poissons Ratio (z) = 0.25890 0.26118
#
# Static dielectric constant tensor:
#      x y z
#    x 1.572900 0.000000 0.000000 
#    y 0.000000 1.595370 0.000000 
#    z 0.000000 0.000000 1.611710 
# 
# From -- ./inp_files/29331.got.cif
#   From: 2010.05.17/outbox.cif.g08.bks.cpg/sg59_15_cif.got.tgz:29331.got - 2010.06.03 14:40:33.
