data_PCOD9449000
_publ_section_title
;
Structure prediction by ZEFSAII (Michael W. Deem and Ramdas Pophale) SiO2 
 PCOD9449000
Probable space group: P M M N
;
_chemical_formula_sum "Si O2"
_cell_formula_units_Z 64
_cell_length_a 7.725149
_cell_length_b 16.941874
_cell_length_c 22.516946
_cell_angle_alpha 90.000000
_cell_angle_beta 90.000000
_cell_angle_gamma 90.000000
_cell_volume 2946.984139
_symmetry_space_group_name_H-M "P M M N"
_symmetry_group_IT_number 59
_space_group.IT_coordinate_system_code '2'
_symmetry_cell_setting 'orthorhombic'
loop_
_space_group_symop_operation_xyz
x,y,z
1/2-x,1/2-y,z
1/2+x,-y,-z
-x,1/2+y,-z
-x,-y,-z
1/2+x,1/2+y,-z
1/2-x,y,z
x,1/2-y,z
loop_
_atom_site_type_symbol
_atom_site_label
_atom_site_fract_x
_atom_site_fract_y
_atom_site_fract_z
Si Si1 0.956457 0.161989 0.371907
Si Si2 0.454587 0.337370 0.128251
Si Si3 0.544954 0.500697 0.930819
Si Si4 0.961602 0.912370 0.253051
Si Si5 0.457696 0.336519 0.866116
Si Si6 0.455414 0.408497 0.498940
Si Si7 0.459948 0.909934 0.750541
Si Si8 0.961444 0.659263 0.376297
O O1 0.750000 0.166371 0.363942
O O2 0.029384 0.250000 0.369576
O O3 0.020113 0.112476 0.315589
O O4 0.984015 0.126980 0.436854
O O5 0.250000 0.334960 0.114277
O O6 0.525706 0.250000 0.112246
O O7 0.527860 0.417839 0.098309
O O8 0.476099 0.351572 0.198626
O O9 0.750000 0.505163 0.923352
O O10 0.493751 0.416475 0.902534
O O11 0.500000 0.500000 0.000000
O O12 0.750000 0.911191 0.253994
O O13 0.017945 0.853183 0.201389
O O14 0.019415 0.890232 0.319213
O O15 0.015758 0.000702 0.236170
O O16 0.250000 0.331570 0.864709
O O17 0.521783 0.250000 0.887188
O O18 0.500000 0.500000 0.500000
O O19 0.250000 0.398112 0.500136
O O20 0.524851 0.369813 0.559581
O O21 0.250000 0.908392 0.751984
O O22 0.750000 0.654556 0.377261
O O23 0.008282 0.750000 0.367427
#
# Coordination Sequence:
#
# PCOD9449000 Si02
#       8
#     8   8   8   8   8   8   8   8
#     4  10  21  36  54  80 114 149 188 239 297 353
#     4  10  22  40  61  87 120 157 196 244 301 354
#     4  11  24  42  64  90 124 161 200 246 296 353
#     4   9  16  29  53  84 115 145 184 237 291 344
#     4  10  20  36  61  92 124 159 200 246 298 356
#     4  11  22  36  54  76 106 146 193 244 297 355
#     4  10  19  34  58  86 116 151 194 243 293 350
#     4   9  17  30  50  77 106 138 183 237 287 340
#
# _framework density 21.717117999999999
#
# number of rings (size 3 to 8) (size 9 to 14) (size 15 to 20)
#    0.000    2.000    1.250    2.625    0.000    6.750 
#    0.000    1.250    0.000    0.750    0.000    0.000 
#    0.000    0.000    0.000    0.000    0.000    0.000 
#
# Total GULP energy -357297.015800 kJ/mol
# GULP energy per Si atom -5582.765872 kJ/mol
# Density = 2.166769 g / cm^3
# Si number density = 21.717118 Si / 1000 Ang^3
#
#
#
# Elastic Constant Matrix: (Units=GPa)
#
#
# Indices 1 2 3 4 5 6 
#
# 1 33.6782 10.3970 -2.1729 0.0000 0.0000 0.0000
# 2 10.3970 181.0507 67.3309 0.0000 0.0000 0.0000
# 3 -2.1729 67.3309 125.1730 0.0000 0.0000 0.0000
# 4 0.0000 0.0000 0.0000 17.9350 0.0000 0.0000
# 5 0.0000 0.0000 0.0000 0.0000 20.2424 0.0000
# 6 0.0000 0.0000 0.0000 0.0000 0.0000 18.6505
#
#
#
# Elastic Compliance Matrix: (Units=1/GPa)
#
#
# Indices 1 2 3 4 5 6 
#
# 1 0.030565 -0.002441 0.001844 0.000000 0.000000 0.000000
# 2 -0.002441 0.007099 -0.003861 0.000000 0.000000 0.000000
# 3 0.001844 -0.003861 0.010098 0.000000 0.000000 0.000000
# 4 0.000000 0.000000 0.000000 0.055757 0.000000 0.000000
# 5 0.000000 0.000000 0.000000 0.000000 0.049401 0.000000
# 6 0.000000 0.000000 0.000000 0.000000 0.000000 0.053618
#
#
# Mechanical properties :
#
#
# Convention : Reuss Voigt Hill
#
# Bulk Modulus (GPa) = 25.74293 54.55688 40.14990
# Shear Modulus (GPa) = 21.89105 28.98872 25.43988
#
# Velocity S-wave (km/s) = 3.17836 3.65750 3.42632
# Velocity P-wave (km/s) = 5.03476 6.55839 5.84642
#
# Compressibility (1/GPa) = 0.03884562
#
# Stress axis : x y z
#
# Youngs Moduli (GPa) = 32.71685 140.85685 99.03077
#
# Poissons Ratio (x) = 0.34381 -0.18256
# Poissons Ratio (y) = 0.07986 0.38237
# Poissons Ratio (z) = -0.06031 0.54387
#
# Static dielectric constant tensor:
#      x y z
#    x 1.814180 0.000000 0.000000 
#    y 0.000000 1.799900 0.000000 
#    z 0.000000 0.000000 1.727520 
# 
# From -- ./inp_files/29585.got.cif
#   From: 2010.05.17/outbox.cif.g08.bks.cpg/sg59_15_cif.got.tgz:29585.got - 2010.06.03 14:40:33.
