data_PCOD9449088
_publ_section_title
;
Structure prediction by ZEFSAII (Michael W. Deem and Ramdas Pophale) SiO2 
 PCOD9449088
Probable space group: P M M N
;
_chemical_formula_sum "Si O2"
_cell_formula_units_Z 64
_cell_length_a 25.163527
_cell_length_b 9.322857
_cell_length_c 14.655522
_cell_angle_alpha 90.000000
_cell_angle_beta 90.000000
_cell_angle_gamma 90.000000
_cell_volume 3438.126309
_symmetry_space_group_name_H-M "P M M N"
_symmetry_group_IT_number 59
_space_group.IT_coordinate_system_code '2'
_symmetry_cell_setting 'orthorhombic'
loop_
_space_group_symop_operation_xyz
x,y,z
1/2-x,1/2-y,z
1/2+x,-y,-z
-x,1/2+y,-z
-x,-y,-z
1/2+x,1/2+y,-z
1/2-x,y,z
x,1/2-y,z
loop_
_atom_site_type_symbol
_atom_site_label
_atom_site_fract_x
_atom_site_fract_y
_atom_site_fract_z
Si Si1 0.556426 0.578836 0.517424
Si Si2 0.833388 0.917909 0.007384
Si Si3 0.809623 0.079872 0.823065
Si Si4 0.979745 0.086722 0.211361
Si Si5 0.892857 0.415207 0.358968
Si Si6 0.904942 0.578911 0.723676
Si Si7 0.046760 0.414164 0.953413
Si Si8 0.812071 0.418157 0.196597
O O1 0.500000 0.500000 0.500000
O O2 0.548833 0.750000 0.507828
O O3 0.598622 0.518439 0.444095
O O4 0.579367 0.550855 0.618605
O O5 0.817792 0.750000 0.006092
O O6 0.810752 0.005732 0.922596
O O7 0.897199 0.924467 0.996830
O O8 0.820171 0.988981 0.105055
O O9 0.750000 0.059484 0.784959
O O10 0.819177 0.250000 0.832540
O O11 0.855056 0.007802 0.761540
O O12 0.977264 0.250000 0.175696
O O13 0.949779 0.086342 0.307354
O O14 0.041028 0.044972 0.220754
O O15 0.948022 0.982423 0.145968
O O16 0.881414 0.250000 0.386455
O O17 0.849426 0.457886 0.282415
O O18 0.895379 0.750000 0.733826
O O19 0.031526 0.250000 0.946366
O O20 0.000000 0.500000 0.000000
O O21 0.750000 0.427350 0.222095
O O22 0.824533 0.250000 0.175639
#
# Coordination Sequence:
#
# PCOD9449088 Si02
#       8
#     8   8   8   8   8   8   8   8
#     4  11  22  38  62  92 123 155 194 239 291 354
#     4  11  23  38  58  86 118 155 199 244 292 349
#     4  11  25  43  62  86 115 151 199 248 294 347
#     4  10  19  35  57  82 116 154 189 232 289 346
#     4  10  20  37  59  86 122 158 191 239 293 342
#     4  10  22  40  61  88 119 152 194 240 291 353
#     4  11  23  35  50  79 116 154 196 238 289 348
#     4  10  21  38  61  87 117 158 204 245 289 343
#
# _framework density 18.614789999999999
#
# number of rings (size 3 to 8) (size 9 to 14) (size 15 to 20)
#    0.000    1.500    2.500    2.625    0.000    9.750 
#    0.000    0.625    0.000    2.250    0.000    0.000 
#    0.000    0.000    0.000    0.000    0.000    0.000 
#
# Total GULP energy -357397.554682 kJ/mol
# GULP energy per Si atom -5584.336792 kJ/mol
# Density = 1.857242 g / cm^3
# Si number density = 18.614790 Si / 1000 Ang^3
#
#
#
# Elastic Constant Matrix: (Units=GPa)
#
#
# Indices 1 2 3 4 5 6 
#
# 1 113.3944 56.4626 43.6681 0.0000 0.0000 0.0000
# 2 56.4626 85.0538 48.7577 0.0000 0.0000 0.0000
# 3 43.6681 48.7577 83.3823 0.0000 0.0000 0.0000
# 4 0.0000 0.0000 0.0000 35.0905 0.0000 0.0000
# 5 0.0000 0.0000 0.0000 0.0000 16.8028 0.0000
# 6 0.0000 0.0000 0.0000 0.0000 0.0000 25.9864
#
#
#
# Elastic Compliance Matrix: (Units=1/GPa)
#
#
# Indices 1 2 3 4 5 6 
#
# 1 0.013585 -0.007431 -0.002770 0.000000 0.000000 0.000000
# 2 -0.007431 0.021750 -0.008827 0.000000 0.000000 0.000000
# 3 -0.002770 -0.008827 0.018605 0.000000 0.000000 0.000000
# 4 0.000000 0.000000 0.000000 0.028498 0.000000 0.000000
# 5 0.000000 0.000000 0.000000 0.000000 0.059514 0.000000
# 6 0.000000 0.000000 0.000000 0.000000 0.000000 0.038482
#
#
# Mechanical properties :
#
#
# Convention : Reuss Voigt Hill
#
# Bulk Modulus (GPa) = 62.94876 64.40081 63.67479
# Shear Modulus (GPa) = 22.34299 24.43874 23.39087
#
# Velocity S-wave (km/s) = 3.46827 3.62728 3.54866
# Velocity P-wave (km/s) = 7.06601 7.22597 7.14643
#
# Compressibility (1/GPa) = 0.01588594
#
# Stress axis : x y z
#
# Youngs Moduli (GPa) = 73.60812 45.97637 53.74935
#
# Poissons Ratio (x) = 0.34165 0.14886
# Poissons Ratio (y) = 0.54698 0.47443
# Poissons Ratio (z) = 0.20386 0.40582
#
# Static dielectric constant tensor:
#      x y z
#    x 1.668030 0.000000 0.000000 
#    y 0.000000 1.635410 0.000000 
#    z 0.000000 0.000000 1.669350 
# 
# From -- ./inp_files/24657.got.cif
#   From: 2010.05.17/outbox.cif.g08.bks.cpg/sg59_13_cif.got.tgz:24657.got - 2010.06.03 14:40:33.
