data_PCOD9449588
_publ_section_title
;
Structure prediction by ZEFSAII (Michael W. Deem and Ramdas Pophale) SiO2 
 PCOD9449588
Probable space group: P M M N
;
_chemical_formula_sum "Si O2"
_cell_formula_units_Z 64
_cell_length_a 30.049134
_cell_length_b 9.025769
_cell_length_c 15.123228
_cell_angle_alpha 90.000000
_cell_angle_beta 90.000000
_cell_angle_gamma 90.000000
_cell_volume 4101.669604
_symmetry_space_group_name_H-M "P M M N"
_symmetry_group_IT_number 59
_space_group.IT_coordinate_system_code '2'
_symmetry_cell_setting 'orthorhombic'
loop_
_space_group_symop_operation_xyz
x,y,z
1/2-x,1/2-y,z
1/2+x,-y,-z
-x,1/2+y,-z
-x,-y,-z
1/2+x,1/2+y,-z
1/2-x,y,z
x,1/2-y,z
loop_
_atom_site_type_symbol
_atom_site_label
_atom_site_fract_x
_atom_site_fract_y
_atom_site_fract_z
Si Si1 0.301689 0.422963 0.799880
Si Si2 0.433896 0.425121 0.547887
Si Si3 0.120827 0.573875 0.699082
Si Si4 0.536699 0.572080 0.815564
Si Si5 0.966668 0.074835 0.624782
Si Si6 0.800871 0.072690 0.008136
Si Si7 0.561748 0.426700 0.126853
Si Si8 0.389370 0.072965 0.039424
O O1 0.250000 0.432336 0.774025
O O2 0.313087 0.250000 0.813019
O O3 0.333817 0.496987 0.729262
O O4 0.306466 0.508658 0.892748
O O5 0.425637 0.250000 0.542749
O O6 0.398434 0.505237 0.609889
O O7 0.481977 0.447344 0.594917
O O8 0.437840 0.494966 0.450748
O O9 0.126052 0.750000 0.691174
O O10 0.086177 0.545812 0.779709
O O11 0.535056 0.750000 0.802103
O O12 0.539922 0.493659 0.721203
O O13 0.489935 0.530588 0.862361
O O14 0.577927 0.537249 0.879263
O O15 0.957927 0.250000 0.625145
O O16 0.750000 0.036963 0.980047
O O17 0.805500 0.250000 0.010122
O O18 0.840841 0.000774 0.953197
O O19 0.564403 0.250000 0.109073
O O20 0.586850 0.512095 0.049100
O O21 0.384846 0.250000 0.033326
#
# Coordination Sequence:
#
# PCOD9449588 Si02
#       8
#     8   8   8   8   8   8   8   8
#     4  10  20  33  50  72  99 130 165 207 252 300
#     4  10  20  33  51  73 100 131 164 205 249 295
#     4  11  20  31  51  75 101 134 170 207 246 296
#     4  10  21  36  50  69 100 137 173 210 251 293
#     4  10  20  33  51  74  97 128 168 209 249 291
#     4  10  20  34  51  70  95 128 165 207 254 300
#     4  10  20  33  48  68 100 139 174 206 241 289
#     4  11  22  33  50  73  99 133 171 210 251 298
#
# _framework density 15.603401
#
# number of rings (size 3 to 8) (size 9 to 14) (size 15 to 20)
#    0.000    1.750    2.500    2.625    0.000    4.500 
#    0.000    0.000    0.000    0.000    0.000    0.875 
#    0.000    3.000    0.000    0.000    0.000    0.000 
#
# Total GULP energy -357315.177405 kJ/mol
# GULP energy per Si atom -5583.049647 kJ/mol
# Density = 1.556789 g / cm^3
# Si number density = 15.603401 Si / 1000 Ang^3
#
#
#
# Elastic Constant Matrix: (Units=GPa)
#
#
# Indices 1 2 3 4 5 6 
#
# 1 105.3709 56.7112 49.1841 0.0000 0.0000 0.0000
# 2 56.7112 62.3654 45.4688 0.0000 0.0000 0.0000
# 3 49.1841 45.4688 73.3017 0.0000 0.0000 0.0000
# 4 0.0000 0.0000 0.0000 27.8577 0.0000 0.0000
# 5 0.0000 0.0000 0.0000 0.0000 23.9131 0.0000
# 6 0.0000 0.0000 0.0000 0.0000 0.0000 26.4761
#
#
#
# Elastic Compliance Matrix: (Units=1/GPa)
#
#
# Indices 1 2 3 4 5 6 
#
# 1 0.019131 -0.014674 -0.003734 0.000000 0.000000 0.000000
# 2 -0.014674 0.040528 -0.015294 0.000000 0.000000 0.000000
# 3 -0.003734 -0.015294 0.025634 0.000000 0.000000 0.000000
# 4 0.000000 0.000000 0.000000 0.035897 0.000000 0.000000
# 5 0.000000 0.000000 0.000000 0.000000 0.041818 0.000000
# 6 0.000000 0.000000 0.000000 0.000000 0.000000 0.037770
#
#
# Mechanical properties :
#
#
# Convention : Reuss Voigt Hill
#
# Bulk Modulus (GPa) = 55.89728 60.41848 58.15788
# Shear Modulus (GPa) = 18.23850 21.62764 19.93307
#
# Velocity S-wave (km/s) = 3.42260 3.72706 3.57807
# Velocity P-wave (km/s) = 7.17777 7.57144 7.37723
#
# Compressibility (1/GPa) = 0.01788996
#
# Stress axis : x y z
#
# Youngs Moduli (GPa) = 52.27130 24.67418 39.00993
#
# Poissons Ratio (x) = 0.36207 0.14568
# Poissons Ratio (y) = 0.76702 0.59660
# Poissons Ratio (z) = 0.19520 0.37736
#
# Static dielectric constant tensor:
#      x y z
#    x 1.526710 0.000000 0.000000 
#    y 0.000000 1.517410 0.000000 
#    z 0.000000 0.000000 1.483820 
# 
# From -- ./inp_files/25059.got.cif
#   From: 2010.05.17/outbox.cif.g08.bks.cpg/sg59_13_cif.got.tgz:25059.got - 2010.06.03 14:40:33.
