data_PCOD9449336
_publ_section_title
;
Structure prediction by ZEFSAII (Michael W. Deem and Ramdas Pophale) SiO2 
 PCOD9449336
Probable space group: P M M N
;
_chemical_formula_sum "Si O2"
_cell_formula_units_Z 56
_cell_length_a 26.459615
_cell_length_b 20.761391
_cell_length_c 5.292799
_cell_angle_alpha 90.000000
_cell_angle_beta 90.000000
_cell_angle_gamma 90.000000
_cell_volume 2907.537802
_symmetry_space_group_name_H-M "P M M N"
_symmetry_group_IT_number 59
_space_group.IT_coordinate_system_code '2'
_symmetry_cell_setting 'orthorhombic'
loop_
_space_group_symop_operation_xyz
x,y,z
1/2-x,1/2-y,z
1/2+x,-y,-z
-x,1/2+y,-z
-x,-y,-z
1/2+x,1/2+y,-z
1/2-x,y,z
x,1/2-y,z
loop_
_atom_site_type_symbol
_atom_site_label
_atom_site_fract_x
_atom_site_fract_y
_atom_site_fract_z
Si Si1 0.871762 0.502037 0.600641
Si Si2 0.689893 0.111795 0.455779
Si Si3 0.447012 0.917956 0.090812
Si Si4 0.310356 0.097540 0.089813
Si Si5 0.960170 0.532056 0.308541
Si Si6 0.810842 0.822674 0.401732
Si Si7 0.140801 0.826615 0.038575
O O1 0.830538 0.461896 0.445213
O O2 0.911540 0.448287 0.692431
O O3 0.843323 0.536022 0.831198
O O4 0.908585 0.550044 0.448736
O O5 0.750000 0.112394 0.465382
O O6 0.667870 0.144690 0.710813
O O7 0.669991 0.148513 0.209069
O O8 0.505561 0.913611 0.174007
O O9 0.416321 0.854824 0.015226
O O10 0.446740 0.974621 0.883467
O O11 0.250000 0.082576 0.082111
O O12 0.319185 0.146451 0.323931
O O13 0.325900 0.131103 0.829166
O O14 0.000000 0.500000 0.500000
O O15 0.750000 0.818370 0.375741
O O16 0.831181 0.750000 0.381498
O O17 0.140831 0.750000 0.051818
#
# Coordination Sequence:
#
# PCOD9449336 Si02
#       7
#     8   8   8   8   8   8   8
#     4  10  20  33  54  84 115 147 181 236 292 346
#     4  11  23  38  56  82 121 160 197 243 290 337
#     4   9  19  35  57  84 109 140 184 237 294 337
#     4  10  20  31  51  80 109 143 183 224 274 332
#     4   9  17  34  58  82 107 134 181 232 289 349
#     4   9  18  33  50  70 100 141 186 224 256 307
#     4  11  23  39  59  83 114 156 205 243 284 349
#
# _framework density 19.260280999999999
#
# number of rings (size 3 to 8) (size 9 to 14) (size 15 to 20)
#    0.000    2.143    1.429    1.714    2.000    3.429 
#    0.000    2.857    0.000    1.714    0.000    0.000 
#    0.000    0.000    0.000    0.000    0.000    0.000 
#
# Total GULP energy -312138.457146 kJ/mol
# GULP energy per Si atom -5573.901020 kJ/mol
# Density = 1.921644 g / cm^3
# Si number density = 19.260281 Si / 1000 Ang^3
#
#
#
# Elastic Constant Matrix: (Units=GPa)
#
#
# Indices 1 2 3 4 5 6 
#
# 1 95.5514 49.8604 42.8604 0.0000 0.0000 0.0000
# 2 49.8604 48.3376 4.6509 0.0000 0.0000 0.0000
# 3 42.8604 4.6509 86.1013 0.0000 0.0000 0.0000
# 4 0.0000 0.0000 0.0000 15.8249 0.0000 0.0000
# 5 0.0000 0.0000 0.0000 0.0000 23.1205 0.0000
# 6 0.0000 0.0000 0.0000 0.0000 0.0000 19.7185
#
#
#
# Elastic Compliance Matrix: (Units=1/GPa)
#
#
# Indices 1 2 3 4 5 6 
#
# 1 0.036757 -0.036343 -0.016334 0.000000 0.000000 0.000000
# 2 -0.036343 0.056730 0.015027 0.000000 0.000000 0.000000
# 3 -0.016334 0.015027 0.018933 0.000000 0.000000 0.000000
# 4 0.000000 0.000000 0.000000 0.063192 0.000000 0.000000
# 5 0.000000 0.000000 0.000000 0.000000 0.043252 0.000000
# 6 0.000000 0.000000 0.000000 0.000000 0.000000 0.050714
#
#
# Mechanical properties :
#
#
# Convention : Reuss Voigt Hill
#
# Bulk Modulus (GPa) = 26.93991 47.19265 37.06628
# Shear Modulus (GPa) = 13.99576 20.57402 17.28489
#
# Velocity S-wave (km/s) = 2.69860 3.27189 2.99898
# Velocity P-wave (km/s) = 4.87109 6.23133 5.59272
#
# Compressibility (1/GPa) = 0.03711966
#
# Stress axis : x y z
#
# Youngs Moduli (GPa) = 27.20581 17.62737 52.81654
#
# Poissons Ratio (x) = 0.64063 0.86271
# Poissons Ratio (y) = 0.98874 -0.79367
# Poissons Ratio (z) = 0.44438 -0.26488
#
# Static dielectric constant tensor:
#      x y z
#    x 1.746290 0.000000 0.000000 
#    y 0.000000 1.692840 0.000000 
#    z 0.000000 0.000000 1.747010 
# 
# From -- ./inp_files/3445.got.cif
#   From: 2010.05.17/outbox.cif.g08.bks.cpg/sg59_2_cif.got.tgz:3445.got - 2010.06.03 14:40:33.
