data_PCOD9449275
_publ_section_title
;
Structure prediction by ZEFSAII (Michael W. Deem and Ramdas Pophale) SiO2 
 PCOD9449275
Probable space group: P M M N
;
_chemical_formula_sum "Si O2"
_cell_formula_units_Z 56
_cell_length_a 14.617879
_cell_length_b 8.574639
_cell_length_c 21.080880
_cell_angle_alpha 90.000000
_cell_angle_beta 90.000000
_cell_angle_gamma 90.000000
_cell_volume 2642.341487
_symmetry_space_group_name_H-M "P M M N"
_symmetry_group_IT_number 59
_space_group.IT_coordinate_system_code '2'
_symmetry_cell_setting 'orthorhombic'
loop_
_space_group_symop_operation_xyz
x,y,z
1/2-x,1/2-y,z
1/2+x,-y,-z
-x,1/2+y,-z
-x,-y,-z
1/2+x,1/2+y,-z
1/2-x,y,z
x,1/2-y,z
loop_
_atom_site_type_symbol
_atom_site_label
_atom_site_fract_x
_atom_site_fract_y
_atom_site_fract_z
Si Si1 0.653009 0.560856 0.116022
Si Si2 0.447587 0.938286 0.150586
Si Si3 0.849290 0.067284 0.316967
Si Si4 0.117507 0.424923 0.552888
Si Si5 0.951616 0.437834 0.710474
Si Si6 0.601307 0.428181 0.576236
Si Si7 0.598000 0.564171 0.978444
O O1 0.750000 0.504096 0.143884
O O2 0.651448 0.750000 0.122221
O O3 0.554073 0.507058 0.141630
O O4 0.655310 0.524297 0.040833
O O5 0.448924 0.750000 0.148140
O O6 0.416384 0.987556 0.220609
O O7 0.387600 0.996087 0.091454
O O8 0.750000 0.007483 0.294315
O O9 0.856215 0.250000 0.302288
O O10 0.850233 0.042036 0.393008
O O11 0.941054 0.983163 0.293495
O O12 0.148887 0.250000 0.567181
O O13 0.141689 0.474818 0.481759
O O14 0.007330 0.421481 0.560501
O O15 0.947649 0.250000 0.706840
O O16 0.897939 0.494601 0.647816
O O17 0.635849 0.250000 0.575415
O O18 0.597105 0.750000 0.973222
O O19 0.500000 0.500000 0.000000
#
# Coordination Sequence:
#
# PCOD9449275 Si02
#       7
#     8   8   8   8   8   8   8
#     4   8  14  25  42  64  87 112 145 181 214 251
#     4   9  17  29  45  65  89 116 147 182 219 261
#     4  10  20  31  42  59  86 118 147 176 213 257
#     4   9  16  26  42  61  79 104 139 177 213 247
#     4   9  18  30  44  63  86 115 147 177 211 254
#     4   8  14  25  40  59  82 104 131 171 215 252
#     4   9  16  27  44  63  85 114 146 183 223 261
#
# _framework density 21.193324
#
# number of rings (size 3 to 8) (size 9 to 14) (size 15 to 20)
#    0.000    3.143    0.000    3.000    0.000    5.714 
#    0.000    1.429    0.000   10.714    0.000    1.000 
#    0.000    5.714    0.000    0.000    0.000    0.000 
#
# Total GULP energy -311838.941771 kJ/mol
# GULP energy per Si atom -5568.552532 kJ/mol
# Density = 2.114509 g / cm^3
# Si number density = 21.193324 Si / 1000 Ang^3
#
#
#
# Elastic Constant Matrix: (Units=GPa)
#
#
# Indices 1 2 3 4 5 6 
#
# 1 27.8098 -4.8535 -13.5725 0.0000 0.0000 0.0000
# 2 -4.8535 6.6956 12.9174 0.0000 0.0000 0.0000
# 3 -13.5725 12.9174 156.2151 0.0000 0.0000 0.0000
# 4 0.0000 0.0000 0.0000 22.7600 0.0000 0.0000
# 5 0.0000 0.0000 0.0000 0.0000 -7.1659 0.0000
# 6 0.0000 0.0000 0.0000 0.0000 0.0000 -4.1470
#
#
#
# Elastic Compliance Matrix: (Units=1/GPa)
#
#
# Indices 1 2 3 4 5 6 
#
# 1 0.041396 0.027447 0.001327 0.000000 0.000000 0.000000
# 2 0.027447 0.195899 -0.013814 0.000000 0.000000 0.000000
# 3 0.001327 -0.013814 0.007659 0.000000 0.000000 0.000000
# 4 0.000000 0.000000 0.000000 0.043937 0.000000 0.000000
# 5 0.000000 0.000000 0.000000 0.000000 -0.139549 0.000000
# 6 0.000000 0.000000 0.000000 0.000000 0.000000 -0.241140
#
#
# Mechanical properties :
#
#
# Convention : Reuss Voigt Hill
#
# Bulk Modulus (GPa) = 3.63802 19.96703 11.80252
# Shear Modulus (GPa) = -166.14946 15.37136 -75.38905
#
# Velocity S-wave (km/s) = -8.86382 2.69605 -5.97070
# Velocity P-wave (km/s) = 10.15067 4.37417 6.47698
#
# Compressibility (1/GPa) = 0.27487472
#
# Stress axis : x y z
#
# Youngs Moduli (GPa) = 24.15667 5.10468 130.56515
#
# Poissons Ratio (x) = -0.14011 -0.17327
# Poissons Ratio (y) = -0.66303 1.80364
# Poissons Ratio (z) = -0.03206 0.07052
#
# Static dielectric constant tensor:
#      x y z
#    x 1.779150 0.000000 0.000000 
#    y 0.000000 1.721660 0.000000 
#    z 0.000000 0.000000 1.824270 
# 
# From -- ./inp_files/32279.got.cif
#   From: 2010.05.17/outbox.cif.g08.bks.cpg/sg59_17_cif.got.tgz:32279.got - 2010.06.03 14:40:33.
