data_PCOD9449848
_publ_section_title
;
Structure prediction by ZEFSAII (Michael W. Deem and Ramdas Pophale) SiO2 
 PCOD9449848
Probable space group: P M M N
;
_chemical_formula_sum "Si O2"
_cell_formula_units_Z 64
_cell_length_a 20.744426
_cell_length_b 7.813386
_cell_length_c 19.164362
_cell_angle_alpha 90.000000
_cell_angle_beta 90.000000
_cell_angle_gamma 90.000000
_cell_volume 3106.240431
_symmetry_space_group_name_H-M "P M M N"
_symmetry_group_IT_number 59
_space_group.IT_coordinate_system_code '2'
_symmetry_cell_setting 'orthorhombic'
loop_
_space_group_symop_operation_xyz
x,y,z
1/2-x,1/2-y,z
1/2+x,-y,-z
-x,1/2+y,-z
-x,-y,-z
1/2+x,1/2+y,-z
1/2-x,y,z
x,1/2-y,z
loop_
_atom_site_type_symbol
_atom_site_label
_atom_site_fract_x
_atom_site_fract_y
_atom_site_fract_z
Si Si1 0.319030 0.947959 0.567707
Si Si2 0.177036 0.456482 0.083850
Si Si3 0.680541 0.544064 0.273789
Si Si4 0.460678 0.543155 0.568515
Si Si5 0.939153 0.544188 0.183438
Si Si6 0.070743 0.456310 0.973761
Si Si7 0.459956 0.452341 0.296166
Si Si8 0.822675 0.453147 0.754788
O O1 0.250000 0.024372 0.544256
O O2 0.319427 0.750000 0.544112
O O3 0.388706 0.027188 0.553875
O O4 0.318146 0.955117 0.651664
O O5 0.250000 0.516970 0.068728
O O6 0.177224 0.250000 0.080013
O O7 0.162720 0.501238 0.164335
O O8 0.124836 0.520656 0.027912
O O9 0.750000 0.515234 0.238644
O O10 0.674835 0.750000 0.285169
O O11 0.619877 0.482737 0.230739
O O12 0.500000 0.500000 0.500000
O O13 0.454713 0.750000 0.575929
O O14 0.497957 0.477870 0.638121
O O15 0.935588 0.750000 0.180141
O O16 0.928199 0.478121 0.105549
O O17 0.004849 0.502629 0.223944
O O18 0.077751 0.250000 0.971508
O O19 0.000000 0.500000 0.000000
O O20 0.463809 0.250000 0.301678
O O21 0.384187 0.495874 0.291790
O O22 0.750000 0.522440 0.738679
O O23 0.818643 0.250000 0.750153
#
# Coordination Sequence:
#
# PCOD9449848 Si02
#       8
#     8   8   8   8   8   8   8   8
#     4   9  17  33  56  79 107 141 176 213 253 304
#     4   9  18  34  55  77 104 142 185 227 273 324
#     4   9  17  29  48  76 106 136 172 214 259 307
#     4  10  22  38  57  84 113 145 181 220 270 324
#     4  10  20  33  51  76 107 143 182 226 274 321
#     4  10  21  34  48  71 102 138 179 222 270 321
#     4  11  22  37  57  82 110 140 179 224 272 327
#     4  10  21  37  58  83 108 138 179 226 277 331
#
# _framework density 20.603684000000001
#
# number of rings (size 3 to 8) (size 9 to 14) (size 15 to 20)
#    0.000    2.250    1.250    1.500    0.000    5.750 
#    0.000    3.125    0.000    2.250    0.000    5.250 
#    0.000    0.000    0.000    0.000    0.000    0.000 
#
# Total GULP energy -356780.034471 kJ/mol
# GULP energy per Si atom -5574.688039 kJ/mol
# Density = 2.055679 g / cm^3
# Si number density = 20.603684 Si / 1000 Ang^3
#
#
#
# Elastic Constant Matrix: (Units=GPa)
#
#
# Indices 1 2 3 4 5 6 
#
# 1 176.0954 1.1872 45.9184 0.0000 0.0000 0.0000
# 2 1.1872 28.7353 -3.4795 0.0000 0.0000 0.0000
# 3 45.9184 -3.4795 42.8460 0.0000 0.0000 0.0000
# 4 0.0000 0.0000 0.0000 16.5839 0.0000 0.0000
# 5 0.0000 0.0000 0.0000 0.0000 30.7642 0.0000
# 6 0.0000 0.0000 0.0000 0.0000 0.0000 14.9132
#
#
#
# Elastic Compliance Matrix: (Units=1/GPa)
#
#
# Indices 1 2 3 4 5 6 
#
# 1 0.007934 -0.001371 -0.008615 0.000000 0.000000 0.000000
# 2 -0.001371 0.035383 0.004343 0.000000 0.000000 0.000000
# 3 -0.008615 0.004343 0.032924 0.000000 0.000000 0.000000
# 4 0.000000 0.000000 0.000000 0.060300 0.000000 0.000000
# 5 0.000000 0.000000 0.000000 0.000000 0.032505 0.000000
# 6 0.000000 0.000000 0.000000 0.000000 0.000000 0.067055
#
#
# Mechanical properties :
#
#
# Convention : Reuss Voigt Hill
#
# Bulk Modulus (GPa) = 15.39509 37.21432 26.30471
# Shear Modulus (GPa) = 18.58469 26.05564 22.32016
#
# Velocity S-wave (km/s) = 3.00660 3.55999 3.29494
# Velocity P-wave (km/s) = 4.42053 5.91602 5.22209
#
# Compressibility (1/GPa) = 0.06495577
#
# Stress axis : x y z
#
# Youngs Moduli (GPa) = 126.03483 28.26228 30.37264
#
# Poissons Ratio (x) = 0.03875 0.26165
# Poissons Ratio (y) = 0.17278 -0.13190
# Poissons Ratio (z) = 1.08574 -0.12273
#
# Static dielectric constant tensor:
#      x y z
#    x 1.812100 0.000000 0.000000 
#    y 0.000000 1.721130 0.000000 
#    z 0.000000 0.000000 1.720760 
# 
# From -- ./inp_files/28232.got.cif
#   From: 2010.05.17/outbox.cif.g08.bks.cpg/sg59_15_cif.got.tgz:28232.got - 2010.06.03 14:40:33.
