data_PCOD9449061
_publ_section_title
;
Structure prediction by ZEFSAII (Michael W. Deem and Ramdas Pophale) SiO2 
 PCOD9449061
Probable space group: P M M N
;
_chemical_formula_sum "Si O2"
_cell_formula_units_Z 48
_cell_length_a 8.793696
_cell_length_b 10.010568
_cell_length_c 30.325705
_cell_angle_alpha 90.000000
_cell_angle_beta 90.000000
_cell_angle_gamma 90.000000
_cell_volume 2669.568529
_symmetry_space_group_name_H-M "P M M N"
_symmetry_group_IT_number 59
_space_group.IT_coordinate_system_code '2'
_symmetry_cell_setting 'orthorhombic'
loop_
_space_group_symop_operation_xyz
x,y,z
1/2-x,1/2-y,z
1/2+x,-y,-z
-x,1/2+y,-z
-x,-y,-z
1/2+x,1/2+y,-z
1/2-x,y,z
x,1/2-y,z
loop_
_atom_site_type_symbol
_atom_site_label
_atom_site_fract_x
_atom_site_fract_y
_atom_site_fract_z
Si Si1 0.568747 0.407090 0.114580
Si Si2 0.934484 0.250000 0.454065
Si Si3 0.932893 0.091672 0.960795
Si Si4 0.431647 0.590713 0.701216
Si Si5 0.422807 0.411664 0.207524
Si Si6 0.431920 0.750000 0.444881
Si Si7 0.934133 0.999807 0.394887
O O1 0.750000 0.413765 0.108328
O O2 0.523356 0.250000 0.106263
O O3 0.488170 0.513304 0.082807
O O4 0.524572 0.440875 0.164922
O O5 0.750000 0.250000 0.455581
O O6 0.988606 0.250000 0.504387
O O7 0.980546 0.123397 0.425465
O O8 0.750000 0.089515 0.963347
O O9 0.978993 0.250000 0.962561
O O10 0.000000 0.000000 0.000000
O O11 0.250000 0.574625 0.706290
O O12 0.459455 0.750000 0.696112
O O13 0.511944 0.541538 0.745668
O O14 0.480410 0.521559 0.655834
O O15 0.250000 0.457493 0.200544
O O16 0.420861 0.250000 0.210405
O O17 0.250000 0.750000 0.446014
O O18 0.493609 0.625380 0.418155
O O19 0.750000 0.991570 0.395088
#
# Coordination Sequence:
#
# PCOD9449061 Si02
#       7
#     8   4   8   8   8   4   8
#     4  10  20  35  57  85 115 148 189 232 274 326
#     4   9  18  35  57  79 101 133 179 225 268 319
#     4  11  24  40  59  85 117 153 193 236 282 331
#     4   9  16  29  52  79 103 132 176 227 271 317
#     4   9  17  29  49  79 113 145 176 219 275 329
#     4  11  23  35  49  75 111 141 171 217 272 327
#     4  10  19  35  57  77 101 138 180 221 267 324
#
# _framework density 17.980433000000001
#
# number of rings (size 3 to 8) (size 9 to 14) (size 15 to 20)
#    0.000    2.167    0.833    2.750    0.000    7.000 
#    0.000    1.250    1.833    0.000    0.000    0.000 
#    0.000    0.000    0.000    0.000    0.000    0.000 
#
# Total GULP energy -267681.562572 kJ/mol
# GULP energy per Si atom -5576.699220 kJ/mol
# Density = 1.793951 g / cm^3
# Si number density = 17.980433 Si / 1000 Ang^3
#
#
#
# Elastic Constant Matrix: (Units=GPa)
#
#
# Indices 1 2 3 4 5 6 
#
# 1 42.1037 38.3213 39.5705 0.0000 0.0000 0.0000
# 2 38.3213 124.2476 72.9903 0.0000 0.0000 0.0000
# 3 39.5705 72.9903 157.0540 0.0000 0.0000 0.0000
# 4 0.0000 0.0000 0.0000 2.0821 0.0000 0.0000
# 5 0.0000 0.0000 0.0000 0.0000 31.1494 0.0000
# 6 0.0000 0.0000 0.0000 0.0000 0.0000 31.6807
#
#
#
# Elastic Compliance Matrix: (Units=1/GPa)
#
#
# Indices 1 2 3 4 5 6 
#
# 1 0.036054 -0.007956 -0.005387 0.000000 0.000000 0.000000
# 2 -0.007956 0.012827 -0.003957 0.000000 0.000000 0.000000
# 3 -0.005387 -0.003957 0.009563 0.000000 0.000000 0.000000
# 4 0.000000 0.000000 0.000000 0.480275 0.000000 0.000000
# 5 0.000000 0.000000 0.000000 0.000000 0.032103 0.000000
# 6 0.000000 0.000000 0.000000 0.000000 0.000000 0.031565
#
#
# Mechanical properties :
#
#
# Convention : Reuss Voigt Hill
#
# Bulk Modulus (GPa) = 41.93537 69.46327 55.69932
# Shear Modulus (GPa) = 7.75272 24.48400 16.11836
#
# Velocity S-wave (km/s) = 2.07873 3.69413 2.99731
# Velocity P-wave (km/s) = 5.39768 7.54401 6.55923
#
# Compressibility (1/GPa) = 0.02384622
#
# Stress axis : x y z
#
# Youngs Moduli (GPa) = 27.73584 77.96337 104.56683
#
# Poissons Ratio (x) = 0.62025 0.56327
# Poissons Ratio (y) = 0.22066 0.41373
# Poissons Ratio (z) = 0.14940 0.30847
#
# Static dielectric constant tensor:
#      x y z
#    x 1.613800 0.000000 0.000000 
#    y 0.000000 1.575320 0.000000 
#    z 0.000000 0.000000 1.614780 
# 
# From -- ./inp_files/32946.got.cif
#   From: 2010.05.17/outbox.cif.g08.bks.cpg/sg59_17_cif.got.tgz:32946.got - 2010.06.03 14:40:33.
