data_PCOD9449208
_publ_section_title
;
Structure prediction by ZEFSAII (Michael W. Deem and Ramdas Pophale) SiO2 
 PCOD9449208
Probable space group: P M M N
;
_chemical_formula_sum "Si O2"
_cell_formula_units_Z 40
_cell_length_a 26.507516
_cell_length_b 7.717407
_cell_length_c 9.250281
_cell_angle_alpha 90.000000
_cell_angle_beta 90.000000
_cell_angle_gamma 90.000000
_cell_volume 1892.323412
_symmetry_space_group_name_H-M "P M M N"
_symmetry_group_IT_number 59
_space_group.IT_coordinate_system_code '2'
_symmetry_cell_setting 'orthorhombic'
loop_
_space_group_symop_operation_xyz
x,y,z
1/2-x,1/2-y,z
1/2+x,-y,-z
-x,1/2+y,-z
-x,-y,-z
1/2+x,1/2+y,-z
1/2-x,y,z
x,1/2-y,z
loop_
_atom_site_type_symbol
_atom_site_label
_atom_site_fract_x
_atom_site_fract_y
_atom_site_fract_z
Si Si1 0.050689 0.958260 0.586046
Si Si2 0.150995 0.962695 0.420609
Si Si3 0.750000 0.040364 0.405648
Si Si4 0.352482 0.545169 0.091638
Si Si5 0.750000 0.953021 0.068073
Si Si6 0.448878 0.541055 0.915311
O O1 0.054540 0.750000 0.592879
O O2 0.099993 0.019778 0.500072
O O3 0.049327 0.024353 0.750577
O O4 0.000000 0.000000 0.500000
O O5 0.151681 0.750000 0.420047
O O6 0.200045 0.018450 0.510025
O O7 0.152031 0.023444 0.254742
O O8 0.750000 0.250000 0.407541
O O9 0.750000 0.986832 0.239029
O O10 0.362056 0.750000 0.107581
O O11 0.300585 0.525245 0.004966
O O12 0.399966 0.473889 0.001808
O O13 0.750000 0.750000 0.041475
O O14 0.444678 0.750000 0.907571
O O15 0.500000 0.500000 0.000000
#
# Coordination Sequence:
#
# PCOD9449208 Si02
#       6
#     8   8   4   8   4   8
#     4  10  20  35  54  81 112 144 182 224 269 321
#     4   9  18  34  60  86 105 133 183 233 271 318
#     4  10  19  36  60  82 106 140 179 224 272 326
#     4  10  20  38  62  84 107 144 188 229 274 330
#     4  12  25  38  54  82 116 148 181 226 278 328
#     4  10  21  36  58  85 114 147 185 227 274 326
#
# _framework density 21.138036
#
# number of rings (size 3 to 8) (size 9 to 14) (size 15 to 20)
#    0.000    2.000    0.000    3.900    0.000    8.000 
#    0.000    6.000    0.000    0.000    0.000    0.000 
#    0.000    0.000    0.000    0.000    0.000    0.000 
#
# Total GULP energy -223590.613284 kJ/mol
# GULP energy per Si atom -5589.765332 kJ/mol
# Density = 2.108992 g / cm^3
# Si number density = 21.138036 Si / 1000 Ang^3
#
#
#
# Elastic Constant Matrix: (Units=GPa)
#
#
# Indices 1 2 3 4 5 6 
#
# 1 218.9741 -15.0730 130.5712 0.0000 0.0000 0.0000
# 2 -15.0730 27.4097 -5.9381 0.0000 0.0000 0.0000
# 3 130.5712 -5.9381 240.3784 0.0000 0.0000 0.0000
# 4 0.0000 0.0000 0.0000 9.9184 0.0000 0.0000
# 5 0.0000 0.0000 0.0000 0.0000 -27.3466 0.0000
# 6 0.0000 0.0000 0.0000 0.0000 0.0000 23.4109
#
#
#
# Elastic Compliance Matrix: (Units=1/GPa)
#
#
# Indices 1 2 3 4 5 6 
#
# 1 0.006998 0.003041 -0.003726 0.000000 0.000000 0.000000
# 2 0.003041 0.038001 -0.000713 0.000000 0.000000 0.000000
# 3 -0.003726 -0.000713 0.006166 0.000000 0.000000 0.000000
# 4 0.000000 0.000000 0.000000 0.100823 0.000000 0.000000
# 5 0.000000 0.000000 0.000000 0.000000 -0.036568 0.000000
# 6 0.000000 0.000000 0.000000 0.000000 0.000000 0.042715
#
#
# Mechanical properties :
#
#
# Convention : Reuss Voigt Hill
#
# Bulk Modulus (GPa) = 20.67427 78.43137 49.55282
# Shear Modulus (GPa) = 28.23971 26.34333 27.29152
#
# Velocity S-wave (km/s) = 3.65905 3.53406 3.59710
# Velocity P-wave (km/s) = 5.25865 7.33742 6.38322
#
# Compressibility (1/GPa) = 0.04836930
#
# Stress axis : x y z
#
# Youngs Moduli (GPa) = 142.90060 26.31492 162.16789
#
# Poissons Ratio (x) = -0.08002 0.60425
# Poissons Ratio (y) = -0.43456 0.11564
# Poissons Ratio (z) = 0.53246 0.01877
#
# Static dielectric constant tensor:
#      x y z
#    x 1.239960 0.000000 0.000000 
#    y 0.000000 1.802270 0.000000 
#    z 0.000000 0.000000 1.734820 
# 
# From -- ./inp_files/12447.got.cif
#   From: 2010.05.17/outbox.cif.g08.bks.cpg/sg59_7_cif.got.tgz:12447.got - 2010.06.03 14:40:33.
