data_PCOD9449340
_publ_section_title
;
Structure prediction by ZEFSAII (Michael W. Deem and Ramdas Pophale) SiO2 
 PCOD9449340
Probable space group: P M M N
;
_chemical_formula_sum "Si O2"
_cell_formula_units_Z 64
_cell_length_a 8.302568
_cell_length_b 27.480530
_cell_length_c 17.918509
_cell_angle_alpha 90.000000
_cell_angle_beta 90.000000
_cell_angle_gamma 90.000000
_cell_volume 4088.268539
_symmetry_space_group_name_H-M "P M M N"
_symmetry_group_IT_number 59
_space_group.IT_coordinate_system_code '2'
_symmetry_cell_setting 'orthorhombic'
loop_
_space_group_symop_operation_xyz
x,y,z
1/2-x,1/2-y,z
1/2+x,-y,-z
-x,1/2+y,-z
-x,-y,-z
1/2+x,1/2+y,-z
1/2-x,y,z
x,1/2-y,z
loop_
_atom_site_type_symbol
_atom_site_label
_atom_site_fract_x
_atom_site_fract_y
_atom_site_fract_z
Si Si1 0.557970 0.554926 0.983745
Si Si2 0.437483 0.463570 0.604425
Si Si3 0.440781 0.892590 0.518080
Si Si4 0.946760 0.535181 0.823289
Si Si5 0.443381 0.575774 0.139348
Si Si6 0.938241 0.564106 0.661145
Si Si7 0.054018 0.804958 0.413059
Si Si8 0.554702 0.121669 0.711705
O O1 0.750000 0.555630 0.984000
O O2 0.504544 0.563954 0.898429
O O3 0.500000 0.500000 0.000000
O O4 0.499100 0.585015 0.054978
O O5 0.250000 0.476811 0.605896
O O6 0.479868 0.437232 0.526978
O O7 0.538772 0.511028 0.624105
O O8 0.479194 0.423008 0.666156
O O9 0.250000 0.896486 0.506040
O O10 0.478946 0.898276 0.604958
O O11 0.496170 0.842749 0.477939
O O12 0.750000 0.534239 0.820187
O O13 0.997687 0.478549 0.834033
O O14 0.003032 0.557932 0.745449
O O15 0.250000 0.573934 0.137858
O O16 0.492565 0.614508 0.202287
O O17 0.750000 0.575966 0.664838
O O18 0.250000 0.803277 0.415211
O O19 0.994225 0.750000 0.421109
O O20 0.009798 0.830008 0.334060
O O21 0.750000 0.117099 0.707169
#
# Coordination Sequence:
#
# PCOD9449340 Si02
#       8
#     8   8   8   8   8   8   8   8
#     4   9  16  26  38  55  77 108 144 175 204 238
#     4  11  20  29  41  60  84 111 145 177 209 248
#     4  10  20  32  44  61  83 107 138 175 213 256
#     4   8  15  26  39  53  77 111 142 169 205 240
#     4   9  15  26  40  57  81 111 141 171 207 243
#     4  11  19  30  44  58  82 114 145 176 212 249
#     4   8  15  29  49  67  82 105 137 173 213 259
#     4   9  16  28  45  63  86 113 142 175 213 254
#
# _framework density 15.654548999999999
#
# number of rings (size 3 to 8) (size 9 to 14) (size 15 to 20)
#    0.000    2.625    1.250    4.125    0.000    0.500 
#    0.000    1.875    0.000    9.375    0.000    0.000 
#    0.000    1.000    0.000   10.250    0.000    1.250 
#
# Total GULP energy -356405.073335 kJ/mol
# GULP energy per Si atom -5568.829271 kJ/mol
# Density = 1.561892 g / cm^3
# Si number density = 15.654549 Si / 1000 Ang^3
#
#
#
# Elastic Constant Matrix: (Units=GPa)
#
#
# Indices 1 2 3 4 5 6 
#
# 1 10.4170 -0.8118 6.5352 0.0000 0.0000 0.0000
# 2 -0.8118 52.8188 47.1772 0.0000 0.0000 0.0000
# 3 6.5352 47.1772 151.7455 0.0000 0.0000 0.0000
# 4 0.0000 0.0000 0.0000 10.6533 0.0000 0.0000
# 5 0.0000 0.0000 0.0000 0.0000 22.6931 0.0000
# 6 0.0000 0.0000 0.0000 0.0000 0.0000 7.8507
#
#
#
# Elastic Compliance Matrix: (Units=1/GPa)
#
#
# Indices 1 2 3 4 5 6 
#
# 1 0.100770 0.007511 -0.006675 0.000000 0.000000 0.000000
# 2 0.007511 0.026771 -0.008647 0.000000 0.000000 0.000000
# 3 -0.006675 -0.008647 0.009566 0.000000 0.000000 0.000000
# 4 0.000000 0.000000 0.000000 0.093868 0.000000 0.000000
# 5 0.000000 0.000000 0.000000 0.000000 0.044066 0.000000
# 6 0.000000 0.000000 0.000000 0.000000 0.000000 0.127378
#
#
# Mechanical properties :
#
#
# Convention : Reuss Voigt Hill
#
# Bulk Modulus (GPa) = 8.23147 35.64252 21.93699
# Shear Modulus (GPa) = 10.90431 19.04479 14.97455
#
# Velocity S-wave (km/s) = 2.64210 3.49171 3.09619
# Velocity P-wave (km/s) = 3.81801 6.25089 5.17933
#
# Compressibility (1/GPa) = 0.12148503
#
# Stress axis : x y z
#
# Youngs Moduli (GPa) = 9.92362 37.35371 104.54094
#
# Poissons Ratio (x) = -0.28056 0.69780
# Poissons Ratio (y) = -0.07453 0.90392
# Poissons Ratio (z) = 0.06624 0.32298
#
# Static dielectric constant tensor:
#      x y z
#    x 1.557070 0.000000 0.000000 
#    y 0.000000 1.495510 0.000000 
#    z 0.000000 0.000000 1.582690 
# 
# From -- ./inp_files/26664.got.cif
#   From: 2010.05.17/outbox.cif.g08.bks.cpg/sg59_14_cif.got.tgz:26664.got - 2010.06.03 14:40:33.
