data_PCOD9449967
_publ_section_title
;
Structure prediction by ZEFSAII (Michael W. Deem and Ramdas Pophale) SiO2 
 PCOD9449967
Probable space group: P M M N
;
_chemical_formula_sum "Si O2"
_cell_formula_units_Z 48
_cell_length_a 7.957630
_cell_length_b 9.420977
_cell_length_c 31.854143
_cell_angle_alpha 90.000000
_cell_angle_beta 90.000000
_cell_angle_gamma 90.000000
_cell_volume 2388.062072
_symmetry_space_group_name_H-M "P M M N"
_symmetry_group_IT_number 59
_space_group.IT_coordinate_system_code '2'
_symmetry_cell_setting 'orthorhombic'
loop_
_space_group_symop_operation_xyz
x,y,z
1/2-x,1/2-y,z
1/2+x,-y,-z
-x,1/2+y,-z
-x,-y,-z
1/2+x,1/2+y,-z
1/2-x,y,z
x,1/2-y,z
loop_
_atom_site_type_symbol
_atom_site_label
_atom_site_fract_x
_atom_site_fract_y
_atom_site_fract_z
Si Si1 0.044956 0.914187 0.214955
Si Si2 0.047485 0.587982 0.120861
Si Si3 0.547335 0.587499 0.377519
Si Si4 0.547145 0.412825 0.458626
Si Si5 0.449610 0.908922 0.959691
Si Si6 0.046935 0.088248 0.295311
O O1 0.250000 0.916978 0.215210
O O2 0.996112 0.750000 0.222458
O O3 0.990755 0.954505 0.167776
O O4 0.986398 0.015514 0.252195
O O5 0.250000 0.591562 0.121858
O O6 0.989378 0.750000 0.113042
O O7 0.996924 0.486292 0.083383
O O8 0.750000 0.592660 0.380131
O O9 0.485184 0.750000 0.378171
O O10 0.485992 0.496897 0.417442
O O11 0.501533 0.507609 0.334816
O O12 0.500000 0.500000 0.500000
O O13 0.750000 0.407667 0.456443
O O14 0.485709 0.250000 0.459994
O O15 0.250000 0.898442 0.960701
O O16 0.522258 0.750000 0.961693
O O17 0.500000 0.000000 0.000000
O O18 0.250000 0.092238 0.293545
O O19 0.986152 0.250000 0.299913
#
# Coordination Sequence:
#
# PCOD9449967 Si02
#       6
#     8   8   8   8   8   8
#     4   8  15  30  52  77 106 139 174 214 258 304
#     4   9  18  34  57  83 108 136 173 215 260 311
#     4  10  21  37  56  77 103 138 178 218 263 314
#     4  10  21  37  57  80 106 137 173 214 262 314
#     4  11  24  39  55  78 107 138 175 217 260 310
#     4  10  20  33  52  80 110 140 177 219 261 308
#
# _framework density 20.099979999999999
#
# number of rings (size 3 to 8) (size 9 to 14) (size 15 to 20)
#    0.000    2.333    0.000    3.500    0.000    8.000 
#    0.000    2.500    0.000    1.000    0.000    0.000 
#    0.000    0.000    0.000    0.000    0.000    0.000 
#
# Total GULP energy -268040.148916 kJ/mol
# GULP energy per Si atom -5584.169769 kJ/mol
# Density = 2.005423 g / cm^3
# Si number density = 20.099980 Si / 1000 Ang^3
#
#
#
# Elastic Constant Matrix: (Units=GPa)
#
#
# Indices 1 2 3 4 5 6 
#
# 1 16.9523 13.6863 9.8050 0.0000 0.0000 0.0000
# 2 13.6863 207.9560 145.8662 0.0000 0.0000 0.0000
# 3 9.8050 145.8662 207.7336 0.0000 0.0000 0.0000
# 4 0.0000 0.0000 0.0000 43.6323 0.0000 0.0000
# 5 0.0000 0.0000 0.0000 0.0000 28.4123 0.0000
# 6 0.0000 0.0000 0.0000 0.0000 0.0000 21.5148
#
#
#
# Elastic Compliance Matrix: (Units=1/GPa)
#
#
# Indices 1 2 3 4 5 6 
#
# 1 0.062301 -0.004015 -0.000121 0.000000 0.000000 0.000000
# 2 -0.004015 0.009735 -0.006646 0.000000 0.000000 0.000000
# 3 -0.000121 -0.006646 0.009486 0.000000 0.000000 0.000000
# 4 0.000000 0.000000 0.000000 0.022919 0.000000 0.000000
# 5 0.000000 0.000000 0.000000 0.000000 0.035196 0.000000
# 6 0.000000 0.000000 0.000000 0.000000 0.000000 0.046480
#
#
# Mechanical properties :
#
#
# Convention : Reuss Voigt Hill
#
# Bulk Modulus (GPa) = 16.67863 85.70633 51.19248
# Shear Modulus (GPa) = 21.96196 36.26418 29.11307
#
# Velocity S-wave (km/s) = 3.30909 4.25218 3.80993
# Velocity P-wave (km/s) = 4.78706 8.17561 6.69913
#
# Compressibility (1/GPa) = 0.05995697
#
# Stress axis : x y z
#
# Youngs Moduli (GPa) = 16.05116 102.72634 105.41625
#
# Poissons Ratio (x) = 0.41247 0.01277
# Poissons Ratio (y) = 0.06445 0.70059
# Poissons Ratio (z) = 0.00194 0.68271
#
# Static dielectric constant tensor:
#      x y z
#    x 1.737270 0.000000 0.000000 
#    y 0.000000 1.708010 0.000000 
#    z 0.000000 0.000000 1.690220 
# 
# From -- ./inp_files/32858.got.cif
#   From: 2010.05.17/outbox.cif.g08.bks.cpg/sg59_17_cif.got.tgz:32858.got - 2010.06.03 14:40:33.
