data_PCOD9449021
_publ_section_title
;
Structure prediction by ZEFSAII (Michael W. Deem and Ramdas Pophale) SiO2 
 PCOD9449021
Probable space group: P M M N
;
_chemical_formula_sum "Si O2"
_cell_formula_units_Z 30
_cell_length_a 5.194802
_cell_length_b 20.749064
_cell_length_c 12.912661
_cell_angle_alpha 90.000000
_cell_angle_beta 90.000000
_cell_angle_gamma 90.000000
_cell_volume 1391.820596
_symmetry_space_group_name_H-M "P M M N"
_symmetry_group_IT_number 59
_space_group.IT_coordinate_system_code '2'
_symmetry_cell_setting 'orthorhombic'
loop_
_space_group_symop_operation_xyz
x,y,z
1/2-x,1/2-y,z
1/2+x,-y,-z
-x,1/2+y,-z
-x,-y,-z
1/2+x,1/2+y,-z
1/2-x,y,z
x,1/2-y,z
loop_
_atom_site_type_symbol
_atom_site_label
_atom_site_fract_x
_atom_site_fract_y
_atom_site_fract_z
Si Si1 0.250000 0.822373 0.766597
Si Si2 0.750000 0.750000 0.506153
Si Si3 0.250000 0.323779 0.906806
Si Si4 0.750000 0.357542 0.775260
Si Si5 0.250000 0.373585 0.126659
Si Si6 0.250000 0.837654 0.465026
Si Si7 0.750000 0.442104 0.388011
Si Si8 0.250000 0.005933 0.281462
O O1 0.250000 0.750000 0.725684
O O2 0.500334 0.835316 0.834833
O O3 0.250000 0.875331 0.677583
O O4 0.517240 0.805333 0.502974
O O5 0.250000 0.250000 0.946517
O O6 0.499605 0.334673 0.836760
O O7 0.250000 0.372957 0.003032
O O8 0.750000 0.330694 0.659045
O O9 0.750000 0.434769 0.764645
O O10 0.250000 0.441880 0.186670
O O11 0.250000 0.912923 0.497551
O O12 0.500184 0.479942 0.350680
#
# Coordination Sequence:
#
# PCOD9449021 Si02
#       8
#     4   2   4   4   4   4   4   4
#     4  10  19  34  59  91 122 162 203 258 324 392
#     4  10  24  38  64  86 136 164 216 256 320 380
#     4  12  26  42  65  95 124 169 218 269 325 391
#     4  12  27  41  67  94 126 176 220 265 322 366
#     4  10  22  41  63  88 130 162 207 272 324 375
#     4  11  24  42  62  97 128 177 208 268 317 378
#     4  10  22  40  63  93 130 169 212 261 323 381
#     4  10  23  44  65  96 129 167 219 266 316 396
#
# _framework density 21.554503
#
# number of rings (size 3 to 8) (size 9 to 14) (size 15 to 20)
#    0.000    1.333    0.000    4.800    7.467    2.133 
#    0.000    0.000    0.000    0.000    0.000    0.000 
#    0.000    0.000    0.000    0.000    0.000    0.000 
#
# Total GULP energy -167356.175431 kJ/mol
# GULP energy per Si atom -5578.539181 kJ/mol
# Density = 2.150544 g / cm^3
# Si number density = 21.554503 Si / 1000 Ang^3
#
#
#
# Elastic Constant Matrix: (Units=GPa)
#
#
# Indices 1 2 3 4 5 6 
#
# 1 226.7667 38.0377 43.0043 0.0000 0.0000 0.0000
# 2 38.0377 111.8767 3.8938 0.0000 0.0000 0.0000
# 3 43.0043 3.8938 87.0626 0.0000 0.0000 0.0000
# 4 0.0000 0.0000 0.0000 21.8249 0.0000 0.0000
# 5 0.0000 0.0000 0.0000 0.0000 24.5750 0.0000
# 6 0.0000 0.0000 0.0000 0.0000 0.0000 27.0623
#
#
#
# Elastic Compliance Matrix: (Units=1/GPa)
#
#
# Indices 1 2 3 4 5 6 
#
# 1 0.005159 -0.001668 -0.002474 0.000000 0.000000 0.000000
# 2 -0.001668 0.009492 0.000399 0.000000 0.000000 0.000000
# 3 -0.002474 0.000399 0.012690 0.000000 0.000000 0.000000
# 4 0.000000 0.000000 0.000000 0.045819 0.000000 0.000000
# 5 0.000000 0.000000 0.000000 0.000000 0.040692 0.000000
# 6 0.000000 0.000000 0.000000 0.000000 0.000000 0.036952
#
#
# Mechanical properties :
#
#
# Convention : Reuss Voigt Hill
#
# Bulk Modulus (GPa) = 50.36237 66.17527 58.26882
# Shear Modulus (GPa) = 30.32037 37.41046 33.86541
#
# Velocity S-wave (km/s) = 3.75465 4.17060 3.96808
# Velocity P-wave (km/s) = 6.49710 7.34574 6.93441
#
# Compressibility (1/GPa) = 0.01985610
#
# Stress axis : x y z
#
# Youngs Moduli (GPa) = 193.84878 105.35660 78.80278
#
# Poissons Ratio (x) = 0.17572 0.19492
# Poissons Ratio (y) = 0.32331 -0.03147
# Poissons Ratio (z) = 0.47949 -0.04207
#
# Static dielectric constant tensor:
#      x y z
#    x 1.718830 0.000000 0.000000 
#    y 0.000000 1.812300 0.000000 
#    z 0.000000 0.000000 1.825640 
# 
# From -- ./inp_files/13355.got.cif
#   From: 2010.05.17/outbox.cif.g08.bks.cpg/sg59_7_cif.got.tgz:13355.got - 2010.06.03 14:40:33.
