data_PCOD9449466
_publ_section_title
;
Structure prediction by ZEFSAII (Michael W. Deem and Ramdas Pophale) SiO2 
 PCOD9449466
Probable space group: P M M N
;
_chemical_formula_sum "Si O2"
_cell_formula_units_Z 64
_cell_length_a 30.384093
_cell_length_b 8.650998
_cell_length_c 15.327706
_cell_angle_alpha 90.000000
_cell_angle_beta 90.000000
_cell_angle_gamma 90.000000
_cell_volume 4028.929333
_symmetry_space_group_name_H-M "P M M N"
_symmetry_group_IT_number 59
_space_group.IT_coordinate_system_code '2'
_symmetry_cell_setting 'orthorhombic'
loop_
_space_group_symop_operation_xyz
x,y,z
1/2-x,1/2-y,z
1/2+x,-y,-z
-x,1/2+y,-z
-x,-y,-z
1/2+x,1/2+y,-z
1/2-x,y,z
x,1/2-y,z
loop_
_atom_site_type_symbol
_atom_site_label
_atom_site_fract_x
_atom_site_fract_y
_atom_site_fract_z
Si Si1 0.936580 0.935583 0.454230
Si Si2 0.394000 0.064725 0.044086
Si Si3 0.968996 0.064393 0.624960
Si Si4 0.699738 0.433373 0.207442
Si Si5 0.058982 0.934077 0.871970
Si Si6 0.200815 0.063742 0.987931
Si Si7 0.614513 0.934075 0.287922
Si Si8 0.535338 0.064328 0.825398
O O1 0.937365 0.750000 0.461771
O O2 0.898923 0.979655 0.385860
O O3 0.982401 0.984880 0.407669
O O4 0.936047 0.004415 0.550817
O O5 0.397207 0.250000 0.050639
O O6 0.422515 0.987902 0.119935
O O7 0.342280 0.020631 0.043092
O O8 0.415370 0.011794 0.952416
O O9 0.968250 0.250000 0.624561
O O10 0.961439 0.013807 0.724140
O O11 0.750000 0.463808 0.234561
O O12 0.691584 0.250000 0.211254
O O13 0.695655 0.488634 0.107379
O O14 0.663930 0.521586 0.264024
O O15 0.060280 0.750000 0.882168
O O16 0.083202 0.983973 0.782824
O O17 0.008788 0.991952 0.866582
O O18 0.250000 0.022722 0.020922
O O19 0.199630 0.250000 0.977355
O O20 0.607478 0.750000 0.279164
O O21 0.530996 0.250000 0.827860
#
# Coordination Sequence:
#
# PCOD9449466 Si02
#       8
#     8   8   8   8   8   8   8   8
#     4   9  18  32  50  72  97 125 160 201 244 289
#     4  11  22  35  51  73 100 132 171 209 248 298
#     4   9  18  33  50  70  96 127 162 203 246 287
#     4  10  20  32  48  73 102 130 165 207 247 293
#     4  12  23  34  49  71 100 136 174 208 245 289
#     4   9  18  33  52  71  95 129 165 204 250 296
#     4  11  20  33  51  73 102 135 168 203 247 300
#     4  11  22  37  52  69 100 136 172 209 248 294
#
# _framework density 15.885111999999999
#
# number of rings (size 3 to 8) (size 9 to 14) (size 15 to 20)
#    0.000    1.750    2.500    3.000    0.000    3.250 
#    0.000    0.000    0.000    0.000    0.000    0.875 
#    0.000    3.000    0.000    0.000    0.000    0.000 
#
# Total GULP energy -357156.445477 kJ/mol
# GULP energy per Si atom -5580.569461 kJ/mol
# Density = 1.584896 g / cm^3
# Si number density = 15.885112 Si / 1000 Ang^3
#
#
#
# Elastic Constant Matrix: (Units=GPa)
#
#
# Indices 1 2 3 4 5 6 
#
# 1 88.1671 16.9686 32.8963 0.0000 0.0000 0.0000
# 2 16.9686 29.1743 7.2671 0.0000 0.0000 0.0000
# 3 32.8963 7.2671 59.4026 0.0000 0.0000 0.0000
# 4 0.0000 0.0000 0.0000 25.1093 0.0000 0.0000
# 5 0.0000 0.0000 0.0000 0.0000 22.2661 0.0000
# 6 0.0000 0.0000 0.0000 0.0000 0.0000 21.4714
#
#
#
# Elastic Compliance Matrix: (Units=1/GPa)
#
#
# Indices 1 2 3 4 5 6 
#
# 1 0.015619 -0.007148 -0.007775 0.000000 0.000000 0.000000
# 2 -0.007148 0.038625 -0.000767 0.000000 0.000000 0.000000
# 3 -0.007775 -0.000767 0.021234 0.000000 0.000000 0.000000
# 4 0.000000 0.000000 0.000000 0.039826 0.000000 0.000000
# 5 0.000000 0.000000 0.000000 0.000000 0.044911 0.000000
# 6 0.000000 0.000000 0.000000 0.000000 0.000000 0.046574
#
#
# Mechanical properties :
#
#
# Convention : Reuss Voigt Hill
#
# Bulk Modulus (GPa) = 22.67661 32.33424 27.50543
# Shear Modulus (GPa) = 19.77324 21.74348 20.75836
#
# Velocity S-wave (km/s) = 3.53195 3.70374 3.61886
# Velocity P-wave (km/s) = 5.56231 6.22009 5.90037
#
# Compressibility (1/GPa) = 0.04409831
#
# Stress axis : x y z
#
# Youngs Moduli (GPa) = 64.02591 25.88994 47.09470
#
# Poissons Ratio (x) = 0.18505 0.36616
# Poissons Ratio (y) = 0.45763 0.03612
# Poissons Ratio (z) = 0.49780 0.01986
#
# Static dielectric constant tensor:
#      x y z
#    x 1.541050 0.000000 0.000000 
#    y 0.000000 1.535380 0.000000 
#    z 0.000000 0.000000 1.514920 
# 
# From -- ./inp_files/25050.got.cif
#   From: 2010.05.17/outbox.cif.g08.bks.cpg/sg59_13_cif.got.tgz:25050.got - 2010.06.03 14:40:33.
