data_PCOD9449422
_publ_section_title
;
Structure prediction by ZEFSAII (Michael W. Deem and Ramdas Pophale) SiO2 
 PCOD9449422
Probable space group: P M M N
;
_chemical_formula_sum "Si O2"
_cell_formula_units_Z 48
_cell_length_a 9.789392
_cell_length_b 7.593915
_cell_length_c 32.430132
_cell_angle_alpha 90.000000
_cell_angle_beta 90.000000
_cell_angle_gamma 90.000000
_cell_volume 2410.849875
_symmetry_space_group_name_H-M "P M M N"
_symmetry_group_IT_number 59
_space_group.IT_coordinate_system_code '2'
_symmetry_cell_setting 'orthorhombic'
loop_
_space_group_symop_operation_xyz
x,y,z
1/2-x,1/2-y,z
1/2+x,-y,-z
-x,1/2+y,-z
-x,-y,-z
1/2+x,1/2+y,-z
1/2-x,y,z
x,1/2-y,z
loop_
_atom_site_type_symbol
_atom_site_label
_atom_site_fract_x
_atom_site_fract_y
_atom_site_fract_z
Si Si1 0.595141 0.039215 0.704833
Si Si2 0.416313 0.546617 0.872366
Si Si3 0.403780 0.039124 0.538185
Si Si4 0.091826 0.465079 0.630145
Si Si5 0.594780 0.038186 0.038620
Si Si6 0.593913 0.037450 0.217574
O O1 0.750000 0.970558 0.706901
O O2 0.603818 0.250000 0.699917
O O3 0.508753 0.971226 0.665767
O O4 0.509056 0.006744 0.746128
O O5 0.250000 0.548193 0.873124
O O6 0.463635 0.750000 0.871844
O O7 0.456840 0.469534 0.916748
O O8 0.451487 0.469393 0.827676
O O9 0.250000 0.972290 0.530862
O O10 0.396371 0.250000 0.541109
O O11 0.448334 0.978068 0.583813
O O12 0.500000 0.000000 0.500000
O O13 0.250000 0.516836 0.637335
O O14 0.090173 0.250000 0.631011
O O15 0.750000 0.974479 0.031756
O O16 0.601625 0.250000 0.042802
O O17 0.500000 0.000000 0.000000
O O18 0.750000 0.976789 0.226118
O O19 0.600169 0.250000 0.214499
#
# Coordination Sequence:
#
# PCOD9449422 Si02
#       6
#     8   8   8   8   8   8
#     4  10  20  32  47  70  98 125 153 187 230 279
#     4   7  12  26  47  67  87 115 153 192 226 266
#     4   9  18  32  50  73  98 123 155 194 233 274
#     4   8  15  30  50  68  89 122 162 197 226 264
#     4   9  17  30  48  69  93 121 153 190 231 273
#     4   9  17  31  52  73  90 115 155 197 233 272
#
# _framework density 19.909993
#
# number of rings (size 3 to 8) (size 9 to 14) (size 15 to 20)
#    0.000    3.333    0.000    3.500    0.000    2.667 
#    0.000    4.167    0.000    9.000    0.000    0.000 
#    0.000    0.000    0.000    0.000    0.000    0.000 
#
# Total GULP energy -267410.182079 kJ/mol
# GULP energy per Si atom -5571.045460 kJ/mol
# Density = 1.986468 g / cm^3
# Si number density = 19.909993 Si / 1000 Ang^3
#
#
#
# Elastic Constant Matrix: (Units=GPa)
#
#
# Indices 1 2 3 4 5 6 
#
# 1 112.9526 5.0015 128.7052 0.0000 0.0000 0.0000
# 2 5.0015 41.8643 5.3961 0.0000 0.0000 0.0000
# 3 128.7052 5.3961 247.3217 0.0000 0.0000 0.0000
# 4 0.0000 0.0000 0.0000 23.8782 0.0000 0.0000
# 5 0.0000 0.0000 0.0000 0.0000 33.1230 0.0000
# 6 0.0000 0.0000 0.0000 0.0000 0.0000 16.1274
#
#
#
# Elastic Compliance Matrix: (Units=1/GPa)
#
#
# Indices 1 2 3 4 5 6 
#
# 1 0.021806 -0.001146 -0.011323 0.000000 0.000000 0.000000
# 2 -0.001146 0.024014 0.000072 0.000000 0.000000 0.000000
# 3 -0.011323 0.000072 0.009934 0.000000 0.000000 0.000000
# 4 0.000000 0.000000 0.000000 0.041879 0.000000 0.000000
# 5 0.000000 0.000000 0.000000 0.000000 0.030191 0.000000
# 6 0.000000 0.000000 0.000000 0.000000 0.000000 0.062006
#
#
# Mechanical properties :
#
#
# Convention : Reuss Voigt Hill
#
# Bulk Modulus (GPa) = 32.29778 75.59383 53.94581
# Shear Modulus (GPa) = 22.22789 32.16142 27.19465
#
# Velocity S-wave (km/s) = 3.34491 4.02349 3.69979
# Velocity P-wave (km/s) = 5.58346 7.72236 6.73832
#
# Compressibility (1/GPa) = 0.03096188
#
# Stress axis : x y z
#
# Youngs Moduli (GPa) = 45.85971 41.64193 100.66481
#
# Poissons Ratio (x) = 0.04771 1.13978
# Poissons Ratio (y) = 0.05254 -0.00727
# Poissons Ratio (z) = 0.51925 -0.00301
#
# Static dielectric constant tensor:
#      x y z
#    x 1.677240 0.000000 0.000000 
#    y 0.000000 1.773100 0.000000 
#    z 0.000000 0.000000 1.732270 
# 
# From -- ./inp_files/32875.got.cif
#   From: 2010.05.17/outbox.cif.g08.bks.cpg/sg59_17_cif.got.tgz:32875.got - 2010.06.03 14:40:33.
