data_PCOD9449467
_publ_section_title
;
Structure prediction by ZEFSAII (Michael W. Deem and Ramdas Pophale) SiO2 
 PCOD9449467
Probable space group: P M M N
;
_chemical_formula_sum "Si O2"
_cell_formula_units_Z 56
_cell_length_a 9.433519
_cell_length_b 14.614527
_cell_length_c 18.481483
_cell_angle_alpha 90.000000
_cell_angle_beta 90.000000
_cell_angle_gamma 90.000000
_cell_volume 2547.975863
_symmetry_space_group_name_H-M "P M M N"
_symmetry_group_IT_number 59
_space_group.IT_coordinate_system_code '2'
_symmetry_cell_setting 'orthorhombic'
loop_
_space_group_symop_operation_xyz
x,y,z
1/2-x,1/2-y,z
1/2+x,-y,-z
-x,1/2+y,-z
-x,-y,-z
1/2+x,1/2+y,-z
1/2-x,y,z
x,1/2-y,z
loop_
_atom_site_type_symbol
_atom_site_label
_atom_site_fract_x
_atom_site_fract_y
_atom_site_fract_z
Si Si1 0.913393 0.638289 0.992338
Si Si2 0.089332 0.385135 0.445701
Si Si3 0.912389 0.138285 0.868749
Si Si4 0.088754 0.899090 0.418530
Si Si5 0.914622 0.860894 0.274061
Si Si6 0.906865 0.142716 0.303386
Si Si7 0.586834 0.861778 0.829544
O O1 0.750000 0.610703 0.005410
O O2 0.914108 0.750000 0.993071
O O3 0.954349 0.610654 0.910863
O O4 0.016437 0.607932 0.056142
O O5 0.250000 0.350646 0.445710
O O6 0.099397 0.495056 0.441466
O O7 0.002773 0.355998 0.516661
O O8 0.003053 0.361428 0.374015
O O9 0.750000 0.107450 0.862197
O O10 0.910714 0.250000 0.869680
O O11 0.006811 0.111546 0.799938
O O12 0.250000 0.863469 0.411803
O O13 0.003505 0.892654 0.343686
O O14 0.750000 0.889612 0.276147
O O15 0.915647 0.750000 0.275913
O O16 0.750000 0.103954 0.316310
O O17 0.891054 0.250000 0.287348
O O18 0.986301 0.102746 0.233780
O O19 0.750000 0.888240 0.816080
O O20 0.585335 0.750000 0.828544
#
# Coordination Sequence:
#
# PCOD9449467 Si02
#       7
#     8   8   8   8   8   8   8
#     4   8  13  22  37  58  87 124 162 197 236 283
#     4  10  21  37  56  75  96 126 162 198 240 292
#     4   9  16  25  39  62  93 127 161 199 241 281
#     4  10  21  37  56  76  97 123 159 202 244 287
#     4  10  20  33  50  73 101 132 164 198 240 290
#     4  10  20  32  48  73 103 132 163 202 245 285
#     4   8  14  25  41  62  91 127 163 199 240 285
#
# _framework density 21.978231000000001
#
# number of rings (size 3 to 8) (size 9 to 14) (size 15 to 20)
#    0.000    2.714    0.000    3.000    0.000    6.286 
#    0.000    2.857    0.000    0.000    0.000    1.000 
#    0.000    0.000    0.000    0.000    0.000    0.000 
#
# Total GULP energy -312849.435773 kJ/mol
# GULP energy per Si atom -5586.597067 kJ/mol
# Density = 2.192821 g / cm^3
# Si number density = 21.978231 Si / 1000 Ang^3
#
#
#
# Elastic Constant Matrix: (Units=GPa)
#
#
# Indices 1 2 3 4 5 6 
#
# 1 227.3311 -2.1521 147.4926 0.0000 0.0000 0.0000
# 2 -2.1521 38.2651 -17.9849 0.0000 0.0000 0.0000
# 3 147.4926 -17.9849 201.5024 0.0000 0.0000 0.0000
# 4 0.0000 0.0000 0.0000 33.7912 0.0000 0.0000
# 5 0.0000 0.0000 0.0000 0.0000 29.6509 0.0000
# 6 0.0000 0.0000 0.0000 0.0000 0.0000 7.1219
#
#
#
# Elastic Compliance Matrix: (Units=1/GPa)
#
#
# Indices 1 2 3 4 5 6 
#
# 1 0.008616 -0.002588 -0.006538 0.000000 0.000000 0.000000
# 2 -0.002588 0.028055 0.004398 0.000000 0.000000 0.000000
# 3 -0.006538 0.004398 0.010141 0.000000 0.000000 0.000000
# 4 0.000000 0.000000 0.000000 0.029593 0.000000 0.000000
# 5 0.000000 0.000000 0.000000 0.000000 0.033726 0.000000
# 6 0.000000 0.000000 0.000000 0.000000 0.000000 0.140412
#
#
# Mechanical properties :
#
#
# Convention : Reuss Voigt Hill
#
# Bulk Modulus (GPa) = 26.76859 80.20110 53.48485
# Shear Modulus (GPa) = 18.35199 36.76234 27.55717
#
# Velocity S-wave (km/s) = 2.89278 4.09427 3.54480
# Velocity P-wave (km/s) = 4.83360 7.67601 6.41423
#
# Compressibility (1/GPa) = 0.03735721
#
# Stress axis : x y z
#
# Youngs Moduli (GPa) = 116.06388 35.64404 98.61384
#
# Poissons Ratio (x) = 0.09225 0.64469
# Poissons Ratio (y) = 0.30039 -0.43375
# Poissons Ratio (z) = 0.75878 -0.15678
#
# Static dielectric constant tensor:
#      x y z
#    x 1.773000 0.000000 0.000000 
#    y 0.000000 1.893280 0.000000 
#    z 0.000000 0.000000 1.745520 
# 
# From -- ./inp_files/25993.got.cif
#   From: 2010.05.17/outbox.cif.g08.bks.cpg/sg59_13_cif.got.tgz:25993.got - 2010.06.03 14:40:33.
