data_PCOD9449483
_publ_section_title
;
Structure prediction by ZEFSAII (Michael W. Deem and Ramdas Pophale) SiO2 
 PCOD9449483
Probable space group: P M M N
;
_chemical_formula_sum "Si O2"
_cell_formula_units_Z 48
_cell_length_a 7.329819
_cell_length_b 16.589150
_cell_length_c 17.132511
_cell_angle_alpha 90.000000
_cell_angle_beta 90.000000
_cell_angle_gamma 90.000000
_cell_volume 2083.235674
_symmetry_space_group_name_H-M "P M M N"
_symmetry_group_IT_number 59
_space_group.IT_coordinate_system_code '2'
_symmetry_cell_setting 'orthorhombic'
loop_
_space_group_symop_operation_xyz
x,y,z
1/2-x,1/2-y,z
1/2+x,-y,-z
-x,1/2+y,-z
-x,-y,-z
1/2+x,1/2+y,-z
1/2-x,y,z
x,1/2-y,z
loop_
_atom_site_type_symbol
_atom_site_label
_atom_site_fract_x
_atom_site_fract_y
_atom_site_fract_z
Si Si1 0.029622 0.250000 0.092748
Si Si2 0.473234 0.411686 0.182081
Si Si3 0.971999 0.658514 0.657781
Si Si4 0.537537 0.250000 0.910267
Si Si5 0.970902 0.656929 0.324967
Si Si6 0.467067 0.094736 0.507453
Si Si7 0.458815 0.913676 0.161068
O O1 0.250000 0.250000 0.096451
O O2 0.969645 0.167847 0.135137
O O3 0.973596 0.250000 0.003028
O O4 0.250000 0.413421 0.181306
O O5 0.529629 0.399521 0.272190
O O6 0.537544 0.497278 0.148810
O O7 0.750000 0.655896 0.656211
O O8 0.023336 0.750000 0.677131
O O9 0.037325 0.635453 0.571703
O O10 0.750000 0.250000 0.884685
O O11 0.457440 0.333569 0.877310
O O12 0.750000 0.652914 0.323508
O O13 0.023223 0.750000 0.312235
O O14 0.035307 0.627883 0.409938
O O15 0.039637 0.603244 0.253763
O O16 0.250000 0.109691 0.508563
O O17 0.500000 0.000000 0.500000
O O18 0.250000 0.917606 0.132549
#
# Coordination Sequence:
#
# PCOD9449483 Si02
#       7
#     4   8   8   4   8   8   8
#     4  10  20  36  58  83 106 132 172 225 272 314
#     4   9  17  31  54  82 107 133 175 225 264 306
#     4   9  15  27  49  75 101 131 172 218 259 296
#     4  10  22  38  54  77 110 142 172 213 266 332
#     4  10  20  34  52  77 110 144 182 228 272 311
#     4  10  20  32  48  74 106 141 179 220 262 308
#     4  10  20  36  57  80 107 143 181 216 262 324
#
# _framework density 23.041080999999998
#
# number of rings (size 3 to 8) (size 9 to 14) (size 15 to 20)
#    0.000    2.333    1.667    1.500    0.000    5.333 
#    0.000    0.833    0.000    2.500    0.000    0.000 
#    0.000    0.000    0.000    0.000    0.000    0.000 
#
# Total GULP energy -268268.117002 kJ/mol
# GULP energy per Si atom -5588.919104 kJ/mol
# Density = 2.298864 g / cm^3
# Si number density = 23.041081 Si / 1000 Ang^3
#
#
#
# Elastic Constant Matrix: (Units=GPa)
#
#
# Indices 1 2 3 4 5 6 
#
# 1 91.9395 0.0772 -7.1605 0.0000 0.0000 0.0000
# 2 0.0772 188.4714 55.4372 0.0000 0.0000 0.0000
# 3 -7.1605 55.4372 115.8791 0.0000 0.0000 0.0000
# 4 0.0000 0.0000 0.0000 9.3375 0.0000 0.0000
# 5 0.0000 0.0000 0.0000 0.0000 41.0786 0.0000
# 6 0.0000 0.0000 0.0000 0.0000 0.0000 -2.0634
#
#
#
# Elastic Compliance Matrix: (Units=1/GPa)
#
#
# Indices 1 2 3 4 5 6 
#
# 1 0.010938 -0.000237 0.000789 0.000000 0.000000 0.000000
# 2 -0.000237 0.006180 -0.002971 0.000000 0.000000 0.000000
# 3 0.000789 -0.002971 0.010100 0.000000 0.000000 0.000000
# 4 0.000000 0.000000 0.000000 0.107095 0.000000 0.000000
# 5 0.000000 0.000000 0.000000 0.000000 0.024344 0.000000
# 6 0.000000 0.000000 0.000000 0.000000 0.000000 -0.484628
#
#
# Mechanical properties :
#
#
# Convention : Reuss Voigt Hill
#
# Bulk Modulus (GPa) = 44.68098 54.77753 49.72925
# Shear Modulus (GPa) = -15.94009 32.86628 8.46309
#
# Velocity S-wave (km/s) = -2.63308 3.78090 1.91860
# Velocity P-wave (km/s) = 3.19215 6.54872 5.15148
#
# Compressibility (1/GPa) = 0.02238089
#
# Stress axis : x y z
#
# Youngs Moduli (GPa) = 91.42129 161.81582 99.01149
#
# Poissons Ratio (x) = 0.03828 -0.07813
# Poissons Ratio (y) = 0.02163 0.29417
# Poissons Ratio (z) = -0.07214 0.48077
#
# Static dielectric constant tensor:
#      x y z
#    x 1.865340 0.000000 0.000000 
#    y 0.000000 1.839630 0.000000 
#    z 0.000000 0.000000 1.809950 
# 
# From -- ./inp_files/20519.got.cif
#   From: 2010.05.17/outbox.cif.g08.bks.cpg/sg59_11_cif.got.tgz:20519.got - 2010.06.03 14:40:33.
