data_PCOD9449018
_publ_section_title
;
Structure prediction by ZEFSAII (Michael W. Deem and Ramdas Pophale) SiO2 
 PCOD9449018
Probable space group: P M M N
;
_chemical_formula_sum "Si O2"
_cell_formula_units_Z 56
_cell_length_a 16.460086
_cell_length_b 14.665611
_cell_length_c 9.873560
_cell_angle_alpha 90.000000
_cell_angle_beta 90.000000
_cell_angle_gamma 90.000000
_cell_volume 2383.449919
_symmetry_space_group_name_H-M "P M M N"
_symmetry_group_IT_number 59
_space_group.IT_coordinate_system_code '2'
_symmetry_cell_setting 'orthorhombic'
loop_
_space_group_symop_operation_xyz
x,y,z
1/2-x,1/2-y,z
1/2+x,-y,-z
-x,1/2+y,-z
-x,-y,-z
1/2+x,1/2+y,-z
1/2-x,y,z
x,1/2-y,z
loop_
_atom_site_type_symbol
_atom_site_label
_atom_site_fract_x
_atom_site_fract_y
_atom_site_fract_z
Si Si1 0.839690 0.139854 0.267878
Si Si2 0.662386 0.444885 0.566373
Si Si3 0.482273 0.354408 0.224952
Si Si4 0.100090 0.150311 0.806265
Si Si5 0.592015 0.147673 0.813000
Si Si6 0.904068 0.983143 0.975323
Si Si7 0.614279 0.646625 0.516463
O O1 0.750000 0.117993 0.210330
O O2 0.843380 0.250000 0.281404
O O3 0.843524 0.094266 0.415561
O O4 0.925220 0.113688 0.198891
O O5 0.750000 0.416476 0.622492
O O6 0.598500 0.398824 0.665880
O O7 0.658684 0.554079 0.559065
O O8 0.476394 0.250000 0.178801
O O9 0.413385 0.411911 0.149735
O O10 0.465034 0.356561 0.386377
O O11 0.135876 0.250000 0.837169
O O12 0.103985 0.137419 0.644913
O O13 0.004287 0.153865 0.841683
O O14 0.134611 0.069319 0.898030
O O15 0.625063 0.250000 0.816040
O O16 0.631482 0.076678 0.917404
O O17 0.000000 0.000000 0.000000
O O18 0.647966 0.750000 0.539361
#
# Coordination Sequence:
#
# PCOD9449018 Si02
#       7
#     8   8   8   8   8   8   8
#     4   9  19  33  51  82 120 154 189 233 289 351
#     4  11  22  35  57  83 114 156 198 247 303 359
#     4  10  19  34  59  89 118 150 195 247 295 347
#     4   9  19  35  57  88 123 152 187 241 304 360
#     4  10  20  35  55  83 118 153 197 245 292 351
#     4  10  20  33  55  87 117 159 189 239 295 353
#     4  10  21  36  58  89 119 151 196 255 307 354
#
# _framework density 23.495355
#
# number of rings (size 3 to 8) (size 9 to 14) (size 15 to 20)
#    0.000    2.143    1.429    1.714    4.000    5.143 
#    0.000    0.000    0.000    4.286    0.000    8.000 
#    0.000    0.000    0.000    0.000    0.000    0.000 
#
# Total GULP energy -312433.956776 kJ/mol
# GULP energy per Si atom -5579.177800 kJ/mol
# Density = 2.344188 g / cm^3
# Si number density = 23.495355 Si / 1000 Ang^3
#
#
#
# Elastic Constant Matrix: (Units=GPa)
#
#
# Indices 1 2 3 4 5 6 
#
# 1 41.8606 21.4803 1.6166 0.0000 0.0000 0.0000
# 2 21.4803 165.2675 58.0678 0.0000 0.0000 0.0000
# 3 1.6166 58.0678 93.6993 0.0000 0.0000 0.0000
# 4 0.0000 0.0000 0.0000 31.6408 0.0000 0.0000
# 5 0.0000 0.0000 0.0000 0.0000 3.4053 0.0000
# 6 0.0000 0.0000 0.0000 0.0000 0.0000 8.8267
#
#
#
# Elastic Compliance Matrix: (Units=1/GPa)
#
#
# Indices 1 2 3 4 5 6 
#
# 1 0.025914 -0.004105 0.002097 0.000000 0.000000 0.000000
# 2 -0.004105 0.008385 -0.005126 0.000000 0.000000 0.000000
# 3 0.002097 -0.005126 0.013813 0.000000 0.000000 0.000000
# 4 0.000000 0.000000 0.000000 0.031605 0.000000 0.000000
# 5 0.000000 0.000000 0.000000 0.000000 0.293660 0.000000
# 6 0.000000 0.000000 0.000000 0.000000 0.000000 0.113292
#
#
# Mechanical properties :
#
#
# Convention : Reuss Voigt Hill
#
# Bulk Modulus (GPa) = 29.54677 51.46188 40.50432
# Shear Modulus (GPa) = 9.76145 23.41874 16.59010
#
# Velocity S-wave (km/s) = 2.04050 3.16054 2.66014
# Velocity P-wave (km/s) = 4.26080 5.93879 5.16835
#
# Compressibility (1/GPa) = 0.03384464
#
# Stress axis : x y z
#
# Youngs Moduli (GPa) = 38.58888 119.25646 72.39645
#
# Poissons Ratio (x) = 0.48953 -0.15180
# Poissons Ratio (y) = 0.15840 0.37109
# Poissons Ratio (z) = -0.08091 0.61128
#
# Static dielectric constant tensor:
#      x y z
#    x 1.881440 0.000000 0.000000 
#    y 0.000000 1.938910 0.000000 
#    z 0.000000 0.000000 1.918500 
# 
# From -- ./inp_files/11452.got.cif
#   From: 2010.05.17/outbox.cif.g08.bks.cpg/sg59_6_cif.got.tgz:11452.got - 2010.06.03 14:40:33.
