data_PCOD9449160
_publ_section_title
;
Structure prediction by ZEFSAII (Michael W. Deem and Ramdas Pophale) SiO2 
 PCOD9449160
Probable space group: P M M N
;
_chemical_formula_sum "Si O2"
_cell_formula_units_Z 64
_cell_length_a 24.345767
_cell_length_b 14.171199
_cell_length_c 9.843883
_cell_angle_alpha 90.000000
_cell_angle_beta 90.000000
_cell_angle_gamma 90.000000
_cell_volume 3396.225365
_symmetry_space_group_name_H-M "P M M N"
_symmetry_group_IT_number 59
_space_group.IT_coordinate_system_code '2'
_symmetry_cell_setting 'orthorhombic'
loop_
_space_group_symop_operation_xyz
x,y,z
1/2-x,1/2-y,z
1/2+x,-y,-z
-x,1/2+y,-z
-x,-y,-z
1/2+x,1/2+y,-z
1/2-x,y,z
x,1/2-y,z
loop_
_atom_site_type_symbol
_atom_site_label
_atom_site_fract_x
_atom_site_fract_y
_atom_site_fract_z
Si Si1 0.815349 0.857770 0.973553
Si Si2 0.516900 0.912970 0.400212
Si Si3 0.397298 0.646497 0.419698
Si Si4 0.504614 0.035992 0.154159
Si Si5 0.363256 0.355652 0.519222
Si Si6 0.607282 0.141567 0.252854
Si Si7 0.879602 0.541371 0.748109
Si Si8 0.814414 0.528907 0.239326
O O1 0.750000 0.859638 0.948205
O O2 0.834963 0.750000 0.950321
O O3 0.844926 0.935474 0.880945
O O4 0.824418 0.889752 0.128297
O O5 0.462494 0.851800 0.393373
O O6 0.571574 0.864756 0.452309
O O7 0.500000 0.000000 0.500000
O O8 0.527992 0.953570 0.251041
O O9 0.373275 0.750000 0.389911
O O10 0.393556 0.629413 0.582283
O O11 0.375584 0.560834 0.326245
O O12 0.548156 0.118858 0.184723
O O13 0.443656 0.056175 0.212186
O O14 0.500000 0.000000 0.000000
O O15 0.343913 0.250000 0.544962
O O16 0.358269 0.385002 0.363466
O O17 0.333050 0.429149 0.616614
O O18 0.622199 0.250000 0.225510
O O19 0.650295 0.063438 0.203642
O O20 0.750000 0.506346 0.240690
#
# Coordination Sequence:
#
# PCOD9449160 Si02
#       8
#     8   8   8   8   8   8   8   8
#     4  10  23  43  64  85 118 165 202 241 310 380
#     4  11  17  36  55  81 120 156 199 237 290 353
#     4  10  19  35  61  88 121 162 200 242 300 358
#     4  11  21  36  58  87 127 162 198 243 300 365
#     4  12  22  35  59  89 117 152 201 256 308 359
#     4  11  21  39  64  90 121 162 204 250 309 364
#     4  11  21  38  60  92 126 156 204 255 302 365
#     4  11  23  43  63  86 119 156 206 262 309 367
#
# _framework density 18.844449000000001
#
# number of rings (size 3 to 8) (size 9 to 14) (size 15 to 20)
#    0.000    1.125    6.250    1.875    0.000    3.500 
#    0.000    6.250    0.000    1.125    0.000    0.000 
#    0.000    0.000    0.000    0.000    0.000    0.000 
#
# Total GULP energy -357054.671728 kJ/mol
# GULP energy per Si atom -5578.979246 kJ/mol
# Density = 1.880156 g / cm^3
# Si number density = 18.844449 Si / 1000 Ang^3
#
#
#
# Elastic Constant Matrix: (Units=GPa)
#
#
# Indices 1 2 3 4 5 6 
#
# 1 39.9010 27.6712 15.7172 0.0000 0.0000 0.0000
# 2 27.6712 117.0483 21.0566 0.0000 0.0000 0.0000
# 3 15.7172 21.0566 86.6561 0.0000 0.0000 0.0000
# 4 0.0000 0.0000 0.0000 19.7550 0.0000 0.0000
# 5 0.0000 0.0000 0.0000 0.0000 20.4334 0.0000
# 6 0.0000 0.0000 0.0000 0.0000 0.0000 15.4387
#
#
#
# Elastic Compliance Matrix: (Units=1/GPa)
#
#
# Indices 1 2 3 4 5 6 
#
# 1 0.031282 -0.006666 -0.004054 0.000000 0.000000 0.000000
# 2 -0.006666 0.010355 -0.001307 0.000000 0.000000 0.000000
# 3 -0.004054 -0.001307 0.012593 0.000000 0.000000 0.000000
# 4 0.000000 0.000000 0.000000 0.050620 0.000000 0.000000
# 5 0.000000 0.000000 0.000000 0.000000 0.048939 0.000000
# 6 0.000000 0.000000 0.000000 0.000000 0.000000 0.064772
#
#
# Mechanical properties :
#
#
# Convention : Reuss Voigt Hill
#
# Bulk Modulus (GPa) = 33.13986 41.38837 37.26412
# Shear Modulus (GPa) = 19.78841 23.06944 21.42893
#
# Velocity S-wave (km/s) = 3.24403 3.50266 3.37582
# Velocity P-wave (km/s) = 5.62635 6.19427 5.91713
#
# Compressibility (1/GPa) = 0.03017514
#
# Stress axis : x y z
#
# Youngs Moduli (GPa) = 31.96748 96.57630 79.41083
#
# Poissons Ratio (x) = 0.64378 0.32193
# Poissons Ratio (y) = 0.21310 0.10379
# Poissons Ratio (z) = 0.12959 0.12623
#
# Static dielectric constant tensor:
#      x y z
#    x 1.659820 0.000000 0.000000 
#    y 0.000000 1.710760 0.000000 
#    z 0.000000 0.000000 1.657980 
# 
# From -- ./inp_files/9576.got.cif
#   From: 2010.05.17/outbox.cif.g08.bks.cpg/sg59_5_cif.got.tgz:9576.got - 2010.06.03 14:40:33.
