data_PCOD9449602
_publ_section_title
;
Structure prediction by ZEFSAII (Michael W. Deem and Ramdas Pophale) SiO2 
 PCOD9449602
Probable space group: P M M N
;
_chemical_formula_sum "Si O2"
_cell_formula_units_Z 64
_cell_length_a 8.856203
_cell_length_b 30.375833
_cell_length_c 15.286166
_cell_angle_alpha 90.000000
_cell_angle_beta 90.000000
_cell_angle_gamma 90.000000
_cell_volume 4112.200966
_symmetry_space_group_name_H-M "P M M N"
_symmetry_group_IT_number 59
_space_group.IT_coordinate_system_code '2'
_symmetry_cell_setting 'orthorhombic'
loop_
_space_group_symop_operation_xyz
x,y,z
1/2-x,1/2-y,z
1/2+x,-y,-z
-x,1/2+y,-z
-x,-y,-z
1/2+x,1/2+y,-z
1/2-x,y,z
x,1/2-y,z
loop_
_atom_site_type_symbol
_atom_site_label
_atom_site_fract_x
_atom_site_fract_y
_atom_site_fract_z
Si Si1 0.428920 0.617656 0.202466
Si Si2 0.070688 0.436341 0.942095
Si Si3 0.570133 0.527012 0.872528
Si Si4 0.430887 0.061109 0.639986
Si Si5 0.927209 0.800888 0.289138
Si Si6 0.068302 0.960938 0.685755
Si Si7 0.067754 0.894674 0.533335
Si Si8 0.931832 0.299212 0.517869
O O1 0.250000 0.613878 0.207647
O O2 0.488258 0.602570 0.108359
O O3 0.502163 0.585640 0.275473
O O4 0.483560 0.666136 0.227547
O O5 0.250000 0.433244 0.928883
O O6 0.011318 0.481382 0.897785
O O7 0.040174 0.440762 0.045462
O O8 0.750000 0.519363 0.868417
O O9 0.509172 0.543121 0.779859
O O10 0.250000 0.065519 0.640382
O O11 0.497232 0.083551 0.553254
O O12 0.468704 0.009274 0.646743
O O13 0.750000 0.812378 0.290123
O O14 0.942927 0.750000 0.262964
O O15 0.992876 0.804772 0.387120
O O16 0.250000 0.959379 0.696896
O O17 0.022686 0.923102 0.617630
O O18 0.250000 0.897611 0.525682
O O19 0.027280 0.842820 0.536637
O O20 0.750000 0.299748 0.528592
O O21 0.973041 0.250000 0.484841
#
# Coordination Sequence:
#
# PCOD9449602 Si02
#       8
#     8   8   8   8   8   8   8   8
#     4  12  22  32  50  74 100 133 167 201 243 296
#     4  10  20  34  51  72  98 126 161 204 246 294
#     4  10  20  33  51  73  96 126 163 203 247 293
#     4  11  21  32  46  67  97 135 170 204 243 286
#     4  10  20  33  50  72  99 130 163 202 248 295
#     4  10  21  34  48  67  98 135 170 209 247 288
#     4  10  20  33  48  69  96 132 171 205 245 294
#     4   9  17  30  48  69  95 126 161 204 248 290
#
# _framework density 15.563440999999999
#
# number of rings (size 3 to 8) (size 9 to 14) (size 15 to 20)
#    0.000    1.750    2.500    3.000    0.000    3.250 
#    0.000    0.000    0.000    0.000    0.000    0.875 
#    0.000    3.000    0.000    0.000    0.000    0.000 
#
# Total GULP energy -357173.985160 kJ/mol
# GULP energy per Si atom -5580.843518 kJ/mol
# Density = 1.552802 g / cm^3
# Si number density = 15.563441 Si / 1000 Ang^3
#
#
#
# Elastic Constant Matrix: (Units=GPa)
#
#
# Indices 1 2 3 4 5 6 
#
# 1 41.1188 41.3152 33.0852 0.0000 0.0000 0.0000
# 2 41.3152 104.8349 57.2222 0.0000 0.0000 0.0000
# 3 33.0852 57.2222 85.6364 0.0000 0.0000 0.0000
# 4 0.0000 0.0000 0.0000 22.5488 0.0000 0.0000
# 5 0.0000 0.0000 0.0000 0.0000 26.1182 0.0000
# 6 0.0000 0.0000 0.0000 0.0000 0.0000 19.3441
#
#
#
# Elastic Compliance Matrix: (Units=1/GPa)
#
#
# Indices 1 2 3 4 5 6 
#
# 1 0.043866 -0.012651 -0.008494 0.000000 0.000000 0.000000
# 2 -0.012651 0.018664 -0.007583 0.000000 0.000000 0.000000
# 3 -0.008494 -0.007583 0.020026 0.000000 0.000000 0.000000
# 4 0.000000 0.000000 0.000000 0.044348 0.000000 0.000000
# 5 0.000000 0.000000 0.000000 0.000000 0.038287 0.000000
# 6 0.000000 0.000000 0.000000 0.000000 0.000000 0.051695
#
#
# Mechanical properties :
#
#
# Convention : Reuss Voigt Hill
#
# Bulk Modulus (GPa) = 39.84260 54.98170 47.41215
# Shear Modulus (GPa) = 17.68597 20.26672 18.97634
#
# Velocity S-wave (km/s) = 3.37468 3.61252 3.49562
# Velocity P-wave (km/s) = 6.39064 7.26667 6.84269
#
# Compressibility (1/GPa) = 0.02509876
#
# Stress axis : x y z
#
# Youngs Moduli (GPa) = 22.79688 53.57930 49.93488
#
# Poissons Ratio (x) = 0.67784 0.42413
# Poissons Ratio (y) = 0.28841 0.37868
# Poissons Ratio (z) = 0.19363 0.40632
#
# Static dielectric constant tensor:
#      x y z
#    x 1.519180 0.000000 0.000000 
#    y 0.000000 1.533130 0.000000 
#    z 0.000000 0.000000 1.495630 
# 
# From -- ./inp_files/21853.got.cif
#   From: 2010.05.17/outbox.cif.g08.bks.cpg/sg59_11_cif.got.tgz:21853.got - 2010.06.03 14:40:33.
