data_PCOD9449239
_publ_section_title
;
Structure prediction by ZEFSAII (Michael W. Deem and Ramdas Pophale) SiO2 
 PCOD9449239
Probable space group: P M M N
;
_chemical_formula_sum "Si O2"
_cell_formula_units_Z 38
_cell_length_a 24.554604
_cell_length_b 7.743678
_cell_length_c 11.090288
_cell_angle_alpha 90.000000
_cell_angle_beta 90.000000
_cell_angle_gamma 90.000000
_cell_volume 2108.740041
_symmetry_space_group_name_H-M "P M M N"
_symmetry_group_IT_number 59
_space_group.IT_coordinate_system_code '2'
_symmetry_cell_setting 'orthorhombic'
loop_
_space_group_symop_operation_xyz
x,y,z
1/2-x,1/2-y,z
1/2+x,-y,-z
-x,1/2+y,-z
-x,-y,-z
1/2+x,1/2+y,-z
1/2-x,y,z
x,1/2-y,z
loop_
_atom_site_type_symbol
_atom_site_label
_atom_site_fract_x
_atom_site_fract_y
_atom_site_fract_z
Si Si1 0.315619 0.250000 0.010294
Si Si2 0.058517 0.457056 0.360388
Si Si3 0.250000 0.250000 0.576886
Si Si4 0.250000 0.951134 0.381531
Si Si5 0.153758 0.552154 0.190605
Si Si6 0.357730 0.250000 0.738808
Si Si7 0.569149 0.050530 0.366730
O O1 0.250000 0.250000 0.003689
O O2 0.335007 0.416884 0.085465
O O3 0.341157 0.250000 0.878002
O O4 0.064441 0.250000 0.366649
O O5 0.095188 0.526338 0.252371
O O6 0.077625 0.531301 0.489073
O O7 0.994489 0.495533 0.346274
O O8 0.250000 0.417580 0.491297
O O9 0.303381 0.250000 0.658816
O O10 0.250000 0.750000 0.419260
O O11 0.302314 0.981461 0.296634
O O12 0.160805 0.750000 0.150832
O O13 0.392826 0.417761 0.702701
O O14 0.577892 0.250000 0.332687
#
# Coordination Sequence:
#
# PCOD9449239 Si02
#       7
#     4   8   2   4   8   4   8
#     4  12  25  46  64  84 121 175 221 268 303 352
#     4  10  19  36  66  99 126 165 196 251 324 377
#     4  12  24  38  62  90 122 164 204 252 322 378
#     4  10  22  37  59  99 127 148 195 268 322 375
#     4  11  22  38  66  94 122 159 211 261 316 365
#     4  12  26  43  62  87 124 175 217 248 309 371
#     4  10  22  39  62  94 134 162 199 249 315 388
#
# _framework density 18.020240999999999
#
# number of rings (size 3 to 8) (size 9 to 14) (size 15 to 20)
#    0.000    1.263    3.684    2.526    2.947    3.368 
#    0.000    1.053    0.000    0.000    0.000    0.000 
#    0.000    0.000    0.000    0.000    0.000    0.000 
#
# Total GULP energy -212457.104562 kJ/mol
# GULP energy per Si atom -5590.976436 kJ/mol
# Density = 1.797923 g / cm^3
# Si number density = 18.020241 Si / 1000 Ang^3
#
#
#
# Elastic Constant Matrix: (Units=GPa)
#
#
# Indices 1 2 3 4 5 6 
#
# 1 98.3962 72.0853 78.8147 0.0000 0.0000 0.0000
# 2 72.0853 117.4351 93.7148 0.0000 0.0000 0.0000
# 3 78.8147 93.7148 141.3070 0.0000 0.0000 0.0000
# 4 0.0000 0.0000 0.0000 -9.7910 0.0000 0.0000
# 5 0.0000 0.0000 0.0000 0.0000 4.8844 0.0000
# 6 0.0000 0.0000 0.0000 0.0000 0.0000 27.1841
#
#
#
# Elastic Compliance Matrix: (Units=1/GPa)
#
#
# Indices 1 2 3 4 5 6 
#
# 1 0.021126 -0.007572 -0.006761 0.000000 0.000000 0.000000
# 2 -0.007572 0.020803 -0.009573 0.000000 0.000000 0.000000
# 3 -0.006761 -0.009573 0.017197 0.000000 0.000000 0.000000
# 4 0.000000 0.000000 0.000000 -0.102135 0.000000 0.000000
# 5 0.000000 0.000000 0.000000 0.000000 0.204735 0.000000
# 6 0.000000 0.000000 0.000000 0.000000 0.000000 0.036786
#
#
# Mechanical properties :
#
#
# Convention : Reuss Voigt Hill
#
# Bulk Modulus (GPa) = 88.39661 94.04089 91.21875
# Shear Modulus (GPa) = 19.99225 11.95705 15.97465
#
# Velocity S-wave (km/s) = 3.33443 2.57871 2.98062
# Velocity P-wave (km/s) = 7.99907 7.82086 7.91047
#
# Compressibility (1/GPa) = 0.01131265
#
# Stress axis : x y z
#
# Youngs Moduli (GPa) = 47.33437 48.07044 58.15065
#
# Poissons Ratio (x) = 0.36401 0.39318
# Poissons Ratio (y) = 0.35843 0.55667
# Poissons Ratio (z) = 0.32004 0.46017
#
# Static dielectric constant tensor:
#      x y z
#    x 1.622650 0.000000 0.000000 
#    y 0.000000 1.617720 0.000000 
#    z 0.000000 0.000000 1.567320 
# 
# From -- ./inp_files/11918.got.cif
#   From: 2010.05.17/outbox.cif.g08.bks.cpg/sg59_6_cif.got.tgz:11918.got - 2010.06.03 14:40:33.
