data_PCOD9449303
_publ_section_title
;
Structure prediction by ZEFSAII (Michael W. Deem and Ramdas Pophale) SiO2 
 PCOD9449303
Probable space group: P M M N
;
_chemical_formula_sum "Si O2"
_cell_formula_units_Z 64
_cell_length_a 9.145535
_cell_length_b 24.443354
_cell_length_c 16.552070
_cell_angle_alpha 90.000000
_cell_angle_beta 90.000000
_cell_angle_gamma 90.000000
_cell_volume 3700.174688
_symmetry_space_group_name_H-M "P M M N"
_symmetry_group_IT_number 59
_space_group.IT_coordinate_system_code '2'
_symmetry_cell_setting 'orthorhombic'
loop_
_space_group_symop_operation_xyz
x,y,z
1/2-x,1/2-y,z
1/2+x,-y,-z
-x,1/2+y,-z
-x,-y,-z
1/2+x,1/2+y,-z
1/2-x,y,z
x,1/2-y,z
loop_
_atom_site_type_symbol
_atom_site_label
_atom_site_fract_x
_atom_site_fract_y
_atom_site_fract_z
Si Si1 0.581224 0.315946 0.168463
Si Si2 0.416331 0.463913 0.935576
Si Si3 0.574943 0.191121 0.848514
Si Si4 0.923789 0.535624 0.384653
Si Si5 0.428070 0.687009 0.648503
Si Si6 0.584832 0.657932 0.992736
Si Si7 0.574153 0.074453 0.778675
Si Si8 0.424952 0.917010 0.541918
O O1 0.750000 0.334383 0.161255
O O2 0.580521 0.250000 0.161648
O O3 0.527516 0.327895 0.259515
O O4 0.488192 0.338811 0.094766
O O5 0.250000 0.482680 0.921035
O O6 0.410424 0.403885 0.975042
O O7 0.505875 0.459462 0.852726
O O8 0.500000 0.500000 0.000000
O O9 0.750000 0.188822 0.856408
O O10 0.534427 0.250000 0.811990
O O11 0.507560 0.187735 0.937878
O O12 0.532014 0.137808 0.797421
O O13 0.750000 0.544300 0.377865
O O14 0.947717 0.470999 0.402771
O O15 0.005802 0.554071 0.304276
O O16 0.988734 0.569594 0.460064
O O17 0.250000 0.687949 0.649631
O O18 0.474543 0.750000 0.630572
O O19 0.470789 0.639102 0.586551
O O20 0.750000 0.679433 0.989098
O O21 0.750000 0.070346 0.777986
O O22 0.250000 0.913744 0.525470
#
# Coordination Sequence:
#
# PCOD9449303 Si02
#       8
#     8   8   8   8   8   8   8   8
#     4   9  17  29  46  69  97 129 164 200 240 291
#     4  10  21  36  51  70  99 133 169 208 251 300
#     4   9  18  33  52  72  95 128 171 213 252 298
#     4  10  20  34  53  78 106 133 165 206 249 299
#     4   8  15  30  52  76 100 127 164 209 251 294
#     4  10  20  31  45  69  98 128 165 208 251 293
#     4  10  20  35  55  77 102 133 169 212 258 301
#     4   9  18  34  56  79 100 128 166 204 248 301
#
# _framework density 17.296481
#
# number of rings (size 3 to 8) (size 9 to 14) (size 15 to 20)
#    0.000    2.625    0.000    2.625    0.000    5.500 
#    0.000    2.500    0.000    4.875    0.000    0.000 
#    0.000    0.000    0.000    0.000    0.000    0.000 
#
# Total GULP energy -356722.040843 kJ/mol
# GULP energy per Si atom -5573.781888 kJ/mol
# Density = 1.725711 g / cm^3
# Si number density = 17.296481 Si / 1000 Ang^3
#
#
#
# Elastic Constant Matrix: (Units=GPa)
#
#
# Indices 1 2 3 4 5 6 
#
# 1 61.8764 41.3191 61.7232 0.0000 0.0000 0.0000
# 2 41.3191 71.3655 70.0510 0.0000 0.0000 0.0000
# 3 61.7232 70.0510 143.9100 0.0000 0.0000 0.0000
# 4 0.0000 0.0000 0.0000 11.4065 0.0000 0.0000
# 5 0.0000 0.0000 0.0000 0.0000 27.6539 0.0000
# 6 0.0000 0.0000 0.0000 0.0000 0.0000 15.8689
#
#
#
# Elastic Compliance Matrix: (Units=1/GPa)
#
#
# Indices 1 2 3 4 5 6 
#
# 1 0.031257 -0.009456 -0.008803 0.000000 0.000000 0.000000
# 2 -0.009456 0.029694 -0.010399 0.000000 0.000000 0.000000
# 3 -0.008803 -0.010399 0.015786 0.000000 0.000000 0.000000
# 4 0.000000 0.000000 0.000000 0.087669 0.000000 0.000000
# 5 0.000000 0.000000 0.000000 0.000000 0.036161 0.000000
# 6 0.000000 0.000000 0.000000 0.000000 0.000000 0.063016
#
#
# Mechanical properties :
#
#
# Convention : Reuss Voigt Hill
#
# Bulk Modulus (GPa) = 51.48845 69.25984 60.37415
# Shear Modulus (GPa) = 15.27303 17.92311 16.59807
#
# Velocity S-wave (km/s) = 2.97478 3.22254 3.10114
# Velocity P-wave (km/s) = 6.45228 7.34684 6.91404
#
# Compressibility (1/GPa) = 0.01942183
#
# Stress axis : x y z
#
# Youngs Moduli (GPa) = 31.99257 33.67658 63.34631
#
# Poissons Ratio (x) = 0.31845 0.55766
# Poissons Ratio (y) = 0.30252 0.65871
# Poissons Ratio (z) = 0.28164 0.35019
#
# Static dielectric constant tensor:
#      x y z
#    x 1.587000 0.000000 0.000000 
#    y 0.000000 1.620750 0.000000 
#    z 0.000000 0.000000 1.555920 
# 
# From -- ./inp_files/21578.got.cif
#   From: 2010.05.17/outbox.cif.g08.bks.cpg/sg59_11_cif.got.tgz:21578.got - 2010.06.03 14:40:33.
