data_PCOD9449164
_publ_section_title
;
Structure prediction by ZEFSAII (Michael W. Deem and Ramdas Pophale) SiO2 
 PCOD9449164
Probable space group: P M M N
;
_chemical_formula_sum "Si O2"
_cell_formula_units_Z 64
_cell_length_a 8.065642
_cell_length_b 29.664979
_cell_length_c 12.766901
_cell_angle_alpha 90.000000
_cell_angle_beta 90.000000
_cell_angle_gamma 90.000000
_cell_volume 3054.699385
_symmetry_space_group_name_H-M "P M M N"
_symmetry_group_IT_number 59
_space_group.IT_coordinate_system_code '2'
_symmetry_cell_setting 'orthorhombic'
loop_
_space_group_symop_operation_xyz
x,y,z
1/2-x,1/2-y,z
1/2+x,-y,-z
-x,1/2+y,-z
-x,-y,-z
1/2+x,1/2+y,-z
1/2-x,y,z
x,1/2-y,z
loop_
_atom_site_type_symbol
_atom_site_label
_atom_site_fract_x
_atom_site_fract_y
_atom_site_fract_z
Si Si1 0.450535 0.480845 0.112793
Si Si2 0.939518 0.133363 0.377069
Si Si3 0.444371 0.379749 0.148336
Si Si4 0.049691 0.301762 0.563729
Si Si5 0.549416 0.655754 0.215826
Si Si6 0.553683 0.439862 0.735400
Si Si7 0.440880 0.051181 0.504873
Si Si8 0.452733 0.199797 0.000342
O O1 0.250000 0.480259 0.118733
O O2 0.514351 0.430028 0.130298
O O3 0.505782 0.516162 0.201968
O O4 0.500000 0.500000 0.000000
O O5 0.750000 0.141980 0.350142
O O6 0.039552 0.133440 0.269491
O O7 0.996745 0.169012 0.464189
O O8 0.958537 0.084510 0.430855
O O9 0.250000 0.383164 0.121212
O O10 0.514103 0.340056 0.075697
O O11 0.250000 0.301678 0.566818
O O12 0.993307 0.250000 0.556906
O O13 0.992535 0.324396 0.672606
O O14 0.750000 0.652675 0.217942
O O15 0.479210 0.605655 0.200453
O O16 0.503572 0.687365 0.118890
O O17 0.750000 0.444430 0.714262
O O18 0.462246 0.434136 0.625071
O O19 0.250000 0.054398 0.472631
O O20 0.500000 0.000000 0.500000
O O21 0.250000 0.200288 0.005763
O O22 0.509732 0.250000 0.028518
#
# Coordination Sequence:
#
# PCOD9449164 Si02
#       8
#     8   8   8   8   8   8   8   8
#     4  10  22  38  58  86 120 160 204 251 305 365
#     4  12  25  41  61  88 124 165 209 258 311 369
#     4  10  21  39  61  85 120 163 207 257 309 367
#     4  10  21  38  62  91 123 162 207 256 313 375
#     4  10  19  35  61  91 122 157 200 255 313 372
#     4  11  22  36  56  86 123 161 201 249 303 365
#     4  12  24  40  62  89 120 158 203 251 307 369
#     4   9  18  34  60  92 119 150 201 261 316 372
#
# _framework density 20.951326000000002
#
# number of rings (size 3 to 8) (size 9 to 14) (size 15 to 20)
#    0.000    1.500    1.250    4.500    0.000    5.750 
#    0.000    1.875    0.000    1.875    0.000    0.000 
#    0.000    0.000    0.000    0.000    0.000    0.000 
#
# Total GULP energy -357808.391729 kJ/mol
# GULP energy per Si atom -5590.756121 kJ/mol
# Density = 2.090364 g / cm^3
# Si number density = 20.951326 Si / 1000 Ang^3
#
#
#
# Elastic Constant Matrix: (Units=GPa)
#
#
# Indices 1 2 3 4 5 6 
#
# 1 20.5842 0.9683 -15.6055 0.0000 0.0000 0.0000
# 2 0.9683 168.6735 48.1887 0.0000 0.0000 0.0000
# 3 -15.6055 48.1887 85.6824 0.0000 0.0000 0.0000
# 4 0.0000 0.0000 0.0000 35.1835 0.0000 0.0000
# 5 0.0000 0.0000 0.0000 0.0000 16.3257 0.0000
# 6 0.0000 0.0000 0.0000 0.0000 0.0000 20.1865
#
#
#
# Elastic Compliance Matrix: (Units=1/GPa)
#
#
# Indices 1 2 3 4 5 6 
#
# 1 0.058578 -0.004032 0.012937 0.000000 0.000000 0.000000
# 2 -0.004032 0.007341 -0.004863 0.000000 0.000000 0.000000
# 3 0.012937 -0.004863 0.016762 0.000000 0.000000 0.000000
# 4 0.000000 0.000000 0.000000 0.028422 0.000000 0.000000
# 5 0.000000 0.000000 0.000000 0.000000 0.061253 0.000000
# 6 0.000000 0.000000 0.000000 0.000000 0.000000 0.049538
#
#
# Mechanical properties :
#
#
# Convention : Reuss Voigt Hill
#
# Bulk Modulus (GPa) = 11.01752 38.00478 24.51115
# Shear Modulus (GPa) = 20.48617 30.43173 25.45895
#
# Velocity S-wave (km/s) = 3.13037 3.81530 3.48968
# Velocity P-wave (km/s) = 4.28202 6.13087 5.28788
#
# Compressibility (1/GPa) = 0.09076455
#
# Stress axis : x y z
#
# Youngs Moduli (GPa) = 17.07117 136.21910 59.65780
#
# Poissons Ratio (x) = 0.54926 -0.77178
# Poissons Ratio (y) = 0.06883 0.29012
# Poissons Ratio (z) = -0.22085 0.66245
#
# Static dielectric constant tensor:
#      x y z
#    x 1.758940 0.000000 0.000000 
#    y 0.000000 1.762980 0.000000 
#    z 0.000000 0.000000 2.244670 
# 
# From -- ./inp_files/15006.got.cif
#   From: 2010.05.17/outbox.cif.g08.bks.cpg/sg59_8_cif.got.tgz:15006.got - 2010.06.03 14:40:33.
