data_PCOD9449040
_publ_section_title
;
Structure prediction by ZEFSAII (Michael W. Deem and Ramdas Pophale) SiO2 
 PCOD9449040
Probable space group: P M M N
;
_chemical_formula_sum "Si O2"
_cell_formula_units_Z 48
_cell_length_a 8.890209
_cell_length_b 31.285962
_cell_length_c 9.871410
_cell_angle_alpha 90.000000
_cell_angle_beta 90.000000
_cell_angle_gamma 90.000000
_cell_volume 2745.621549
_symmetry_space_group_name_H-M "P M M N"
_symmetry_group_IT_number 59
_space_group.IT_coordinate_system_code '2'
_symmetry_cell_setting 'orthorhombic'
loop_
_space_group_symop_operation_xyz
x,y,z
1/2-x,1/2-y,z
1/2+x,-y,-z
-x,1/2+y,-z
-x,-y,-z
1/2+x,1/2+y,-z
1/2-x,y,z
x,1/2-y,z
loop_
_atom_site_type_symbol
_atom_site_label
_atom_site_fract_x
_atom_site_fract_y
_atom_site_fract_z
Si Si1 0.430224 0.126536 0.986703
Si Si2 0.570033 0.011731 0.645468
Si Si3 0.070480 0.935027 0.799451
Si Si4 0.069155 0.888955 0.299416
Si Si5 0.429937 0.642058 0.591918
Si Si6 0.431095 0.298609 0.191174
O O1 0.250000 0.123023 0.990337
O O2 0.489325 0.127654 0.834557
O O3 0.502235 0.086522 0.066736
O O4 0.475767 0.168957 0.070916
O O5 0.750000 0.007125 0.637902
O O6 0.503322 0.979435 0.756205
O O7 0.500000 0.000000 0.500000
O O8 0.535533 0.060807 0.680561
O O9 0.250000 0.939360 0.811980
O O10 0.038545 0.901100 0.678047
O O11 0.250000 0.884936 0.285444
O O12 0.022908 0.865011 0.437321
O O13 0.250000 0.647869 0.594901
O O14 0.507216 0.680608 0.671141
O O15 0.250000 0.298608 0.196076
O O16 0.482850 0.250000 0.171629
#
# Coordination Sequence:
#
# PCOD9449040 Si02
#       6
#     8   8   8   8   8   8
#     4  10  21  36  55  81 108 143 183 221 269 325
#     4  11  21  34  53  78 108 144 187 230 270 315
#     4  10  19  35  55  77 106 145 184 226 269 310
#     4  10  21  37  53  76 111 146 177 220 271 316
#     4   9  18  34  55  79 107 137 175 217 263 316
#     4   9  19  37  59  82 107 134 170 218 269 323
#
# _framework density 17.482379000000002
#
# number of rings (size 3 to 8) (size 9 to 14) (size 15 to 20)
#    0.000    2.167    1.667    1.500    0.000    4.333 
#    0.000    0.833    0.000    3.000    0.000    0.000 
#    0.000    0.000    0.000    0.000    0.000    0.000 
#
# Total GULP energy -267944.491889 kJ/mol
# GULP energy per Si atom -5582.176914 kJ/mol
# Density = 1.744259 g / cm^3
# Si number density = 17.482379 Si / 1000 Ang^3
#
#
#
# Elastic Constant Matrix: (Units=GPa)
#
#
# Indices 1 2 3 4 5 6 
#
# 1 31.5056 36.0511 38.0148 0.0000 0.0000 0.0000
# 2 36.0511 96.1313 47.8660 0.0000 0.0000 0.0000
# 3 38.0148 47.8660 136.3987 0.0000 0.0000 0.0000
# 4 0.0000 0.0000 0.0000 14.3163 0.0000 0.0000
# 5 0.0000 0.0000 0.0000 0.0000 33.4755 0.0000
# 6 0.0000 0.0000 0.0000 0.0000 0.0000 24.4955
#
#
#
# Elastic Compliance Matrix: (Units=1/GPa)
#
#
# Indices 1 2 3 4 5 6 
#
# 1 0.069399 -0.019867 -0.012370 0.000000 0.000000 0.000000
# 2 -0.019867 0.018292 -0.000882 0.000000 0.000000 0.000000
# 3 -0.012370 -0.000882 0.011089 0.000000 0.000000 0.000000
# 4 0.000000 0.000000 0.000000 0.069851 0.000000 0.000000
# 5 0.000000 0.000000 0.000000 0.000000 0.029873 0.000000
# 6 0.000000 0.000000 0.000000 0.000000 0.000000 0.040824
#
#
# Mechanical properties :
#
#
# Convention : Reuss Voigt Hill
#
# Bulk Modulus (GPa) = 30.72960 56.43327 43.58143
# Shear Modulus (GPa) = 15.80217 23.93104 19.86661
#
# Velocity S-wave (km/s) = 3.00974 3.70383 3.37468
# Velocity P-wave (km/s) = 5.44919 7.11627 6.33778
#
# Compressibility (1/GPa) = 0.03254191
#
# Stress axis : x y z
#
# Youngs Moduli (GPa) = 14.40940 54.66823 90.18248
#
# Poissons Ratio (x) = 1.08608 1.11556
# Poissons Ratio (y) = 0.28627 0.07957
# Poissons Ratio (z) = 0.17824 0.04823
#
# Static dielectric constant tensor:
#      x y z
#    x 1.583800 0.000000 0.000000 
#    y 0.000000 1.582330 0.000000 
#    z 0.000000 0.000000 1.583080 
# 
# From -- ./inp_files/6207.got.cif
#   From: 2010.05.17/outbox.cif.g08.bks.cpg/sg59_4_cif.got.tgz:6207.got - 2010.06.03 14:40:33.
