data_PCOD9449273
_publ_section_title
;
Structure prediction by ZEFSAII (Michael W. Deem and Ramdas Pophale) SiO2 
 PCOD9449273
Probable space group: P M M N
;
_chemical_formula_sum "Si O2"
_cell_formula_units_Z 64
_cell_length_a 14.363136
_cell_length_b 7.889090
_cell_length_c 23.965247
_cell_angle_alpha 90.000000
_cell_angle_beta 90.000000
_cell_angle_gamma 90.000000
_cell_volume 2715.551808
_symmetry_space_group_name_H-M "P M M N"
_symmetry_group_IT_number 59
_space_group.IT_coordinate_system_code '2'
_symmetry_cell_setting 'orthorhombic'
loop_
_space_group_symop_operation_xyz
x,y,z
1/2-x,1/2-y,z
1/2+x,-y,-z
-x,1/2+y,-z
-x,-y,-z
1/2+x,1/2+y,-z
1/2-x,y,z
x,1/2-y,z
loop_
_atom_site_type_symbol
_atom_site_label
_atom_site_fract_x
_atom_site_fract_y
_atom_site_fract_z
Si Si1 0.060511 0.952404 0.807908
Si Si2 0.850597 0.442097 0.666434
Si Si3 0.894249 0.056110 0.431879
Si Si4 0.349173 0.546755 0.168704
Si Si5 0.438848 0.951808 0.686937
Si Si6 0.397593 0.543662 0.045088
Si Si7 0.894208 0.055033 0.072702
Si Si8 0.617088 0.563144 0.550860
O O1 0.076625 0.750000 0.808473
O O2 0.091332 0.019442 0.747417
O O3 0.108015 0.021792 0.864903
O O4 0.948478 0.977518 0.811269
O O5 0.750000 0.516677 0.682747
O O6 0.854562 0.250000 0.688011
O O7 0.948851 0.525839 0.682197
O O8 0.850541 0.439206 0.598971
O O9 0.860826 0.250000 0.430673
O O10 0.890143 0.979647 0.369522
O O11 0.005061 0.060866 0.444213
O O12 0.855246 0.969595 0.487212
O O13 0.250000 0.486523 0.192671
O O14 0.353683 0.750000 0.175889
O O15 0.345681 0.512436 0.102508
O O16 0.421715 0.750000 0.685896
O O17 0.410100 0.750000 0.041497
O O18 0.496382 0.454987 0.056910
O O19 0.355093 0.485707 0.985932
O O20 0.863114 0.250000 0.077464
O O21 0.647118 0.750000 0.568083
#
# Coordination Sequence:
#
# PCOD9449273 Si02
#       8
#     8   8   8   8   8   8   8   8
#     4   9  17  28  40  55  75  99 130 164 193 224
#     4  10  20  31  42  57  78 105 135 163 189 220
#     4   8  14  25  40  57  76  97 123 156 194 234
#     4   9  17  27  37  51  74 103 132 159 188 226
#     4   9  18  30  42  56  76 104 134 162 193 228
#     4   8  13  22  36  52  69  91 119 152 192 231
#     4   8  13  22  37  54  70  89 117 155 194 229
#     4   9  16  26  42  61  78  98 124 157 197 234
#
# _framework density 23.567952999999999
#
# number of rings (size 3 to 8) (size 9 to 14) (size 15 to 20)
#    0.000    3.250    0.000    1.500    0.000    5.250 
#    0.000    2.500    0.000    0.000    0.000    0.000 
#    0.000    1.000    0.000   10.500    0.000    6.375 
#
# Total GULP energy -356302.648269 kJ/mol
# GULP energy per Si atom -5567.228879 kJ/mol
# Density = 2.351431 g / cm^3
# Si number density = 23.567953 Si / 1000 Ang^3
#
#
#
# Elastic Constant Matrix: (Units=GPa)
#
#
# Indices 1 2 3 4 5 6 
#
# 1 45.4015 -2.2980 -1.8562 0.0000 0.0000 0.0000
# 2 -2.2980 29.0604 10.0887 0.0000 0.0000 0.0000
# 3 -1.8562 10.0887 237.4006 0.0000 0.0000 0.0000
# 4 0.0000 0.0000 0.0000 10.8668 0.0000 0.0000
# 5 0.0000 0.0000 0.0000 0.0000 -21.0539 0.0000
# 6 0.0000 0.0000 0.0000 0.0000 0.0000 4.1163
#
#
#
# Elastic Compliance Matrix: (Units=1/GPa)
#
#
# Indices 1 2 3 4 5 6 
#
# 1 0.022117 0.001714 0.000100 0.000000 0.000000 0.000000
# 2 0.001714 0.035059 -0.001477 0.000000 0.000000 0.000000
# 3 0.000100 -0.001477 0.004276 0.000000 0.000000 0.000000
# 4 0.000000 0.000000 0.000000 0.092023 0.000000 0.000000
# 5 0.000000 0.000000 0.000000 0.000000 -0.047497 0.000000
# 6 0.000000 0.000000 0.000000 0.000000 0.000000 0.242937
#
#
# Mechanical properties :
#
#
# Convention : Reuss Voigt Hill
#
# Bulk Modulus (GPa) = 16.09601 35.97016 26.03308
# Shear Modulus (GPa) = 13.55203 19.18104 16.36654
#
# Velocity S-wave (km/s) = 2.40056 2.85592 2.63808
# Velocity P-wave (km/s) = 3.81156 5.11571 4.51101
#
# Compressibility (1/GPa) = 0.06212720
#
# Stress axis : x y z
#
# Youngs Moduli (GPa) = 45.21501 28.52312 233.87340
#
# Poissons Ratio (x) = -0.04889 -0.02341
# Poissons Ratio (y) = -0.07751 0.34531
# Poissons Ratio (z) = -0.00453 0.04211
#
# Static dielectric constant tensor:
#      x y z
#    x 1.900500 0.000000 0.000000 
#    y 0.000000 1.833850 0.000000 
#    z 0.000000 0.000000 1.992730 
# 
# From -- ./inp_files/32318.got.cif
#   From: 2010.05.17/outbox.cif.g08.bks.cpg/sg59_17_cif.got.tgz:32318.got - 2010.06.03 14:40:33.
