data_PCOD9449268
_publ_section_title
;
Structure prediction by ZEFSAII (Michael W. Deem and Ramdas Pophale) SiO2 
 PCOD9449268
Probable space group: P M M N
;
_chemical_formula_sum "Si O2"
_cell_formula_units_Z 52
_cell_length_a 18.643787
_cell_length_b 20.930052
_cell_length_c 5.566925
_cell_angle_alpha 90.000000
_cell_angle_beta 90.000000
_cell_angle_gamma 90.000000
_cell_volume 2172.300040
_symmetry_space_group_name_H-M "P M M N"
_symmetry_group_IT_number 59
_space_group.IT_coordinate_system_code '2'
_symmetry_cell_setting 'orthorhombic'
loop_
_space_group_symop_operation_xyz
x,y,z
1/2-x,1/2-y,z
1/2+x,-y,-z
-x,1/2+y,-z
-x,-y,-z
1/2+x,1/2+y,-z
1/2-x,y,z
x,1/2-y,z
loop_
_atom_site_type_symbol
_atom_site_label
_atom_site_fract_x
_atom_site_fract_y
_atom_site_fract_z
Si Si1 0.568932 0.991729 0.734032
Si Si2 0.400823 0.986557 0.759693
Si Si3 0.834030 0.349476 0.160117
Si Si4 0.579954 0.250000 0.473869
Si Si5 0.832551 0.672107 0.469652
Si Si6 0.407591 0.172892 0.034584
Si Si7 0.950354 0.356844 0.794920
O O1 0.610067 0.976376 0.488795
O O2 0.561845 0.069815 0.729657
O O3 0.486266 0.970019 0.743048
O O4 0.605886 0.977118 0.987389
O O5 0.354201 0.922792 0.779813
O O6 0.750000 0.341409 0.133204
O O7 0.867322 0.305323 0.362923
O O8 0.876980 0.331932 0.916655
O O9 0.529445 0.193001 0.589828
O O10 0.750000 0.650683 0.483535
O O11 0.832222 0.750000 0.475284
O O12 0.865442 0.655183 0.209744
O O13 0.874320 0.651769 0.711912
O O14 0.410433 0.250000 0.043598
O O15 0.488439 0.149369 0.994731
#
# Coordination Sequence:
#
# PCOD9449268 Si02
#       7
#     8   8   8   4   8   8   8
#     4   9  18  35  62  85 112 142 197 267 323 376
#     4   9  18  37  60  87 108 145 199 259 323 380
#     4  11  25  40  58  85 127 178 225 274 333 391
#     4  12  23  38  56  84 129 176 226 272 315 390
#     4   9  18  32  50  75 105 141 187 239 298 368
#     4  10  20  30  53  77 111 153 196 242 297 360
#     4  11  23  37  58  87 125 168 223 275 325 381
#
# _framework density 23.937763
#
# number of rings (size 3 to 8) (size 9 to 14) (size 15 to 20)
#    0.000    2.000    2.308    1.154    2.154    3.077 
#    0.000    0.000    0.000    1.846    0.000    0.000 
#    0.000    0.000    0.000    0.000    0.000    0.000 
#
# Total GULP energy -289860.367271 kJ/mol
# GULP energy per Si atom -5574.237832 kJ/mol
# Density = 2.388328 g / cm^3
# Si number density = 23.937763 Si / 1000 Ang^3
#
#
#
# Elastic Constant Matrix: (Units=GPa)
#
#
# Indices 1 2 3 4 5 6 
#
# 1 49.8826 30.9675 29.5311 0.0000 0.0000 0.0000
# 2 30.9675 91.0396 44.1672 0.0000 0.0000 0.0000
# 3 29.5311 44.1672 178.5916 0.0000 0.0000 0.0000
# 4 0.0000 0.0000 0.0000 39.0978 0.0000 0.0000
# 5 0.0000 0.0000 0.0000 0.0000 26.2800 0.0000
# 6 0.0000 0.0000 0.0000 0.0000 0.0000 22.9005
#
#
#
# Elastic Compliance Matrix: (Units=1/GPa)
#
#
# Indices 1 2 3 4 5 6 
#
# 1 0.026309 -0.007771 -0.002429 0.000000 0.000000 0.000000
# 2 -0.007771 0.014777 -0.002370 0.000000 0.000000 0.000000
# 3 -0.002429 -0.002370 0.006587 0.000000 0.000000 0.000000
# 4 0.000000 0.000000 0.000000 0.025577 0.000000 0.000000
# 5 0.000000 0.000000 0.000000 0.000000 0.038052 0.000000
# 6 0.000000 0.000000 0.000000 0.000000 0.000000 0.043667
#
#
# Mechanical properties :
#
#
# Convention : Reuss Voigt Hill
#
# Bulk Modulus (GPa) = 44.37521 58.76059 51.56790
# Shear Modulus (GPa) = 26.64979 31.97884 29.31432
#
# Velocity S-wave (km/s) = 3.34023 3.65898 3.50323
# Velocity P-wave (km/s) = 5.78396 6.51547 6.16058
#
# Compressibility (1/GPa) = 0.02253510
#
# Stress axis : x y z
#
# Youngs Moduli (GPa) = 38.00970 67.67224 151.81545
#
# Poissons Ratio (x) = 0.52588 0.36869
# Poissons Ratio (y) = 0.29537 0.35973
# Poissons Ratio (z) = 0.09231 0.16035
#
# Static dielectric constant tensor:
#      x y z
#    x 1.471810 0.000000 0.000000 
#    y 0.000000 2.206810 0.000000 
#    z 0.000000 0.000000 2.122380 
# 
# From -- ./inp_files/2950.got.cif
#   From: 2010.05.17/outbox.cif.g08.bks.cpg/sg59_2_cif.got.tgz:2950.got - 2010.06.03 14:40:33.
