data_PCOD9449622
_publ_section_title
;
Structure prediction by ZEFSAII (Michael W. Deem and Ramdas Pophale) SiO2 
 PCOD9449622
Probable space group: P M M N
;
_chemical_formula_sum "Si O2"
_cell_formula_units_Z 64
_cell_length_a 19.715448
_cell_length_b 7.812318
_cell_length_c 21.304455
_cell_angle_alpha 90.000000
_cell_angle_beta 90.000000
_cell_angle_gamma 90.000000
_cell_volume 3281.383514
_symmetry_space_group_name_H-M "P M M N"
_symmetry_group_IT_number 59
_space_group.IT_coordinate_system_code '2'
_symmetry_cell_setting 'orthorhombic'
loop_
_space_group_symop_operation_xyz
x,y,z
1/2-x,1/2-y,z
1/2+x,-y,-z
-x,1/2+y,-z
-x,-y,-z
1/2+x,1/2+y,-z
1/2-x,y,z
x,1/2-y,z
loop_
_atom_site_type_symbol
_atom_site_label
_atom_site_fract_x
_atom_site_fract_y
_atom_site_fract_z
Si Si1 0.573757 0.542629 0.613152
Si Si2 0.828111 0.959962 0.501410
Si Si3 0.418741 0.045649 0.613392
Si Si4 0.567122 0.949743 0.246814
Si Si5 0.832103 0.950088 0.006064
Si Si6 0.582717 0.550717 0.754321
Si Si7 0.827295 0.050107 0.143550
Si Si8 0.171057 0.460089 0.130656
O O1 0.574277 0.750000 0.614807
O O2 0.628043 0.486034 0.561739
O O3 0.497029 0.490251 0.596316
O O4 0.589433 0.478588 0.683779
O O5 0.750000 0.014271 0.503658
O O6 0.828364 0.750000 0.501265
O O7 0.867084 0.020519 0.438880
O O8 0.409220 0.250000 0.614541
O O9 0.409202 0.982664 0.684909
O O10 0.550332 0.750000 0.254904
O O11 0.496745 0.039441 0.229402
O O12 0.623430 0.966972 0.193829
O O13 0.750000 0.963238 0.003395
O O14 0.849661 0.750000 0.010297
O O15 0.852646 0.032039 0.071830
O O16 0.854950 0.017748 0.938111
O O17 0.602455 0.750000 0.749758
O O18 0.627401 0.477171 0.810626
O O19 0.750000 0.980636 0.146225
O O20 0.824655 0.250000 0.158544
O O21 0.250000 0.507270 0.137973
O O22 0.168870 0.250000 0.128691
#
# Coordination Sequence:
#
# PCOD9449622 Si02
#       8
#     8   8   8   8   8   8   8   8
#     4   9  17  29  48  71  94 124 157 190 230 277
#     4   9  17  29  46  71  99 122 151 194 237 274
#     4   9  18  32  50  68  89 124 163 196 229 271
#     4  10  20  33  49  69  93 124 163 200 234 278
#     4   8  14  27  47  69  93 122 156 191 227 274
#     4   9  17  30  48  71  99 127 156 193 236 279
#     4  10  20  33  50  72  96 121 151 192 241 287
#     4   8  14  26  47  73  97 123 157 195 233 276
#
# _framework density 19.503969000000001
#
# number of rings (size 3 to 8) (size 9 to 14) (size 15 to 20)
#    0.000    3.000    0.000    1.875    0.000    2.250 
#    0.000    5.000    0.000    2.625    0.000    3.500 
#    0.000    0.000    0.000    0.000    0.000    0.000 
#
# Total GULP energy -356685.086939 kJ/mol
# GULP energy per Si atom -5573.204483 kJ/mol
# Density = 1.945958 g / cm^3
# Si number density = 19.503969 Si / 1000 Ang^3
#
#
#
# Elastic Constant Matrix: (Units=GPa)
#
#
# Indices 1 2 3 4 5 6 
#
# 1 89.0653 -10.7050 92.0794 0.0000 0.0000 0.0000
# 2 -10.7050 17.7344 -1.9476 0.0000 0.0000 0.0000
# 3 92.0794 -1.9476 141.9677 0.0000 0.0000 0.0000
# 4 0.0000 0.0000 0.0000 43.0889 0.0000 0.0000
# 5 0.0000 0.0000 0.0000 0.0000 39.3382 0.0000
# 6 0.0000 0.0000 0.0000 0.0000 0.0000 8.9090
#
#
#
# Elastic Compliance Matrix: (Units=1/GPa)
#
#
# Indices 1 2 3 4 5 6 
#
# 1 0.041137 0.021935 -0.026381 0.000000 0.000000 0.000000
# 2 0.021935 0.068168 -0.013291 0.000000 0.000000 0.000000
# 3 -0.026381 -0.013291 0.023972 0.000000 0.000000 0.000000
# 4 0.000000 0.000000 0.000000 0.023208 0.000000 0.000000
# 5 0.000000 0.000000 0.000000 0.000000 0.025421 0.000000
# 6 0.000000 0.000000 0.000000 0.000000 0.000000 0.112245
#
#
# Mechanical properties :
#
#
# Convention : Reuss Voigt Hill
#
# Bulk Modulus (GPa) = 10.22467 45.29120 27.75794
# Shear Modulus (GPa) = 13.80350 29.55661 21.68006
#
# Velocity S-wave (km/s) = 2.66320 3.89706 3.33764
# Velocity P-wave (km/s) = 3.83544 6.59707 5.39592
#
# Compressibility (1/GPa) = 0.09780266
#
# Stress axis : x y z
#
# Youngs Moduli (GPa) = 24.30878 14.66958 41.71571
#
# Poissons Ratio (x) = -0.32177 1.10048
# Poissons Ratio (y) = -0.53320 0.55446
# Poissons Ratio (z) = 0.64128 0.19498
#
# Static dielectric constant tensor:
#      x y z
#    x 1.642560 0.000000 0.000000 
#    y 0.000000 1.712200 0.000000 
#    z 0.000000 0.000000 1.709730 
# 
# From -- ./inp_files/30715.got.cif
#   From: 2010.05.17/outbox.cif.g08.bks.cpg/sg59_16_cif.got.tgz:30715.got - 2010.06.03 14:40:33.
