data_PCOD9449060
_publ_section_title
;
Structure prediction by ZEFSAII (Michael W. Deem and Ramdas Pophale) SiO2 
 PCOD9449060
Probable space group: P M M N
;
_chemical_formula_sum "Si O2"
_cell_formula_units_Z 40
_cell_length_a 10.383635
_cell_length_b 8.985242
_cell_length_c 25.072552
_cell_angle_alpha 90.000000
_cell_angle_beta 90.000000
_cell_angle_gamma 90.000000
_cell_volume 2339.255896
_symmetry_space_group_name_H-M "P M M N"
_symmetry_group_IT_number 59
_space_group.IT_coordinate_system_code '2'
_symmetry_cell_setting 'orthorhombic'
loop_
_space_group_symop_operation_xyz
x,y,z
1/2-x,1/2-y,z
1/2+x,-y,-z
-x,1/2+y,-z
-x,-y,-z
1/2+x,1/2+y,-z
1/2-x,y,z
x,1/2-y,z
loop_
_atom_site_type_symbol
_atom_site_label
_atom_site_fract_x
_atom_site_fract_y
_atom_site_fract_z
Si Si1 0.750000 0.428967 0.431404
Si Si2 0.598674 0.428166 0.958306
Si Si3 0.093901 0.080094 0.153026
Si Si4 0.097051 0.572433 0.262090
Si Si5 0.000810 0.430192 0.621808
Si Si6 0.750000 0.069574 0.554857
O O1 0.750000 0.250000 0.430101
O O2 0.625333 0.493161 0.402196
O O3 0.750000 0.478156 0.493462
O O4 0.750000 0.470161 0.967767
O O5 0.591077 0.250000 0.960821
O O6 0.562072 0.484693 0.899132
O O7 0.500000 0.500000 0.000000
O O8 0.250000 0.080686 0.155575
O O9 0.050006 0.250000 0.146878
O O10 0.050606 0.010297 0.209004
O O11 0.250000 0.542458 0.269699
O O12 0.084738 0.750000 0.254213
O O13 0.025283 0.531156 0.316496
O O14 0.012269 0.250000 0.618802
O O15 0.877127 0.476401 0.586808
O O16 0.750000 0.250000 0.555188
#
# Coordination Sequence:
#
# PCOD9449060 Si02
#       6
#     4   8   8   8   8   4
#     4  11  23  35  49  75 111 141 168 211 264 317
#     4  10  20  34  54  80 110 144 181 219 260 309
#     4   9  17  29  48  76 108 139 171 213 263 311
#     4   9  16  29  52  78 100 127 170 221 263 305
#     4  10  19  35  57  77 100 136 177 215 259 314
#     4   9  18  35  57  79 101 131 176 221 260 307
#
# _framework density 17.099454000000001
#
# number of rings (size 3 to 8) (size 9 to 14) (size 15 to 20)
#    0.000    2.400    1.000    2.100    0.000    4.400 
#    0.000    1.500    2.200    0.000    0.000    0.000 
#    0.000    0.000    0.000    0.000    0.000    0.000 
#
# Total GULP energy -223082.846285 kJ/mol
# GULP energy per Si atom -5577.071157 kJ/mol
# Density = 1.706053 g / cm^3
# Si number density = 17.099454 Si / 1000 Ang^3
#
#
#
# Elastic Constant Matrix: (Units=GPa)
#
#
# Indices 1 2 3 4 5 6 
#
# 1 102.4232 43.2561 79.6080 0.0000 0.0000 0.0000
# 2 43.2561 54.7274 66.5544 0.0000 0.0000 0.0000
# 3 79.6080 66.5544 181.8095 0.0000 0.0000 0.0000
# 4 0.0000 0.0000 0.0000 31.2687 0.0000 0.0000
# 5 0.0000 0.0000 0.0000 0.0000 21.3127 0.0000
# 6 0.0000 0.0000 0.0000 0.0000 0.0000 15.7315
#
#
#
# Elastic Compliance Matrix: (Units=1/GPa)
#
#
# Indices 1 2 3 4 5 6 
#
# 1 0.016392 -0.007620 -0.004388 0.000000 0.000000 0.000000
# 2 -0.007620 0.036476 -0.010016 0.000000 0.000000 0.000000
# 3 -0.004388 -0.010016 0.011088 0.000000 0.000000 0.000000
# 4 0.000000 0.000000 0.000000 0.031981 0.000000 0.000000
# 5 0.000000 0.000000 0.000000 0.000000 0.046920 0.000000
# 6 0.000000 0.000000 0.000000 0.000000 0.000000 0.063567
#
#
# Mechanical properties :
#
#
# Convention : Reuss Voigt Hill
#
# Bulk Modulus (GPa) = 50.23109 79.75522 64.99315
# Shear Modulus (GPa) = 19.44708 23.63201 21.53955
#
# Velocity S-wave (km/s) = 3.37604 3.72160 3.55302
# Velocity P-wave (km/s) = 6.68105 8.07529 7.41103
#
# Compressibility (1/GPa) = 0.01990799
#
# Stress axis : x y z
#
# Youngs Moduli (GPa) = 61.00483 27.41565 90.18524
#
# Poissons Ratio (x) = 0.20890 0.39576
# Poissons Ratio (y) = 0.46483 0.90330
# Poissons Ratio (z) = 0.26771 0.27460
#
# Static dielectric constant tensor:
#      x y z
#    x 1.557490 0.000000 0.000000 
#    y 0.000000 1.576070 0.000000 
#    z 0.000000 0.000000 1.569120 
# 
# From -- ./inp_files/28750.got.cif
#   From: 2010.05.17/outbox.cif.g08.bks.cpg/sg59_15_cif.got.tgz:28750.got - 2010.06.03 14:40:33.
