data_PCOD9449615
_publ_section_title
;
Structure prediction by ZEFSAII (Michael W. Deem and Ramdas Pophale) SiO2 
 PCOD9449615
Probable space group: P M M N
;
_chemical_formula_sum "Si O2"
_cell_formula_units_Z 64
_cell_length_a 14.690278
_cell_length_b 9.310744
_cell_length_c 22.030671
_cell_angle_alpha 90.000000
_cell_angle_beta 90.000000
_cell_angle_gamma 90.000000
_cell_volume 3013.298291
_symmetry_space_group_name_H-M "P M M N"
_symmetry_group_IT_number 59
_space_group.IT_coordinate_system_code '2'
_symmetry_cell_setting 'orthorhombic'
loop_
_space_group_symop_operation_xyz
x,y,z
1/2-x,1/2-y,z
1/2+x,-y,-z
-x,1/2+y,-z
-x,-y,-z
1/2+x,1/2+y,-z
1/2-x,y,z
x,1/2-y,z
loop_
_atom_site_type_symbol
_atom_site_label
_atom_site_fract_x
_atom_site_fract_y
_atom_site_fract_z
Si Si1 0.611084 0.586285 0.744389
Si Si2 0.138186 0.413347 0.491282
Si Si3 0.641462 0.412717 0.391190
Si Si4 0.890159 0.581278 0.879323
Si Si5 0.099200 0.575626 0.002419
Si Si6 0.107420 0.584246 0.741468
Si Si7 0.110840 0.919502 0.871498
Si Si8 0.142591 0.590675 0.375732
O O1 0.642055 0.750000 0.732998
O O2 0.642739 0.542057 0.811763
O O3 0.501492 0.590331 0.746255
O O4 0.635329 0.484130 0.689334
O O5 0.250000 0.411021 0.491085
O O6 0.106881 0.250000 0.492028
O O7 0.108751 0.496927 0.551626
O O8 0.106929 0.492595 0.430178
O O9 0.750000 0.400667 0.398625
O O10 0.602762 0.250000 0.391446
O O11 0.627510 0.480303 0.324385
O O12 0.869901 0.750000 0.889646
O O13 0.858607 0.485343 0.935624
O O14 0.000684 0.568958 0.875666
O O15 0.091828 0.750000 0.004140
O O16 0.144154 0.532917 0.937831
O O17 0.000000 0.500000 0.000000
O O18 0.141343 0.750000 0.738207
O O19 0.139655 0.518993 0.805911
O O20 0.131780 0.750000 0.867764
O O21 0.250000 0.604470 0.388048
O O22 0.101749 0.750000 0.375493
#
# Coordination Sequence:
#
# PCOD9449615 Si02
#       8
#     8   8   8   8   8   8   8   8
#     4   9  17  30  47  65  88 119 150 179 215 263
#     4   9  17  30  48  67  87 113 145 179 213 253
#     4   9  16  27  46  70  91 112 142 180 219 257
#     4   8  14  24  37  55  80 108 139 177 217 255
#     4   9  14  20  33  53  77 107 143 181 219 259
#     4   8  14  26  43  63  90 120 146 177 219 261
#     4   7  11  20  34  53  78 109 142 174 211 252
#     4  10  20  33  49  69  91 112 138 178 222 260
#
# _framework density 21.239184999999999
#
# number of rings (size 3 to 8) (size 9 to 14) (size 15 to 20)
#    0.000    3.375    0.000    3.375    0.000    2.750 
#    0.000    1.250    0.000    3.750    0.000    0.875 
#    0.000    3.000    0.000    0.000    0.000    0.250 
#
# Total GULP energy -356496.069487 kJ/mol
# GULP energy per Si atom -5570.251086 kJ/mol
# Density = 2.119084 g / cm^3
# Si number density = 21.239185 Si / 1000 Ang^3
#
#
#
# Elastic Constant Matrix: (Units=GPa)
#
#
# Indices 1 2 3 4 5 6 
#
# 1 57.6344 4.7381 -1.0100 0.0000 0.0000 0.0000
# 2 4.7381 94.8333 107.7417 0.0000 0.0000 0.0000
# 3 -1.0100 107.7417 255.8078 0.0000 0.0000 0.0000
# 4 0.0000 0.0000 0.0000 30.8101 0.0000 0.0000
# 5 0.0000 0.0000 0.0000 0.0000 22.4266 0.0000
# 6 0.0000 0.0000 0.0000 0.0000 0.0000 -3.2559
#
#
#
# Elastic Compliance Matrix: (Units=1/GPa)
#
#
# Indices 1 2 3 4 5 6 
#
# 1 0.017516 -0.001829 0.000839 0.000000 0.000000 0.000000
# 2 -0.001829 0.020412 -0.008604 0.000000 0.000000 0.000000
# 3 0.000839 -0.008604 0.007536 0.000000 0.000000 0.000000
# 4 0.000000 0.000000 0.000000 0.032457 0.000000 0.000000
# 5 0.000000 0.000000 0.000000 0.000000 0.044590 0.000000
# 6 0.000000 0.000000 0.000000 0.000000 0.000000 -0.307131
#
#
# Mechanical properties :
#
#
# Convention : Reuss Voigt Hill
#
# Bulk Modulus (GPa) = 38.05665 70.13500 54.09582
# Shear Modulus (GPa) = -31.91335 29.78320 -1.06507
#
# Velocity S-wave (km/s) = -3.88050 3.74876 -0.70891
# Velocity P-wave (km/s) = 1.45627 7.19936 4.98548
#
# Compressibility (1/GPa) = 0.02627662
#
# Stress axis : x y z
#
# Youngs Moduli (GPa) = 57.09132 48.99178 132.68861
#
# Poissons Ratio (x) = 0.08960 -0.11138
# Poissons Ratio (y) = 0.10441 1.14168
# Poissons Ratio (z) = -0.04792 0.42154
#
# Static dielectric constant tensor:
#      x y z
#    x 1.846850 0.000000 0.000000 
#    y 0.000000 1.732430 0.000000 
#    z 0.000000 0.000000 1.821970 
# 
# From -- ./inp_files/30923.got.cif
#   From: 2010.05.17/outbox.cif.g08.bks.cpg/sg59_16_cif.got.tgz:30923.got - 2010.06.03 14:40:33.
