data_PCOD9449278
_publ_section_title
;
Structure prediction by ZEFSAII (Michael W. Deem and Ramdas Pophale) SiO2 
 PCOD9449278
Probable space group: P M M N
;
_chemical_formula_sum "Si O2"
_cell_formula_units_Z 64
_cell_length_a 30.864014
_cell_length_b 9.236213
_cell_length_c 15.379734
_cell_angle_alpha 90.000000
_cell_angle_beta 90.000000
_cell_angle_gamma 90.000000
_cell_volume 4384.248593
_symmetry_space_group_name_H-M "P M M N"
_symmetry_group_IT_number 59
_space_group.IT_coordinate_system_code '2'
_symmetry_cell_setting 'orthorhombic'
loop_
_space_group_symop_operation_xyz
x,y,z
1/2-x,1/2-y,z
1/2+x,-y,-z
-x,1/2+y,-z
-x,-y,-z
1/2+x,1/2+y,-z
1/2-x,y,z
x,1/2-y,z
loop_
_atom_site_type_symbol
_atom_site_label
_atom_site_fract_x
_atom_site_fract_y
_atom_site_fract_z
Si Si1 0.698274 0.421393 0.275624
Si Si2 0.869079 0.578156 0.609013
Si Si3 0.044298 0.583010 0.603926
Si Si4 0.697310 0.584591 0.099173
Si Si5 0.802675 0.083460 0.928894
Si Si6 0.866996 0.578114 0.401686
Si Si7 0.042191 0.916955 0.392457
Si Si8 0.801095 0.424174 0.731829
O O1 0.750000 0.443065 0.286333
O O2 0.689800 0.250000 0.278262
O O3 0.685539 0.487547 0.182049
O O4 0.671754 0.503765 0.349576
O O5 0.871841 0.750000 0.624024
O O6 0.862197 0.555823 0.505528
O O7 0.914261 0.500755 0.633329
O O8 0.830500 0.507027 0.663338
O O9 0.045837 0.750000 0.632637
O O10 0.087877 0.496522 0.626078
O O11 0.042041 0.584409 0.498238
O O12 0.001170 0.501066 0.635019
O O13 0.750000 0.585502 0.096515
O O14 0.682877 0.750000 0.109928
O O15 0.682429 0.516268 0.008008
O O16 0.750000 0.083633 0.929864
O O17 0.816207 0.250000 0.942900
O O18 0.814499 0.038218 0.831039
O O19 0.868343 0.750000 0.385781
O O20 0.042396 0.750000 0.363589
O O21 0.750000 0.457498 0.721271
O O22 0.805737 0.250000 0.722736
#
# Coordination Sequence:
#
# PCOD9449278 Si02
#       8
#     8   8   8   8   8   8   8   8
#     4  10  20  32  45  61  83 114 150 184 217 255
#     4  10  20  31  43  61  86 116 149 184 219 255
#     4   9  16  27  44  64  84 106 136 175 218 261
#     4   9  16  26  42  63  84 106 134 172 218 262
#     4   8  14  26  43  61  81 106 137 174 216 259
#     4  10  20  32  44  60  85 116 149 183 218 256
#     4   9  16  27  44  63  83 108 138 174 217 261
#     4   9  18  31  45  61  84 116 151 184 217 255
#
# _framework density 14.597712
#
# number of rings (size 3 to 8) (size 9 to 14) (size 15 to 20)
#    0.000    2.750    0.000    3.000    0.000    8.000 
#    0.000    3.750    0.000    0.000    0.000    0.000 
#    0.000    1.000    0.000    3.750    0.000    5.750 
#
# Total GULP energy -356545.547659 kJ/mol
# GULP energy per Si atom -5571.024182 kJ/mol
# Density = 1.456449 g / cm^3
# Si number density = 14.597712 Si / 1000 Ang^3
#
#
#
# Elastic Constant Matrix: (Units=GPa)
#
#
# Indices 1 2 3 4 5 6 
#
# 1 72.0723 66.5513 46.5330 0.0000 0.0000 0.0000
# 2 66.5513 122.2020 62.8179 0.0000 0.0000 0.0000
# 3 46.5330 62.8179 60.6427 0.0000 0.0000 0.0000
# 4 0.0000 0.0000 0.0000 23.3585 0.0000 0.0000
# 5 0.0000 0.0000 0.0000 0.0000 -1.4782 0.0000
# 6 0.0000 0.0000 0.0000 0.0000 0.0000 25.8681
#
#
#
# Elastic Compliance Matrix: (Units=1/GPa)
#
#
# Indices 1 2 3 4 5 6 
#
# 1 0.032816 -0.010540 -0.014263 0.000000 0.000000 0.000000
# 2 -0.010540 0.020889 -0.013551 0.000000 0.000000 0.000000
# 3 -0.014263 -0.013551 0.041471 0.000000 0.000000 0.000000
# 4 0.000000 0.000000 0.000000 0.042811 0.000000 0.000000
# 5 0.000000 0.000000 0.000000 0.000000 -0.676517 0.000000
# 6 0.000000 0.000000 0.000000 0.000000 0.000000 0.038658
#
#
# Mechanical properties :
#
#
# Convention : Reuss Voigt Hill
#
# Bulk Modulus (GPa) = 54.14381 67.41350 60.77866
# Shear Modulus (GPa) = -11.99015 14.81732 1.41359
#
# Velocity S-wave (km/s) = -2.86907 3.18943 0.98512
# Velocity P-wave (km/s) = 5.11818 7.73592 6.55897
#
# Compressibility (1/GPa) = 0.01846933
#
# Stress axis : x y z
#
# Youngs Moduli (GPa) = 30.47270 47.87249 24.11317
#
# Poissons Ratio (x) = 0.50457 0.34393
# Poissons Ratio (y) = 0.32118 0.32675
# Poissons Ratio (z) = 0.43463 0.64870
#
# Static dielectric constant tensor:
#      x y z
#    x 1.463280 0.000000 0.000000 
#    y 0.000000 1.488250 0.000000 
#    z 0.000000 0.000000 1.469410 
# 
# From -- ./inp_files/25112.got.cif
#   From: 2010.05.17/outbox.cif.g08.bks.cpg/sg59_13_cif.got.tgz:25112.got - 2010.06.03 14:40:33.
