data_PCOD9449418
_publ_section_title
;
Structure prediction by ZEFSAII (Michael W. Deem and Ramdas Pophale) SiO2 
 PCOD9449418
Probable space group: P M M N
;
_chemical_formula_sum "Si O2"
_cell_formula_units_Z 48
_cell_length_a 7.925272
_cell_length_b 15.746290
_cell_length_c 19.607485
_cell_angle_alpha 90.000000
_cell_angle_beta 90.000000
_cell_angle_gamma 90.000000
_cell_volume 2446.889253
_symmetry_space_group_name_H-M "P M M N"
_symmetry_group_IT_number 59
_space_group.IT_coordinate_system_code '2'
_symmetry_cell_setting 'orthorhombic'
loop_
_space_group_symop_operation_xyz
x,y,z
1/2-x,1/2-y,z
1/2+x,-y,-z
-x,1/2+y,-z
-x,-y,-z
1/2+x,1/2+y,-z
1/2-x,y,z
x,1/2-y,z
loop_
_atom_site_type_symbol
_atom_site_label
_atom_site_fract_x
_atom_site_fract_y
_atom_site_fract_z
Si Si1 0.453799 0.653456 0.326911
Si Si2 0.453278 0.654049 0.672014
Si Si3 0.543952 0.346619 0.172660
Si Si4 0.546387 0.500409 0.078889
Si Si5 0.050182 0.502604 0.421390
Si Si6 0.046540 0.153913 0.827977
O O1 0.250000 0.655368 0.330639
O O2 0.514631 0.750000 0.339541
O O3 0.520298 0.583812 0.379928
O O4 0.501108 0.629911 0.249496
O O5 0.250000 0.656066 0.673204
O O6 0.511729 0.750000 0.655589
O O7 0.508915 0.633461 0.749516
O O8 0.504684 0.583100 0.618577
O O9 0.750000 0.347218 0.172314
O O10 0.491599 0.250000 0.156690
O O11 0.485291 0.416998 0.119386
O O12 0.750000 0.500418 0.083435
O O13 0.484417 0.584272 0.118524
O O14 0.500000 0.500000 0.000000
O O15 0.250000 0.510993 0.419369
O O16 0.000000 0.500000 0.500000
O O17 0.250000 0.156034 0.832160
O O18 0.983641 0.250000 0.840287
#
# Coordination Sequence:
#
# PCOD9449418 Si02
#       6
#     8   8   8   8   8   8
#     4   9  19  36  56  77 101 131 170 215 259 303
#     4   9  18  35  59  81 101 131 172 217 264 312
#     4   8  15  30  52  74  94 123 166 208 245 293
#     4  10  20  32  47  70 101 133 164 201 245 295
#     4  11  23  36  52  77 109 142 174 211 257 308
#     4   9  18  33  53  75  98 127 165 209 255 302
#
# _framework density 19.616743
#
# number of rings (size 3 to 8) (size 9 to 14) (size 15 to 20)
#    0.000    2.667    0.000    2.500    0.000    5.000 
#    0.000    2.500    0.000    1.000    0.000    0.000 
#    0.000    0.000    0.000    0.000    0.000    0.000 
#
# Total GULP energy -267850.078158 kJ/mol
# GULP energy per Si atom -5580.209962 kJ/mol
# Density = 1.957209 g / cm^3
# Si number density = 19.616743 Si / 1000 Ang^3
#
#
#
# Elastic Constant Matrix: (Units=GPa)
#
#
# Indices 1 2 3 4 5 6 
#
# 1 16.3578 11.6470 7.2313 0.0000 0.0000 0.0000
# 2 11.6470 168.3857 153.7078 0.0000 0.0000 0.0000
# 3 7.2313 153.7078 195.6010 0.0000 0.0000 0.0000
# 4 0.0000 0.0000 0.0000 -2.9625 0.0000 0.0000
# 5 0.0000 0.0000 0.0000 0.0000 28.1020 0.0000
# 6 0.0000 0.0000 0.0000 0.0000 0.0000 13.9978
#
#
#
# Elastic Compliance Matrix: (Units=1/GPa)
#
#
# Indices 1 2 3 4 5 6 
#
# 1 0.065176 -0.008167 0.004008 0.000000 0.000000 0.000000
# 2 -0.008167 0.022032 -0.017012 0.000000 0.000000 0.000000
# 3 0.004008 -0.017012 0.018332 0.000000 0.000000 0.000000
# 4 0.000000 0.000000 0.000000 -0.337553 0.000000 0.000000
# 5 0.000000 0.000000 0.000000 0.000000 0.035585 0.000000
# 6 0.000000 0.000000 0.000000 0.000000 0.000000 0.071440
#
#
# Mechanical properties :
#
#
# Convention : Reuss Voigt Hill
#
# Bulk Modulus (GPa) = 15.82279 80.61297 48.21788
# Shear Modulus (GPa) = -81.19482 21.67804 -29.75839
#
# Velocity S-wave (km/s) = -6.44053 3.32788 -3.89908
# Velocity P-wave (km/s) = 6.87195 7.47994 2.08875
#
# Compressibility (1/GPa) = 0.06319998
#
# Stress axis : x y z
#
# Youngs Moduli (GPa) = 15.34309 45.38767 54.54824
#
# Poissons Ratio (x) = 0.37068 -0.21865
# Poissons Ratio (y) = 0.12531 0.92796
# Poissons Ratio (z) = -0.06150 0.77212
#
# Static dielectric constant tensor:
#      x y z
#    x 1.754500 0.000000 0.000000 
#    y 0.000000 1.707360 0.000000 
#    z 0.000000 0.000000 1.684960 
# 
# From -- ./inp_files/25445.got.cif
#   From: 2010.05.17/outbox.cif.g08.bks.cpg/sg59_13_cif.got.tgz:25445.got - 2010.06.03 14:40:33.
