data_PCOD9449760
_publ_section_title
;
Structure prediction by ZEFSAII (Michael W. Deem and Ramdas Pophale) SiO2 
 PCOD9449760
Probable space group: P M M N
;
_chemical_formula_sum "Si O2"
_cell_formula_units_Z 40
_cell_length_a 9.078770
_cell_length_b 14.899062
_cell_length_c 17.333140
_cell_angle_alpha 90.000000
_cell_angle_beta 90.000000
_cell_angle_gamma 90.000000
_cell_volume 2344.569905
_symmetry_space_group_name_H-M "P M M N"
_symmetry_group_IT_number 59
_space_group.IT_coordinate_system_code '2'
_symmetry_cell_setting 'orthorhombic'
loop_
_space_group_symop_operation_xyz
x,y,z
1/2-x,1/2-y,z
1/2+x,-y,-z
-x,1/2+y,-z
-x,-y,-z
1/2+x,1/2+y,-z
1/2-x,y,z
x,1/2-y,z
loop_
_atom_site_type_symbol
_atom_site_label
_atom_site_fract_x
_atom_site_fract_y
_atom_site_fract_z
Si Si1 0.083103 0.750000 0.753587
Si Si2 0.426187 0.355442 0.484594
Si Si3 0.424792 0.491468 0.619436
Si Si4 0.416655 0.750000 0.939615
Si Si5 0.074276 0.066329 0.059726
Si Si6 0.425799 0.436468 0.240407
O O1 0.250000 0.750000 0.722161
O O2 0.093573 0.750000 0.846556
O O3 0.994818 0.659679 0.735206
O O4 0.250000 0.360686 0.468754
O O5 0.468325 0.250000 0.480816
O O6 0.450680 0.402423 0.568041
O O7 0.510633 0.422637 0.427057
O O8 0.250000 0.502441 0.628898
O O9 0.504312 0.491805 0.701806
O O10 0.250000 0.750000 0.970306
O O11 0.507923 0.837202 0.960296
O O12 0.250000 0.065262 0.052850
O O13 0.038601 0.047689 0.150123
O O14 0.000000 0.000000 0.000000
O O15 0.250000 0.432723 0.248172
#
# Coordination Sequence:
#
# PCOD9449760 Si02
#       6
#     4   8   8   4   8   8
#     4   9  17  29  47  73 101 130 165 208 257 303
#     4   9  19  36  55  74 101 137 172 211 261 308
#     4  10  20  33  52  78 104 133 173 217 255 306
#     4   9  17  31  51  75 103 132 165 212 263 311
#     4  10  20  34  54  78 105 140 179 217 264 317
#     4  10  20  33  50  74 106 139 171 210 262 314
#
# _framework density 17.060699
#
# number of rings (size 3 to 8) (size 9 to 14) (size 15 to 20)
#    0.000    2.400    0.000    2.400    1.400    6.000 
#    0.000    0.000    2.200    0.000    0.000    0.000 
#    0.000    0.000    0.000    0.000    0.000    0.000 
#
# Total GULP energy -223039.818665 kJ/mol
# GULP energy per Si atom -5575.995467 kJ/mol
# Density = 1.702187 g / cm^3
# Si number density = 17.060699 Si / 1000 Ang^3
#
#
#
# Elastic Constant Matrix: (Units=GPa)
#
#
# Indices 1 2 3 4 5 6 
#
# 1 74.8271 31.3757 49.3318 0.0000 0.0000 0.0000
# 2 31.3757 84.5444 39.1021 0.0000 0.0000 0.0000
# 3 49.3318 39.1021 80.5328 0.0000 0.0000 0.0000
# 4 0.0000 0.0000 0.0000 24.1603 0.0000 0.0000
# 5 0.0000 0.0000 0.0000 0.0000 30.2794 0.0000
# 6 0.0000 0.0000 0.0000 0.0000 0.0000 26.6865
#
#
#
# Elastic Compliance Matrix: (Units=1/GPa)
#
#
# Indices 1 2 3 4 5 6 
#
# 1 0.022848 -0.002587 -0.012740 0.000000 0.000000 0.000000
# 2 -0.002587 0.015546 -0.005964 0.000000 0.000000 0.000000
# 3 -0.012740 -0.005964 0.023117 0.000000 0.000000 0.000000
# 4 0.000000 0.000000 0.000000 0.041390 0.000000 0.000000
# 5 0.000000 0.000000 0.000000 0.000000 0.033026 0.000000
# 6 0.000000 0.000000 0.000000 0.000000 0.000000 0.037472
#
#
# Mechanical properties :
#
#
# Convention : Reuss Voigt Hill
#
# Bulk Modulus (GPa) = 52.82559 53.28038 53.05298
# Shear Modulus (GPa) = 22.49306 24.23154 23.36230
#
# Velocity S-wave (km/s) = 3.63494 3.77279 3.70451
# Velocity P-wave (km/s) = 6.97478 7.09058 7.03292
#
# Compressibility (1/GPa) = 0.01893022
#
# Stress axis : x y z
#
# Youngs Moduli (GPa) = 43.76753 64.32348 43.25825
#
# Poissons Ratio (x) = 0.16640 0.55110
# Poissons Ratio (y) = 0.11323 0.25798
# Poissons Ratio (z) = 0.55759 0.38361
#
# Static dielectric constant tensor:
#      x y z
#    x 1.572230 0.000000 0.000000 
#    y 0.000000 1.561400 0.000000 
#    z 0.000000 0.000000 1.597010 
# 
# From -- ./inp_files/19999.got.cif
#   From: 2010.05.17/outbox.cif.g08.bks.cpg/sg59_10_cif.got.tgz:19999.got - 2010.06.03 14:40:33.
