data_PCOD9449281
_publ_section_title
;
Structure prediction by ZEFSAII (Michael W. Deem and Ramdas Pophale) SiO2 
 PCOD9449281
Probable space group: P M M N
;
_chemical_formula_sum "Si O2"
_cell_formula_units_Z 64
_cell_length_a 25.624910
_cell_length_b 9.138677
_cell_length_c 18.111862
_cell_angle_alpha 90.000000
_cell_angle_beta 90.000000
_cell_angle_gamma 90.000000
_cell_volume 4241.395556
_symmetry_space_group_name_H-M "P M M N"
_symmetry_group_IT_number 59
_space_group.IT_coordinate_system_code '2'
_symmetry_cell_setting 'orthorhombic'
loop_
_space_group_symop_operation_xyz
x,y,z
1/2-x,1/2-y,z
1/2+x,-y,-z
-x,1/2+y,-z
-x,-y,-z
1/2+x,1/2+y,-z
1/2-x,y,z
x,1/2-y,z
loop_
_atom_site_type_symbol
_atom_site_label
_atom_site_fract_x
_atom_site_fract_y
_atom_site_fract_z
Si Si1 0.812347 0.576559 0.197404
Si Si2 0.813656 0.580827 0.498591
Si Si3 0.996124 0.574956 0.080207
Si Si4 0.313463 0.918418 0.352281
Si Si5 0.613195 0.076925 0.912766
Si Si6 0.186573 0.581663 0.650502
Si Si7 0.108730 0.575014 0.911474
Si Si8 0.188582 0.075751 0.200330
O O1 0.750000 0.555331 0.188513
O O2 0.822688 0.750000 0.195235
O O3 0.827749 0.509493 0.276815
O O4 0.844043 0.492922 0.134411
O O5 0.750000 0.579175 0.498558
O O6 0.829706 0.750000 0.496733
O O7 0.830721 0.501802 0.573812
O O8 0.830700 0.495091 0.425231
O O9 0.989163 0.750000 0.073185
O O10 0.053553 0.549533 0.113742
O O11 0.945175 0.500912 0.114781
O O12 0.000000 0.500000 0.000000
O O13 0.250000 0.918686 0.353959
O O14 0.330594 0.750000 0.352110
O O15 0.328205 0.999950 0.276985
O O16 0.623733 0.250000 0.903768
O O17 0.654033 0.985007 0.866145
O O18 0.615415 0.045230 0.000675
O O19 0.250000 0.583218 0.648555
O O20 0.169164 0.750000 0.655228
O O21 0.105585 0.750000 0.902625
O O22 0.250000 0.041670 0.188453
O O23 0.183666 0.250000 0.206906
#
# Coordination Sequence:
#
# PCOD9449281 Si02
#       8
#     8   8   8   8   8   8   8   8
#     4  10  20  32  45  63  90 123 155 187 225 267
#     4   9  15  23  37  57  81 109 143 181 218 258
#     4   9  17  31  50  70  89 109 140 184 231 273
#     4   9  16  26  40  57  80 112 147 181 218 260
#     4   9  19  33  48  66  87 114 147 183 224 268
#     4   9  16  26  40  58  82 113 148 183 219 261
#     4  10  20  33  49  68  89 116 150 187 228 271
#     4  10  20  31  43  62  89 120 152 185 221 262
#
# _framework density 15.089373
#
# number of rings (size 3 to 8) (size 9 to 14) (size 15 to 20)
#    0.000    2.625    0.000    3.375    0.000    9.500 
#    0.000    2.500    0.000    0.000    0.000    0.000 
#    0.000    1.000    0.000    3.750    0.000    6.125 
#
# Total GULP energy -356522.116595 kJ/mol
# GULP energy per Si atom -5570.658072 kJ/mol
# Density = 1.505503 g / cm^3
# Si number density = 15.089373 Si / 1000 Ang^3
#
#
#
# Elastic Constant Matrix: (Units=GPa)
#
#
# Indices 1 2 3 4 5 6 
#
# 1 47.7296 49.9855 44.2117 0.0000 0.0000 0.0000
# 2 49.9855 112.7117 68.4936 0.0000 0.0000 0.0000
# 3 44.2117 68.4936 96.7252 0.0000 0.0000 0.0000
# 4 0.0000 0.0000 0.0000 30.7208 0.0000 0.0000
# 5 0.0000 0.0000 0.0000 0.0000 -1.5323 0.0000
# 6 0.0000 0.0000 0.0000 0.0000 0.0000 21.6481
#
#
#
# Elastic Compliance Matrix: (Units=1/GPa)
#
#
# Indices 1 2 3 4 5 6 
#
# 1 0.045274 -0.013170 -0.011368 0.000000 0.000000 0.000000
# 2 -0.013170 0.019405 -0.007721 0.000000 0.000000 0.000000
# 3 -0.011368 -0.007721 0.021003 0.000000 0.000000 0.000000
# 4 0.000000 0.000000 0.000000 0.032551 0.000000 0.000000
# 5 0.000000 0.000000 0.000000 0.000000 -0.652609 0.000000
# 6 0.000000 0.000000 0.000000 0.000000 0.000000 0.046194
#
#
# Mechanical properties :
#
#
# Convention : Reuss Voigt Hill
#
# Bulk Modulus (GPa) = 47.25314 64.72756 55.99035
# Shear Modulus (GPa) = -12.00166 16.46568 2.23201
#
# Velocity S-wave (km/s) = -2.82329 3.30693 1.21754
# Velocity P-wave (km/s) = 4.55582 7.58751 6.25803
#
# Compressibility (1/GPa) = 0.02116262
#
# Stress axis : x y z
#
# Youngs Moduli (GPa) = 22.08771 51.53315 47.61323
#
# Poissons Ratio (x) = 0.67868 0.54128
# Poissons Ratio (y) = 0.29089 0.36764
# Poissons Ratio (z) = 0.25110 0.39791
#
# Static dielectric constant tensor:
#      x y z
#    x 1.495980 0.000000 0.000000 
#    y 0.000000 1.502880 0.000000 
#    z 0.000000 0.000000 1.491060 
# 
# From -- ./inp_files/26446.got.cif
#   From: 2010.05.17/outbox.cif.g08.bks.cpg/sg59_14_cif.got.tgz:26446.got - 2010.06.03 14:40:33.
