data_PCOD9449776
_publ_section_title
;
Structure prediction by ZEFSAII (Michael W. Deem and Ramdas Pophale) SiO2 
 PCOD9449776
Probable space group: P M M N
;
_chemical_formula_sum "Si O2"
_cell_formula_units_Z 56
_cell_length_a 8.765955
_cell_length_b 21.285956
_cell_length_c 15.618579
_cell_angle_alpha 90.000000
_cell_angle_beta 90.000000
_cell_angle_gamma 90.000000
_cell_volume 2914.297714
_symmetry_space_group_name_H-M "P M M N"
_symmetry_group_IT_number 59
_space_group.IT_coordinate_system_code '2'
_symmetry_cell_setting 'orthorhombic'
loop_
_space_group_symop_operation_xyz
x,y,z
1/2-x,1/2-y,z
1/2+x,-y,-z
-x,1/2+y,-z
-x,-y,-z
1/2+x,1/2+y,-z
1/2-x,y,z
x,1/2-y,z
loop_
_atom_site_type_symbol
_atom_site_label
_atom_site_fract_x
_atom_site_fract_y
_atom_site_fract_z
Si Si1 0.579033 0.822786 0.352553
Si Si2 0.070337 0.509509 0.774421
Si Si3 0.431732 0.319313 0.956119
Si Si4 0.568107 0.556084 0.941622
Si Si5 0.075197 0.881061 0.199280
Si Si6 0.932413 0.320359 0.462187
Si Si7 0.433271 0.537728 0.582248
O O1 0.750000 0.849947 0.341994
O O2 0.585073 0.750000 0.326483
O O3 0.456340 0.856425 0.294042
O O4 0.526568 0.824230 0.450102
O O5 0.250000 0.522038 0.774248
O O6 0.015680 0.512791 0.675707
O O7 0.989809 0.553207 0.844134
O O8 0.034132 0.440576 0.810531
O O9 0.250000 0.323528 0.938294
O O10 0.462031 0.250000 0.991837
O O11 0.522785 0.329507 0.868528
O O12 0.473526 0.377086 0.016912
O O13 0.750000 0.549301 0.942897
O O14 0.500000 0.500000 0.000000
O O15 0.250000 0.899196 0.186295
O O16 0.750000 0.321138 0.479358
O O17 0.964547 0.250000 0.424176
O O18 0.966843 0.387069 0.417419
O O19 0.500000 0.500000 0.500000
O O20 0.250000 0.530400 0.576887
#
# Coordination Sequence:
#
# PCOD9449776 Si02
#       7
#     8   8   8   8   8   8   8
#     4  10  20  33  50  75 110 150 189 232 292 361
#     4  11  23  39  59  85 118 156 198 243 298 362
#     4  10  22  40  61  85 117 156 194 239 298 355
#     4  11  22  39  64  90 118 155 198 244 292 350
#     4  12  23  34  53  82 114 149 193 242 295 355
#     4   9  18  35  57  79 107 146 194 246 298 350
#     4  10  22  38  58  86 118 154 196 247 300 350
#
# _framework density 19.215608
#
# number of rings (size 3 to 8) (size 9 to 14) (size 15 to 20)
#    0.000    1.571    1.429    3.857    0.000    7.429 
#    0.000    0.714    0.000    0.857    0.000    0.000 
#    0.000    0.000    0.000    0.000    0.000    0.000 
#
# Total GULP energy -312421.956020 kJ/mol
# GULP energy per Si atom -5578.963500 kJ/mol
# Density = 1.917187 g / cm^3
# Si number density = 19.215608 Si / 1000 Ang^3
#
#
#
# Elastic Constant Matrix: (Units=GPa)
#
#
# Indices 1 2 3 4 5 6 
#
# 1 32.1555 25.6578 25.1663 0.0000 0.0000 0.0000
# 2 25.6578 112.1855 38.8904 0.0000 0.0000 0.0000
# 3 25.1663 38.8904 88.6675 0.0000 0.0000 0.0000
# 4 0.0000 0.0000 0.0000 30.8543 0.0000 0.0000
# 5 0.0000 0.0000 0.0000 0.0000 26.9724 0.0000
# 6 0.0000 0.0000 0.0000 0.0000 0.0000 20.1192
#
#
#
# Elastic Compliance Matrix: (Units=1/GPa)
#
#
# Indices 1 2 3 4 5 6 
#
# 1 0.043925 -0.006751 -0.009506 0.000000 0.000000 0.000000
# 2 -0.006751 0.011550 -0.003150 0.000000 0.000000 0.000000
# 3 -0.009506 -0.003150 0.015358 0.000000 0.000000 0.000000
# 4 0.000000 0.000000 0.000000 0.032410 0.000000 0.000000
# 5 0.000000 0.000000 0.000000 0.000000 0.037075 0.000000
# 6 0.000000 0.000000 0.000000 0.000000 0.000000 0.049704
#
#
# Mechanical properties :
#
#
# Convention : Reuss Voigt Hill
#
# Bulk Modulus (GPa) = 31.23111 45.82639 38.52875
# Shear Modulus (GPa) = 20.87609 25.14214 23.00911
#
# Velocity S-wave (km/s) = 3.29965 3.62114 3.46413
# Velocity P-wave (km/s) = 5.55025 6.43302 6.00787
#
# Compressibility (1/GPa) = 0.03201935
#
# Stress axis : x y z
#
# Youngs Moduli (GPa) = 22.76584 86.58283 65.11355
#
# Poissons Ratio (x) = 0.58449 0.61899
# Poissons Ratio (y) = 0.15368 0.20509
# Poissons Ratio (z) = 0.21642 0.27272
#
# Static dielectric constant tensor:
#      x y z
#    x 1.666150 0.000000 0.000000 
#    y 0.000000 1.727900 0.000000 
#    z 0.000000 0.000000 1.662160 
# 
# From -- ./inp_files/20971.got.cif
#   From: 2010.05.17/outbox.cif.g08.bks.cpg/sg59_11_cif.got.tgz:20971.got - 2010.06.03 14:40:33.
