data_PCOD9449702
_publ_section_title
;
Structure prediction by ZEFSAII (Michael W. Deem and Ramdas Pophale) SiO2 
 PCOD9449702
Probable space group: P M M N
;
_chemical_formula_sum "Si O2"
_cell_formula_units_Z 40
_cell_length_a 9.425437
_cell_length_b 7.609578
_cell_length_c 27.135255
_cell_angle_alpha 90.000000
_cell_angle_beta 90.000000
_cell_angle_gamma 90.000000
_cell_volume 1946.238122
_symmetry_space_group_name_H-M "P M M N"
_symmetry_group_IT_number 59
_space_group.IT_coordinate_system_code '2'
_symmetry_cell_setting 'orthorhombic'
loop_
_space_group_symop_operation_xyz
x,y,z
1/2-x,1/2-y,z
1/2+x,-y,-z
-x,1/2+y,-z
-x,-y,-z
1/2+x,1/2+y,-z
1/2-x,y,z
x,1/2-y,z
loop_
_atom_site_type_symbol
_atom_site_label
_atom_site_fract_x
_atom_site_fract_y
_atom_site_fract_z
Si Si1 0.584388 0.035289 0.643335
Si Si2 0.585494 0.038869 0.751000
Si Si3 0.910810 0.461400 0.048823
Si Si4 0.412020 0.040904 0.141621
Si Si5 0.089138 0.038759 0.548816
O O1 0.750000 0.984004 0.638205
O O2 0.583196 0.250000 0.642708
O O3 0.529651 0.980106 0.697620
O O4 0.491756 0.972910 0.597526
O O5 0.750000 0.978681 0.752139
O O6 0.585511 0.250000 0.750171
O O7 0.524272 0.986473 0.803769
O O8 0.750000 0.528573 0.045151
O O9 0.902915 0.250000 0.053204
O O10 0.992779 0.529115 0.097203
O O11 0.000000 0.500000 0.000000
O O12 0.250000 0.969396 0.140223
O O13 0.401097 0.250000 0.134800
O O14 0.250000 0.971933 0.545038
O O15 0.096097 0.250000 0.553197
O O16 0.000000 0.000000 0.500000
#
# Coordination Sequence:
#
# PCOD9449702 Si02
#       5
#     8   8   8   8   8
#     4   8  14  27  47  68  92 124 159 196 238 281
#     4   8  14  26  46  70  93 121 159 196 230 276
#     4  10  21  36  53  73  98 129 164 202 244 289
#     4   9  17  30  48  70  97 127 157 193 238 283
#     4  10  20  33  50  72  97 127 163 202 245 292
#
# _framework density 20.552468000000001
#
# number of rings (size 3 to 8) (size 9 to 14) (size 15 to 20)
#    0.000    3.000    0.000    2.400    0.000    3.200 
#    0.000    4.000    0.000    4.800    0.000    0.000 
#    0.000    0.000    0.000    0.000    0.000    0.000 
#
# Total GULP energy -223007.038710 kJ/mol
# GULP energy per Si atom -5575.175968 kJ/mol
# Density = 2.050569 g / cm^3
# Si number density = 20.552468 Si / 1000 Ang^3
#
#
#
# Elastic Constant Matrix: (Units=GPa)
#
#
# Indices 1 2 3 4 5 6 
#
# 1 127.4754 6.2522 115.0712 0.0000 0.0000 0.0000
# 2 6.2522 40.0009 1.5546 0.0000 0.0000 0.0000
# 3 115.0712 1.5546 251.3995 0.0000 0.0000 0.0000
# 4 0.0000 0.0000 0.0000 25.7429 0.0000 0.0000
# 5 0.0000 0.0000 0.0000 0.0000 35.5626 0.0000
# 6 0.0000 0.0000 0.0000 0.0000 0.0000 10.2114
#
#
#
# Elastic Compliance Matrix: (Units=1/GPa)
#
#
# Indices 1 2 3 4 5 6 
#
# 1 0.013507 -0.001871 -0.006171 0.000000 0.000000 0.000000
# 2 -0.001871 0.025265 0.000700 0.000000 0.000000 0.000000
# 3 -0.006171 0.000700 0.006798 0.000000 0.000000 0.000000
# 4 0.000000 0.000000 0.000000 0.038846 0.000000 0.000000
# 5 0.000000 0.000000 0.000000 0.000000 0.028119 0.000000
# 6 0.000000 0.000000 0.000000 0.000000 0.000000 0.097930
#
#
# Mechanical properties :
#
#
# Convention : Reuss Voigt Hill
#
# Bulk Modulus (GPa) = 32.37732 73.84798 53.11265
# Shear Modulus (GPa) = 21.23652 34.03654 27.63653
#
# Velocity S-wave (km/s) = 3.21796 4.07391 3.67097
# Velocity P-wave (km/s) = 5.44010 7.62486 6.62319
#
# Compressibility (1/GPa) = 0.03088582
#
# Stress axis : x y z
#
# Youngs Moduli (GPa) = 74.03710 39.58091 147.10421
#
# Poissons Ratio (x) = 0.07407 0.90775
# Poissons Ratio (y) = 0.13855 -0.10302
# Poissons Ratio (z) = 0.45687 -0.02772
#
# Static dielectric constant tensor:
#      x y z
#    x 1.722210 0.000000 0.000000 
#    y 0.000000 1.782870 0.000000 
#    z 0.000000 0.000000 1.743800 
# 
# From -- ./inp_files/28716.got.cif
#   From: 2010.05.17/outbox.cif.g08.bks.cpg/sg59_15_cif.got.tgz:28716.got - 2010.06.03 14:40:33.
