data_PCOD9449033
_publ_section_title
;
Structure prediction by ZEFSAII (Michael W. Deem and Ramdas Pophale) SiO2 
 PCOD9449033
Probable space group: P M M N
;
_chemical_formula_sum "Si O2"
_cell_formula_units_Z 48
_cell_length_a 12.117052
_cell_length_b 17.442294
_cell_length_c 10.493890
_cell_angle_alpha 90.000000
_cell_angle_beta 90.000000
_cell_angle_gamma 90.000000
_cell_volume 2217.875082
_symmetry_space_group_name_H-M "P M M N"
_symmetry_group_IT_number 59
_space_group.IT_coordinate_system_code '2'
_symmetry_cell_setting 'orthorhombic'
loop_
_space_group_symop_operation_xyz
x,y,z
1/2-x,1/2-y,z
1/2+x,-y,-z
-x,1/2+y,-z
-x,-y,-z
1/2+x,1/2+y,-z
1/2-x,y,z
x,1/2-y,z
loop_
_atom_site_type_symbol
_atom_site_label
_atom_site_fract_x
_atom_site_fract_y
_atom_site_fract_z
Si Si1 0.581897 0.162253 0.868188
Si Si2 0.874777 0.591973 0.227984
Si Si3 0.874777 0.591973 0.727984
Si Si4 0.583731 0.427425 0.621457
Si Si5 0.581897 0.337747 0.368188
Si Si6 0.083730 0.572575 0.878543
O O1 0.612650 0.250000 0.886866
O O2 0.449150 0.153711 0.846768
O O3 0.625819 0.125720 0.737388
O O4 0.611712 0.109491 0.987517
O O5 0.750000 0.613932 0.255389
O O6 0.950750 0.573714 0.352018
O O7 0.877862 0.513396 0.146742
O O8 0.750000 0.613932 0.755388
O O9 0.949151 0.653711 0.653232
O O10 0.877861 0.513396 0.646742
O O11 0.950750 0.573714 0.852018
O O12 0.611713 0.390509 0.487517
O O13 0.612650 0.250000 0.386866
O O14 0.625819 0.374280 0.237388
#
# Coordination Sequence:
#
# PCOD9449033 Si02
#       6
#     8   8   8   8   8   8
#     4  10  19  35  54  77 108 137 171 215 269 311
#     4   9  20  35  56  80 105 137 181 216 254 311
#     4   9  20  35  56  80 105 137 181 216 254 311
#     4   9  20  36  53  79 103 145 174 207 266 304
#     4  10  19  35  54  77 108 137 171 215 269 311
#     4   9  20  36  53  79 103 145 174 207 266 304
#
# _framework density 21.642336
#
# number of rings (size 3 to 8) (size 9 to 14) (size 15 to 20)
#    2.000    0.667    0.000    2.000    0.000    2.000 
#    0.000    0.000    0.000    6.000    0.000    0.000 
#    0.000    0.000    0.000    0.000    0.000    0.000 
#
# Total GULP energy -267509.000076 kJ/mol
# GULP energy per Si atom -5573.104168 kJ/mol
# Density = 2.159308 g / cm^3
# Si number density = 21.642336 Si / 1000 Ang^3
#
#
#
# Elastic Constant Matrix: (Units=GPa)
#
#
# Indices 1 2 3 4 5 6 
#
# 1 135.2924 -9.9145 5.6404 0.0000 0.0000 0.0000
# 2 -9.9145 87.7163 1.8331 0.0000 0.0000 0.0000
# 3 5.6404 1.8331 82.0483 0.0000 0.0000 0.0000
# 4 0.0000 0.0000 0.0000 19.4127 0.0000 0.0000
# 5 0.0000 0.0000 0.0000 0.0000 -15.3494 0.0000
# 6 0.0000 0.0000 0.0000 0.0000 0.0000 -9.8450
#
#
#
# Elastic Compliance Matrix: (Units=1/GPa)
#
#
# Indices 1 2 3 4 5 6 
#
# 1 0.007476 0.000856 -0.000533 0.000000 0.000000 0.000000
# 2 0.000856 0.011504 -0.000316 0.000000 0.000000 0.000000
# 3 -0.000533 -0.000316 0.012232 0.000000 0.000000 0.000000
# 4 0.000000 0.000000 0.000000 0.051513 0.000000 0.000000
# 5 0.000000 0.000000 0.000000 0.000000 -0.065149 0.000000
# 6 0.000000 0.000000 0.000000 0.000000 0.000000 -0.101575
#
#
# Mechanical properties :
#
#
# Convention : Reuss Voigt Hill
#
# Bulk Modulus (GPa) = 32.02436 33.35277 32.68856
# Shear Modulus (GPa) = -67.92989 19.34355 -24.29317
#
# Velocity S-wave (km/s) = -5.60853 2.99286 -3.35398
# Velocity P-wave (km/s) = 5.20688 5.23329 0.37127
#
# Compressibility (1/GPa) = 0.03122623
#
# Stress axis : x y z
#
# Youngs Moduli (GPa) = 133.75483 86.92808 81.75514
#
# Poissons Ratio (x) = -0.07443 0.04358
# Poissons Ratio (y) = -0.11452 0.02582
# Poissons Ratio (z) = 0.07130 0.02746
#
# Static dielectric constant tensor:
#      x y z
#    x 1.885280 0.000000 0.000000 
#    y 0.000000 1.722990 0.000000 
#    z 0.000000 0.000000 1.773520 
# 
# From -- ./inp_files/17017.got.cif
#   From: 2010.05.17/outbox.cif.g08.bks.cpg/sg59_9_cif.got.tgz:17017.got - 2010.06.03 14:40:33.
