data_PCOD9449705
_publ_section_title
;
Structure prediction by ZEFSAII (Michael W. Deem and Ramdas Pophale) SiO2 
 PCOD9449705
Probable space group: P M M N
;
_chemical_formula_sum "Si O2"
_cell_formula_units_Z 48
_cell_length_a 9.588837
_cell_length_b 7.641457
_cell_length_c 32.280634
_cell_angle_alpha 90.000000
_cell_angle_beta 90.000000
_cell_angle_gamma 90.000000
_cell_volume 2365.288747
_symmetry_space_group_name_H-M "P M M N"
_symmetry_group_IT_number 59
_space_group.IT_coordinate_system_code '2'
_symmetry_cell_setting 'orthorhombic'
loop_
_space_group_symop_operation_xyz
x,y,z
1/2-x,1/2-y,z
1/2+x,-y,-z
-x,1/2+y,-z
-x,-y,-z
1/2+x,1/2+y,-z
1/2-x,y,z
x,1/2-y,z
loop_
_atom_site_type_symbol
_atom_site_label
_atom_site_fract_x
_atom_site_fract_y
_atom_site_fract_z
Si Si1 0.593050 0.459364 0.290400
Si Si2 0.409018 0.539856 0.369601
Si Si3 0.409801 0.539769 0.959359
Si Si4 0.087846 0.963436 0.801573
Si Si5 0.091374 0.959830 0.460223
Si Si6 0.088927 0.035627 0.119628
O O1 0.750000 0.526675 0.297318
O O2 0.601099 0.250000 0.286976
O O3 0.498374 0.495753 0.329678
O O4 0.545705 0.521263 0.244809
O O5 0.250000 0.476406 0.365040
O O6 0.404611 0.750000 0.371209
O O7 0.461577 0.478485 0.414950
O O8 0.250000 0.473758 0.961636
O O9 0.401300 0.750000 0.955874
O O10 0.495106 0.477217 0.919168
O O11 0.500000 0.500000 0.000000
O O12 0.250000 0.014027 0.808454
O O13 0.085899 0.750000 0.802385
O O14 0.985831 0.021687 0.837968
O O15 0.250000 0.025023 0.465328
O O16 0.097929 0.750000 0.457988
O O17 0.000000 0.000000 0.500000
O O18 0.250000 0.979957 0.116494
O O19 0.089577 0.250000 0.119375
#
# Coordination Sequence:
#
# PCOD9449705 Si02
#       6
#     8   8   8   8   8   8
#     4   9  18  31  48  73 101 126 156 196 239 281
#     4   9  19  35  51  68  95 130 163 194 233 283
#     4  10  20  33  50  72  98 129 163 199 242 290
#     4   8  14  26  43  64  93 124 152 189 237 283
#     4   9  19  35  52  71  96 125 158 197 239 283
#     4   9  16  26  43  68  95 123 158 198 238 283
#
# _framework density 20.293505
#
# number of rings (size 3 to 8) (size 9 to 14) (size 15 to 20)
#    0.000    3.000    0.000    3.000    0.000    6.000 
#    0.000    6.667    0.000    1.000    0.000    4.667 
#    0.000    0.000    0.000    0.000    0.000    0.000 
#
# Total GULP energy -267659.368859 kJ/mol
# GULP energy per Si atom -5576.236851 kJ/mol
# Density = 2.024732 g / cm^3
# Si number density = 20.293505 Si / 1000 Ang^3
#
#
#
# Elastic Constant Matrix: (Units=GPa)
#
#
# Indices 1 2 3 4 5 6 
#
# 1 151.2669 6.6349 143.2424 0.0000 0.0000 0.0000
# 2 6.6349 34.6843 7.3727 0.0000 0.0000 0.0000
# 3 143.2424 7.3727 249.4574 0.0000 0.0000 0.0000
# 4 0.0000 0.0000 0.0000 19.6513 0.0000 0.0000
# 5 0.0000 0.0000 0.0000 0.0000 44.0088 0.0000
# 6 0.0000 0.0000 0.0000 0.0000 0.0000 14.0961
#
#
#
# Elastic Compliance Matrix: (Units=1/GPa)
#
#
# Indices 1 2 3 4 5 6 
#
# 1 0.014525 -0.001012 -0.008310 0.000000 0.000000 0.000000
# 2 -0.001012 0.029084 -0.000278 0.000000 0.000000 0.000000
# 3 -0.008310 -0.000278 0.008789 0.000000 0.000000 0.000000
# 4 0.000000 0.000000 0.000000 0.050887 0.000000 0.000000
# 5 0.000000 0.000000 0.000000 0.000000 0.022723 0.000000
# 6 0.000000 0.000000 0.000000 0.000000 0.000000 0.070942
#
#
# Mechanical properties :
#
#
# Convention : Reuss Voigt Hill
#
# Bulk Modulus (GPa) = 30.12401 83.32318 56.72360
# Shear Modulus (GPa) = 22.00541 34.09515 28.05028
#
# Velocity S-wave (km/s) = 3.29653 4.10335 3.72187
# Velocity P-wave (km/s) = 5.41903 7.97485 6.81777
#
# Compressibility (1/GPa) = 0.03319611
#
# Stress axis : x y z
#
# Youngs Moduli (GPa) = 68.84749 34.38289 113.77920
#
# Poissons Ratio (x) = 0.03479 0.94556
# Poissons Ratio (y) = 0.06967 0.03169
# Poissons Ratio (z) = 0.57216 0.00958
#
# Static dielectric constant tensor:
#      x y z
#    x 1.696430 0.000000 0.000000 
#    y 0.000000 1.781760 0.000000 
#    z 0.000000 0.000000 1.723630 
# 
# From -- ./inp_files/31860.got.cif
#   From: 2010.05.17/outbox.cif.g08.bks.cpg/sg59_16_cif.got.tgz:31860.got - 2010.06.03 14:40:33.
