data_PCOD9449671
_publ_section_title
;
Structure prediction by ZEFSAII (Michael W. Deem and Ramdas Pophale) SiO2 
 PCOD9449671
Probable space group: P M M N
;
_chemical_formula_sum "Si O2"
_cell_formula_units_Z 64
_cell_length_a 14.105565
_cell_length_b 8.933324
_cell_length_c 28.205132
_cell_angle_alpha 90.000000
_cell_angle_beta 90.000000
_cell_angle_gamma 90.000000
_cell_volume 3554.116903
_symmetry_space_group_name_H-M "P M M N"
_symmetry_group_IT_number 59
_space_group.IT_coordinate_system_code '2'
_symmetry_cell_setting 'orthorhombic'
loop_
_space_group_symop_operation_xyz
x,y,z
1/2-x,1/2-y,z
1/2+x,-y,-z
-x,1/2+y,-z
-x,-y,-z
1/2+x,1/2+y,-z
1/2-x,y,z
x,1/2-y,z
loop_
_atom_site_type_symbol
_atom_site_label
_atom_site_fract_x
_atom_site_fract_y
_atom_site_fract_z
Si Si1 0.863354 0.922889 0.520647
Si Si2 0.511311 0.424202 0.795743
Si Si3 0.542713 0.429271 0.612313
Si Si4 0.361281 0.919709 0.112034
Si Si5 0.859743 0.430841 0.137368
Si Si6 0.491201 0.925494 0.949005
Si Si7 0.360024 0.571162 0.581245
Si Si8 0.141440 0.567728 0.289325
O O1 0.750000 0.924161 0.527894
O O2 0.894539 0.750000 0.516090
O O3 0.880918 0.010057 0.471705
O O4 0.911484 0.000602 0.565304
O O5 0.485252 0.250000 0.787934
O O6 0.591607 0.428599 0.836465
O O7 0.422055 0.508028 0.818899
O O8 0.563413 0.484564 0.748874
O O9 0.540053 0.250000 0.608421
O O10 0.436384 0.493706 0.615111
O O11 0.605237 0.469703 0.658113
O O12 0.250000 0.941361 0.114899
O O13 0.380009 0.750000 0.093928
O O14 0.412274 0.037843 0.078721
O O15 0.750000 0.476805 0.139425
O O16 0.863895 0.250000 0.138131
O O17 0.909882 0.480862 0.087918
O O18 0.476665 0.750000 0.955419
O O19 0.500000 0.000000 0.000000
O O20 0.250000 0.534281 0.591859
O O21 0.370458 0.750000 0.582159
O O22 0.250000 0.516837 0.281050
O O23 0.143077 0.750000 0.285619
#
# Coordination Sequence:
#
# PCOD9449671 Si02
#       8
#     8   8   8   8   8   8   8   8
#     4  10  20  34  53  77 105 136 171 212 256 305
#     4   9  17  32  55  80 102 127 166 213 253 294
#     4  11  21  33  52  77 106 138 171 209 254 308
#     4   9  17  30  50  74  99 129 164 203 249 299
#     4   9  19  36  55  74 101 139 177 213 257 307
#     4  10  20  33  49  72 103 137 173 212 254 301
#     4  10  21  37  55  73  97 133 176 218 258 303
#     4   9  18  33  54  80 108 136 165 201 251 309
#
# _framework density 18.007287000000002
#
# number of rings (size 3 to 8) (size 9 to 14) (size 15 to 20)
#    0.000    2.375    0.000    2.625    0.000    5.000 
#    0.000    3.125    0.000    6.375    0.000    0.000 
#    0.000    0.000    0.000    0.000    0.000    0.000 
#
# Total GULP energy -356961.604975 kJ/mol
# GULP energy per Si atom -5577.525078 kJ/mol
# Density = 1.796630 g / cm^3
# Si number density = 18.007287 Si / 1000 Ang^3
#
#
#
# Elastic Constant Matrix: (Units=GPa)
#
#
# Indices 1 2 3 4 5 6 
#
# 1 120.3552 29.3240 50.3800 0.0000 0.0000 0.0000
# 2 29.3240 39.1496 19.9610 0.0000 0.0000 0.0000
# 3 50.3800 19.9610 49.9014 0.0000 0.0000 0.0000
# 4 0.0000 0.0000 0.0000 20.9589 0.0000 0.0000
# 5 0.0000 0.0000 0.0000 0.0000 13.3984 0.0000
# 6 0.0000 0.0000 0.0000 0.0000 0.0000 27.8929
#
#
#
# Elastic Compliance Matrix: (Units=1/GPa)
#
#
# Indices 1 2 3 4 5 6 
#
# 1 0.014972 -0.004406 -0.013353 0.000000 0.000000 0.000000
# 2 -0.004406 0.033384 -0.008906 0.000000 0.000000 0.000000
# 3 -0.013353 -0.008906 0.037083 0.000000 0.000000 0.000000
# 4 0.000000 0.000000 0.000000 0.047712 0.000000 0.000000
# 5 0.000000 0.000000 0.000000 0.000000 0.074636 0.000000
# 6 0.000000 0.000000 0.000000 0.000000 0.000000 0.035851
#
#
# Mechanical properties :
#
#
# Convention : Reuss Voigt Hill
#
# Bulk Modulus (GPa) = 31.14348 45.41513 38.27931
# Shear Modulus (GPa) = 16.25120 19.76613 18.00867
#
# Velocity S-wave (km/s) = 3.00739 3.31671 3.16583
# Velocity P-wave (km/s) = 5.42141 6.32002 5.88788
#
# Compressibility (1/GPa) = 0.03210945
#
# Stress axis : x y z
#
# Youngs Moduli (GPa) = 66.79298 29.95450 26.96675
#
# Poissons Ratio (x) = 0.13198 0.36008
# Poissons Ratio (y) = 0.29429 0.24016
# Poissons Ratio (z) = 0.89187 0.26676
#
# Static dielectric constant tensor:
#      x y z
#    x 1.627220 0.000000 0.000000 
#    y 0.000000 1.621000 0.000000 
#    z 0.000000 0.000000 1.604620 
# 
# From -- ./inp_files/32252.got.cif
#   From: 2010.05.17/outbox.cif.g08.bks.cpg/sg59_17_cif.got.tgz:32252.got - 2010.06.03 14:40:33.
