data_PCOD9449770
_publ_section_title
;
Structure prediction by ZEFSAII (Michael W. Deem and Ramdas Pophale) SiO2 
 PCOD9449770
Probable space group: P M M N
;
_chemical_formula_sum "Si O2"
_cell_formula_units_Z 48
_cell_length_a 15.050743
_cell_length_b 8.713137
_cell_length_c 21.259884
_cell_angle_alpha 90.000000
_cell_angle_beta 90.000000
_cell_angle_gamma 90.000000
_cell_volume 2788.003876
_symmetry_space_group_name_H-M "P M M N"
_symmetry_group_IT_number 59
_space_group.IT_coordinate_system_code '2'
_symmetry_cell_setting 'orthorhombic'
loop_
_space_group_symop_operation_xyz
x,y,z
1/2-x,1/2-y,z
1/2+x,-y,-z
-x,1/2+y,-z
-x,-y,-z
1/2+x,1/2+y,-z
1/2-x,y,z
x,1/2-y,z
loop_
_atom_site_type_symbol
_atom_site_label
_atom_site_fract_x
_atom_site_fract_y
_atom_site_fract_z
Si Si1 0.061939 0.434320 0.944616
Si Si2 0.750000 0.065616 0.016482
Si Si3 0.061114 0.067881 0.303127
Si Si4 0.750000 0.420626 0.544462
Si Si5 0.437112 0.066939 0.447070
Si Si6 0.250000 0.577195 0.305851
Si Si7 0.750000 0.565520 0.874286
Si Si8 0.561348 0.432981 0.825418
O O1 0.069361 0.250000 0.950937
O O2 0.159711 0.507395 0.950352
O O3 0.008838 0.468924 0.880461
O O4 0.000000 0.500000 0.000000
O O5 0.750000 0.250000 0.012718
O O6 0.750000 0.996485 0.945843
O O7 0.048590 0.250000 0.300468
O O8 0.040781 0.015032 0.374946
O O9 0.163657 0.021544 0.293009
O O10 0.021215 0.989280 0.241324
O O11 0.750000 0.250000 0.515660
O O12 0.660710 0.512811 0.532725
O O13 0.750000 0.402114 0.619490
O O14 0.440951 0.250000 0.446023
O O15 0.500000 0.000000 0.500000
O O16 0.250000 0.750000 0.277715
O O17 0.750000 0.750000 0.873105
O O18 0.657851 0.505807 0.842883
O O19 0.573982 0.250000 0.822917
#
# Coordination Sequence:
#
# PCOD9449770 Si02
#       8
#     8   4   8   4   8   4   4   8
#     4  11  23  39  60  83 110 144 184 229 276 325
#     4  12  24  39  59  83 113 145 185 230 276 333
#     4  10  20  33  50  75 108 143 180 221 271 327
#     4   9  17  30  50  76 106 140 176 217 267 322
#     4  10  20  34  54  80 110 145 184 227 273 328
#     4   9  16  28  47  71 103 140 174 211 261 321
#     4  12  23  35  56  82 114 149 183 224 272 326
#     4  11  23  37  55  80 112 146 184 227 275 329
#
# _framework density 17.216619999999999
#
# number of rings (size 3 to 8) (size 9 to 14) (size 15 to 20)
#    0.000    1.500    1.667    4.500    0.000    6.000 
#    0.000    0.000    0.000    1.000    0.000    4.667 
#    0.000    0.000    0.000    0.000    0.000    0.000 
#
# Total GULP energy -267659.000493 kJ/mol
# GULP energy per Si atom -5576.229177 kJ/mol
# Density = 1.717743 g / cm^3
# Si number density = 17.216620 Si / 1000 Ang^3
#
#
#
# Elastic Constant Matrix: (Units=GPa)
#
#
# Indices 1 2 3 4 5 6 
#
# 1 113.6363 46.6794 72.7034 0.0000 0.0000 0.0000
# 2 46.6794 89.3724 56.5873 0.0000 0.0000 0.0000
# 3 72.7034 56.5873 149.0706 0.0000 0.0000 0.0000
# 4 0.0000 0.0000 0.0000 28.8158 0.0000 0.0000
# 5 0.0000 0.0000 0.0000 0.0000 36.8858 0.0000
# 6 0.0000 0.0000 0.0000 0.0000 0.0000 23.7423
#
#
#
# Elastic Compliance Matrix: (Units=1/GPa)
#
#
# Indices 1 2 3 4 5 6 
#
# 1 0.013733 -0.003860 -0.005233 0.000000 0.000000 0.000000
# 2 -0.003860 0.015814 -0.004121 0.000000 0.000000 0.000000
# 3 -0.005233 -0.004121 0.010824 0.000000 0.000000 0.000000
# 4 0.000000 0.000000 0.000000 0.034703 0.000000 0.000000
# 5 0.000000 0.000000 0.000000 0.000000 0.027111 0.000000
# 6 0.000000 0.000000 0.000000 0.000000 0.000000 0.042119
#
#
# Mechanical properties :
#
#
# Convention : Reuss Voigt Hill
#
# Bulk Modulus (GPa) = 71.70654 78.22438 74.96546
# Shear Modulus (GPa) = 28.50956 29.62937 29.06947
#
# Velocity S-wave (km/s) = 4.07373 4.15296 4.11354
# Velocity P-wave (km/s) = 7.99169 8.27830 8.13625
#
# Compressibility (1/GPa) = 0.01394573
#
# Stress axis : x y z
#
# Youngs Moduli (GPa) = 72.81525 63.23455 92.38322
#
# Poissons Ratio (x) = 0.24407 0.48342
# Poissons Ratio (y) = 0.28105 0.38067
# Poissons Ratio (z) = 0.38102 0.26056
#
# Static dielectric constant tensor:
#      x y z
#    x 1.526780 0.000000 0.000000 
#    y 0.000000 1.596090 0.000000 
#    z 0.000000 0.000000 1.624480 
# 
# From -- ./inp_files/27527.got.cif
#   From: 2010.05.17/outbox.cif.g08.bks.cpg/sg59_14_cif.got.tgz:27527.got - 2010.06.03 14:40:33.
