data_PCOD9449363
_publ_section_title
;
Structure prediction by ZEFSAII (Michael W. Deem and Ramdas Pophale) SiO2 
 PCOD9449363
Probable space group: P M M N
;
_chemical_formula_sum "Si O2"
_cell_formula_units_Z 64
_cell_length_a 31.585548
_cell_length_b 7.738660
_cell_length_c 14.937661
_cell_angle_alpha 90.000000
_cell_angle_beta 90.000000
_cell_angle_gamma 90.000000
_cell_volume 3651.209743
_symmetry_space_group_name_H-M "P M M N"
_symmetry_group_IT_number 59
_space_group.IT_coordinate_system_code '2'
_symmetry_cell_setting 'orthorhombic'
loop_
_space_group_symop_operation_xyz
x,y,z
1/2-x,1/2-y,z
1/2+x,-y,-z
-x,1/2+y,-z
-x,-y,-z
1/2+x,1/2+y,-z
1/2-x,y,z
x,1/2-y,z
loop_
_atom_site_type_symbol
_atom_site_label
_atom_site_fract_x
_atom_site_fract_y
_atom_site_fract_z
Si Si1 0.456633 0.543244 0.446763
Si Si2 0.615647 0.961277 0.068960
Si Si3 0.620865 0.053117 0.439176
Si Si4 0.920041 0.551766 0.260737
Si Si5 0.015541 0.045398 0.253013
Si Si6 0.702514 0.542749 0.140104
Si Si7 0.958120 0.542086 0.941861
Si Si8 0.702045 0.040703 0.347436
O O1 0.500000 0.500000 0.500000
O O2 0.454095 0.750000 0.448360
O O3 0.414670 0.472702 0.496481
O O4 0.459266 0.483378 0.344498
O O5 0.616058 0.750000 0.065299
O O6 0.594340 0.009525 0.163457
O O7 0.664300 0.020206 0.077267
O O8 0.584304 0.022789 0.991105
O O9 0.628061 0.250000 0.470200
O O10 0.666738 0.974568 0.416671
O O11 0.598839 0.055093 0.341860
O O12 0.905584 0.750000 0.271893
O O13 0.970441 0.544754 0.264534
O O14 0.007398 0.250000 0.243685
O O15 0.036332 0.982806 0.160422
O O16 0.750000 0.474061 0.123346
O O17 0.704170 0.750000 0.130542
O O18 0.691904 0.507328 0.244451
O O19 0.955193 0.750000 0.940008
O O20 0.000000 0.500000 0.000000
O O21 0.750000 0.981789 0.365401
O O22 0.701409 0.250000 0.351065
#
# Coordination Sequence:
#
# PCOD9449363 Si02
#       8
#     8   8   8   8   8   8   8   8
#     4  11  22  34  49  68  93 124 159 197 232 275
#     4   9  17  29  44  67  93 121 154 187 226 269
#     4  10  20  32  46  67  94 123 157 192 227 273
#     4  11  19  28  47  68  93 127 157 190 229 271
#     4  11  22  34  47  66  93 125 160 198 234 274
#     4   9  16  27  44  66  92 120 150 183 221 271
#     4  10  20  33  48  66  91 121 156 193 229 272
#     4   9  17  29  45  66  93 121 148 183 229 277
#
# _framework density 17.528437
#
# number of rings (size 3 to 8) (size 9 to 14) (size 15 to 20)
#    0.000    2.000    3.750    1.125    0.000    1.000 
#    0.000    0.625    0.000    0.000    0.000    0.875 
#    0.000    1.000    0.000    0.000    0.000    0.000 
#
# Total GULP energy -356895.532495 kJ/mol
# GULP energy per Si atom -5576.492695 kJ/mol
# Density = 1.748854 g / cm^3
# Si number density = 17.528437 Si / 1000 Ang^3
#
#
#
# Elastic Constant Matrix: (Units=GPa)
#
#
# Indices 1 2 3 4 5 6 
#
# 1 145.9503 -2.0101 61.1816 0.0000 0.0000 0.0000
# 2 -2.0101 34.5673 -0.3945 0.0000 0.0000 0.0000
# 3 61.1816 -0.3945 103.2287 0.0000 0.0000 0.0000
# 4 0.0000 0.0000 0.0000 8.5738 0.0000 0.0000
# 5 0.0000 0.0000 0.0000 0.0000 28.2881 0.0000
# 6 0.0000 0.0000 0.0000 0.0000 0.0000 7.8817
#
#
#
# Elastic Compliance Matrix: (Units=1/GPa)
#
#
# Indices 1 2 3 4 5 6 
#
# 1 0.009124 0.000469 -0.005406 0.000000 0.000000 0.000000
# 2 0.000469 0.028954 -0.000167 0.000000 0.000000 0.000000
# 3 -0.005406 -0.000167 0.012891 0.000000 0.000000 0.000000
# 4 0.000000 0.000000 0.000000 0.116634 0.000000 0.000000
# 5 0.000000 0.000000 0.000000 0.000000 0.035351 0.000000
# 6 0.000000 0.000000 0.000000 0.000000 0.000000 0.126876
#
#
# Mechanical properties :
#
#
# Convention : Reuss Voigt Hill
#
# Bulk Modulus (GPa) = 24.53348 44.58892 34.56120
# Shear Modulus (GPa) = 14.13923 23.94667 19.04295
#
# Velocity S-wave (km/s) = 2.84323 3.70017 3.29964
# Velocity P-wave (km/s) = 4.98050 6.61425 5.85464
#
# Compressibility (1/GPa) = 0.04076062
#
# Stress axis : x y z
#
# Youngs Moduli (GPa) = 109.59797 34.53704 77.57592
#
# Poissons Ratio (x) = -0.01619 0.41937
# Poissons Ratio (y) = -0.05139 0.01297
# Poissons Ratio (z) = 0.59248 0.00578
#
# Static dielectric constant tensor:
#      x y z
#    x 1.642850 0.000000 0.000000 
#    y 0.000000 1.687260 0.000000 
#    z 0.000000 0.000000 1.583960 
# 
# From -- ./inp_files/25007.got.cif
#   From: 2010.05.17/outbox.cif.g08.bks.cpg/sg59_13_cif.got.tgz:25007.got - 2010.06.03 14:40:33.
