data_PCOD9449661
_publ_section_title
;
Structure prediction by ZEFSAII (Michael W. Deem and Ramdas Pophale) SiO2 
 PCOD9449661
Probable space group: P M M N
;
_chemical_formula_sum "Si O2"
_cell_formula_units_Z 64
_cell_length_a 8.856480
_cell_length_b 28.972940
_cell_length_c 15.929196
_cell_angle_alpha 90.000000
_cell_angle_beta 90.000000
_cell_angle_gamma 90.000000
_cell_volume 4087.404035
_symmetry_space_group_name_H-M "P M M N"
_symmetry_group_IT_number 59
_space_group.IT_coordinate_system_code '2'
_symmetry_cell_setting 'orthorhombic'
loop_
_space_group_symop_operation_xyz
x,y,z
1/2-x,1/2-y,z
1/2+x,-y,-z
-x,1/2+y,-z
-x,-y,-z
1/2+x,1/2+y,-z
1/2-x,y,z
x,1/2-y,z
loop_
_atom_site_type_symbol
_atom_site_label
_atom_site_fract_x
_atom_site_fract_y
_atom_site_fract_z
Si Si1 0.066015 0.303197 0.171853
Si Si2 0.428901 0.805085 0.506770
Si Si3 0.075693 0.306030 0.986829
Si Si4 0.568318 0.640792 0.663684
Si Si5 0.428464 0.694995 0.187489
Si Si6 0.429750 0.145186 0.654438
Si Si7 0.070212 0.547827 0.601973
Si Si8 0.570261 0.448839 0.597584
O O1 0.250000 0.302347 0.169520
O O2 0.016729 0.250000 0.184828
O O3 0.018432 0.320031 0.079198
O O4 0.020926 0.335059 0.249267
O O5 0.250000 0.815429 0.508153
O O6 0.449102 0.750000 0.509492
O O7 0.506663 0.828926 0.586386
O O8 0.498826 0.825590 0.421928
O O9 0.250000 0.320840 0.976007
O O10 0.076674 0.250000 0.989887
O O11 0.979685 0.319383 0.905902
O O12 0.750000 0.639529 0.660156
O O13 0.502563 0.589693 0.652772
O O14 0.750000 0.645544 0.352702
O O15 0.459109 0.750000 0.195874
O O16 0.517686 0.667793 0.258671
O O17 0.750000 0.188086 0.801498
O O18 0.492131 0.093397 0.644595
O O19 0.250000 0.546215 0.613888
O O20 0.041666 0.556969 0.502581
O O21 0.997065 0.498434 0.621904
O O22 0.750000 0.447979 0.610346
#
# Coordination Sequence:
#
# PCOD9449661 Si02
#       8
#     8   8   8   8   8   8   8   8
#     4   8  15  28  47  72 101 132 167 207 245 284
#     4  11  23  36  47  64  97 137 171 204 243 285
#     4   8  14  28  49  70  94 126 165 207 247 285
#     4  11  20  31  50  74 100 132 170 205 244 293
#     4  10  20  33  49  71 101 133 165 204 248 292
#     4  12  23  34  51  73  97 128 167 204 244 295
#     4  10  20  34  52  72  98 128 163 206 251 293
#     4  10  20  35  54  72  96 126 161 206 253 294
#
# _framework density 15.657859999999999
#
# number of rings (size 3 to 8) (size 9 to 14) (size 15 to 20)
#    0.000    2.000    1.250    4.500    0.000    4.750 
#    0.000    1.250    0.000    3.000    0.000    0.875 
#    0.000    0.000    0.000    0.000    0.000    0.000 
#
# Total GULP energy -357185.561304 kJ/mol
# GULP energy per Si atom -5581.024395 kJ/mol
# Density = 1.562222 g / cm^3
# Si number density = 15.657860 Si / 1000 Ang^3
#
#
#
# Elastic Constant Matrix: (Units=GPa)
#
#
# Indices 1 2 3 4 5 6 
#
# 1 69.2997 49.7919 40.9284 0.0000 0.0000 0.0000
# 2 49.7919 82.9241 49.4251 0.0000 0.0000 0.0000
# 3 40.9284 49.4251 106.4643 0.0000 0.0000 0.0000
# 4 0.0000 0.0000 0.0000 4.8819 0.0000 0.0000
# 5 0.0000 0.0000 0.0000 0.0000 10.6690 0.0000
# 6 0.0000 0.0000 0.0000 0.0000 0.0000 25.9120
#
#
#
# Elastic Compliance Matrix: (Units=1/GPa)
#
#
# Indices 1 2 3 4 5 6 
#
# 1 0.026484 -0.013596 -0.003870 0.000000 0.000000 0.000000
# 2 -0.013596 0.023652 -0.005754 0.000000 0.000000 0.000000
# 3 -0.003870 -0.005754 0.013551 0.000000 0.000000 0.000000
# 4 0.000000 0.000000 0.000000 0.204840 0.000000 0.000000
# 5 0.000000 0.000000 0.000000 0.000000 0.093730 0.000000
# 6 0.000000 0.000000 0.000000 0.000000 0.000000 0.038592
#
#
# Mechanical properties :
#
#
# Convention : Reuss Voigt Hill
#
# Bulk Modulus (GPa) = 57.97263 59.88654 58.92959
# Shear Modulus (GPa) = 11.03659 16.19542 13.61600
#
# Velocity S-wave (km/s) = 2.65780 3.21959 2.95209
# Velocity P-wave (km/s) = 6.82082 7.22157 7.02405
#
# Compressibility (1/GPa) = 0.01724952
#
# Stress axis : x y z
#
# Youngs Moduli (GPa) = 37.75820 42.27905 73.79298
#
# Poissons Ratio (x) = 0.57483 0.28554
# Poissons Ratio (y) = 0.51337 0.42457
# Poissons Ratio (z) = 0.14611 0.24326
#
# Static dielectric constant tensor:
#      x y z
#    x 1.522330 0.000000 0.000000 
#    y 0.000000 1.504020 0.000000 
#    z 0.000000 0.000000 1.516150 
# 
# From -- ./inp_files/21934.got.cif
#   From: 2010.05.17/outbox.cif.g08.bks.cpg/sg59_11_cif.got.tgz:21934.got - 2010.06.03 14:40:33.
