data_PCOD9449217
_publ_section_title
;
Structure prediction by ZEFSAII (Michael W. Deem and Ramdas Pophale) SiO2 
 PCOD9449217
Probable space group: P M M N
;
_chemical_formula_sum "Si O2"
_cell_formula_units_Z 64
_cell_length_a 31.670043
_cell_length_b 8.696659
_cell_length_c 12.271979
_cell_angle_alpha 90.000000
_cell_angle_beta 90.000000
_cell_angle_gamma 90.000000
_cell_volume 3379.992199
_symmetry_space_group_name_H-M "P M M N"
_symmetry_group_IT_number 59
_space_group.IT_coordinate_system_code '2'
_symmetry_cell_setting 'orthorhombic'
loop_
_space_group_symop_operation_xyz
x,y,z
1/2-x,1/2-y,z
1/2+x,-y,-z
-x,1/2+y,-z
-x,-y,-z
1/2+x,1/2+y,-z
1/2-x,y,z
x,1/2-y,z
loop_
_atom_site_type_symbol
_atom_site_label
_atom_site_fract_x
_atom_site_fract_y
_atom_site_fract_z
Si Si1 0.453823 0.565223 0.975818
Si Si2 0.296389 0.064938 0.509228
Si Si3 0.419834 0.931285 0.738331
Si Si4 0.297184 0.564153 0.984888
Si Si5 0.876517 0.937765 0.631546
Si Si6 0.818983 0.068622 0.258806
Si Si7 0.546147 0.932481 0.482692
Si Si8 0.376776 0.065237 0.115915
O O1 0.454081 0.750000 0.983094
O O2 0.440300 0.522823 0.852828
O O3 0.500000 0.500000 0.000000
O O4 0.418167 0.500701 0.056630
O O5 0.250000 0.012273 0.471517
O O6 0.297111 0.250000 0.504460
O O7 0.335405 0.008714 0.435814
O O8 0.302570 0.015902 0.634316
O O9 0.428616 0.750000 0.720541
O O10 0.369509 0.949723 0.745936
O O11 0.437389 0.024147 0.636744
O O12 0.250000 0.524759 0.024183
O O13 0.301776 0.750000 0.987280
O O14 0.301315 0.517047 0.857911
O O15 0.334942 0.492215 0.053906
O O16 0.876276 0.750000 0.629060
O O17 0.918876 0.989486 0.569463
O O18 0.875595 0.983724 0.757546
O O19 0.809260 0.250000 0.270436
O O20 0.543707 0.750000 0.493963
O O21 0.500000 0.000000 0.500000
O O22 0.378325 0.250000 0.111782
#
# Coordination Sequence:
#
# PCOD9449217 Si02
#       8
#     8   8   8   8   8   8   8   8
#     4  11  24  43  64  90 123 157 198 245 300 357
#     4  10  20  36  59  86 116 151 193 240 289 343
#     4  10  21  39  63  88 119 156 194 240 294 350
#     4  10  21  39  61  86 120 160 198 243 302 356
#     4   9  21  40  58  81 116 157 192 236 292 346
#     4  10  19  36  60  86 118 154 190 234 293 353
#     4  11  23  40  62  88 120 154 197 243 294 351
#     4  11  23  40  62  87 118 158 203 246 295 352
#
# _framework density 18.934954999999999
#
# number of rings (size 3 to 8) (size 9 to 14) (size 15 to 20)
#    0.000    1.750    2.500    1.500    1.750    3.000 
#    0.000    4.375    0.000    0.000    0.000    0.000 
#    0.000    0.000    0.000    0.000    0.000    0.000 
#
# Total GULP energy -357517.081433 kJ/mol
# GULP energy per Si atom -5586.204397 kJ/mol
# Density = 1.889186 g / cm^3
# Si number density = 18.934955 Si / 1000 Ang^3
#
#
#
# Elastic Constant Matrix: (Units=GPa)
#
#
# Indices 1 2 3 4 5 6 
#
# 1 168.6580 41.3367 91.3537 0.0000 0.0000 0.0000
# 2 41.3367 26.2151 33.4171 0.0000 0.0000 0.0000
# 3 91.3537 33.4171 149.6431 0.0000 0.0000 0.0000
# 4 0.0000 0.0000 0.0000 28.0564 0.0000 0.0000
# 5 0.0000 0.0000 0.0000 0.0000 71.2615 0.0000
# 6 0.0000 0.0000 0.0000 0.0000 0.0000 25.7179
#
#
#
# Elastic Compliance Matrix: (Units=1/GPa)
#
#
# Indices 1 2 3 4 5 6 
#
# 1 0.011171 -0.012472 -0.004035 0.000000 0.000000 0.000000
# 2 -0.012472 0.067250 -0.007404 0.000000 0.000000 0.000000
# 3 -0.004035 -0.007404 0.010799 0.000000 0.000000 0.000000
# 4 0.000000 0.000000 0.000000 0.035642 0.000000 0.000000
# 5 0.000000 0.000000 0.000000 0.000000 0.014033 0.000000
# 6 0.000000 0.000000 0.000000 0.000000 0.000000 0.038883
#
#
# Mechanical properties :
#
#
# Convention : Reuss Voigt Hill
#
# Bulk Modulus (GPa) = 24.15500 75.19238 49.67369
# Shear Modulus (GPa) = 20.88549 36.90106 28.89327
#
# Velocity S-wave (km/s) = 3.32477 4.41935 3.91054
# Velocity P-wave (km/s) = 5.24626 8.11406 6.83232
#
# Compressibility (1/GPa) = 0.04139929
#
# Stress axis : x y z
#
# Youngs Moduli (GPa) = 89.51434 14.86981 92.60116
#
# Poissons Ratio (x) = 0.18546 0.37362
# Poissons Ratio (y) = 1.11645 0.68560
# Poissons Ratio (z) = 0.36116 0.11009
#
# Static dielectric constant tensor:
#      x y z
#    x 1.648980 0.000000 0.000000 
#    y 0.000000 1.648550 0.000000 
#    z 0.000000 0.000000 1.629840 
# 
# From -- ./inp_files/19388.got.cif
#   From: 2010.05.17/outbox.cif.g08.bks.cpg/sg59_10_cif.got.tgz:19388.got - 2010.06.03 14:40:33.
