data_PCOD9449138
_publ_section_title
;
Structure prediction by ZEFSAII (Michael W. Deem and Ramdas Pophale) SiO2 
 PCOD9449138
Probable space group: P M M N
;
_chemical_formula_sum "Si O2"
_cell_formula_units_Z 40
_cell_length_a 9.344524
_cell_length_b 28.331188
_cell_length_c 7.568625
_cell_angle_alpha 90.000000
_cell_angle_beta 90.000000
_cell_angle_gamma 90.000000
_cell_volume 2003.728880
_symmetry_space_group_name_H-M "P M M N"
_symmetry_group_IT_number 59
_space_group.IT_coordinate_system_code '2'
_symmetry_cell_setting 'orthorhombic'
loop_
_space_group_symop_operation_xyz
x,y,z
1/2-x,1/2-y,z
1/2+x,-y,-z
-x,1/2+y,-z
-x,-y,-z
1/2+x,1/2+y,-z
1/2-x,y,z
x,1/2-y,z
loop_
_atom_site_type_symbol
_atom_site_label
_atom_site_fract_x
_atom_site_fract_y
_atom_site_fract_z
Si Si1 0.583648 0.653943 0.838476
Si Si2 0.915925 0.542986 0.268065
Si Si3 0.915632 0.805124 0.461245
Si Si4 0.919819 0.364305 0.824603
Si Si5 0.413489 0.048256 0.305744
O O1 0.750000 0.659419 0.893540
O O2 0.558068 0.686458 0.668630
O O3 0.564122 0.600236 0.770177
O O4 0.479787 0.661585 0.001779
O O5 0.750000 0.546869 0.216481
O O6 0.926366 0.550267 0.480964
O O7 0.008639 0.583906 0.180124
O O8 0.978887 0.491110 0.234449
O O9 0.750000 0.820315 0.428502
O O10 0.928300 0.750000 0.418538
O O11 0.020068 0.836368 0.344204
O O12 0.750000 0.367469 0.822957
O O13 0.250000 0.033607 0.266660
#
# Coordination Sequence:
#
# PCOD9449138 Si02
#       5
#     8   8   8   8   8
#     4  10  21  40  64  91 123 159 205 253 300 358
#     4  10  19  35  59  87 121 162 208 250 295 355
#     4  10  22  44  71  93 116 153 202 254 308 363
#     4  12  25  39  60  92 129 164 201 245 302 363
#     4   9  18  34  58  88 121 157 202 254 303 353
#
# _framework density 19.962779999999999
#
# number of rings (size 3 to 8) (size 9 to 14) (size 15 to 20)
#    0.000    1.800    2.000    2.400    0.000    4.400 
#    0.000    2.000    0.000    0.000    0.000    0.000 
#    0.000    0.000    0.000    0.000    0.000    0.000 
#
# Total GULP energy -223663.355370 kJ/mol
# GULP energy per Si atom -5591.583884 kJ/mol
# Density = 1.991734 g / cm^3
# Si number density = 19.962780 Si / 1000 Ang^3
#
#
#
# Elastic Constant Matrix: (Units=GPa)
#
#
# Indices 1 2 3 4 5 6 
#
# 1 108.2828 24.5242 30.0181 0.0000 0.0000 0.0000
# 2 24.5242 37.6028 -5.1726 0.0000 0.0000 0.0000
# 3 30.0181 -5.1726 37.7914 0.0000 0.0000 0.0000
# 4 0.0000 0.0000 0.0000 4.5986 0.0000 0.0000
# 5 0.0000 0.0000 0.0000 0.0000 20.5104 0.0000
# 6 0.0000 0.0000 0.0000 0.0000 0.0000 16.5260
#
#
#
# Elastic Compliance Matrix: (Units=1/GPa)
#
#
# Indices 1 2 3 4 5 6 
#
# 1 0.016072 -0.012473 -0.014474 0.000000 0.000000 0.000000
# 2 -0.012473 0.036784 0.014942 0.000000 0.000000 0.000000
# 3 -0.014474 0.014942 0.040003 0.000000 0.000000 0.000000
# 4 0.000000 0.000000 0.000000 0.217458 0.000000 0.000000
# 5 0.000000 0.000000 0.000000 0.000000 0.048756 0.000000
# 6 0.000000 0.000000 0.000000 0.000000 0.000000 0.060511
#
#
# Mechanical properties :
#
#
# Convention : Reuss Voigt Hill
#
# Bulk Modulus (GPa) = 14.52429 31.37961 22.95195
# Shear Modulus (GPa) = 10.71711 17.28081 13.99896
#
# Velocity S-wave (km/s) = 2.31953 2.94539 2.65099
# Velocity P-wave (km/s) = 3.80330 5.22688 4.57085
#
# Compressibility (1/GPa) = 0.06885017
#
# Stress axis : x y z
#
# Youngs Moduli (GPa) = 62.21808 27.18556 24.99820
#
# Poissons Ratio (x) = 0.33909 0.36182
# Poissons Ratio (y) = 0.77607 -0.37353
# Poissons Ratio (z) = 0.90053 -0.40622
#
# Static dielectric constant tensor:
#      x y z
#    x 1.667830 0.000000 0.000000 
#    y 0.000000 1.690490 0.000000 
#    z 0.000000 0.000000 1.735060 
# 
# From -- ./inp_files/5825.got.cif
#   From: 2010.05.17/outbox.cif.g08.bks.cpg/sg59_3_cif.got.tgz:5825.got - 2010.06.03 14:40:33.
