data_PCOD9449053
_publ_section_title
;
Structure prediction by ZEFSAII (Michael W. Deem and Ramdas Pophale) SiO2 
 PCOD9449053
Probable space group: P M M N
;
_chemical_formula_sum "Si O2"
_cell_formula_units_Z 40
_cell_length_a 7.807534
_cell_length_b 10.413676
_cell_length_c 24.605663
_cell_angle_alpha 90.000000
_cell_angle_beta 90.000000
_cell_angle_gamma 90.000000
_cell_volume 2000.566615
_symmetry_space_group_name_H-M "P M M N"
_symmetry_group_IT_number 59
_space_group.IT_coordinate_system_code '2'
_symmetry_cell_setting 'orthorhombic'
loop_
_space_group_symop_operation_xyz
x,y,z
1/2-x,1/2-y,z
1/2+x,-y,-z
-x,1/2+y,-z
-x,-y,-z
1/2+x,1/2+y,-z
1/2-x,y,z
x,1/2-y,z
loop_
_atom_site_type_symbol
_atom_site_label
_atom_site_fract_x
_atom_site_fract_y
_atom_site_fract_z
Si Si1 0.545962 0.894836 0.455355
Si Si2 0.454256 0.605187 0.332067
Si Si3 0.539363 0.250000 0.923863
Si Si4 0.545251 0.983568 0.873425
Si Si5 0.539754 0.603668 0.754364
Si Si6 0.045480 0.750000 0.951358
O O1 0.750000 0.888327 0.453018
O O2 0.480635 0.750000 0.467946
O O3 0.483501 0.929435 0.394943
O O4 0.500000 0.000000 0.500000
O O5 0.250000 0.611824 0.323567
O O6 0.523615 0.750000 0.323408
O O7 0.519921 0.498274 0.290532
O O8 0.750000 0.250000 0.923965
O O9 0.480851 0.378811 0.893675
O O10 0.482727 0.250000 0.986617
O O11 0.750000 0.995214 0.868109
O O12 0.481757 0.938781 0.814465
O O13 0.510793 0.875117 0.918138
O O14 0.750000 0.603592 0.754285
O O15 0.486525 0.750000 0.743363
O O16 0.250000 0.750000 0.953169
#
# Coordination Sequence:
#
# PCOD9449053 Si02
#       6
#     8   8   4   8   8   4
#     4  10  21  37  57  82 113 148 184 222 263 311
#     4   9  18  32  52  78 107 138 173 219 270 317
#     4   9  20  33  53  81 105 133 178 227 270 321
#     4  10  19  35  56  78 103 138 180 223 269 322
#     4   9  17  30  51  78 102 129 173 223 267 314
#     4  11  21  35  51  75 109 141 174 221 274 325
#
# _framework density 19.994336000000001
#
# number of rings (size 3 to 8) (size 9 to 14) (size 15 to 20)
#    0.000    2.400    1.000    1.500    1.400    2.000 
#    0.000    4.500    0.000    0.000    0.000    0.000 
#    0.000    0.000    0.000    0.000    0.000    0.000 
#
# Total GULP energy -223300.970724 kJ/mol
# GULP energy per Si atom -5582.524268 kJ/mol
# Density = 1.994883 g / cm^3
# Si number density = 19.994336 Si / 1000 Ang^3
#
#
#
# Elastic Constant Matrix: (Units=GPa)
#
#
# Indices 1 2 3 4 5 6 
#
# 1 20.1757 5.2110 4.2135 0.0000 0.0000 0.0000
# 2 5.2110 198.6953 127.6077 0.0000 0.0000 0.0000
# 3 4.2135 127.6077 156.9393 0.0000 0.0000 0.0000
# 4 0.0000 0.0000 0.0000 45.2898 0.0000 0.0000
# 5 0.0000 0.0000 0.0000 0.0000 19.6347 0.0000
# 6 0.0000 0.0000 0.0000 0.0000 0.0000 25.1812
#
#
#
# Elastic Compliance Matrix: (Units=1/GPa)
#
#
# Indices 1 2 3 4 5 6 
#
# 1 0.049927 -0.000939 -0.000577 0.000000 0.000000 0.000000
# 2 -0.000939 0.010551 -0.008554 0.000000 0.000000 0.000000
# 3 -0.000577 -0.008554 0.013342 0.000000 0.000000 0.000000
# 4 0.000000 0.000000 0.000000 0.022080 0.000000 0.000000
# 5 0.000000 0.000000 0.000000 0.000000 0.050930 0.000000
# 6 0.000000 0.000000 0.000000 0.000000 0.000000 0.039712
#
#
# Mechanical properties :
#
#
# Convention : Reuss Voigt Hill
#
# Bulk Modulus (GPa) = 18.62838 72.20831 45.41835
# Shear Modulus (GPa) = 22.26411 33.93967 28.10189
#
# Velocity S-wave (km/s) = 3.34057 4.12450 3.75306
# Velocity P-wave (km/s) = 4.92100 7.67299 6.44558
#
# Compressibility (1/GPa) = 0.05368153
#
# Stress axis : x y z
#
# Youngs Moduli (GPa) = 20.02905 94.77836 74.94850
#
# Poissons Ratio (x) = 0.08897 0.04326
# Poissons Ratio (y) = 0.01880 0.64109
# Poissons Ratio (z) = 0.01156 0.81071
#
# Static dielectric constant tensor:
#      x y z
#    x 1.733660 0.000000 0.000000 
#    y 0.000000 1.691060 0.000000 
#    z 0.000000 0.000000 1.676370 
# 
# From -- ./inp_files/32441.got.cif
#   From: 2010.05.17/outbox.cif.g08.bks.cpg/sg59_17_cif.got.tgz:32441.got - 2010.06.03 14:40:33.
