data_PCOD9449409
_publ_section_title
;
Structure prediction by ZEFSAII (Michael W. Deem and Ramdas Pophale) SiO2 
 PCOD9449409
Probable space group: P M M N
;
_chemical_formula_sum "Si O2"
_cell_formula_units_Z 56
_cell_length_a 8.978267
_cell_length_b 18.994080
_cell_length_c 18.890490
_cell_angle_alpha 90.000000
_cell_angle_beta 90.000000
_cell_angle_gamma 90.000000
_cell_volume 3221.469342
_symmetry_space_group_name_H-M "P M M N"
_symmetry_group_IT_number 59
_space_group.IT_coordinate_system_code '2'
_symmetry_cell_setting 'orthorhombic'
loop_
_space_group_symop_operation_xyz
x,y,z
1/2-x,1/2-y,z
1/2+x,-y,-z
-x,1/2+y,-z
-x,-y,-z
1/2+x,1/2+y,-z
1/2-x,y,z
x,1/2-y,z
loop_
_atom_site_type_symbol
_atom_site_label
_atom_site_fract_x
_atom_site_fract_y
_atom_site_fract_z
Si Si1 0.927615 0.940637 0.450267
Si Si2 0.577271 0.585423 0.290947
Si Si3 0.929996 0.332124 0.837633
Si Si4 0.426177 0.965287 0.068937
Si Si5 0.071204 0.830856 0.709660
Si Si6 0.926526 0.830362 0.567979
Si Si7 0.422251 0.548106 0.809668
O O1 0.750000 0.955120 0.445460
O O2 0.982819 0.927544 0.370274
O O3 0.952473 0.870498 0.495694
O O4 0.000000 0.000000 0.500000
O O5 0.750000 0.609154 0.296978
O O6 0.493460 0.637870 0.236882
O O7 0.577279 0.509893 0.252383
O O8 0.750000 0.334700 0.834663
O O9 0.973389 0.250000 0.849070
O O10 0.976337 0.388312 0.899539
O O11 0.250000 0.960706 0.057655
O O12 0.469420 0.019039 0.131142
O O13 0.500000 0.000000 0.000000
O O14 0.250000 0.831793 0.705412
O O15 0.020816 0.750000 0.716680
O O16 0.029446 0.878502 0.775877
O O17 0.007792 0.861309 0.636492
O O18 0.750000 0.831920 0.581968
O O19 0.976650 0.750000 0.561427
O O20 0.250000 0.552968 0.835487
#
# Coordination Sequence:
#
# PCOD9449409 Si02
#       7
#     8   8   8   8   8   8   8
#     4  10  20  32  47  69  97 129 167 211 256 300
#     4   9  18  31  48  71  97 129 168 208 250 295
#     4   9  19  36  56  78 103 131 165 205 249 296
#     4  10  20  35  56  79 103 131 161 194 235 287
#     4   9  17  30  49  71  94 124 163 203 241 283
#     4   9  18  31  45  63  91 127 163 200 245 293
#     4   9  17  31  50  71  97 126 158 197 239 285
#
# _framework density 17.383371
#
# number of rings (size 3 to 8) (size 9 to 14) (size 15 to 20)
#    0.000    2.714    0.000    1.286    0.000    4.286 
#    0.000    5.000    0.000    6.000    0.000    0.000 
#    0.000    0.000    0.000    0.000    0.000    0.000 
#
# Total GULP energy -311800.043052 kJ/mol
# GULP energy per Si atom -5567.857912 kJ/mol
# Density = 1.734381 g / cm^3
# Si number density = 17.383371 Si / 1000 Ang^3
#
#
#
# Elastic Constant Matrix: (Units=GPa)
#
#
# Indices 1 2 3 4 5 6 
#
# 1 15.6583 29.2452 31.1878 0.0000 0.0000 0.0000
# 2 29.2452 79.6708 65.9448 0.0000 0.0000 0.0000
# 3 31.1878 65.9448 119.4564 0.0000 0.0000 0.0000
# 4 0.0000 0.0000 0.0000 14.6242 0.0000 0.0000
# 5 0.0000 0.0000 0.0000 0.0000 29.9840 0.0000
# 6 0.0000 0.0000 0.0000 0.0000 0.0000 21.3940
#
#
#
# Elastic Compliance Matrix: (Units=1/GPa)
#
#
# Indices 1 2 3 4 5 6 
#
# 1 0.239699 -0.066637 -0.025794 0.000000 0.000000 0.000000
# 2 -0.066637 0.041638 -0.005588 0.000000 0.000000 0.000000
# 3 -0.025794 -0.005588 0.018191 0.000000 0.000000 0.000000
# 4 0.000000 0.000000 0.000000 0.068380 0.000000 0.000000
# 5 0.000000 0.000000 0.000000 0.000000 0.033351 0.000000
# 6 0.000000 0.000000 0.000000 0.000000 0.000000 0.046742
#
#
# Mechanical properties :
#
#
# Convention : Reuss Voigt Hill
#
# Bulk Modulus (GPa) = 9.66293 51.94901 30.80597
# Shear Modulus (GPa) = 7.36881 19.09431 13.23156
#
# Velocity S-wave (km/s) = 2.06112 3.31784 2.76191
# Velocity P-wave (km/s) = 3.35187 6.68032 5.28496
#
# Compressibility (1/GPa) = 0.10348830
#
# Stress axis : x y z
#
# Youngs Moduli (GPa) = 4.17190 24.01662 54.97352
#
# Poissons Ratio (x) = 1.60040 1.41801
# Poissons Ratio (y) = 0.27800 0.30720
# Poissons Ratio (z) = 0.10761 0.13421
#
# Static dielectric constant tensor:
#      x y z
#    x 1.595140 0.000000 0.000000 
#    y 0.000000 1.620140 0.000000 
#    z 0.000000 0.000000 1.595480 
# 
# From -- ./inp_files/29303.got.cif
#   From: 2010.05.17/outbox.cif.g08.bks.cpg/sg59_15_cif.got.tgz:29303.got - 2010.06.03 14:40:33.
