data_PCOD9449721
_publ_section_title
;
Structure prediction by ZEFSAII (Michael W. Deem and Ramdas Pophale) SiO2 
 PCOD9449721
Probable space group: P M M N
;
_chemical_formula_sum "Si O2"
_cell_formula_units_Z 48
_cell_length_a 8.834247
_cell_length_b 9.245365
_cell_length_c 32.004684
_cell_angle_alpha 90.000000
_cell_angle_beta 90.000000
_cell_angle_gamma 90.000000
_cell_volume 2614.009386
_symmetry_space_group_name_H-M "P M M N"
_symmetry_group_IT_number 59
_space_group.IT_coordinate_system_code '2'
_symmetry_cell_setting 'orthorhombic'
loop_
_space_group_symop_operation_xyz
x,y,z
1/2-x,1/2-y,z
1/2+x,-y,-z
-x,1/2+y,-z
-x,-y,-z
1/2+x,1/2+y,-z
1/2-x,y,z
x,1/2-y,z
loop_
_atom_site_type_symbol
_atom_site_label
_atom_site_fract_x
_atom_site_fract_y
_atom_site_fract_z
Si Si1 0.070452 0.421586 0.198448
Si Si2 0.932895 0.582301 0.460411
Si Si3 0.931544 0.919591 0.959984
Si Si4 0.069047 0.080461 0.880266
Si Si5 0.075120 0.574098 0.714550
Si Si6 0.065370 0.582824 0.622881
O O1 0.250000 0.438297 0.193554
O O2 0.034555 0.250000 0.193932
O O3 0.985417 0.511063 0.163067
O O4 0.019668 0.467376 0.244914
O O5 0.750000 0.572910 0.461961
O O6 0.976122 0.750000 0.461635
O O7 0.982687 0.509809 0.416829
O O8 0.000000 0.500000 0.500000
O O9 0.750000 0.929630 0.961145
O O10 0.973096 0.750000 0.960484
O O11 0.992707 0.994821 0.918246
O O12 0.000000 0.000000 0.000000
O O13 0.250000 0.068357 0.883824
O O14 0.028489 0.250000 0.882183
O O15 0.250000 0.528367 0.719971
O O16 0.075213 0.750000 0.712651
O O17 0.017792 0.527602 0.668774
O O18 0.250000 0.582547 0.624115
O O19 0.018014 0.750000 0.617559
#
# Coordination Sequence:
#
# PCOD9449721 Si02
#       6
#     8   8   8   8   8   8
#     4  10  20  34  54  81 111 143 179 218 263 316
#     4  10  20  33  50  73 100 132 170 211 258 311
#     4  11  24  41  62  89 118 148 184 224 268 320
#     4  11  24  40  58  82 111 145 187 230 271 317
#     4   8  14  27  49  74  99 132 174 216 258 306
#     4   8  14  27  48  71  96 130 171 213 257 306
#
# _framework density 18.362597999999998
#
# number of rings (size 3 to 8) (size 9 to 14) (size 15 to 20)
#    0.000    2.333    0.000    4.000    0.000    8.667 
#    0.000    1.667    0.000    6.000    0.000    0.000 
#    0.000    0.000    0.000    0.000    0.000    0.000 
#
# Total GULP energy -267906.785654 kJ/mol
# GULP energy per Si atom -5581.391368 kJ/mol
# Density = 1.832080 g / cm^3
# Si number density = 18.362598 Si / 1000 Ang^3
#
#
#
# Elastic Constant Matrix: (Units=GPa)
#
#
# Indices 1 2 3 4 5 6 
#
# 1 32.6958 47.5937 40.1806 0.0000 0.0000 0.0000
# 2 47.5937 120.0024 92.7826 0.0000 0.0000 0.0000
# 3 40.1806 92.7826 185.4879 0.0000 0.0000 0.0000
# 4 0.0000 0.0000 0.0000 31.9163 0.0000 0.0000
# 5 0.0000 0.0000 0.0000 0.0000 34.8055 0.0000
# 6 0.0000 0.0000 0.0000 0.0000 0.0000 22.3499
#
#
#
# Elastic Compliance Matrix: (Units=1/GPa)
#
#
# Indices 1 2 3 4 5 6 
#
# 1 0.072890 -0.027233 -0.002167 0.000000 0.000000 0.000000
# 2 -0.027233 0.023763 -0.005987 0.000000 0.000000 0.000000
# 3 -0.002167 -0.005987 0.008856 0.000000 0.000000 0.000000
# 4 0.000000 0.000000 0.000000 0.031332 0.000000 0.000000
# 5 0.000000 0.000000 0.000000 0.000000 0.028731 0.000000
# 6 0.000000 0.000000 0.000000 0.000000 0.000000 0.044743
#
#
# Mechanical properties :
#
#
# Convention : Reuss Voigt Hill
#
# Bulk Modulus (GPa) = 28.79052 77.69999 53.24525
# Shear Modulus (GPa) = 17.08420 28.32293 22.70357
#
# Velocity S-wave (km/s) = 3.05352 3.93163 3.52007
# Velocity P-wave (km/s) = 5.30518 7.93829 6.75135
#
# Compressibility (1/GPa) = 0.03473365
#
# Stress axis : x y z
#
# Youngs Moduli (GPa) = 13.71927 42.08205 112.92296
#
# Poissons Ratio (x) = 1.14601 0.24475
# Poissons Ratio (y) = 0.37362 0.67610
# Poissons Ratio (z) = 0.02974 0.25196
#
# Static dielectric constant tensor:
#      x y z
#    x 1.622570 0.000000 0.000000 
#    y 0.000000 1.617210 0.000000 
#    z 0.000000 0.000000 1.623370 
# 
# From -- ./inp_files/32914.got.cif
#   From: 2010.05.17/outbox.cif.g08.bks.cpg/sg59_17_cif.got.tgz:32914.got - 2010.06.03 14:40:33.
