data_PCOD9449558
_publ_section_title
;
Structure prediction by ZEFSAII (Michael W. Deem and Ramdas Pophale) SiO2 
 PCOD9449558
Probable space group: P M M N
;
_chemical_formula_sum "Si O2"
_cell_formula_units_Z 48
_cell_length_a 18.089359
_cell_length_b 18.060853
_cell_length_c 8.939832
_cell_angle_alpha 90.000000
_cell_angle_beta 90.000000
_cell_angle_gamma 90.000000
_cell_volume 2920.725841
_symmetry_space_group_name_H-M "P M M N"
_symmetry_group_IT_number 59
_space_group.IT_coordinate_system_code '2'
_symmetry_cell_setting 'orthorhombic'
loop_
_space_group_symop_operation_xyz
x,y,z
1/2-x,1/2-y,z
1/2+x,-y,-z
-x,1/2+y,-z
-x,-y,-z
1/2+x,1/2+y,-z
1/2-x,y,z
x,1/2-y,z
loop_
_atom_site_type_symbol
_atom_site_label
_atom_site_fract_x
_atom_site_fract_y
_atom_site_fract_z
Si Si1 0.858749 0.168480 0.046069
Si Si2 0.338437 0.589096 0.251939
Si Si3 0.331834 0.515623 0.787008
Si Si4 0.420149 0.034194 0.052780
Si Si5 0.511232 0.833975 0.783337
Si Si6 0.440225 0.564402 0.533852
O O1 0.830877 0.250000 0.089222
O O2 0.828187 0.096643 0.132373
O O3 0.944019 0.167611 0.096869
O O4 0.846455 0.154515 0.870456
O O5 0.250000 0.580032 0.284832
O O6 0.374568 0.520307 0.161451
O O7 0.392401 0.595735 0.394979
O O8 0.250000 0.490487 0.752650
O O9 0.380691 0.526627 0.642252
O O10 0.372805 0.461946 0.902341
O O11 0.431942 0.109644 0.141603
O O12 0.500000 0.000000 0.000000
O O13 0.536125 0.750000 0.758356
O O14 0.479643 0.871619 0.632135
O O15 0.500000 0.500000 0.500000
#
# Coordination Sequence:
#
# PCOD9449558 Si02
#       6
#     8   8   8   8   8   8
#     4   9  18  32  50  74 107 142 174 210 258 309
#     4  11  21  31  51  81 108 138 177 217 257 309
#     4  10  20  32  52  79 105 136 177 217 262 314
#     4  11  16  34  56  78 101 135 180 219 257 300
#     4  10  20  34  55  80 105 134 177 223 264 307
#     4  11  20  35  54  75 106 141 177 214 257 313
#
# _framework density 16.434270000000001
#
# number of rings (size 3 to 8) (size 9 to 14) (size 15 to 20)
#    0.000    1.667    6.667    2.500    0.000    2.000 
#    0.000    0.000    0.000    5.000    0.000    0.000 
#    0.000    0.000    0.000    0.000    0.000    0.000 
#
# Total GULP energy -267204.111118 kJ/mol
# GULP energy per Si atom -5566.752315 kJ/mol
# Density = 1.639687 g / cm^3
# Si number density = 16.434270 Si / 1000 Ang^3
#
#
#
# Elastic Constant Matrix: (Units=GPa)
#
#
# Indices 1 2 3 4 5 6 
#
# 1 82.9783 38.6578 34.0832 0.0000 0.0000 0.0000
# 2 38.6578 73.5711 13.3539 0.0000 0.0000 0.0000
# 3 34.0832 13.3539 86.9658 0.0000 0.0000 0.0000
# 4 0.0000 0.0000 0.0000 14.2141 0.0000 0.0000
# 5 0.0000 0.0000 0.0000 0.0000 -3.8179 0.0000
# 6 0.0000 0.0000 0.0000 0.0000 0.0000 8.7864
#
#
#
# Elastic Compliance Matrix: (Units=1/GPa)
#
#
# Indices 1 2 3 4 5 6 
#
# 1 0.018518 -0.008654 -0.005929 0.000000 0.000000 0.000000
# 2 -0.008654 0.018026 0.000624 0.000000 0.000000 0.000000
# 3 -0.005929 0.000624 0.013727 0.000000 0.000000 0.000000
# 4 0.000000 0.000000 0.000000 0.070352 0.000000 0.000000
# 5 0.000000 0.000000 0.000000 0.000000 -0.261921 0.000000
# 6 0.000000 0.000000 0.000000 0.000000 0.000000 0.113812
#
#
# Mechanical properties :
#
#
# Convention : Reuss Voigt Hill
#
# Bulk Modulus (GPa) = 44.73718 46.18944 45.46331
# Shear Modulus (GPa) = 634.20850 14.33122 324.26986
#
# Velocity S-wave (km/s) = 19.66580 2.95622 14.06206
# Velocity P-wave (km/s) = 23.30106 6.31022 17.06983
#
# Compressibility (1/GPa) = 0.02235277
#
# Stress axis : x y z
#
# Youngs Moduli (GPa) = 54.00028 55.47395 72.85145
#
# Poissons Ratio (x) = 0.48009 0.43192
# Poissons Ratio (y) = 0.46734 -0.04544
# Poissons Ratio (z) = 0.32015 -0.03460
#
# Static dielectric constant tensor:
#      x y z
#    x 1.571550 0.000000 0.000000 
#    y 0.000000 1.552120 0.000000 
#    z 0.000000 0.000000 2.035760 
# 
# From -- ./inp_files/10385.got.cif
#   From: 2010.05.17/outbox.cif.g08.bks.cpg/sg59_6_cif.got.tgz:10385.got - 2010.06.03 14:40:33.
