data_PCOD9449888
_publ_section_title
;
Structure prediction by ZEFSAII (Michael W. Deem and Ramdas Pophale) SiO2 
 PCOD9449888
Probable space group: P M M N
;
_chemical_formula_sum "Si O2"
_cell_formula_units_Z 64
_cell_length_a 9.535764
_cell_length_b 22.221133
_cell_length_c 15.544671
_cell_angle_alpha 90.000000
_cell_angle_beta 90.000000
_cell_angle_gamma 90.000000
_cell_volume 3293.845525
_symmetry_space_group_name_H-M "P M M N"
_symmetry_group_IT_number 59
_space_group.IT_coordinate_system_code '2'
_symmetry_cell_setting 'orthorhombic'
loop_
_space_group_symop_operation_xyz
x,y,z
1/2-x,1/2-y,z
1/2+x,-y,-z
-x,1/2+y,-z
-x,-y,-z
1/2+x,1/2+y,-z
1/2-x,y,z
x,1/2-y,z
loop_
_atom_site_type_symbol
_atom_site_label
_atom_site_fract_x
_atom_site_fract_y
_atom_site_fract_z
Si Si1 0.584022 0.320459 0.543156
Si Si2 0.416280 0.619216 0.635115
Si Si3 0.592648 0.677600 0.782970
Si Si4 0.584384 0.636945 0.291149
Si Si5 0.410161 0.650144 0.126532
Si Si6 0.906751 0.320325 0.062668
Si Si7 0.085612 0.995487 0.744545
Si Si8 0.588416 0.007480 0.911985
O O1 0.750000 0.328469 0.562343
O O2 0.563423 0.250000 0.520444
O O3 0.547611 0.362671 0.462005
O O4 0.492313 0.337661 0.625233
O O5 0.250000 0.630975 0.645203
O O6 0.502298 0.659888 0.700891
O O7 0.442508 0.551161 0.667281
O O8 0.750000 0.653585 0.777138
O O9 0.600764 0.750000 0.787660
O O10 0.513686 0.654554 0.868148
O O11 0.750000 0.649254 0.292421
O O12 0.510519 0.663116 0.205929
O O13 0.564457 0.564389 0.285080
O O14 0.250000 0.670396 0.143658
O O15 0.406882 0.578640 0.109550
O O16 0.456951 0.675888 0.035035
O O17 0.750000 0.348020 0.067505
O O18 0.892198 0.250000 0.083341
O O19 0.250000 0.989320 0.768814
O O20 0.990851 0.981829 0.827897
O O21 0.750000 0.986501 0.921634
O O22 0.500000 0.000000 0.000000
#
# Coordination Sequence:
#
# PCOD9449888 Si02
#       8
#     8   8   8   8   8   8   8   8
#     4  10  22  40  62  87 112 144 189 237 286 342
#     4  10  21  38  61  84 110 147 193 238 279 336
#     4  10  21  35  51  77 114 149 182 230 289 343
#     4  10  21  38  59  84 116 149 183 230 290 347
#     4   9  19  35  54  77 107 145 187 231 275 325
#     4   9  18  33  53  76 103 141 187 228 273 332
#     4   9  20  38  57  82 115 150 190 235 286 338
#     4  10  20  33  51  77 111 150 192 234 276 326
#
# _framework density 19.430174999999998
#
# number of rings (size 3 to 8) (size 9 to 14) (size 15 to 20)
#    0.000    2.375    0.000    1.500    1.750    5.000 
#    0.000    1.250    0.000    0.000    0.000    0.000 
#    0.000    0.000    0.000    0.000    0.000    0.000 
#
# Total GULP energy -357175.172666 kJ/mol
# GULP energy per Si atom -5580.862073 kJ/mol
# Density = 1.938595 g / cm^3
# Si number density = 19.430175 Si / 1000 Ang^3
#
#
#
# Elastic Constant Matrix: (Units=GPa)
#
#
# Indices 1 2 3 4 5 6 
#
# 1 57.1845 5.2175 58.2413 0.0000 0.0000 0.0000
# 2 5.2175 24.6350 -4.8167 0.0000 0.0000 0.0000
# 3 58.2413 -4.8167 115.8478 0.0000 0.0000 0.0000
# 4 0.0000 0.0000 0.0000 28.2723 0.0000 0.0000
# 5 0.0000 0.0000 0.0000 0.0000 12.3729 0.0000
# 6 0.0000 0.0000 0.0000 0.0000 0.0000 15.8378
#
#
#
# Elastic Compliance Matrix: (Units=1/GPa)
#
#
# Indices 1 2 3 4 5 6 
#
# 1 0.039191 -0.012252 -0.020212 0.000000 0.000000 0.000000
# 2 -0.012252 0.044756 0.008021 0.000000 0.000000 0.000000
# 3 -0.020212 0.008021 0.019127 0.000000 0.000000 0.000000
# 4 0.000000 0.000000 0.000000 0.035370 0.000000 0.000000
# 5 0.000000 0.000000 0.000000 0.000000 0.080821 0.000000
# 6 0.000000 0.000000 0.000000 0.000000 0.000000 0.063140
#
#
# Mechanical properties :
#
#
# Convention : Reuss Voigt Hill
#
# Bulk Modulus (GPa) = 18.45505 34.99460 26.72483
# Shear Modulus (GPa) = 14.31206 20.56495 17.43850
#
# Velocity S-wave (km/s) = 2.71696 3.25684 2.99907
# Velocity P-wave (km/s) = 4.40014 5.67382 5.07708
#
# Compressibility (1/GPa) = 0.05418571
#
# Stress axis : x y z
#
# Youngs Moduli (GPa) = 25.51606 22.34349 52.28205
#
# Poissons Ratio (x) = 0.27376 1.05674
# Poissons Ratio (y) = 0.31263 -0.41933
# Poissons Ratio (z) = 0.51574 -0.17921
#
# Static dielectric constant tensor:
#      x y z
#    x 1.676700 0.000000 0.000000 
#    y 0.000000 1.717540 0.000000 
#    z 0.000000 0.000000 1.638560 
# 
# From -- ./inp_files/21615.got.cif
#   From: 2010.05.17/outbox.cif.g08.bks.cpg/sg59_11_cif.got.tgz:21615.got - 2010.06.03 14:40:33.
