data_PCOD9449179
_publ_section_title
;
Structure prediction by ZEFSAII (Michael W. Deem and Ramdas Pophale) SiO2 
 PCOD9449179
Probable space group: P M M N
;
_chemical_formula_sum "Si O2"
_cell_formula_units_Z 56
_cell_length_a 15.167603
_cell_length_b 14.589875
_cell_length_c 12.492333
_cell_angle_alpha 90.000000
_cell_angle_beta 90.000000
_cell_angle_gamma 90.000000
_cell_volume 2764.471241
_symmetry_space_group_name_H-M "P M M N"
_symmetry_group_IT_number 59
_space_group.IT_coordinate_system_code '2'
_symmetry_cell_setting 'orthorhombic'
loop_
_space_group_symop_operation_xyz
x,y,z
1/2-x,1/2-y,z
1/2+x,-y,-z
-x,1/2+y,-z
-x,-y,-z
1/2+x,1/2+y,-z
1/2-x,y,z
x,1/2-y,z
loop_
_atom_site_type_symbol
_atom_site_label
_atom_site_fract_x
_atom_site_fract_y
_atom_site_fract_z
Si Si1 0.395408 0.644876 0.935709
Si Si2 0.572086 0.356120 0.302270
Si Si3 0.155894 0.530097 0.134740
Si Si4 0.981311 0.040449 0.683680
Si Si5 0.850055 0.143076 0.531341
Si Si6 0.895105 0.645091 0.980306
Si Si7 0.851903 0.639771 0.228090
O O1 0.367574 0.750000 0.949521
O O2 0.383967 0.619451 0.811581
O O3 0.349900 0.582212 0.022338
O O4 0.499959 0.638828 0.960992
O O5 0.541025 0.250000 0.291769
O O6 0.497151 0.431566 0.322846
O O7 0.635997 0.360504 0.403613
O O8 0.250000 0.549199 0.186770
O O9 0.076235 0.559320 0.210167
O O10 0.147248 0.424185 0.103003
O O11 0.924177 0.081868 0.587695
O O12 0.076262 0.087892 0.699928
O O13 0.750000 0.115775 0.557418
O O14 0.862206 0.250000 0.563624
O O15 0.867562 0.750000 0.964715
O O16 0.872154 0.619601 0.102744
O O17 0.750000 0.616239 0.251081
O O18 0.862320 0.750000 0.240796
#
# Coordination Sequence:
#
# PCOD9449179 Si02
#       7
#     8   8   8   8   8   8   8
#     4  10  20  37  60  86 120 163 206 251 303 354
#     4  10  22  40  64  88 115 158 211 260 302 353
#     4  12  24  35  55  90 127 163 200 240 298 369
#     4  12  22  39  63  90 125 163 198 252 311 373
#     4  10  23  43  65  90 119 157 205 253 309 376
#     4  10  19  36  57  80 118 163 202 244 294 355
#     4  10  21  36  58  89 121 158 206 252 301 360
#
# _framework density 20.257038000000001
#
# number of rings (size 3 to 8) (size 9 to 14) (size 15 to 20)
#    0.000    1.429    2.857    3.000    0.000    2.857 
#    0.000    1.429    0.000    1.286    0.000    2.000 
#    0.000    0.000    0.000    0.000    0.000    0.000 
#
# Total GULP energy -312930.833456 kJ/mol
# GULP energy per Si atom -5588.050597 kJ/mol
# Density = 2.021093 g / cm^3
# Si number density = 20.257038 Si / 1000 Ang^3
#
#
#
# Elastic Constant Matrix: (Units=GPa)
#
#
# Indices 1 2 3 4 5 6 
#
# 1 112.9960 34.2331 35.4209 0.0000 0.0000 0.0000
# 2 34.2331 56.4848 32.6104 0.0000 0.0000 0.0000
# 3 35.4209 32.6104 83.1561 0.0000 0.0000 0.0000
# 4 0.0000 0.0000 0.0000 22.8483 0.0000 0.0000
# 5 0.0000 0.0000 0.0000 0.0000 3.2378 0.0000
# 6 0.0000 0.0000 0.0000 0.0000 0.0000 -22.9076
#
#
#
# Elastic Compliance Matrix: (Units=1/GPa)
#
#
# Indices 1 2 3 4 5 6 
#
# 1 0.011307 -0.005264 -0.002752 0.000000 0.000000 0.000000
# 2 -0.005264 0.025336 -0.007693 0.000000 0.000000 0.000000
# 3 -0.002752 -0.007693 0.016215 0.000000 0.000000 0.000000
# 4 0.000000 0.000000 0.000000 0.043767 0.000000 0.000000
# 5 0.000000 0.000000 0.000000 0.000000 0.308849 0.000000
# 6 0.000000 0.000000 0.000000 0.000000 0.000000 -0.043654
#
#
# Mechanical properties :
#
#
# Convention : Reuss Voigt Hill
#
# Bulk Modulus (GPa) = 46.64405 50.79619 48.72012
# Shear Modulus (GPa) = 12.48796 10.66054 11.57425
#
# Velocity S-wave (km/s) = 2.48559 2.29653 2.39293
# Velocity P-wave (km/s) = 5.59586 5.67118 5.63365
#
# Compressibility (1/GPa) = 0.02143896
#
# Stress axis : x y z
#
# Youngs Moduli (GPa) = 88.43795 39.46983 61.67176
#
# Poissons Ratio (x) = 0.20777 0.16973
# Poissons Ratio (y) = 0.46554 0.47446
# Poissons Ratio (z) = 0.24339 0.30366
#
# Static dielectric constant tensor:
#      x y z
#    x 1.715560 0.000000 0.000000 
#    y 0.000000 1.737030 0.000000 
#    z 0.000000 0.000000 1.702740 
# 
# From -- ./inp_files/16913.got.cif
#   From: 2010.05.17/outbox.cif.g08.bks.cpg/sg59_9_cif.got.tgz:16913.got - 2010.06.03 14:40:33.
