data_PCOD9449205
_publ_section_title
;
Structure prediction by ZEFSAII (Michael W. Deem and Ramdas Pophale) SiO2 
 PCOD9449205
Probable space group: P M M N
;
_chemical_formula_sum "Si O2"
_cell_formula_units_Z 56
_cell_length_a 15.304354
_cell_length_b 8.934975
_cell_length_c 22.281919
_cell_angle_alpha 90.000000
_cell_angle_beta 90.000000
_cell_angle_gamma 90.000000
_cell_volume 3046.919186
_symmetry_space_group_name_H-M "P M M N"
_symmetry_group_IT_number 59
_space_group.IT_coordinate_system_code '2'
_symmetry_cell_setting 'orthorhombic'
loop_
_space_group_symop_operation_xyz
x,y,z
1/2-x,1/2-y,z
1/2+x,-y,-z
-x,1/2+y,-z
-x,-y,-z
1/2+x,1/2+y,-z
1/2-x,y,z
x,1/2-y,z
loop_
_atom_site_type_symbol
_atom_site_label
_atom_site_fract_x
_atom_site_fract_y
_atom_site_fract_z
Si Si1 0.055335 0.069068 0.945352
Si Si2 0.750000 0.568842 0.023977
Si Si3 0.750000 0.929638 0.882724
Si Si4 0.652739 0.572448 0.620417
Si Si5 0.507906 0.071578 0.703047
Si Si6 0.150058 0.572976 0.636658
Si Si7 0.093986 0.072144 0.512294
Si Si8 0.570725 0.430327 0.835692
O O1 0.054740 0.250000 0.951449
O O2 0.157018 0.019041 0.948236
O O3 0.003707 0.030781 0.884478
O O4 0.000000 0.000000 0.000000
O O5 0.750000 0.750000 0.027888
O O6 0.750000 0.529134 0.953421
O O7 0.750000 0.750000 0.878373
O O8 0.837774 0.994359 0.853207
O O9 0.750000 0.535414 0.642004
O O10 0.637233 0.750000 0.629800
O O11 0.579996 0.480545 0.655080
O O12 0.646951 0.546918 0.549046
O O13 0.498911 0.250000 0.701497
O O14 0.539539 0.026615 0.769252
O O15 0.417654 0.997495 0.682996
O O16 0.250000 0.547731 0.654735
O O17 0.134020 0.750000 0.631685
O O18 0.134323 0.500598 0.571386
O O19 0.085873 0.250000 0.521532
O O20 0.000000 0.000000 0.500000
O O21 0.582112 0.250000 0.837081
#
# Coordination Sequence:
#
# PCOD9449205 Si02
#       8
#     8   4   4   8   8   8   8   8
#     4  10  19  36  59  84 117 152 190 239 291 343
#     4   9  18  33  57  89 117 147 192 239 288 347
#     4  11  21  35  61  93 119 155 196 235 286 355
#     4  10  22  39  59  85 117 153 192 237 294 354
#     4  11  24  41  60  85 117 157 201 245 293 351
#     4  11  24  42  64  88 116 155 201 250 304 358
#     4  11  21  36  61  90 120 154 193 243 300 356
#     4  10  23  40  58  86 122 159 195 242 297 349
#
# _framework density 18.379221000000001
#
# number of rings (size 3 to 8) (size 9 to 14) (size 15 to 20)
#    0.000    1.571    2.857    1.929    1.000    3.714 
#    1.286    0.357    0.000    0.000    0.000    0.000 
#    0.000    0.000    0.000    0.000    0.000    0.000 
#
# Total GULP energy -312821.469352 kJ/mol
# GULP energy per Si atom -5586.097667 kJ/mol
# Density = 1.833739 g / cm^3
# Si number density = 18.379221 Si / 1000 Ang^3
#
#
#
# Elastic Constant Matrix: (Units=GPa)
#
#
# Indices 1 2 3 4 5 6 
#
# 1 169.1980 67.2659 81.7390 0.0000 0.0000 0.0000
# 2 67.2659 47.5344 49.8610 0.0000 0.0000 0.0000
# 3 81.7390 49.8610 118.8546 0.0000 0.0000 0.0000
# 4 0.0000 0.0000 0.0000 26.4929 0.0000 0.0000
# 5 0.0000 0.0000 0.0000 0.0000 1.6337 0.0000
# 6 0.0000 0.0000 0.0000 0.0000 0.0000 20.9606
#
#
#
# Elastic Compliance Matrix: (Units=1/GPa)
#
#
# Indices 1 2 3 4 5 6 
#
# 1 0.013864 -0.017175 -0.002329 0.000000 0.000000 0.000000
# 2 -0.017175 0.058848 -0.012876 0.000000 0.000000 0.000000
# 3 -0.002329 -0.012876 0.015417 0.000000 0.000000 0.000000
# 4 0.000000 0.000000 0.000000 0.037746 0.000000 0.000000
# 5 0.000000 0.000000 0.000000 0.000000 0.612110 0.000000
# 6 0.000000 0.000000 0.000000 0.000000 0.000000 0.047709
#
#
# Mechanical properties :
#
#
# Convention : Reuss Voigt Hill
#
# Bulk Modulus (GPa) = 42.79265 81.47986 62.13626
# Shear Modulus (GPa) = 5.82586 18.93218 12.37902
#
# Velocity S-wave (km/s) = 1.78233 3.21298 2.59807
# Velocity P-wave (km/s) = 5.25065 7.62844 6.54838
#
# Compressibility (1/GPa) = 0.02336850
#
# Stress axis : x y z
#
# Youngs Moduli (GPa) = 72.13167 16.99294 64.86400
#
# Poissons Ratio (x) = 0.29186 0.15107
# Poissons Ratio (y) = 1.23888 0.83517
# Poissons Ratio (z) = 0.16800 0.21880
#
# Static dielectric constant tensor:
#      x y z
#    x 1.626430 0.000000 0.000000 
#    y 0.000000 1.619250 0.000000 
#    z 0.000000 0.000000 1.617020 
# 
# From -- ./inp_files/30425.got.cif
#   From: 2010.05.17/outbox.cif.g08.bks.cpg/sg59_16_cif.got.tgz:30425.got - 2010.06.03 14:40:33.
