data_PCOD9449314
_publ_section_title
;
Structure prediction by ZEFSAII (Michael W. Deem and Ramdas Pophale) SiO2 
 PCOD9449314
Probable space group: P M M N
;
_chemical_formula_sum "Si O2"
_cell_formula_units_Z 64
_cell_length_a 9.393125
_cell_length_b 21.733333
_cell_length_c 14.844566
_cell_angle_alpha 90.000000
_cell_angle_beta 90.000000
_cell_angle_gamma 90.000000
_cell_volume 3030.427798
_symmetry_space_group_name_H-M "P M M N"
_symmetry_group_IT_number 59
_space_group.IT_coordinate_system_code '2'
_symmetry_cell_setting 'orthorhombic'
loop_
_space_group_symop_operation_xyz
x,y,z
1/2-x,1/2-y,z
1/2+x,-y,-z
-x,1/2+y,-z
-x,-y,-z
1/2+x,1/2+y,-z
1/2-x,y,z
x,1/2-y,z
loop_
_atom_site_type_symbol
_atom_site_label
_atom_site_fract_x
_atom_site_fract_y
_atom_site_fract_z
Si Si1 0.913983 0.682038 0.732507
Si Si2 0.087298 0.562009 0.017860
Si Si3 0.590946 0.446389 0.766417
Si Si4 0.920151 0.681287 0.027725
Si Si5 0.579491 0.183873 0.780596
Si Si6 0.591263 0.434398 0.268858
Si Si7 0.588892 0.062240 0.484566
Si Si8 0.914645 0.681007 0.512681
O O1 0.750000 0.676232 0.762044
O O2 0.967037 0.750000 0.758447
O O3 0.913684 0.680394 0.622787
O O4 0.004133 0.624405 0.764817
O O5 0.250000 0.559605 0.984412
O O6 0.095583 0.564379 0.126417
O O7 0.003072 0.623060 0.986334
O O8 0.000000 0.500000 0.000000
O O9 0.750000 0.463068 0.735649
O O10 0.548373 0.379383 0.729004
O O11 0.486277 0.501787 0.749421
O O12 0.750000 0.670648 0.028643
O O13 0.945298 0.750000 0.988382
O O14 0.983202 0.684573 0.129542
O O15 0.750000 0.180931 0.803527
O O16 0.556812 0.250000 0.734563
O O17 0.750000 0.434619 0.232193
O O18 0.598270 0.429650 0.376896
O O19 0.750000 0.056745 0.519979
O O20 0.509335 0.123656 0.517674
O O21 0.500000 0.000000 0.500000
O O22 0.750000 0.673121 0.484494
O O23 0.962806 0.750000 0.486803
#
# Coordination Sequence:
#
# PCOD9449314 Si02
#       8
#     8   8   8   8   8   8   8   8
#     4   8  14  26  45  67  90 118 152 188 228 275
#     4  10  20  33  50  72  97 126 159 194 234 279
#     4   9  18  31  48  70  95 125 157 188 229 281
#     4   9  16  26  43  68  95 122 154 192 232 274
#     4   8  14  26  44  66  91 118 152 194 234 271
#     4  10  20  31  46  70  97 124 155 193 234 275
#     4  10  20  32  47  69  95 124 159 196 235 278
#     4   8  14  26  45  68  92 118 149 187 232 279
#
# _framework density 21.119130999999999
#
# number of rings (size 3 to 8) (size 9 to 14) (size 15 to 20)
#    0.000    3.000    0.000    3.000    0.000    5.250 
#    0.000    2.500    0.000    1.500    0.000    8.750 
#    0.000    0.000    0.000    0.000    0.000    0.000 
#
# Total GULP energy -356829.917654 kJ/mol
# GULP energy per Si atom -5575.467463 kJ/mol
# Density = 2.107106 g / cm^3
# Si number density = 21.119131 Si / 1000 Ang^3
#
#
#
# Elastic Constant Matrix: (Units=GPa)
#
#
# Indices 1 2 3 4 5 6 
#
# 1 143.7596 138.0983 7.4562 0.0000 0.0000 0.0000
# 2 138.0983 259.6774 3.2135 0.0000 0.0000 0.0000
# 3 7.4562 3.2135 52.1656 0.0000 0.0000 0.0000
# 4 0.0000 0.0000 0.0000 18.8203 0.0000 0.0000
# 5 0.0000 0.0000 0.0000 0.0000 9.4233 0.0000
# 6 0.0000 0.0000 0.0000 0.0000 0.0000 32.8029
#
#
#
# Elastic Compliance Matrix: (Units=1/GPa)
#
#
# Indices 1 2 3 4 5 6 
#
# 1 0.014350 -0.007612 -0.001582 0.000000 0.000000 0.000000
# 2 -0.007612 0.007892 0.000602 0.000000 0.000000 0.000000
# 3 -0.001582 0.000602 0.019359 0.000000 0.000000 0.000000
# 4 0.000000 0.000000 0.000000 0.053134 0.000000 0.000000
# 5 0.000000 0.000000 0.000000 0.000000 0.106120 0.000000
# 6 0.000000 0.000000 0.000000 0.000000 0.000000 0.030485
#
#
# Mechanical properties :
#
#
# Convention : Reuss Voigt Hill
#
# Bulk Modulus (GPa) = 40.95676 83.68208 62.31942
# Shear Modulus (GPa) = 19.48074 32.66493 26.07284
#
# Velocity S-wave (km/s) = 3.04043 3.93708 3.51744
# Velocity P-wave (km/s) = 5.63569 7.77028 6.78742
#
# Compressibility (1/GPa) = 0.02441599
#
# Stress axis : x y z
#
# Youngs Moduli (GPa) = 69.68419 126.71619 51.65610
#
# Poissons Ratio (x) = 0.96458 0.08173
# Poissons Ratio (y) = 0.53044 -0.03109
# Poissons Ratio (z) = 0.11026 -0.07627
#
# Static dielectric constant tensor:
#      x y z
#    x 1.732570 0.000000 0.000000 
#    y 0.000000 1.788620 0.000000 
#    z 0.000000 0.000000 1.836170 
# 
# From -- ./inp_files/26332.got.cif
#   From: 2010.05.17/outbox.cif.g08.bks.cpg/sg59_14_cif.got.tgz:26332.got - 2010.06.03 14:40:33.
