data_PCOD9449182
_publ_section_title
;
Structure prediction by ZEFSAII (Michael W. Deem and Ramdas Pophale) SiO2 
 PCOD9449182
Probable space group: P M M N
;
_chemical_formula_sum "Si O2"
_cell_formula_units_Z 56
_cell_length_a 21.043810
_cell_length_b 14.284387
_cell_length_c 7.701389
_cell_angle_alpha 90.000000
_cell_angle_beta 90.000000
_cell_angle_gamma 90.000000
_cell_volume 2315.021561
_symmetry_space_group_name_H-M "P M M N"
_symmetry_group_IT_number 59
_space_group.IT_coordinate_system_code '2'
_symmetry_cell_setting 'orthorhombic'
loop_
_space_group_symop_operation_xyz
x,y,z
1/2-x,1/2-y,z
1/2+x,-y,-z
-x,1/2+y,-z
-x,-y,-z
1/2+x,1/2+y,-z
1/2-x,y,z
x,1/2-y,z
loop_
_atom_site_type_symbol
_atom_site_label
_atom_site_fract_x
_atom_site_fract_y
_atom_site_fract_z
Si Si1 0.439940 0.142602 0.503902
Si Si2 0.178257 0.857461 0.732151
Si Si3 0.322486 0.047267 0.320989
Si Si4 0.001155 0.852318 0.871379
Si Si5 0.140961 0.145461 0.978863
Si Si6 0.174558 0.647091 0.153528
Si Si7 0.585360 0.999184 0.242149
O O1 0.435265 0.250000 0.565294
O O2 0.371742 0.101400 0.443827
O O3 0.482968 0.142240 0.332653
O O4 0.460160 0.069567 0.651046
O O5 0.250000 0.885428 0.688091
O O6 0.170118 0.750000 0.680887
O O7 0.124093 0.922104 0.653240
O O8 0.171734 0.862390 0.943158
O O9 0.250000 0.040349 0.385287
O O10 0.322275 0.110551 0.146494
O O11 0.347786 0.945957 0.253009
O O12 0.030778 0.750000 0.905377
O O13 0.934072 0.854242 0.968484
O O14 0.046549 0.940061 0.898257
O O15 0.159289 0.250000 0.927256
O O16 0.140753 0.066705 0.833915
O O17 0.250000 0.649944 0.191951
O O18 0.147707 0.750000 0.201011
#
# Coordination Sequence:
#
# PCOD9449182 Si02
#       7
#     8   8   8   8   8   8   8
#     4  10  23  39  54  76 111 148 182 226 270 312
#     4   9  18  32  51  80 114 140 167 216 279 328
#     4  10  19  36  58  78 105 151 191 215 263 328
#     4   9  20  39  58  78 104 140 181 220 273 333
#     4  10  21  35  54  82 112 138 178 233 274 313
#     4   8  14  28  51  77 104 134 171 217 264 310
#     4  12  20  34  59  83 106 141 184 223 273 325
#
# _framework density 24.189841000000001
#
# number of rings (size 3 to 8) (size 9 to 14) (size 15 to 20)
#    0.000    2.286    1.429    3.857    0.000    1.714 
#    0.000    1.429    0.000    7.714    0.000    0.000 
#    0.000    0.000    0.000    0.000    0.000    0.000 
#
# Total GULP energy -312804.562633 kJ/mol
# GULP energy per Si atom -5585.795761 kJ/mol
# Density = 2.413478 g / cm^3
# Si number density = 24.189841 Si / 1000 Ang^3
#
#
#
# Elastic Constant Matrix: (Units=GPa)
#
#
# Indices 1 2 3 4 5 6 
#
# 1 66.9090 35.3929 -3.4131 0.0000 0.0000 0.0000
# 2 35.3929 172.9578 9.4177 0.0000 0.0000 0.0000
# 3 -3.4131 9.4177 37.0297 0.0000 0.0000 0.0000
# 4 0.0000 0.0000 0.0000 29.6116 0.0000 0.0000
# 5 0.0000 0.0000 0.0000 0.0000 4.5017 0.0000
# 6 0.0000 0.0000 0.0000 0.0000 0.0000 28.3383
#
#
#
# Elastic Compliance Matrix: (Units=1/GPa)
#
#
# Indices 1 2 3 4 5 6 
#
# 1 0.016982 -0.003610 0.002483 0.000000 0.000000 0.000000
# 2 -0.003610 0.006630 -0.002019 0.000000 0.000000 0.000000
# 3 0.002483 -0.002019 0.027748 0.000000 0.000000 0.000000
# 4 0.000000 0.000000 0.000000 0.033771 0.000000 0.000000
# 5 0.000000 0.000000 0.000000 0.000000 0.222138 0.000000
# 6 0.000000 0.000000 0.000000 0.000000 0.000000 0.035288
#
#
# Mechanical properties :
#
#
# Convention : Reuss Voigt Hill
#
# Bulk Modulus (GPa) = 22.18844 39.96572 31.07708
# Shear Modulus (GPa) = 13.74112 28.19025 20.96568
#
# Velocity S-wave (km/s) = 2.38597 3.41746 2.94720
# Velocity P-wave (km/s) = 4.09671 5.66830 4.94533
#
# Compressibility (1/GPa) = 0.04506851
#
# Stress axis : x y z
#
# Youngs Moduli (GPa) = 58.88546 150.81841 36.03893
#
# Poissons Ratio (x) = 0.54450 -0.08950
# Poissons Ratio (y) = 0.21260 0.07277
# Poissons Ratio (z) = -0.14624 0.30452
#
# Static dielectric constant tensor:
#      x y z
#    x 1.939700 0.000000 0.000000 
#    y 0.000000 1.969610 0.000000 
#    z 0.000000 0.000000 1.977030 
# 
# From -- ./inp_files/11448.got.cif
#   From: 2010.05.17/outbox.cif.g08.bks.cpg/sg59_6_cif.got.tgz:11448.got - 2010.06.03 14:40:33.
