data_PCOD9449570
_publ_section_title
;
Structure prediction by ZEFSAII (Michael W. Deem and Ramdas Pophale) SiO2 
 PCOD9449570
Probable space group: P M M N
;
_chemical_formula_sum "Si O2"
_cell_formula_units_Z 52
_cell_length_a 9.030362
_cell_length_b 14.576891
_cell_length_c 22.325634
_cell_angle_alpha 90.000000
_cell_angle_beta 90.000000
_cell_angle_gamma 90.000000
_cell_volume 2938.825959
_symmetry_space_group_name_H-M "P M M N"
_symmetry_group_IT_number 59
_space_group.IT_coordinate_system_code '2'
_symmetry_cell_setting 'orthorhombic'
loop_
_space_group_symop_operation_xyz
x,y,z
1/2-x,1/2-y,z
1/2+x,-y,-z
-x,1/2+y,-z
-x,-y,-z
1/2+x,1/2+y,-z
1/2-x,y,z
x,1/2-y,z
loop_
_atom_site_type_symbol
_atom_site_label
_atom_site_fract_x
_atom_site_fract_y
_atom_site_fract_z
Si Si1 0.922839 0.750000 0.994604
Si Si2 0.083528 0.250000 0.727473
Si Si3 0.571691 0.854324 0.493768
Si Si4 0.572322 0.476667 0.409260
Si Si5 0.420406 0.960701 0.155536
Si Si6 0.498784 0.250000 0.864940
Si Si7 0.072996 0.935099 0.950905
Si Si8 0.569741 0.951288 0.281986
O O1 0.750000 0.750000 0.979028
O O2 0.004914 0.836898 0.966354
O O3 0.931858 0.750000 0.067820
O O4 0.250000 0.250000 0.703629
O O5 0.018317 0.153980 0.706628
O O6 0.087272 0.250000 0.800634
O O7 0.750000 0.854536 0.497245
O O8 0.523255 0.750000 0.482122
O O9 0.505530 0.895064 0.555049
O O10 0.530200 0.928014 0.442630
O O11 0.750000 0.466979 0.414585
O O12 0.536308 0.487188 0.339396
O O13 0.250000 0.989348 0.151318
O O14 0.425828 0.851011 0.139664
O O15 0.487493 0.976367 0.221213
O O16 0.520335 0.019772 0.110859
O O17 0.250000 0.933743 0.955226
O O18 0.000000 0.000000 0.000000
O O19 0.750000 0.949903 0.273230
#
# Coordination Sequence:
#
# PCOD9449570 Si02
#       8
#     4   4   8   8   8   4   8   8
#     4  12  24  39  62  87 113 145 187 232 283 339
#     4   8  15  27  45  74 105 138 173 212 263 323
#     4   9  18  32  52  77 108 143 179 219 264 316
#     4   9  18  32  52  79 108 140 179 221 267 320
#     4  11  22  37  57  82 114 149 186 227 278 335
#     4  10  20  32  55  79 118 145 182 216 276 328
#     4  12  25  40  60  85 115 148 188 233 282 334
#     4   9  18  32  52  77 107 141 180 223 271 327
#
# _framework density 17.694140000000001
#
# number of rings (size 3 to 8) (size 9 to 14) (size 15 to 20)
#    0.000    2.000    1.538    2.538    1.077    2.769 
#    0.000    0.000    1.692    0.000    0.000    0.000 
#    0.000    0.000    0.000    0.000    0.000    0.000 
#
# Total GULP energy -289752.026923 kJ/mol
# GULP energy per Si atom -5572.154364 kJ/mol
# Density = 1.765387 g / cm^3
# Si number density = 17.694140 Si / 1000 Ang^3
#
#
#
# Elastic Constant Matrix: (Units=GPa)
#
#
# Indices 1 2 3 4 5 6 
#
# 1 92.2710 32.3840 30.4167 0.0000 0.0000 0.0000
# 2 32.3840 88.3214 21.6277 0.0000 0.0000 0.0000
# 3 30.4167 21.6277 78.5830 0.0000 0.0000 0.0000
# 4 0.0000 0.0000 0.0000 21.7300 0.0000 0.0000
# 5 0.0000 0.0000 0.0000 0.0000 23.3607 0.0000
# 6 0.0000 0.0000 0.0000 0.0000 0.0000 15.4160
#
#
#
# Elastic Compliance Matrix: (Units=1/GPa)
#
#
# Indices 1 2 3 4 5 6 
#
# 1 0.013606 -0.003966 -0.004175 0.000000 0.000000 0.000000
# 2 -0.003966 0.013297 -0.002124 0.000000 0.000000 0.000000
# 3 -0.004175 -0.002124 0.014926 0.000000 0.000000 0.000000
# 4 0.000000 0.000000 0.000000 0.046019 0.000000 0.000000
# 5 0.000000 0.000000 0.000000 0.000000 0.042807 0.000000
# 6 0.000000 0.000000 0.000000 0.000000 0.000000 0.064868
#
#
# Mechanical properties :
#
#
# Convention : Reuss Voigt Hill
#
# Bulk Modulus (GPa) = 46.95336 47.55912 47.25624
# Shear Modulus (GPa) = 22.40617 23.75113 23.07865
#
# Velocity S-wave (km/s) = 3.56238 3.66774 3.61544
# Velocity P-wave (km/s) = 6.59655 6.69875 6.64784
#
# Compressibility (1/GPa) = 0.02129773
#
# Stress axis : x y z
#
# Youngs Moduli (GPa) = 73.49745 75.20589 66.99749
#
# Poissons Ratio (x) = 0.29830 0.27969
# Poissons Ratio (y) = 0.29153 0.14232
# Poissons Ratio (z) = 0.30683 0.15976
#
# Static dielectric constant tensor:
#      x y z
#    x 1.597340 0.000000 0.000000 
#    y 0.000000 1.581810 0.000000 
#    z 0.000000 0.000000 1.616850 
# 
# From -- ./inp_files/28942.got.cif
#   From: 2010.05.17/outbox.cif.g08.bks.cpg/sg59_15_cif.got.tgz:28942.got - 2010.06.03 14:40:33.
