data_PCOD9449866
_publ_section_title
;
Structure prediction by ZEFSAII (Michael W. Deem and Ramdas Pophale) SiO2 
 PCOD9449866
Probable space group: P M M N
;
_chemical_formula_sum "Si O2"
_cell_formula_units_Z 48
_cell_length_a 8.261578
_cell_length_b 19.060487
_cell_length_c 16.952505
_cell_angle_alpha 90.000000
_cell_angle_beta 90.000000
_cell_angle_gamma 90.000000
_cell_volume 2669.505878
_symmetry_space_group_name_H-M "P M M N"
_symmetry_group_IT_number 59
_space_group.IT_coordinate_system_code '2'
_symmetry_cell_setting 'orthorhombic'
loop_
_space_group_symop_operation_xyz
x,y,z
1/2-x,1/2-y,z
1/2+x,-y,-z
-x,1/2+y,-z
-x,-y,-z
1/2+x,1/2+y,-z
1/2-x,y,z
x,1/2-y,z
loop_
_atom_site_type_symbol
_atom_site_label
_atom_site_fract_x
_atom_site_fract_y
_atom_site_fract_z
Si Si1 0.055163 0.829725 0.156760
Si Si2 0.945746 0.601238 0.821945
Si Si3 0.947465 0.457880 0.742491
Si Si4 0.556656 0.970228 0.583204
Si Si5 0.054784 0.331793 0.015874
Si Si6 0.443568 0.828830 0.661561
O O1 0.250000 0.827186 0.161974
O O2 0.993159 0.750000 0.166058
O O3 0.995245 0.884568 0.221854
O O4 0.011249 0.854948 0.068794
O O5 0.750000 0.604199 0.821625
O O6 0.994141 0.522225 0.799545
O O7 0.002595 0.625984 0.907596
O O8 0.003977 0.650172 0.750257
O O9 0.750000 0.455897 0.740987
O O10 0.002405 0.480291 0.655352
O O11 0.750000 0.971068 0.584879
O O12 0.503518 0.891064 0.604566
O O13 0.500000 0.000000 0.500000
O O14 0.250000 0.335531 0.013139
O O15 0.009272 0.250000 0.025981
O O16 0.250000 0.828625 0.658367
O O17 0.502392 0.750000 0.642758
#
# Coordination Sequence:
#
# PCOD9449866 Si02
#       6
#     8   8   8   8   8   8
#     4   9  17  30  47  65  89 124 163 200 239 283
#     4   9  17  30  48  68  94 130 166 200 242 292
#     4   8  16  31  49  69  92 121 159 199 239 288
#     4  10  20  36  57  77 101 131 163 202 249 302
#     4   9  17  28  42  63  92 125 161 200 243 289
#     4  10  20  33  51  77 106 132 162 202 246 295
#
# _framework density 17.980855999999999
#
# number of rings (size 3 to 8) (size 9 to 14) (size 15 to 20)
#    0.000    2.833    0.000    2.500    0.000    3.333 
#    0.000    6.667    0.000    3.000    0.000    0.000 
#    0.000    0.000    0.000    0.000    0.000    0.000 
#
# Total GULP energy -267556.486527 kJ/mol
# GULP energy per Si atom -5574.093469 kJ/mol
# Density = 1.793993 g / cm^3
# Si number density = 17.980856 Si / 1000 Ang^3
#
#
#
# Elastic Constant Matrix: (Units=GPa)
#
#
# Indices 1 2 3 4 5 6 
#
# 1 15.1918 18.2261 13.9579 0.0000 0.0000 0.0000
# 2 18.2261 130.4605 105.9662 0.0000 0.0000 0.0000
# 3 13.9579 105.9662 138.2970 0.0000 0.0000 0.0000
# 4 0.0000 0.0000 0.0000 23.3047 0.0000 0.0000
# 5 0.0000 0.0000 0.0000 0.0000 26.0023 0.0000
# 6 0.0000 0.0000 0.0000 0.0000 0.0000 17.0080
#
#
#
# Elastic Compliance Matrix: (Units=1/GPa)
#
#
# Indices 1 2 3 4 5 6 
#
# 1 0.079165 -0.012102 0.001283 0.000000 0.000000 0.000000
# 2 -0.012102 0.022148 -0.015749 0.000000 0.000000 0.000000
# 3 0.001283 -0.015749 0.019168 0.000000 0.000000 0.000000
# 4 0.000000 0.000000 0.000000 0.042910 0.000000 0.000000
# 5 0.000000 0.000000 0.000000 0.000000 0.038458 0.000000
# 6 0.000000 0.000000 0.000000 0.000000 0.000000 0.058796
#
#
# Mechanical properties :
#
#
# Convention : Reuss Voigt Hill
#
# Bulk Modulus (GPa) = 14.84874 62.24996 38.54935
# Shear Modulus (GPa) = 14.87085 22.98295 18.92690
#
# Velocity S-wave (km/s) = 2.87895 3.57906 3.24792
# Velocity P-wave (km/s) = 4.39626 7.19547 5.96246
#
# Compressibility (1/GPa) = 0.06734577
#
# Stress axis : x y z
#
# Youngs Moduli (GPa) = 12.63184 45.15176 52.16961
#
# Poissons Ratio (x) = 0.54641 -0.06692
# Poissons Ratio (y) = 0.15287 0.82160
# Poissons Ratio (z) = -0.01620 0.71107
#
# Static dielectric constant tensor:
#      x y z
#    x 1.649770 0.000000 0.000000 
#    y 0.000000 1.632850 0.000000 
#    z 0.000000 0.000000 1.603760 
# 
# From -- ./inp_files/20774.got.cif
#   From: 2010.05.17/outbox.cif.g08.bks.cpg/sg59_11_cif.got.tgz:20774.got - 2010.06.03 14:40:33.
