data_PCOD9449155
_publ_section_title
;
Structure prediction by ZEFSAII (Michael W. Deem and Ramdas Pophale) SiO2 
 PCOD9449155
Probable space group: P M M N
;
_chemical_formula_sum "Si O2"
_cell_formula_units_Z 64
_cell_length_a 8.170310
_cell_length_b 31.607938
_cell_length_c 12.330434
_cell_angle_alpha 90.000000
_cell_angle_beta 90.000000
_cell_angle_gamma 90.000000
_cell_volume 3184.293297
_symmetry_space_group_name_H-M "P M M N"
_symmetry_group_IT_number 59
_space_group.IT_coordinate_system_code '2'
_symmetry_cell_setting 'orthorhombic'
loop_
_space_group_symop_operation_xyz
x,y,z
1/2-x,1/2-y,z
1/2+x,-y,-z
-x,1/2+y,-z
-x,-y,-z
1/2+x,1/2+y,-z
1/2-x,y,z
x,1/2-y,z
loop_
_atom_site_type_symbol
_atom_site_label
_atom_site_fract_x
_atom_site_fract_y
_atom_site_fract_z
Si Si1 0.551407 0.203280 0.988992
Si Si2 0.942307 0.046201 0.964200
Si Si3 0.557686 0.911910 0.252252
Si Si4 0.554418 0.620710 0.880123
Si Si5 0.558825 0.317837 0.750734
Si Si6 0.948125 0.202984 0.510452
Si Si7 0.052980 0.452450 0.522054
Si Si8 0.947301 0.876919 0.631551
O O1 0.750000 0.199948 0.987978
O O2 0.508110 0.250000 0.031220
O O3 0.485376 0.164256 0.057917
O O4 0.491747 0.199596 0.864148
O O5 0.750000 0.045327 0.941370
O O6 0.033014 0.060989 0.855420
O O7 0.977574 0.081397 0.055586
O O8 0.000000 0.000000 0.000000
O O9 0.750000 0.901353 0.264596
O O10 0.460498 0.868259 0.242992
O O11 0.501677 0.936862 0.358867
O O12 0.750000 0.614640 0.880586
O O13 0.495505 0.623190 0.755833
O O14 0.750000 0.305764 0.749253
O O15 0.490739 0.303527 0.634426
O O16 0.750000 0.201258 0.512962
O O17 0.996660 0.250000 0.473164
O O18 0.005750 0.165124 0.434156
O O19 0.250000 0.451494 0.519733
O O20 0.992917 0.418175 0.434169
O O21 0.000000 0.500000 0.500000
O O22 0.750000 0.878722 0.633883
#
# Coordination Sequence:
#
# PCOD9449155 Si02
#       8
#     8   8   8   8   8   8   8   8
#     4  10  21  38  61  89 122 161 204 251 307 366
#     4  12  26  44  66  93 125 160 202 249 304 365
#     4  11  22  39  64  94 126 158 198 251 302 359
#     4  11  24  42  63  88 122 162 207 256 305 362
#     4  10  19  35  60  90 123 160 199 249 306 360
#     4  10  21  37  60  91 123 158 204 253 302 361
#     4  10  23  41  62  90 122 157 201 248 299 357
#     4  10  23  43  61  84 120 162 203 250 304 358
#
# _framework density 20.098649999999999
#
# number of rings (size 3 to 8) (size 9 to 14) (size 15 to 20)
#    0.000    1.500    2.500    2.250    1.750    5.000 
#    0.000    2.500    0.000    2.250    0.000    0.000 
#    0.000    0.000    0.000    0.000    0.000    0.000 
#
# Total GULP energy -357658.333898 kJ/mol
# GULP energy per Si atom -5588.411467 kJ/mol
# Density = 2.005290 g / cm^3
# Si number density = 20.098650 Si / 1000 Ang^3
#
#
#
# Elastic Constant Matrix: (Units=GPa)
#
#
# Indices 1 2 3 4 5 6 
#
# 1 19.7988 -2.8560 2.4087 0.0000 0.0000 0.0000
# 2 -2.8560 161.1041 68.2561 0.0000 0.0000 0.0000
# 3 2.4087 68.2561 148.5926 0.0000 0.0000 0.0000
# 4 0.0000 0.0000 0.0000 50.1468 0.0000 0.0000
# 5 0.0000 0.0000 0.0000 0.0000 24.7219 0.0000
# 6 0.0000 0.0000 0.0000 0.0000 0.0000 8.9969
#
#
#
# Elastic Compliance Matrix: (Units=1/GPa)
#
#
# Indices 1 2 3 4 5 6 
#
# 1 0.050920 0.001555 -0.001540 0.000000 0.000000 0.000000
# 2 0.001555 0.007755 -0.003587 0.000000 0.000000 0.000000
# 3 -0.001540 -0.003587 0.008403 0.000000 0.000000 0.000000
# 4 0.000000 0.000000 0.000000 0.019941 0.000000 0.000000
# 5 0.000000 0.000000 0.000000 0.000000 0.040450 0.000000
# 6 0.000000 0.000000 0.000000 0.000000 0.000000 0.111149
#
#
# Mechanical properties :
#
#
# Convention : Reuss Voigt Hill
#
# Bulk Modulus (GPa) = 16.68530 51.67925 34.18227
# Shear Modulus (GPa) = 18.81545 34.21890 26.51717
#
# Velocity S-wave (km/s) = 3.06298 4.13067 3.63623
# Velocity P-wave (km/s) = 4.56387 6.96552 5.88844
#
# Compressibility (1/GPa) = 0.05993301
#
# Stress axis : x y z
#
# Youngs Moduli (GPa) = 19.63872 128.95601 119.01091
#
# Poissons Ratio (x) = -0.20053 0.18325
# Poissons Ratio (y) = -0.03054 0.42693
# Poissons Ratio (z) = 0.03024 0.46260
#
# Static dielectric constant tensor:
#      x y z
#    x 1.720220 0.000000 0.000000 
#    y 0.000000 1.676900 0.000000 
#    z 0.000000 0.000000 1.709130 
# 
# From -- ./inp_files/14947.got.cif
#   From: 2010.05.17/outbox.cif.g08.bks.cpg/sg59_8_cif.got.tgz:14947.got - 2010.06.03 14:40:33.
