data_PCOD9449080
_publ_section_title
;
Structure prediction by ZEFSAII (Michael W. Deem and Ramdas Pophale) SiO2 
 PCOD9449080
Probable space group: P M M N
;
_chemical_formula_sum "Si O2"
_cell_formula_units_Z 48
_cell_length_a 15.077031
_cell_length_b 7.991714
_cell_length_c 18.756921
_cell_angle_alpha 90.000000
_cell_angle_beta 90.000000
_cell_angle_gamma 90.000000
_cell_volume 2260.046165
_symmetry_space_group_name_H-M "P M M N"
_symmetry_group_IT_number 59
_space_group.IT_coordinate_system_code '2'
_symmetry_cell_setting 'orthorhombic'
loop_
_space_group_symop_operation_xyz
x,y,z
1/2-x,1/2-y,z
1/2+x,-y,-z
-x,1/2+y,-z
-x,-y,-z
1/2+x,1/2+y,-z
1/2-x,y,z
x,1/2-y,z
loop_
_atom_site_type_symbol
_atom_site_label
_atom_site_fract_x
_atom_site_fract_y
_atom_site_fract_z
Si Si1 0.919541 0.554161 0.826166
Si Si2 0.250000 0.453540 0.907957
Si Si3 0.750000 0.058886 0.747167
Si Si4 0.446465 0.543710 0.710525
Si Si5 0.599727 0.951295 0.983233
Si Si6 0.250000 0.949239 0.742620
Si Si7 0.448414 0.053377 0.429728
Si Si8 0.250000 0.937182 0.422805
O O1 0.938168 0.750000 0.838352
O O2 0.837003 0.533850 0.773883
O O3 0.888375 0.484134 0.902390
O O4 0.004533 0.485740 0.783472
O O5 0.250000 0.250000 0.903856
O O6 0.250000 0.518556 0.827591
O O7 0.334169 0.510999 0.955214
O O8 0.750000 0.250000 0.774066
O O9 0.750000 0.065133 0.662702
O O10 0.447467 0.750000 0.711405
O O11 0.343780 0.488378 0.710734
O O12 0.504528 0.484235 0.642484
O O13 0.611191 0.750000 0.982456
O O14 0.500000 0.000000 0.000000
O O15 0.250000 0.750000 0.731149
O O16 0.456446 0.250000 0.421969
O O17 0.500000 0.000000 0.500000
O O18 0.344813 0.014579 0.440677
O O19 0.250000 0.750000 0.452387
#
# Coordination Sequence:
#
# PCOD9449080 Si02
#       8
#     8   4   4   8   8   4   8   4
#     4  10  19  35  57  81 111 155 200 240 290 364
#     4  10  21  37  52  80 120 155 186 235 305 358
#     4  11  22  34  55  88 117 145 187 248 304 342
#     4   9  19  35  59  87 114 149 200 246 291 347
#     4  10  21  36  56  80 112 151 195 242 295 355
#     4  10  20  38  62  84 107 150 206 249 280 341
#     4  11  23  41  65  95 129 166 201 247 304 364
#     4  11  23  41  63  92 126 160 199 248 301 357
#
# _framework density 21.238503000000001
#
# number of rings (size 3 to 8) (size 9 to 14) (size 15 to 20)
#    0.000    1.833    1.667    2.500    0.000    5.333 
#    0.000    5.000    0.000    0.000    0.000    0.000 
#    0.000    0.000    0.000    0.000    0.000    0.000 
#
# Total GULP energy -267836.236674 kJ/mol
# GULP energy per Si atom -5579.921597 kJ/mol
# Density = 2.119016 g / cm^3
# Si number density = 21.238503 Si / 1000 Ang^3
#
#
#
# Elastic Constant Matrix: (Units=GPa)
#
#
# Indices 1 2 3 4 5 6 
#
# 1 154.9346 -3.4230 41.1292 0.0000 0.0000 0.0000
# 2 -3.4230 12.8915 5.0233 0.0000 0.0000 0.0000
# 3 41.1292 5.0233 79.9409 0.0000 0.0000 0.0000
# 4 0.0000 0.0000 0.0000 22.7271 0.0000 0.0000
# 5 0.0000 0.0000 0.0000 0.0000 -2.3851 0.0000
# 6 0.0000 0.0000 0.0000 0.0000 0.0000 17.1035
#
#
#
# Elastic Compliance Matrix: (Units=1/GPa)
#
#
# Indices 1 2 3 4 5 6 
#
# 1 0.007639 0.003649 -0.004160 0.000000 0.000000 0.000000
# 2 0.003649 0.081261 -0.006984 0.000000 0.000000 0.000000
# 3 -0.004160 -0.006984 0.015088 0.000000 0.000000 0.000000
# 4 0.000000 0.000000 0.000000 0.044000 0.000000 0.000000
# 5 0.000000 0.000000 0.000000 0.000000 -0.419268 0.000000
# 6 0.000000 0.000000 0.000000 0.000000 0.000000 0.058467
#
#
# Mechanical properties :
#
#
# Convention : Reuss Voigt Hill
#
# Bulk Modulus (GPa) = 11.23594 37.02509 24.13052
# Shear Modulus (GPa) = -29.73420 21.15827 -4.28796
#
# Velocity S-wave (km/s) = -3.74574 3.15972 -1.42244
# Velocity P-wave (km/s) = 3.66136 5.54821 2.94764
#
# Compressibility (1/GPa) = 0.08900010
#
# Stress axis : x y z
#
# Youngs Moduli (GPa) = 130.90407 12.30603 66.27704
#
# Poissons Ratio (x) = -0.04491 0.27569
# Poissons Ratio (y) = -0.47770 0.46286
# Poissons Ratio (z) = 0.54451 0.08594
#
# Static dielectric constant tensor:
#      x y z
#    x 1.755270 0.000000 0.000000 
#    y 0.000000 1.762210 0.000000 
#    z 0.000000 0.000000 1.788940 
# 
# From -- ./inp_files/27501.got.cif
#   From: 2010.05.17/outbox.cif.g08.bks.cpg/sg59_14_cif.got.tgz:27501.got - 2010.06.03 14:40:33.
