data_PCOD9449222
_publ_section_title
;
Structure prediction by ZEFSAII (Michael W. Deem and Ramdas Pophale) SiO2 
 PCOD9449222
Probable space group: P M M N
;
_chemical_formula_sum "Si O2"
_cell_formula_units_Z 56
_cell_length_a 11.970006
_cell_length_b 14.419907
_cell_length_c 18.076595
_cell_angle_alpha 90.000000
_cell_angle_beta 90.000000
_cell_angle_gamma 90.000000
_cell_volume 3120.135505
_symmetry_space_group_name_H-M "P M M N"
_symmetry_group_IT_number 59
_space_group.IT_coordinate_system_code '2'
_symmetry_cell_setting 'orthorhombic'
loop_
_space_group_symop_operation_xyz
x,y,z
1/2-x,1/2-y,z
1/2+x,-y,-z
-x,1/2+y,-z
-x,-y,-z
1/2+x,1/2+y,-z
1/2-x,y,z
x,1/2-y,z
loop_
_atom_site_type_symbol
_atom_site_label
_atom_site_fract_x
_atom_site_fract_y
_atom_site_fract_z
Si Si1 0.122691 0.647708 0.151141
Si Si2 0.460471 0.356362 0.989546
Si Si3 0.880142 0.852099 0.353040
Si Si4 0.985960 0.994688 0.240537
Si Si5 0.378170 0.359225 0.327143
Si Si6 0.618919 0.555621 0.508885
Si Si7 0.873682 0.466092 0.087834
O O1 0.250000 0.635356 0.129286
O O2 0.109808 0.750000 0.185926
O O3 0.047701 0.646854 0.078298
O O4 0.083521 0.567214 0.204695
O O5 0.418930 0.250000 0.000647
O O6 0.379867 0.438910 0.961105
O O7 0.529824 0.397490 0.058391
O O8 0.750000 0.850990 0.332044
O O9 0.927642 0.750000 0.337426
O O10 0.885318 0.873821 0.440085
O O11 0.935991 0.932955 0.306213
O O12 0.900113 0.010722 0.173252
O O13 0.036566 0.087302 0.274637
O O14 0.250000 0.375746 0.302605
O O15 0.398569 0.250000 0.327389
O O16 0.386749 0.397681 0.410732
O O17 0.500000 0.500000 0.500000
O O18 0.750000 0.514592 0.504332
O O19 0.750000 0.425948 0.079954
#
# Coordination Sequence:
#
# PCOD9449222 Si02
#       7
#     8   8   8   8   8   8   8
#     4   9  17  30  50  75 101 133 172 217 271 325
#     4   9  19  36  56  76 102 138 180 224 266 318
#     4  10  20  34  55  81 109 144 185 228 279 342
#     4  11  20  33  52  77 113 144 177 225 278 327
#     4  10  21  37  57  79 107 150 198 236 273 326
#     4  10  19  36  61  85 110 146 192 242 290 339
#     4  10  21  35  54  81 110 141 178 222 274 333
#
# _framework density 17.947939000000002
#
# number of rings (size 3 to 8) (size 9 to 14) (size 15 to 20)
#    0.000    2.143    1.429    2.143    0.000    4.000 
#    0.000    0.714    0.000    5.571    0.000    0.000 
#    0.000    0.000    0.000    0.000    0.000    0.000 
#
# Total GULP energy -311803.677060 kJ/mol
# GULP energy per Si atom -5567.922805 kJ/mol
# Density = 1.790709 g / cm^3
# Si number density = 17.947939 Si / 1000 Ang^3
#
#
#
# Elastic Constant Matrix: (Units=GPa)
#
#
# Indices 1 2 3 4 5 6 
#
# 1 72.7182 22.3035 8.3827 0.0000 0.0000 0.0000
# 2 22.3035 70.4246 11.0535 0.0000 0.0000 0.0000
# 3 8.3827 11.0535 55.7780 0.0000 0.0000 0.0000
# 4 0.0000 0.0000 0.0000 13.4861 0.0000 0.0000
# 5 0.0000 0.0000 0.0000 0.0000 -68.2974 0.0000
# 6 0.0000 0.0000 0.0000 0.0000 0.0000 23.4819
#
#
#
# Elastic Compliance Matrix: (Units=1/GPa)
#
#
# Indices 1 2 3 4 5 6 
#
# 1 0.015334 -0.004639 -0.001385 0.000000 0.000000 0.000000
# 2 -0.004639 0.016059 -0.002485 0.000000 0.000000 0.000000
# 3 -0.001385 -0.002485 0.018629 0.000000 0.000000 0.000000
# 4 0.000000 0.000000 0.000000 0.074151 0.000000 0.000000
# 5 0.000000 0.000000 0.000000 0.000000 -0.014642 0.000000
# 6 0.000000 0.000000 0.000000 0.000000 0.000000 0.042586
#
#
# Mechanical properties :
#
#
# Convention : Reuss Voigt Hill
#
# Bulk Modulus (GPa) = 30.30011 31.37781 30.83896
# Shear Modulus (GPa) = 27.75675 4.21287 15.98481
#
# Velocity S-wave (km/s) = 3.93684 1.53374 2.98756
# Velocity P-wave (km/s) = 6.13057 4.54501 5.39634
#
# Compressibility (1/GPa) = 0.03300318
#
# Stress axis : x y z
#
# Youngs Moduli (GPa) = 65.21368 62.27116 53.68003
#
# Poissons Ratio (x) = 0.28887 0.07436
# Poissons Ratio (y) = 0.30252 0.13341
# Poissons Ratio (z) = 0.09034 0.15476
#
# Static dielectric constant tensor:
#      x y z
#    x 1.635960 0.000000 0.000000 
#    y 0.000000 1.636720 0.000000 
#    z 0.000000 0.000000 1.591590 
# 
# From -- ./inp_files/22517.got.cif
#   From: 2010.05.17/outbox.cif.g08.bks.cpg/sg59_12_cif.got.tgz:22517.got - 2010.06.03 14:40:33.
