data_PCOD9449210
_publ_section_title
;
Structure prediction by ZEFSAII (Michael W. Deem and Ramdas Pophale) SiO2 
 PCOD9449210
Probable space group: P M M N
;
_chemical_formula_sum "Si O2"
_cell_formula_units_Z 40
_cell_length_a 26.304092
_cell_length_b 8.644556
_cell_length_c 9.739141
_cell_angle_alpha 90.000000
_cell_angle_beta 90.000000
_cell_angle_gamma 90.000000
_cell_volume 2214.555967
_symmetry_space_group_name_H-M "P M M N"
_symmetry_group_IT_number 59
_space_group.IT_coordinate_system_code '2'
_symmetry_cell_setting 'orthorhombic'
loop_
_space_group_symop_operation_xyz
x,y,z
1/2-x,1/2-y,z
1/2+x,-y,-z
-x,1/2+y,-z
-x,-y,-z
1/2+x,1/2+y,-z
1/2-x,y,z
x,1/2-y,z
loop_
_atom_site_type_symbol
_atom_site_label
_atom_site_fract_x
_atom_site_fract_y
_atom_site_fract_z
Si Si1 0.656495 0.063856 0.904555
Si Si2 0.544540 0.935292 0.592872
Si Si3 0.340676 0.063693 0.402762
Si Si4 0.453926 0.064299 0.088790
Si Si5 0.750000 0.436092 0.413291
Si Si6 0.750000 0.438117 0.096316
O O1 0.656254 0.250000 0.896136
O O2 0.667316 0.996827 0.752633
O O3 0.600989 0.004755 0.949460
O O4 0.700078 0.014470 0.011177
O O5 0.543170 0.750000 0.585180
O O6 0.601970 0.983779 0.554604
O O7 0.537287 0.979122 0.751942
O O8 0.500000 0.000000 0.500000
O O9 0.338054 0.250000 0.400405
O O10 0.299049 0.997085 0.505242
O O11 0.451572 0.250000 0.079401
O O12 0.500000 0.000000 0.000000
O O13 0.750000 0.250000 0.415894
O O14 0.750000 0.488934 0.254506
O O15 0.750000 0.250000 0.098124
#
# Coordination Sequence:
#
# PCOD9449210 Si02
#       6
#     8   8   8   8   4   4
#     4  10  19  36  60  83 107 143 185 225 269 326
#     4   9  20  36  55  79 109 141 178 221 269 320
#     4  10  21  38  56  80 111 143 180 225 269 321
#     4  10  21  37  55  81 112 144 182 226 272 323
#     4  11  22  37  56  80 108 143 180 221 272 322
#     4   9  21  37  54  80 112 139 176 225 272 320
#
# _framework density 18.062311000000001
#
# number of rings (size 3 to 8) (size 9 to 14) (size 15 to 20)
#    0.000    2.200    0.000    3.900    0.000    7.200 
#    0.000   11.500    0.000    0.000    0.000    0.000 
#    0.000    0.000    0.000    0.000    0.000    0.000 
#
# Total GULP energy -223308.297989 kJ/mol
# GULP energy per Si atom -5582.707450 kJ/mol
# Density = 1.802120 g / cm^3
# Si number density = 18.062311 Si / 1000 Ang^3
#
#
#
# Elastic Constant Matrix: (Units=GPa)
#
#
# Indices 1 2 3 4 5 6 
#
# 1 210.9322 53.3056 136.9497 0.0000 0.0000 0.0000
# 2 53.3056 56.3815 41.2643 0.0000 0.0000 0.0000
# 3 136.9497 41.2643 123.6037 0.0000 0.0000 0.0000
# 4 0.0000 0.0000 0.0000 25.2042 0.0000 0.0000
# 5 0.0000 0.0000 0.0000 0.0000 40.4415 0.0000
# 6 0.0000 0.0000 0.0000 0.0000 0.0000 36.0055
#
#
#
# Elastic Compliance Matrix: (Units=1/GPa)
#
#
# Indices 1 2 3 4 5 6 
#
# 1 0.017288 -0.003078 -0.018127 0.000000 0.000000 0.000000
# 2 -0.003078 0.024019 -0.004608 0.000000 0.000000 0.000000
# 3 -0.018127 -0.004608 0.029713 0.000000 0.000000 0.000000
# 4 0.000000 0.000000 0.000000 0.039676 0.000000 0.000000
# 5 0.000000 0.000000 0.000000 0.000000 0.024727 0.000000
# 6 0.000000 0.000000 0.000000 0.000000 0.000000 0.027774
#
#
# Mechanical properties :
#
#
# Convention : Reuss Voigt Hill
#
# Bulk Modulus (GPa) = 51.56361 94.88406 73.22384
# Shear Modulus (GPa) = 22.59517 30.95676 26.77597
#
# Velocity S-wave (km/s) = 3.54072 4.14440 3.85440
# Velocity P-wave (km/s) = 6.73240 8.69178 7.77407
#
# Compressibility (1/GPa) = 0.01939352
#
# Stress axis : x y z
#
# Youngs Moduli (GPa) = 57.84489 41.63355 33.65569
#
# Poissons Ratio (x) = 0.12815 0.61006
# Poissons Ratio (y) = 0.17805 0.15509
# Poissons Ratio (z) = 1.04853 0.19186
#
# Static dielectric constant tensor:
#      x y z
#    x 1.607710 0.000000 0.000000 
#    y 0.000000 1.612790 0.000000 
#    z 0.000000 0.000000 1.595880 
# 
# From -- ./inp_files/12395.got.cif
#   From: 2010.05.17/outbox.cif.g08.bks.cpg/sg59_7_cif.got.tgz:12395.got - 2010.06.03 14:40:33.
