data_PCOD9449407
_publ_section_title
;
Structure prediction by ZEFSAII (Michael W. Deem and Ramdas Pophale) SiO2 
 PCOD9449407
Probable space group: P M M N
;
_chemical_formula_sum "Si O2"
_cell_formula_units_Z 48
_cell_length_a 19.768316
_cell_length_b 7.438508
_cell_length_c 15.579550
_cell_angle_alpha 90.000000
_cell_angle_beta 90.000000
_cell_angle_gamma 90.000000
_cell_volume 2290.922610
_symmetry_space_group_name_H-M "P M M N"
_symmetry_group_IT_number 59
_space_group.IT_coordinate_system_code '2'
_symmetry_cell_setting 'orthorhombic'
loop_
_space_group_symop_operation_xyz
x,y,z
1/2-x,1/2-y,z
1/2+x,-y,-z
-x,1/2+y,-z
-x,-y,-z
1/2+x,1/2+y,-z
1/2-x,y,z
x,1/2-y,z
loop_
_atom_site_type_symbol
_atom_site_label
_atom_site_fract_x
_atom_site_fract_y
_atom_site_fract_z
Si Si1 0.673480 0.964208 0.094504
Si Si2 0.578441 0.029456 0.742775
Si Si3 0.073851 0.459706 0.761384
Si Si4 0.826887 0.468945 0.588329
Si Si5 0.673268 0.465724 0.897654
Si Si6 0.826606 0.032851 0.392250
O O1 0.750000 0.036130 0.106586
O O2 0.677524 0.750000 0.108715
O O3 0.619214 0.038122 0.161663
O O4 0.653928 0.992232 0.995499
O O5 0.578393 0.250000 0.740925
O O6 0.501212 0.966156 0.747859
O O7 0.618532 0.971207 0.657634
O O8 0.621020 0.971570 0.826041
O O9 0.063566 0.250000 0.782684
O O10 0.118440 0.470879 0.675606
O O11 0.750000 0.522925 0.611274
O O12 0.827166 0.250000 0.588462
O O13 0.840322 0.524937 0.490230
O O14 0.750000 0.533151 0.883613
O O15 0.675845 0.250000 0.890338
O O16 0.750000 0.975027 0.369081
O O17 0.826885 0.250000 0.391480
#
# Coordination Sequence:
#
# PCOD9449407 Si02
#       6
#     8   8   8   8   8   8
#     4   9  18  32  47  63  88 123 157 188 229 281
#     4   9  17  29  46  70  98 124 152 189 232 279
#     4  10  20  32  47  69  97 128 157 186 228 281
#     4   8  14  27  48  71  94 122 155 191 233 277
#     4   9  17  30  50  73  92 115 154 200 236 267
#     4   9  18  32  50  71  93 120 157 197 232 269
#
# _framework density 20.952258
#
# number of rings (size 3 to 8) (size 9 to 14) (size 15 to 20)
#    0.000    3.000    0.000    2.000    0.000    5.000 
#    0.000    2.500    0.000    1.000    0.000    2.333 
#    0.000    0.000    0.000    0.000    0.000    0.000 
#
# Total GULP energy -267928.481786 kJ/mol
# GULP energy per Si atom -5581.843371 kJ/mol
# Density = 2.090457 g / cm^3
# Si number density = 20.952258 Si / 1000 Ang^3
#
#
#
# Elastic Constant Matrix: (Units=GPa)
#
#
# Indices 1 2 3 4 5 6 
#
# 1 183.2623 -1.4467 136.1851 0.0000 0.0000 0.0000
# 2 -1.4467 61.7122 -10.0548 0.0000 0.0000 0.0000
# 3 136.1851 -10.0548 145.7675 0.0000 0.0000 0.0000
# 4 0.0000 0.0000 0.0000 31.1747 0.0000 0.0000
# 5 0.0000 0.0000 0.0000 0.0000********** 0.0000
# 6 0.0000 0.0000 0.0000 0.0000 0.0000 0.3419
#
#
#
# Elastic Compliance Matrix: (Units=1/GPa)
#
#
# Indices 1 2 3 4 5 6 
#
# 1 0.018184 -0.002368 -0.017152 0.000000 0.000000 0.000000
# 2 -0.002368 0.016697 0.003364 0.000000 0.000000 0.000000
# 3 -0.017152 0.003364 0.023116 0.000000 0.000000 0.000000
# 4 0.000000 0.000000 0.000000 0.032077 0.000000 0.000000
# 5 0.000000 0.000000 0.000000 0.000000 -0.000055 0.000000
# 6 0.000000 0.000000 0.000000 0.000000 0.000000 2.924502
#
#
# Mechanical properties :
#
#
# Convention : Reuss Voigt Hill
#
# Bulk Modulus (GPa) = 38.93212 71.12325 55.02768
# Shear Modulus (GPa) = 1.63645 -3618.38464 -1808.37409
#
# Velocity S-wave (km/s) = 0.88472 -41.60187 -29.41031
# Velocity P-wave (km/s) = 4.43456 47.68230 33.57035
#
# Compressibility (1/GPa) = 0.02568573
#
# Stress axis : x y z
#
# Youngs Moduli (GPa) = 54.99458 59.89149 43.25926
#
# Poissons Ratio (x) = 0.14184 0.74197
# Poissons Ratio (y) = 0.13024 -0.14554
# Poissons Ratio (z) = 0.94325 -0.20149
#
# Static dielectric constant tensor:
#      x y z
#    x 1.731070 0.000000 0.000000 
#    y 0.000000 1.801780 0.000000 
#    z 0.000000 0.000000 1.714260 
# 
# From -- ./inp_files/15911.got.cif
#   From: 2010.05.17/outbox.cif.g08.bks.cpg/sg59_8_cif.got.tgz:15911.got - 2010.06.03 14:40:33.
