data_PCOD9449713
_publ_section_title
;
Structure prediction by ZEFSAII (Michael W. Deem and Ramdas Pophale) SiO2 
 PCOD9449713
Probable space group: P M M N
;
_chemical_formula_sum "Si O2"
_cell_formula_units_Z 48
_cell_length_a 9.416900
_cell_length_b 8.125283
_cell_length_c 31.800611
_cell_angle_alpha 90.000000
_cell_angle_beta 90.000000
_cell_angle_gamma 90.000000
_cell_volume 2433.223035
_symmetry_space_group_name_H-M "P M M N"
_symmetry_group_IT_number 59
_space_group.IT_coordinate_system_code '2'
_symmetry_cell_setting 'orthorhombic'
loop_
_space_group_symop_operation_xyz
x,y,z
1/2-x,1/2-y,z
1/2+x,-y,-z
-x,1/2+y,-z
-x,-y,-z
1/2+x,1/2+y,-z
1/2-x,y,z
x,1/2-y,z
loop_
_atom_site_type_symbol
_atom_site_label
_atom_site_fract_x
_atom_site_fract_y
_atom_site_fract_z
Si Si1 0.912697 0.551160 0.459022
Si Si2 0.086069 0.448909 0.798679
Si Si3 0.911031 0.945917 0.879028
Si Si4 0.086885 0.548532 0.377102
Si Si5 0.589239 0.554186 0.040403
Si Si6 0.086270 0.450692 0.703886
O O1 0.750000 0.491912 0.460589
O O2 0.909078 0.750000 0.457688
O O3 0.000000 0.500000 0.500000
O O4 0.993613 0.494962 0.416938
O O5 0.250000 0.499596 0.806566
O O6 0.083891 0.250000 0.799309
O O7 0.047112 0.502557 0.751249
O O8 0.983156 0.510635 0.834799
O O9 0.750000 0.011853 0.881686
O O10 0.904531 0.750000 0.882729
O O11 0.007555 0.008387 0.917112
O O12 0.250000 0.495911 0.380873
O O13 0.086105 0.750000 0.376980
O O14 0.015524 0.493830 0.333464
O O15 0.750000 0.485741 0.039835
O O16 0.599207 0.750000 0.038867
O O17 0.500000 0.500000 0.000000
O O18 0.250000 0.498937 0.695959
O O19 0.084101 0.250000 0.703832
#
# Coordination Sequence:
#
# PCOD9449713 Si02
#       6
#     8   8   8   8   8   8
#     4  10  20  33  50  72  99 132 169 210 258 310
#     4   9  18  33  54  80 107 136 173 216 262 312
#     4  11  24  39  55  79 111 146 184 222 261 309
#     4   9  16  26  43  69  99 130 166 208 254 306
#     4  11  24  41  62  88 115 143 179 221 264 313
#     4   8  14  26  45  70 100 130 162 206 258 309
#
# _framework density 19.72692
#
# number of rings (size 3 to 8) (size 9 to 14) (size 15 to 20)
#    0.000    2.333    0.000    4.000    0.000   10.667 
#    0.000    1.667    0.000    1.000    0.000    4.667 
#    0.000    0.000    0.000    0.000    0.000    0.000 
#
# Total GULP energy -268029.709053 kJ/mol
# GULP energy per Si atom -5583.952272 kJ/mol
# Density = 1.968202 g / cm^3
# Si number density = 19.726920 Si / 1000 Ang^3
#
#
#
# Elastic Constant Matrix: (Units=GPa)
#
#
# Indices 1 2 3 4 5 6 
#
# 1 201.7386 18.9409 135.6366 0.0000 0.0000 0.0000
# 2 18.9409 17.8807 14.9284 0.0000 0.0000 0.0000
# 3 135.6366 14.9284 184.6071 0.0000 0.0000 0.0000
# 4 0.0000 0.0000 0.0000 23.7696 0.0000 0.0000
# 5 0.0000 0.0000 0.0000 0.0000 42.0243 0.0000
# 6 0.0000 0.0000 0.0000 0.0000 0.0000 19.3771
#
#
#
# Elastic Compliance Matrix: (Units=1/GPa)
#
#
# Indices 1 2 3 4 5 6 
#
# 1 0.010176 -0.004866 -0.007083 0.000000 0.000000 0.000000
# 2 -0.004866 0.062302 -0.001463 0.000000 0.000000 0.000000
# 3 -0.007083 -0.001463 0.010739 0.000000 0.000000 0.000000
# 4 0.000000 0.000000 0.000000 0.042071 0.000000 0.000000
# 5 0.000000 0.000000 0.000000 0.000000 0.023796 0.000000
# 6 0.000000 0.000000 0.000000 0.000000 0.000000 0.051607
#
#
# Mechanical properties :
#
#
# Convention : Reuss Voigt Hill
#
# Bulk Modulus (GPa) = 17.73251 82.58202 50.15726
# Shear Modulus (GPa) = 20.29936 32.68223 26.49079
#
# Velocity S-wave (km/s) = 3.21131 4.07471 3.66850
# Velocity P-wave (km/s) = 4.77059 8.00570 6.58975
#
# Compressibility (1/GPa) = 0.05639361
#
# Stress axis : x y z
#
# Youngs Moduli (GPa) = 98.27005 16.05080 93.11457
#
# Poissons Ratio (x) = 0.07810 0.65955
# Poissons Ratio (y) = 0.47816 0.13624
# Poissons Ratio (z) = 0.69606 0.02348
#
# Static dielectric constant tensor:
#      x y z
#    x 1.686690 0.000000 0.000000 
#    y 0.000000 1.714540 0.000000 
#    z 0.000000 0.000000 1.681070 
# 
# From -- ./inp_files/32905.got.cif
#   From: 2010.05.17/outbox.cif.g08.bks.cpg/sg59_17_cif.got.tgz:32905.got - 2010.06.03 14:40:33.
