data_PCOD9449079
_publ_section_title
;
Structure prediction by ZEFSAII (Michael W. Deem and Ramdas Pophale) SiO2 
 PCOD9449079
Probable space group: P M M N
;
_chemical_formula_sum "Si O2"
_cell_formula_units_Z 64
_cell_length_a 17.768537
_cell_length_b 29.821059
_cell_length_c 6.178287
_cell_angle_alpha 90.000000
_cell_angle_beta 90.000000
_cell_angle_gamma 90.000000
_cell_volume 3273.729649
_symmetry_space_group_name_H-M "P M M N"
_symmetry_group_IT_number 59
_space_group.IT_coordinate_system_code '2'
_symmetry_cell_setting 'orthorhombic'
loop_
_space_group_symop_operation_xyz
x,y,z
1/2-x,1/2-y,z
1/2+x,-y,-z
-x,1/2+y,-z
-x,-y,-z
1/2+x,1/2+y,-z
1/2-x,y,z
x,1/2-y,z
loop_
_atom_site_type_symbol
_atom_site_label
_atom_site_fract_x
_atom_site_fract_y
_atom_site_fract_z
Si Si1 0.166013 0.940513 0.607900
Si Si2 0.051125 0.962550 0.229155
Si Si3 0.379483 0.299254 0.062643
Si Si4 0.929446 0.118694 0.102298
Si Si5 0.333482 0.119593 0.771675
Si Si6 0.540272 0.199783 0.818249
Si Si7 0.045413 0.344732 0.440472
Si Si8 0.387311 0.476821 0.868219
O O1 0.250000 0.934669 0.520603
O O2 0.103721 0.947768 0.424051
O O3 0.139587 0.898935 0.755090
O O4 0.162286 0.984844 0.757313
O O5 0.964194 0.973255 0.273395
O O6 0.049478 0.921190 0.060724
O O7 0.086814 0.004583 0.101220
O O8 0.344068 0.250000 0.043313
O O9 0.401068 0.310755 0.308854
O O10 0.338187 0.340509 0.947744
O O11 0.459671 0.297296 0.939303
O O12 0.000003 0.127036 0.262160
O O13 0.915504 0.163151 0.960036
O O14 0.250000 0.120125 0.672480
O O15 0.400081 0.128001 0.599423
O O16 0.348657 0.071220 0.876156
O O17 0.572218 0.250000 0.808007
O O18 0.517467 0.180511 0.584009
#
# Coordination Sequence:
#
# PCOD9449079 Si02
#       8
#     8   8   8   8   8   8   8   8
#     4  11  23  37  57  84 114 149 186 227 282 347
#     4  10  21  38  61  82 108 147 189 234 280 332
#     4   9  19  35  54  77 108 146 189 234 276 323
#     4  10  20  36  58  85 114 146 186 233 281 333
#     4  11  23  36  52  78 114 152 189 234 286 337
#     4   9  17  31  56  87 112 137 177 231 281 324
#     4  10  19  35  57  81 111 148 193 238 281 329
#     4  10  21  38  57  81 108 142 189 237 282 329
#
# _framework density 19.549569000000002
#
# number of rings (size 3 to 8) (size 9 to 14) (size 15 to 20)
#    0.000    2.000    0.000    4.875    0.000    7.250 
#    0.000    0.000    0.000    0.375    0.000    0.000 
#    0.000    0.000    0.000    0.000    0.000    0.000 
#
# Total GULP energy -357191.418261 kJ/mol
# GULP energy per Si atom -5581.115910 kJ/mol
# Density = 1.950507 g / cm^3
# Si number density = 19.549569 Si / 1000 Ang^3
#
#
#
# Elastic Constant Matrix: (Units=GPa)
#
#
# Indices 1 2 3 4 5 6 
#
# 1 62.7462 21.6594 15.9348 0.0000 0.0000 0.0000
# 2 21.6594 139.8921 39.8343 0.0000 0.0000 0.0000
# 3 15.9348 39.8343 67.5495 0.0000 0.0000 0.0000
# 4 0.0000 0.0000 0.0000 17.9795 0.0000 0.0000
# 5 0.0000 0.0000 0.0000 0.0000 6.4568 0.0000
# 6 0.0000 0.0000 0.0000 0.0000 0.0000 5.0247
#
#
#
# Elastic Compliance Matrix: (Units=1/GPa)
#
#
# Indices 1 2 3 4 5 6 
#
# 1 0.017332 -0.001826 -0.003012 0.000000 0.000000 0.000000
# 2 -0.001826 0.008783 -0.004749 0.000000 0.000000 0.000000
# 3 -0.003012 -0.004749 0.018315 0.000000 0.000000 0.000000
# 4 0.000000 0.000000 0.000000 0.055619 0.000000 0.000000
# 5 0.000000 0.000000 0.000000 0.000000 0.154874 0.000000
# 6 0.000000 0.000000 0.000000 0.000000 0.000000 0.199016
#
#
# Mechanical properties :
#
#
# Convention : Reuss Voigt Hill
#
# Bulk Modulus (GPa) = 39.59258 47.22717 43.40988
# Shear Modulus (GPa) = 10.38353 18.74285 14.56319
#
# Velocity S-wave (km/s) = 2.30714 3.09970 2.73231
# Velocity P-wave (km/s) = 5.23389 6.08449 5.67515
#
# Compressibility (1/GPa) = 0.02525726
#
# Stress axis : x y z
#
# Youngs Moduli (GPa) = 57.69538 113.85247 54.60042
#
# Poissons Ratio (x) = 0.20788 0.16445
# Poissons Ratio (y) = 0.10535 0.25929
# Poissons Ratio (z) = 0.17377 0.54067
#
# Static dielectric constant tensor:
#      x y z
#    x 1.674600 0.000000 0.000000 
#    y 0.000000 1.715710 0.000000 
#    z 0.000000 0.000000 1.711130 
# 
# From -- ./inp_files/3038.got.cif
#   From: 2010.05.17/outbox.cif.g08.bks.cpg/sg59_2_cif.got.tgz:3038.got - 2010.06.03 14:40:33.
