data_PCOD9449777
_publ_section_title
;
Structure prediction by ZEFSAII (Michael W. Deem and Ramdas Pophale) SiO2 
 PCOD9449777
Probable space group: P M M N
;
_chemical_formula_sum "Si O2"
_cell_formula_units_Z 40
_cell_length_a 9.052755
_cell_length_b 14.908163
_cell_length_c 17.282248
_cell_angle_alpha 90.000000
_cell_angle_beta 90.000000
_cell_angle_gamma 90.000000
_cell_volume 2332.411277
_symmetry_space_group_name_H-M "P M M N"
_symmetry_group_IT_number 59
_space_group.IT_coordinate_system_code '2'
_symmetry_cell_setting 'orthorhombic'
loop_
_space_group_symop_operation_xyz
x,y,z
1/2-x,1/2-y,z
1/2+x,-y,-z
-x,1/2+y,-z
-x,-y,-z
1/2+x,1/2+y,-z
1/2-x,y,z
x,1/2-y,z
loop_
_atom_site_type_symbol
_atom_site_label
_atom_site_fract_x
_atom_site_fract_y
_atom_site_fract_z
Si Si1 0.082997 0.750000 0.752565
Si Si2 0.572620 0.354299 0.495293
Si Si3 0.426507 0.479767 0.618625
Si Si4 0.416622 0.750000 0.939069
Si Si5 0.073984 0.066215 0.060116
Si Si6 0.426614 0.436928 0.241521
O O1 0.250000 0.750000 0.719340
O O2 0.094758 0.750000 0.845723
O O3 0.995759 0.659309 0.734602
O O4 0.750000 0.356300 0.506555
O O5 0.531227 0.250000 0.479836
O O6 0.492349 0.397185 0.569765
O O7 0.539437 0.427311 0.428153
O O8 0.250000 0.472443 0.624568
O O9 0.501401 0.490639 0.701925
O O10 0.250000 0.750000 0.970379
O O11 0.507867 0.837222 0.959722
O O12 0.250000 0.065127 0.053105
O O13 0.038507 0.047530 0.150738
O O14 0.000000 0.000000 0.000000
O O15 0.250000 0.434278 0.249912
#
# Coordination Sequence:
#
# PCOD9449777 Si02
#       6
#     4   8   8   4   8   8
#     4   9  17  29  47  73 103 134 167 210 259 307
#     4   9  19  36  55  75 104 141 175 213 262 312
#     4  10  20  33  53  80 107 137 175 219 259 309
#     4   9  17  31  51  75 103 134 169 210 261 315
#     4  10  20  34  54  78 107 141 178 219 266 316
#     4  10  20  33  50  76 108 140 174 214 263 316
#
# _framework density 17.149635
#
# number of rings (size 3 to 8) (size 9 to 14) (size 15 to 20)
#    0.000    2.400    0.000    2.400    1.400    6.000 
#    0.000    0.000    2.200    0.000    0.000    0.000 
#    0.000    0.000    0.000    0.000    0.000    0.000 
#
# Total GULP energy -223051.442768 kJ/mol
# GULP energy per Si atom -5576.286069 kJ/mol
# Density = 1.711060 g / cm^3
# Si number density = 17.149635 Si / 1000 Ang^3
#
#
#
# Elastic Constant Matrix: (Units=GPa)
#
#
# Indices 1 2 3 4 5 6 
#
# 1 63.8626 30.1197 47.4679 0.0000 0.0000 0.0000
# 2 30.1197 84.1321 37.6694 0.0000 0.0000 0.0000
# 3 47.4679 37.6694 75.0992 0.0000 0.0000 0.0000
# 4 0.0000 0.0000 0.0000 24.8817 0.0000 0.0000
# 5 0.0000 0.0000 0.0000 0.0000 26.3083 0.0000
# 6 0.0000 0.0000 0.0000 0.0000 0.0000 30.7078
#
#
#
# Elastic Compliance Matrix: (Units=1/GPa)
#
#
# Indices 1 2 3 4 5 6 
#
# 1 0.030076 -0.002909 -0.017551 0.000000 0.000000 0.000000
# 2 -0.002909 0.015610 -0.005991 0.000000 0.000000 0.000000
# 3 -0.017551 -0.005991 0.027414 0.000000 0.000000 0.000000
# 4 0.000000 0.000000 0.000000 0.040190 0.000000 0.000000
# 5 0.000000 0.000000 0.000000 0.000000 0.038011 0.000000
# 6 0.000000 0.000000 0.000000 0.000000 0.000000 0.032565
#
#
# Mechanical properties :
#
#
# Convention : Reuss Voigt Hill
#
# Bulk Modulus (GPa) = 49.51010 50.40089 49.95549
# Shear Modulus (GPa) = 20.53382 23.56869 22.05126
#
# Velocity S-wave (km/s) = 3.46400 3.71117 3.58972
# Velocity P-wave (km/s) = 6.70308 6.91494 6.80983
#
# Compressibility (1/GPa) = 0.02019790
#
# Stress axis : x y z
#
# Youngs Moduli (GPa) = 33.24938 64.06133 36.47750
#
# Poissons Ratio (x) = 0.18636 0.64021
# Poissons Ratio (y) = 0.09672 0.21854
# Poissons Ratio (z) = 0.58355 0.38380
#
# Static dielectric constant tensor:
#      x y z
#    x 1.567280 0.000000 0.000000 
#    y 0.000000 1.570560 0.000000 
#    z 0.000000 0.000000 1.588600 
# 
# From -- ./inp_files/20000.got.cif
#   From: 2010.05.17/outbox.cif.g08.bks.cpg/sg59_10_cif.got.tgz:20000.got - 2010.06.03 14:40:33.
