data_PCOD9449166
_publ_section_title
;
Structure prediction by ZEFSAII (Michael W. Deem and Ramdas Pophale) SiO2 
 PCOD9449166
Probable space group: P M M N
;
_chemical_formula_sum "Si O2"
_cell_formula_units_Z 56
_cell_length_a 14.279706
_cell_length_b 19.775798
_cell_length_c 10.036256
_cell_angle_alpha 90.000000
_cell_angle_beta 90.000000
_cell_angle_gamma 90.000000
_cell_volume 2834.164239
_symmetry_space_group_name_H-M "P M M N"
_symmetry_group_IT_number 59
_space_group.IT_coordinate_system_code '2'
_symmetry_cell_setting 'orthorhombic'
loop_
_space_group_symop_operation_xyz
x,y,z
1/2-x,1/2-y,z
1/2+x,-y,-z
-x,1/2+y,-z
-x,-y,-z
1/2+x,1/2+y,-z
1/2-x,y,z
x,1/2-y,z
loop_
_atom_site_type_symbol
_atom_site_label
_atom_site_fract_x
_atom_site_fract_y
_atom_site_fract_z
Si Si1 0.857534 0.125252 0.771670
Si Si2 0.637937 0.533577 0.827272
Si Si3 0.638674 0.321193 0.061331
Si Si4 0.637127 0.922728 0.126992
Si Si5 0.523064 0.572434 0.566714
Si Si6 0.861599 0.065466 0.259481
Si Si7 0.544373 0.829744 0.339097
O O1 0.750000 0.129449 0.726265
O O2 0.934187 0.153349 0.672426
O O3 0.876027 0.047531 0.814794
O O4 0.869828 0.168837 0.904978
O O5 0.750000 0.544850 0.815936
O O6 0.584111 0.563972 0.700796
O O7 0.609391 0.561792 0.973433
O O8 0.750000 0.318569 0.088013
O O9 0.595586 0.250000 0.104397
O O10 0.607533 0.386994 0.138133
O O11 0.750000 0.915287 0.127622
O O12 0.590273 0.860304 0.204153
O O13 0.614306 0.989201 0.215514
O O14 0.500000 0.500000 0.500000
O O15 0.419724 0.592776 0.616698
O O16 0.572457 0.623906 0.465285
O O17 0.750000 0.067698 0.279773
O O18 0.561738 0.750000 0.353281
#
# Coordination Sequence:
#
# PCOD9449166 Si02
#       7
#     8   8   8   8   8   8   8
#     4  10  19  35  61  93 127 160 197 243 302 375
#     4  10  21  39  68  98 121 155 210 270 315 359
#     4   9  17  30  51  85 125 159 191 234 295 360
#     4  10  21  41  68  94 119 156 212 271 316 362
#     4  12  24  40  60  91 126 168 206 251 309 377
#     4  10  20  35  60  91 123 161 205 251 300 363
#     4  12  27  43  60  90 127 167 209 255 314 377
#
# _framework density 19.75891
#
# number of rings (size 3 to 8) (size 9 to 14) (size 15 to 20)
#    0.000    1.571    4.286    0.429    2.000    4.571 
#    0.000    0.714    0.000    0.857    0.000    0.000 
#    0.000    0.000    0.000    0.000    0.000    0.000 
#
# Total GULP energy -312381.347184 kJ/mol
# GULP energy per Si atom -5578.238343 kJ/mol
# Density = 1.971394 g / cm^3
# Si number density = 19.758910 Si / 1000 Ang^3
#
#
#
# Elastic Constant Matrix: (Units=GPa)
#
#
# Indices 1 2 3 4 5 6 
#
# 1 48.6547 22.4928 23.4229 0.0000 0.0000 0.0000
# 2 22.4928 123.8656 47.3549 0.0000 0.0000 0.0000
# 3 23.4229 47.3549 86.1218 0.0000 0.0000 0.0000
# 4 0.0000 0.0000 0.0000 -52.1604 0.0000 0.0000
# 5 0.0000 0.0000 0.0000 0.0000 29.7922 0.0000
# 6 0.0000 0.0000 0.0000 0.0000 0.0000 11.3864
#
#
#
# Elastic Compliance Matrix: (Units=1/GPa)
#
#
# Indices 1 2 3 4 5 6 
#
# 1 0.024190 -0.002377 -0.005272 0.000000 0.000000 0.000000
# 2 -0.002377 0.010456 -0.005103 0.000000 0.000000 0.000000
# 3 -0.005272 -0.005103 0.015851 0.000000 0.000000 0.000000
# 4 0.000000 0.000000 0.000000 -0.019172 0.000000 0.000000
# 5 0.000000 0.000000 0.000000 0.000000 0.033566 0.000000
# 6 0.000000 0.000000 0.000000 0.000000 0.000000 0.087824
#
#
# Mechanical properties :
#
#
# Convention : Reuss Voigt Hill
#
# Bulk Modulus (GPa) = 40.01089 49.46482 44.73786
# Shear Modulus (GPa) = 26.80259 8.82841 17.81550
#
# Velocity S-wave (km/s) = 3.68704 2.11607 3.00600
# Velocity P-wave (km/s) = 6.19832 5.57305 5.89398
#
# Compressibility (1/GPa) = 0.02499319
#
# Stress axis : x y z
#
# Youngs Moduli (GPa) = 41.33955 95.64135 63.08740
#
# Poissons Ratio (x) = 0.22735 0.33259
# Poissons Ratio (y) = 0.09827 0.32191
# Poissons Ratio (z) = 0.21794 0.48803
#
# Static dielectric constant tensor:
#      x y z
#    x 1.731610 0.000000 0.000000 
#    y 0.000000 1.707030 0.000000 
#    z 0.000000 0.000000 1.802060 
# 
# From -- ./inp_files/9338.got.cif
#   From: 2010.05.17/outbox.cif.g08.bks.cpg/sg59_5_cif.got.tgz:9338.got - 2010.06.03 14:40:33.
