data_PCOD9449331
_publ_section_title
;
Structure prediction by ZEFSAII (Michael W. Deem and Ramdas Pophale) SiO2 
 PCOD9449331
Probable space group: P M M N
;
_chemical_formula_sum "Si O2"
_cell_formula_units_Z 64
_cell_length_a 8.879328
_cell_length_b 24.776228
_cell_length_c 16.464023
_cell_angle_alpha 90.000000
_cell_angle_beta 90.000000
_cell_angle_gamma 90.000000
_cell_volume 3622.023402
_symmetry_space_group_name_H-M "P M M N"
_symmetry_group_IT_number 59
_space_group.IT_coordinate_system_code '2'
_symmetry_cell_setting 'orthorhombic'
loop_
_space_group_symop_operation_xyz
x,y,z
1/2-x,1/2-y,z
1/2+x,-y,-z
-x,1/2+y,-z
-x,-y,-z
1/2+x,1/2+y,-z
1/2-x,y,z
x,1/2-y,z
loop_
_atom_site_type_symbol
_atom_site_label
_atom_site_fract_x
_atom_site_fract_y
_atom_site_fract_z
Si Si1 0.430605 0.188711 0.284905
Si Si2 0.070132 0.444716 0.033726
Si Si3 0.572281 0.385211 0.607163
Si Si4 0.574488 0.596133 0.136946
Si Si5 0.430256 0.310754 0.477037
Si Si6 0.074650 0.187411 0.740220
Si Si7 0.430385 0.521904 0.273314
Si Si8 0.570659 0.083652 0.207254
O O1 0.250000 0.182384 0.274865
O O2 0.469966 0.250000 0.259628
O O3 0.462749 0.184484 0.381330
O O4 0.514826 0.141668 0.237828
O O5 0.750000 0.549883 0.954356
O O6 0.994543 0.427876 0.117570
O O7 0.000000 0.500000 0.000000
O O8 0.040974 0.404749 0.958129
O O9 0.750000 0.389186 0.594927
O O10 0.497633 0.360390 0.527114
O O11 0.531583 0.340964 0.675376
O O12 0.520934 0.441619 0.649019
O O13 0.750000 0.579011 0.146182
O O14 0.558497 0.654656 0.176571
O O15 0.478077 0.555453 0.192512
O O16 0.250000 0.311495 0.487097
O O17 0.481402 0.250000 0.503911
O O18 0.250000 0.180856 0.713402
O O19 0.043589 0.250000 0.748766
O O20 0.250000 0.516769 0.275108
O O21 0.505466 0.463619 0.265183
O O22 0.750000 0.080559 0.205910
#
# Coordination Sequence:
#
# PCOD9449331 Si02
#       8
#     8   8   8   8   8   8   8   8
#     4   9  20  41  65  85 107 139 181 227 274 324
#     4  11  21  34  55  82 110 140 181 228 272 321
#     4  10  20  31  48  78 111 142 179 223 269 316
#     4   9  18  32  50  74 103 135 177 223 266 314
#     4   9  18  34  57  82 107 140 182 225 270 323
#     4   9  17  30  48  70 101 141 179 215 258 312
#     4  10  20  34  52  75 108 146 182 222 268 320
#     4  12  24  37  57  84 112 143 180 224 278 333
#
# _framework density 17.66968
#
# number of rings (size 3 to 8) (size 9 to 14) (size 15 to 20)
#    0.000    2.125    1.250    3.375    0.000    4.750 
#    0.000    2.500    0.000    2.250    0.000    0.000 
#    0.000    0.000    0.000    0.000    0.000    0.000 
#
# Total GULP energy -356977.877267 kJ/mol
# GULP energy per Si atom -5577.779332 kJ/mol
# Density = 1.762946 g / cm^3
# Si number density = 17.669680 Si / 1000 Ang^3
#
#
#
# Elastic Constant Matrix: (Units=GPa)
#
#
# Indices 1 2 3 4 5 6 
#
# 1 61.3145 47.5273 38.5849 0.0000 0.0000 0.0000
# 2 47.5273 113.6906 51.7579 0.0000 0.0000 0.0000
# 3 38.5849 51.7579 71.3739 0.0000 0.0000 0.0000
# 4 0.0000 0.0000 0.0000 21.0807 0.0000 0.0000
# 5 0.0000 0.0000 0.0000 0.0000 22.6792 0.0000
# 6 0.0000 0.0000 0.0000 0.0000 0.0000 28.2298
#
#
#
# Elastic Compliance Matrix: (Units=1/GPa)
#
#
# Indices 1 2 3 4 5 6 
#
# 1 0.028218 -0.007242 -0.010003 0.000000 0.000000 0.000000
# 2 -0.007242 0.014990 -0.006955 0.000000 0.000000 0.000000
# 3 -0.010003 -0.006955 0.024461 0.000000 0.000000 0.000000
# 4 0.000000 0.000000 0.000000 0.047437 0.000000 0.000000
# 5 0.000000 0.000000 0.000000 0.000000 0.044093 0.000000
# 6 0.000000 0.000000 0.000000 0.000000 0.000000 0.035424
#
#
# Mechanical properties :
#
#
# Convention : Reuss Voigt Hill
#
# Bulk Modulus (GPa) = 51.89584 58.01327 54.95456
# Shear Modulus (GPa) = 20.04447 21.63185 20.83816
#
# Velocity S-wave (km/s) = 3.37174 3.50270 3.43784
# Velocity P-wave (km/s) = 6.67772 7.01869 6.85032
#
# Compressibility (1/GPa) = 0.01926937
#
# Stress axis : x y z
#
# Youngs Moduli (GPa) = 35.43846 66.71314 40.88070
#
# Poissons Ratio (x) = 0.48317 0.40892
# Poissons Ratio (y) = 0.25666 0.28431
# Poissons Ratio (z) = 0.35448 0.46396
#
# Static dielectric constant tensor:
#      x y z
#    x 1.621090 0.000000 0.000000 
#    y 0.000000 1.606400 0.000000 
#    z 0.000000 0.000000 1.606870 
# 
# From -- ./inp_files/21502.got.cif
#   From: 2010.05.17/outbox.cif.g08.bks.cpg/sg59_11_cif.got.tgz:21502.got - 2010.06.03 14:40:33.
