data_PCOD9449218
_publ_section_title
;
Structure prediction by ZEFSAII (Michael W. Deem and Ramdas Pophale) SiO2 
 PCOD9449218
Probable space group: P M M N
;
_chemical_formula_sum "Si O2"
_cell_formula_units_Z 56
_cell_length_a 11.304881
_cell_length_b 22.655845
_cell_length_c 11.648718
_cell_angle_alpha 90.000000
_cell_angle_beta 90.000000
_cell_angle_gamma 90.000000
_cell_volume 2983.488661
_symmetry_space_group_name_H-M "P M M N"
_symmetry_group_IT_number 59
_space_group.IT_coordinate_system_code '2'
_symmetry_cell_setting 'orthorhombic'
loop_
_space_group_symop_operation_xyz
x,y,z
1/2-x,1/2-y,z
1/2+x,-y,-z
-x,1/2+y,-z
-x,-y,-z
1/2+x,1/2+y,-z
1/2-x,y,z
x,1/2-y,z
loop_
_atom_site_type_symbol
_atom_site_label
_atom_site_fract_x
_atom_site_fract_y
_atom_site_fract_z
Si Si1 0.120734 0.118363 0.721489
Si Si2 0.546875 0.492760 0.371121
Si Si3 0.038434 0.095475 0.966502
Si Si4 0.384497 0.494144 0.153353
Si Si5 0.888086 0.179901 0.116353
Si Si6 0.890643 0.179656 0.613668
Si Si7 0.616606 0.360238 0.361411
O O1 0.250000 0.143830 0.686337
O O2 0.112638 0.052311 0.667994
O O3 0.117632 0.113986 0.859357
O O4 0.996495 0.149930 0.686889
O O5 0.500000 0.500000 0.500000
O O6 0.444054 0.485291 0.276611
O O7 0.616124 0.431103 0.365305
O O8 0.951072 0.046681 0.912088
O O9 0.963021 0.148468 0.018657
O O10 0.102994 0.062713 0.071481
O O11 0.250000 0.510462 0.169021
O O12 0.750000 0.160398 0.108455
O O13 0.891386 0.250000 0.106642
O O14 0.937516 0.160889 0.241534
O O15 0.750000 0.160432 0.630789
O O16 0.891646 0.250000 0.630666
O O17 0.927685 0.163938 0.482628
O O18 0.750000 0.336630 0.356248
#
# Coordination Sequence:
#
# PCOD9449218 Si02
#       7
#     8   8   8   8   8   8   8
#     4  11  24  39  60  91 126 161 202 249 303 364
#     4  11  21  37  58  90 120 154 193 244 299 365
#     4  10  21  38  56  82 118 154 200 244 296 353
#     4  10  21  36  58  82 114 156 196 242 298 354
#     4  10  20  35  60  90 116 150 200 253 300 353
#     4  10  22  41  64  88 119 161 206 252 303 364
#     4  10  19  36  60  87 119 151 193 246 304 358
#
# _framework density 18.769971999999999
#
# number of rings (size 3 to 8) (size 9 to 14) (size 15 to 20)
#    0.000    1.714    2.857    1.714    0.000    6.571 
#    0.000    1.429    0.000    1.286    0.000    0.000 
#    0.000    0.000    0.000    0.000    0.000    0.000 
#
# Total GULP energy -312103.970452 kJ/mol
# GULP energy per Si atom -5573.285187 kJ/mol
# Density = 1.872725 g / cm^3
# Si number density = 18.769972 Si / 1000 Ang^3
#
#
#
# Elastic Constant Matrix: (Units=GPa)
#
#
# Indices 1 2 3 4 5 6 
#
# 1 102.9816 20.5806 40.6971 0.0000 0.0000 0.0000
# 2 20.5806 68.1781 20.9756 0.0000 0.0000 0.0000
# 3 40.6971 20.9756 132.1376 0.0000 0.0000 0.0000
# 4 0.0000 0.0000 0.0000 18.1086 0.0000 0.0000
# 5 0.0000 0.0000 0.0000 0.0000 3.7333 0.0000
# 6 0.0000 0.0000 0.0000 0.0000 0.0000 -221.0488
#
#
#
# Elastic Compliance Matrix: (Units=1/GPa)
#
#
# Indices 1 2 3 4 5 6 
#
# 1 0.011445 -0.002492 -0.003129 0.000000 0.000000 0.000000
# 2 -0.002492 0.015963 -0.001766 0.000000 0.000000 0.000000
# 3 -0.003129 -0.001766 0.008812 0.000000 0.000000 0.000000
# 4 0.000000 0.000000 0.000000 0.055222 0.000000 0.000000
# 5 0.000000 0.000000 0.000000 0.000000 0.267858 0.000000
# 6 0.000000 0.000000 0.000000 0.000000 0.000000 -0.004524
#
#
# Mechanical properties :
#
#
# Convention : Reuss Voigt Hill
#
# Bulk Modulus (GPa) = 46.63189 51.97820 49.30505
# Shear Modulus (GPa) = 13.27314 -25.10511 -5.91598
#
# Velocity S-wave (km/s) = 2.66211 -3.66117 -1.77727
# Velocity P-wave (km/s) = 5.86062 3.14326 4.70250
#
# Compressibility (1/GPa) = 0.02144455
#
# Stress axis : x y z
#
# Youngs Moduli (GPa) = 87.37268 62.64398 113.48024
#
# Poissons Ratio (x) = 0.15612 0.35513
# Poissons Ratio (y) = 0.21774 0.20046
# Poissons Ratio (z) = 0.27343 0.11066
#
# Static dielectric constant tensor:
#      x y z
#    x 1.661910 0.000000 0.000000 
#    y 0.000000 1.642830 0.000000 
#    z 0.000000 0.000000 1.674310 
# 
# From -- ./inp_files/16041.got.cif
#   From: 2010.05.17/outbox.cif.g08.bks.cpg/sg59_9_cif.got.tgz:16041.got - 2010.06.03 14:40:33.
