data_PCOD9449627
_publ_section_title
;
Structure prediction by ZEFSAII (Michael W. Deem and Ramdas Pophale) SiO2 
 PCOD9449627
Probable space group: P M M N
;
_chemical_formula_sum "Si O2"
_cell_formula_units_Z 64
_cell_length_a 9.479704
_cell_length_b 14.606790
_cell_length_c 21.771183
_cell_angle_alpha 90.000000
_cell_angle_beta 90.000000
_cell_angle_gamma 90.000000
_cell_volume 3014.613160
_symmetry_space_group_name_H-M "P M M N"
_symmetry_group_IT_number 59
_space_group.IT_coordinate_system_code '2'
_symmetry_cell_setting 'orthorhombic'
loop_
_space_group_symop_operation_xyz
x,y,z
1/2-x,1/2-y,z
1/2+x,-y,-z
-x,1/2+y,-z
-x,-y,-z
1/2+x,1/2+y,-z
1/2-x,y,z
x,1/2-y,z
loop_
_atom_site_type_symbol
_atom_site_label
_atom_site_fract_x
_atom_site_fract_y
_atom_site_fract_z
Si Si1 0.910737 0.362335 0.712348
Si Si2 0.085853 0.608630 0.059791
Si Si3 0.590180 0.360282 0.210128
Si Si4 0.094103 0.354611 0.824110
Si Si5 0.417482 0.925173 0.928201
Si Si6 0.413610 0.362196 0.593489
Si Si7 0.085762 0.137998 0.326804
Si Si8 0.578342 0.857967 0.540334
O O1 0.750000 0.393375 0.713310
O O2 0.907300 0.250000 0.713273
O O3 0.994943 0.396362 0.772153
O O4 0.990743 0.389841 0.650486
O O5 0.250000 0.620850 0.076174
O O6 0.984077 0.649045 0.111008
O O7 0.034345 0.503463 0.062644
O O8 0.066870 0.637900 0.988822
O O9 0.750000 0.389279 0.223188
O O10 0.585131 0.250000 0.211114
O O11 0.558411 0.387729 0.139973
O O12 0.493002 0.393265 0.265735
O O13 0.250000 0.396597 0.828416
O O14 0.112052 0.250000 0.804319
O O15 0.250000 0.954546 0.931838
O O16 0.250000 0.388947 0.602402
O O17 0.414251 0.250000 0.591979
O O18 0.466004 0.394754 0.526353
O O19 0.250000 0.114195 0.322698
O O20 0.078412 0.250000 0.328254
O O21 0.029214 0.105462 0.393497
O O22 0.750000 0.862493 0.540627
O O23 0.541160 0.750000 0.539918
#
# Coordination Sequence:
#
# PCOD9449627 Si02
#       8
#     8   8   8   8   8   8   8   8
#     4   9  16  25  37  56  84 115 147 185 226 265
#     4  10  20  34  53  73  92 117 151 192 233 272
#     4   9  17  29  45  66  92 122 154 186 223 269
#     4  10  20  33  49  69  94 124 155 187 227 277
#     4   9  19  35  52  69  93 124 153 184 227 279
#     4   8  12  19  32  49  72 107 148 183 217 262
#     4   8  13  22  36  55  81 113 148 186 226 264
#     4   7  10  17  30  48  72 106 146 182 217 261
#
# _framework density 21.229921999999998
#
# number of rings (size 3 to 8) (size 9 to 14) (size 15 to 20)
#    0.000    3.250    0.000    2.625    0.000    3.750 
#    0.000    1.875    0.000    5.250    0.000    0.000 
#    0.000    1.000    0.000    3.000    0.000    7.375 
#
# Total GULP energy -356550.170572 kJ/mol
# GULP energy per Si atom -5571.096415 kJ/mol
# Density = 2.118160 g / cm^3
# Si number density = 21.229922 Si / 1000 Ang^3
#
#
#
# Elastic Constant Matrix: (Units=GPa)
#
#
# Indices 1 2 3 4 5 6 
#
# 1 109.0816 4.0231 102.7950 0.0000 0.0000 0.0000
# 2 4.0231 31.2364 3.2362 0.0000 0.0000 0.0000
# 3 102.7950 3.2362 228.0287 0.0000 0.0000 0.0000
# 4 0.0000 0.0000 0.0000 107.4479 0.0000 0.0000
# 5 0.0000 0.0000 0.0000 0.0000 18.7910 0.0000
# 6 0.0000 0.0000 0.0000 0.0000 0.0000 -3.9023
#
#
#
# Elastic Compliance Matrix: (Units=1/GPa)
#
#
# Indices 1 2 3 4 5 6 
#
# 1 0.015992 -0.001315 -0.007191 0.000000 0.000000 0.000000
# 2 -0.001315 0.032169 0.000136 0.000000 0.000000 0.000000
# 3 -0.007191 0.000136 0.007625 0.000000 0.000000 0.000000
# 4 0.000000 0.000000 0.000000 0.009307 0.000000 0.000000
# 5 0.000000 0.000000 0.000000 0.000000 0.053217 0.000000
# 6 0.000000 0.000000 0.000000 0.000000 0.000000 -0.256260
#
#
# Mechanical properties :
#
#
# Convention : Reuss Voigt Hill
#
# Bulk Modulus (GPa) = 25.60959 65.38392 45.49675
# Shear Modulus (GPa) = -46.21248 41.68683 -2.26282
#
# Velocity S-wave (km/s) = -4.67064 4.43605 -1.03353
# Velocity P-wave (km/s) = 4.12278 7.55664 4.47803
#
# Compressibility (1/GPa) = 0.03904787
#
# Stress axis : x y z
#
# Youngs Moduli (GPa) = 62.53100 31.08569 131.14813
#
# Poissons Ratio (x) = 0.04087 0.94303
# Poissons Ratio (y) = 0.08221 -0.01786
# Poissons Ratio (z) = 0.44963 -0.00423
#
# Static dielectric constant tensor:
#      x y z
#    x 1.729630 0.000000 0.000000 
#    y 0.000000 1.878280 0.000000 
#    z 0.000000 0.000000 1.794310 
# 
# From -- ./inp_files/29753.got.cif
#   From: 2010.05.17/outbox.cif.g08.bks.cpg/sg59_15_cif.got.tgz:29753.got - 2010.06.03 14:40:33.
