data_PCOD9449914
_publ_section_title
;
Structure prediction by ZEFSAII (Michael W. Deem and Ramdas Pophale) SiO2 
 PCOD9449914
Probable space group: P M M N
;
_chemical_formula_sum "Si O2"
_cell_formula_units_Z 64
_cell_length_a 32.487882
_cell_length_b 18.254949
_cell_length_c 5.466914
_cell_angle_alpha 90.000000
_cell_angle_beta 90.000000
_cell_angle_gamma 90.000000
_cell_volume 3242.233323
_symmetry_space_group_name_H-M "P M M N"
_symmetry_group_IT_number 59
_space_group.IT_coordinate_system_code '2'
_symmetry_cell_setting 'orthorhombic'
loop_
_space_group_symop_operation_xyz
x,y,z
1/2-x,1/2-y,z
1/2+x,-y,-z
-x,1/2+y,-z
-x,-y,-z
1/2+x,1/2+y,-z
1/2-x,y,z
x,1/2-y,z
loop_
_atom_site_type_symbol
_atom_site_label
_atom_site_fract_x
_atom_site_fract_y
_atom_site_fract_z
Si Si1 0.940385 0.170982 0.795308
Si Si2 0.135104 0.828352 0.563559
Si Si3 0.203889 0.912897 0.311195
Si Si4 0.995789 0.336267 0.395032
Si Si5 0.421222 0.932851 0.820753
Si Si6 0.796948 0.993062 0.185566
Si Si7 0.089451 0.337689 0.287189
Si Si8 0.117672 0.088428 0.783539
O O1 0.936441 0.250000 0.932503
O O2 0.907193 0.179410 0.583331
O O3 0.985969 0.165370 0.684937
O O4 0.928452 0.093056 0.904615
O O5 0.145873 0.750000 0.678155
O O6 0.169697 0.853206 0.374526
O O7 0.121168 0.890902 0.749296
O O8 0.250000 0.881479 0.301937
O O9 0.202121 0.965186 0.552100
O O10 0.197447 0.955333 0.055421
O O11 0.990255 0.250000 0.324793
O O12 0.961858 0.393496 0.293603
O O13 0.041293 0.357766 0.320745
O O14 0.412266 0.016886 0.774313
O O15 0.750000 0.962919 0.162614
O O16 0.835159 0.937937 0.188844
O O17 0.092476 0.250000 0.289878
O O18 0.111951 0.369625 0.527373
O O19 0.105590 0.367760 0.028523
#
# Coordination Sequence:
#
# PCOD9449914 Si02
#       8
#     8   8   8   8   8   8   8   8
#     4   9  18  33  55  81 118 169 216 255 300 354
#     4  10  20  33  51  82 126 172 215 267 307 350
#     4  10  20  36  58  86 124 168 209 254 301 367
#     4   9  21  39  59  84 127 178 215 252 308 370
#     4  11  21  34  60  90 125 159 226 267 306 356
#     4  10  21  40  66  95 127 159 201 251 318 385
#     4  11  27  48  66  92 126 166 205 250 326 405
#     4  12  25  41  72  96 125 162 204 267 319 369
#
# _framework density 19.73948
#
# number of rings (size 3 to 8) (size 9 to 14) (size 15 to 20)
#    0.000    1.750    1.250    3.750    5.250    1.250 
#    0.000    0.000    0.000    4.500    0.000    0.000 
#    0.000    0.000    0.000    0.000    0.000    0.000 
#
# Total GULP energy -356271.124469 kJ/mol
# GULP energy per Si atom -5566.736320 kJ/mol
# Density = 1.969455 g / cm^3
# Si number density = 19.739480 Si / 1000 Ang^3
#
#
#
# Elastic Constant Matrix: (Units=GPa)
#
#
# Indices 1 2 3 4 5 6 
#
# 1 90.0362 21.5726 22.5157 0.0000 0.0000 0.0000
# 2 21.5726 80.0419 25.7603 0.0000 0.0000 0.0000
# 3 22.5157 25.7603 87.0518 0.0000 0.0000 0.0000
# 4 0.0000 0.0000 0.0000 33.2456 0.0000 0.0000
# 5 0.0000 0.0000 0.0000 0.0000 26.3826 0.0000
# 6 0.0000 0.0000 0.0000 0.0000 0.0000 -126.2957
#
#
#
# Elastic Compliance Matrix: (Units=1/GPa)
#
#
# Indices 1 2 3 4 5 6 
#
# 1 0.012324 -0.002537 -0.002437 0.000000 0.000000 0.000000
# 2 -0.002537 0.014331 -0.003585 0.000000 0.000000 0.000000
# 3 -0.002437 -0.003585 0.013178 0.000000 0.000000 0.000000
# 4 0.000000 0.000000 0.000000 0.030079 0.000000 0.000000
# 5 0.000000 0.000000 0.000000 0.000000 0.037904 0.000000
# 6 0.000000 0.000000 0.000000 0.000000 0.000000 -0.007918
#
#
# Mechanical properties :
#
#
# Convention : Reuss Voigt Hill
#
# Bulk Modulus (GPa) = 44.02147 44.09189 44.05668
# Shear Modulus (GPa) = 40.13247 -0.84808 19.64219
#
# Velocity S-wave (km/s) = 4.51389 -0.65618 3.15790
# Velocity P-wave (km/s) = 7.03680 4.67026 5.97193
#
# Compressibility (1/GPa) = 0.02271619
#
# Stress axis : x y z
#
# Youngs Moduli (GPa) = 81.14292 69.77917 75.88171
#
# Poissons Ratio (x) = 0.17705 0.18490
# Poissons Ratio (y) = 0.20588 0.27200
# Poissons Ratio (z) = 0.19772 0.25013
#
# Static dielectric constant tensor:
#      x y z
#    x 1.700070 0.000000 0.000000 
#    y 0.000000 1.738530 0.000000 
#    z 0.000000 0.000000 1.806620 
# 
# From -- ./inp_files/4644.got.cif
#   From: 2010.05.17/outbox.cif.g08.bks.cpg/sg59_3_cif.got.tgz:4644.got - 2010.06.03 14:40:33.
