data_PCOD9449715
_publ_section_title
;
Structure prediction by ZEFSAII (Michael W. Deem and Ramdas Pophale) SiO2 
 PCOD9449715
Probable space group: P M M N
;
_chemical_formula_sum "Si O2"
_cell_formula_units_Z 56
_cell_length_a 19.656265
_cell_length_b 7.718708
_cell_length_c 18.601391
_cell_angle_alpha 90.000000
_cell_angle_beta 90.000000
_cell_angle_gamma 90.000000
_cell_volume 2822.221084
_symmetry_space_group_name_H-M "P M M N"
_symmetry_group_IT_number 59
_space_group.IT_coordinate_system_code '2'
_symmetry_cell_setting 'orthorhombic'
loop_
_space_group_symop_operation_xyz
x,y,z
1/2-x,1/2-y,z
1/2+x,-y,-z
-x,1/2+y,-z
-x,-y,-z
1/2+x,1/2+y,-z
1/2-x,y,z
x,1/2-y,z
loop_
_atom_site_type_symbol
_atom_site_label
_atom_site_fract_x
_atom_site_fract_y
_atom_site_fract_z
Si Si1 0.432256 0.454592 0.420977
Si Si2 0.171941 0.040704 0.711611
Si Si3 0.579518 0.041327 0.997273
Si Si4 0.327771 0.542745 0.872281
Si Si5 0.672462 0.040653 0.703004
Si Si6 0.414472 0.048731 0.578923
Si Si7 0.328178 0.961455 0.133896
O O1 0.445238 0.250000 0.430116
O O2 0.379399 0.480270 0.357284
O O3 0.505254 0.537804 0.405210
O O4 0.405868 0.523938 0.498239
O O5 0.250000 0.981171 0.704953
O O6 0.171663 0.250000 0.709599
O O7 0.127550 0.972805 0.645249
O O8 0.147691 0.991622 0.791269
O O9 0.584693 0.250000 0.996929
O O10 0.618449 0.978546 0.925664
O O11 0.621239 0.976366 0.066806
O O12 0.500000 0.000000 0.000000
O O13 0.250000 0.474953 0.879374
O O14 0.323737 0.750000 0.880957
O O15 0.750000 0.984985 0.687638
O O16 0.671660 0.250000 0.702952
O O17 0.655545 0.983943 0.784466
O O18 0.393810 0.250000 0.574526
O O19 0.250000 0.012515 0.117235
O O20 0.328605 0.750000 0.133656
#
# Coordination Sequence:
#
# PCOD9449715 Si02
#       7
#     8   8   8   8   8   8   8
#     4  10  20  33  51  74 100 131 166 205 248 293
#     4   9  18  33  53  75  97 125 164 205 243 288
#     4  10  20  33  50  73 100 128 160 199 240 284
#     4   9  18  33  52  73  98 128 161 199 244 290
#     4   9  18  33  53  76 100 127 163 205 246 292
#     4   9  19  35  52  70  97 134 170 202 240 292
#     4   8  15  31  54  73  90 123 169 203 229 276
#
# _framework density 19.842528000000001
#
# number of rings (size 3 to 8) (size 9 to 14) (size 15 to 20)
#    0.000    2.857    0.000    1.714    0.000    5.429 
#    0.000    6.429    0.000    3.857    0.000    0.000 
#    0.000    0.000    0.000    0.000    0.000    0.000 
#
# Total GULP energy -312319.228639 kJ/mol
# GULP energy per Si atom -5577.129083 kJ/mol
# Density = 1.979737 g / cm^3
# Si number density = 19.842528 Si / 1000 Ang^3
#
#
#
# Elastic Constant Matrix: (Units=GPa)
#
#
# Indices 1 2 3 4 5 6 
#
# 1 108.0303 -4.0445 119.4728 0.0000 0.0000 0.0000
# 2 -4.0445 30.0931 -0.8773 0.0000 0.0000 0.0000
# 3 119.4728 -0.8773 186.7625 0.0000 0.0000 0.0000
# 4 0.0000 0.0000 0.0000 19.6543 0.0000 0.0000
# 5 0.0000 0.0000 0.0000 0.0000 115.6742 0.0000
# 6 0.0000 0.0000 0.0000 0.0000 0.0000 16.3931
#
#
#
# Elastic Compliance Matrix: (Units=1/GPa)
#
#
# Indices 1 2 3 4 5 6 
#
# 1 0.032052 0.003711 -0.020486 0.000000 0.000000 0.000000
# 2 0.003711 0.033664 -0.002216 0.000000 0.000000 0.000000
# 3 -0.020486 -0.002216 0.018449 0.000000 0.000000 0.000000
# 4 0.000000 0.000000 0.000000 0.050880 0.000000 0.000000
# 5 0.000000 0.000000 0.000000 0.000000 0.008645 0.000000
# 6 0.000000 0.000000 0.000000 0.000000 0.000000 0.061001
#
#
# Mechanical properties :
#
#
# Convention : Reuss Voigt Hill
#
# Bulk Modulus (GPa) = 21.65310 61.55419 41.60365
# Shear Modulus (GPa) = 19.37482 44.36665 31.87074
#
# Velocity S-wave (km/s) = 3.12818 4.73370 4.01207
# Velocity P-wave (km/s) = 4.89729 7.80807 6.51726
#
# Compressibility (1/GPa) = 0.04618276
#
# Stress axis : x y z
#
# Youngs Moduli (GPa) = 31.19974 29.70505 54.20338
#
# Poissons Ratio (x) = -0.11022 1.11042
# Poissons Ratio (y) = -0.11577 0.12009
# Poissons Ratio (z) = 0.63916 0.06581
#
# Static dielectric constant tensor:
#      x y z
#    x 1.663070 0.000000 0.000000 
#    y 0.000000 1.751160 0.000000 
#    z 0.000000 0.000000 1.705130 
# 
# From -- ./inp_files/24229.got.cif
#   From: 2010.05.17/outbox.cif.g08.bks.cpg/sg59_13_cif.got.tgz:24229.got - 2010.06.03 14:40:33.
