data_PCOD9449623
_publ_section_title
;
Structure prediction by ZEFSAII (Michael W. Deem and Ramdas Pophale) SiO2 
 PCOD9449623
Probable space group: P M M N
;
_chemical_formula_sum "Si O2"
_cell_formula_units_Z 64
_cell_length_a 14.153417
_cell_length_b 9.516289
_cell_length_c 21.266835
_cell_angle_alpha 90.000000
_cell_angle_beta 90.000000
_cell_angle_gamma 90.000000
_cell_volume 2864.387611
_symmetry_space_group_name_H-M "P M M N"
_symmetry_group_IT_number 59
_space_group.IT_coordinate_system_code '2'
_symmetry_cell_setting 'orthorhombic'
loop_
_space_group_symop_operation_xyz
x,y,z
1/2-x,1/2-y,z
1/2+x,-y,-z
-x,1/2+y,-z
-x,-y,-z
1/2+x,1/2+y,-z
1/2-x,y,z
x,1/2-y,z
loop_
_atom_site_type_symbol
_atom_site_label
_atom_site_fract_x
_atom_site_fract_y
_atom_site_fract_z
Si Si1 0.135543 0.911037 0.788872
Si Si2 0.865416 0.912946 0.471860
Si Si3 0.365431 0.588964 0.407788
Si Si4 0.134197 0.411269 0.285684
Si Si5 0.140024 0.592633 0.169121
Si Si6 0.865296 0.911921 0.330987
Si Si7 0.616737 0.590475 0.954155
Si Si8 0.604808 0.089579 0.069932
O O1 0.250000 0.910968 0.787521
O O2 0.102858 0.750000 0.785118
O O3 0.109199 0.964146 0.858451
O O4 0.103434 0.995944 0.727846
O O5 0.750000 0.914541 0.472393
O O6 0.892592 0.750000 0.482537
O O7 0.894716 0.956378 0.401356
O O8 0.896311 0.013892 0.527978
O O9 0.250000 0.590385 0.408160
O O10 0.396976 0.750000 0.403896
O O11 0.393528 0.499767 0.346898
O O12 0.250000 0.407374 0.284958
O O13 0.102904 0.250000 0.288295
O O14 0.100563 0.490715 0.222908
O O15 0.250000 0.609651 0.186304
O O16 0.098029 0.750000 0.166172
O O17 0.139864 0.513233 0.102975
O O18 0.750000 0.915087 0.331230
O O19 0.893405 0.750000 0.322223
O O20 0.651104 0.750000 0.946321
O O21 0.503682 0.601128 0.950359
O O22 0.646256 0.517548 0.019196
O O23 0.643663 0.250000 0.068414
#
# Coordination Sequence:
#
# PCOD9449623 Si02
#       8
#     8   8   8   8   8   8   8   8
#     4   9  17  29  46  67  91 120 152 185 224 271
#     4   8  13  21  32  47  72 109 148 182 219 263
#     4   9  15  21  31  50  77 110 148 186 222 262
#     4   9  16  26  40  58  83 115 149 184 223 269
#     4  10  20  33  49  69  94 122 151 188 234 280
#     4   8  14  24  37  55  82 114 147 185 227 267
#     4  10  20  34  52  71  92 120 154 191 228 271
#     4   9  19  35  51  69  95 124 153 187 229 274
#
# _framework density 22.343344999999999
#
# number of rings (size 3 to 8) (size 9 to 14) (size 15 to 20)
#    0.000    3.000    0.000    2.250    0.000    5.750 
#    0.000    3.750    0.000    0.000    0.000    0.000 
#    0.000    1.000    0.000    3.000    0.000    6.375 
#
# Total GULP energy -357506.610638 kJ/mol
# GULP energy per Si atom -5586.040791 kJ/mol
# Density = 2.229249 g / cm^3
# Si number density = 22.343345 Si / 1000 Ang^3
#
#
#
# Elastic Constant Matrix: (Units=GPa)
#
#
# Indices 1 2 3 4 5 6 
#
# 1 64.8031 4.6619 1.1997 0.0000 0.0000 0.0000
# 2 4.6619 186.7739 144.7465 0.0000 0.0000 0.0000
# 3 1.1997 144.7465 246.4074 0.0000 0.0000 0.0000
# 4 0.0000 0.0000 0.0000 43.2098 0.0000 0.0000
# 5 0.0000 0.0000 0.0000 0.0000 24.4552 0.0000
# 6 0.0000 0.0000 0.0000 0.0000 0.0000 0.5232
#
#
#
# Elastic Compliance Matrix: (Units=1/GPa)
#
#
# Indices 1 2 3 4 5 6 
#
# 1 0.015469 -0.000602 0.000278 0.000000 0.000000 0.000000
# 2 -0.000602 0.009852 -0.005784 0.000000 0.000000 0.000000
# 3 0.000278 -0.005784 0.007455 0.000000 0.000000 0.000000
# 4 0.000000 0.000000 0.000000 0.023143 0.000000 0.000000
# 5 0.000000 0.000000 0.000000 0.000000 0.040891 0.000000
# 6 0.000000 0.000000 0.000000 0.000000 0.000000 1.911478
#
#
# Mechanical properties :
#
#
# Convention : Reuss Voigt Hill
#
# Bulk Modulus (GPa) = 48.63708 88.80005 68.71857
# Shear Modulus (GPa) = 2.46627 36.79605 19.63116
#
# Velocity S-wave (km/s) = 1.05176 4.06254 2.96736
# Velocity P-wave (km/s) = 4.82600 7.86354 6.52401
#
# Compressibility (1/GPa) = 0.02056044
#
# Stress axis : x y z
#
# Youngs Moduli (GPa) = 64.64339 101.50415 134.14137
#
# Poissons Ratio (x) = 0.06107 -0.03731
# Poissons Ratio (y) = 0.03889 0.77591
# Poissons Ratio (z) = -0.01798 0.58713
#
# Static dielectric constant tensor:
#      x y z
#    x 1.907630 0.000000 0.000000 
#    y 0.000000 1.783970 0.000000 
#    z 0.000000 0.000000 1.775290 
# 
# From -- ./inp_files/30668.got.cif
#   From: 2010.05.17/outbox.cif.g08.bks.cpg/sg59_16_cif.got.tgz:30668.got - 2010.06.03 14:40:33.
