data_PCOD9449354
_publ_section_title
;
Structure prediction by ZEFSAII (Michael W. Deem and Ramdas Pophale) SiO2 
 PCOD9449354
Probable space group: P M M N
;
_chemical_formula_sum "Si O2"
_cell_formula_units_Z 64
_cell_length_a 9.351152
_cell_length_b 15.027195
_cell_length_c 22.084653
_cell_angle_alpha 90.000000
_cell_angle_beta 90.000000
_cell_angle_gamma 90.000000
_cell_volume 3103.370434
_symmetry_space_group_name_H-M "P M M N"
_symmetry_group_IT_number 59
_space_group.IT_coordinate_system_code '2'
_symmetry_cell_setting 'orthorhombic'
loop_
_space_group_symop_operation_xyz
x,y,z
1/2-x,1/2-y,z
1/2+x,-y,-z
-x,1/2+y,-z
-x,-y,-z
1/2+x,1/2+y,-z
1/2-x,y,z
x,1/2-y,z
loop_
_atom_site_type_symbol
_atom_site_label
_atom_site_fract_x
_atom_site_fract_y
_atom_site_fract_z
Si Si1 0.912385 0.899202 0.122955
Si Si2 0.086083 0.609056 0.371601
Si Si3 0.576806 0.403815 0.495606
Si Si4 0.583874 0.608947 0.622954
Si Si5 0.583504 0.606165 0.254706
Si Si6 0.910270 0.145308 0.995218
Si Si7 0.918341 0.110458 0.258135
Si Si8 0.913395 0.111624 0.126433
O O1 0.750000 0.865418 0.115379
O O2 0.971366 0.865950 0.187965
O O3 0.002385 0.883762 0.063039
O O4 0.904433 0.005400 0.129990
O O5 0.250000 0.633525 0.361156
O O6 0.045314 0.640065 0.439170
O O7 0.079953 0.500156 0.374445
O O8 0.994566 0.639430 0.314550
O O9 0.500000 0.500000 0.500000
O O10 0.750000 0.412317 0.490360
O O11 0.508027 0.362549 0.435483
O O12 0.750000 0.634174 0.617836
O O13 0.510828 0.640709 0.684978
O O14 0.750000 0.630049 0.256606
O O15 0.575593 0.497919 0.257966
O O16 0.750000 0.103646 0.995564
O O17 0.895137 0.250000 0.989311
O O18 0.980833 0.130627 0.061191
O O19 0.750000 0.133739 0.264356
O O20 0.971268 0.141219 0.191695
O O21 0.750000 0.146641 0.122873
#
# Coordination Sequence:
#
# PCOD9449354 Si02
#       8
#     8   8   8   8   8   8   8   8
#     4   9  17  30  47  65  84 110 146 182 215 255
#     4   8  14  21  29  44  67  95 128 165 201 239
#     4   9  15  21  28  41  64  97 135 169 202 243
#     4   9  15  21  29  45  69  96 129 168 206 245
#     4   8  14  23  36  53  71  94 128 169 208 245
#     4  10  20  32  46  66  91 116 141 173 216 263
#     4   8  13  23  38  52  69  97 131 168 208 246
#     4   8  15  29  47  65  85 111 145 181 216 258
#
# _framework density 20.622741000000001
#
# number of rings (size 3 to 8) (size 9 to 14) (size 15 to 20)
#    0.000    3.375    0.000    3.375    0.000    4.250 
#    0.000    2.500    0.000    0.000    0.000    0.000 
#    0.000    0.000    0.000    1.125    0.000   18.750 
#
# Total GULP energy -356390.800961 kJ/mol
# GULP energy per Si atom -5568.606265 kJ/mol
# Density = 2.057580 g / cm^3
# Si number density = 20.622741 Si / 1000 Ang^3
#
#
#
# Elastic Constant Matrix: (Units=GPa)
#
#
# Indices 1 2 3 4 5 6 
#
# 1 75.3328 3.7713 101.9681 0.0000 0.0000 0.0000
# 2 3.7713 43.2857 13.5588 0.0000 0.0000 0.0000
# 3 101.9681 13.5588 271.3430 0.0000 0.0000 0.0000
# 4 0.0000 0.0000 0.0000 -33.6679 0.0000 0.0000
# 5 0.0000 0.0000 0.0000 0.0000 60.1707 0.0000
# 6 0.0000 0.0000 0.0000 0.0000 0.0000 -9.4555
#
#
#
# Elastic Compliance Matrix: (Units=1/GPa)
#
#
# Indices 1 2 3 4 5 6 
#
# 1 0.027047 0.000840 -0.010206 0.000000 0.000000 0.000000
# 2 0.000840 0.023496 -0.001490 0.000000 0.000000 0.000000
# 3 -0.010206 -0.001490 0.007595 0.000000 0.000000 0.000000
# 4 0.000000 0.000000 0.000000 -0.029702 0.000000 0.000000
# 5 0.000000 0.000000 0.000000 0.000000 0.016619 0.000000
# 6 0.000000 0.000000 0.000000 0.000000 0.000000 -0.105759
#
#
# Mechanical properties :
#
#
# Convention : Reuss Voigt Hill
#
# Bulk Modulus (GPa) = 27.45226 69.83979 48.64603
# Shear Modulus (GPa) = -186.21556 21.45367 -82.38095
#
# Velocity S-wave (km/s) = -9.51274 3.22886 -6.32719
# Velocity P-wave (km/s) = 10.35933 6.91662 5.45326
#
# Compressibility (1/GPa) = 0.03642687
#
# Stress axis : x y z
#
# Youngs Moduli (GPa) = 36.97304 42.56084 131.66380
#
# Poissons Ratio (x) = -0.03577 1.34375
# Poissons Ratio (y) = -0.03107 0.19616
# Poissons Ratio (z) = 0.37734 0.06341
#
# Static dielectric constant tensor:
#      x y z
#    x 1.907470 0.000000 0.000000 
#    y 0.000000 1.766760 0.000000 
#    z 0.000000 0.000000 1.791230 
# 
# From -- ./inp_files/29743.got.cif
#   From: 2010.05.17/outbox.cif.g08.bks.cpg/sg59_15_cif.got.tgz:29743.got - 2010.06.03 14:40:33.
