data_PCOD9449907
_publ_section_title
;
Structure prediction by ZEFSAII (Michael W. Deem and Ramdas Pophale) SiO2 
 PCOD9449907
Probable space group: P M M N
;
_chemical_formula_sum "Si O2"
_cell_formula_units_Z 56
_cell_length_a 23.218854
_cell_length_b 8.621723
_cell_length_c 14.338557
_cell_angle_alpha 90.000000
_cell_angle_beta 90.000000
_cell_angle_gamma 90.000000
_cell_volume 2870.385936
_symmetry_space_group_name_H-M "P M M N"
_symmetry_group_IT_number 59
_space_group.IT_coordinate_system_code '2'
_symmetry_cell_setting 'orthorhombic'
loop_
_space_group_symop_operation_xyz
x,y,z
1/2-x,1/2-y,z
1/2+x,-y,-z
-x,1/2+y,-z
-x,-y,-z
1/2+x,1/2+y,-z
1/2-x,y,z
x,1/2-y,z
loop_
_atom_site_type_symbol
_atom_site_label
_atom_site_fract_x
_atom_site_fract_y
_atom_site_fract_z
Si Si1 0.315929 0.065095 0.629169
Si Si2 0.105646 0.929449 0.467063
Si Si3 0.098469 0.564603 0.767828
Si Si4 0.437362 0.563057 0.974042
Si Si5 0.114988 0.564577 0.167465
Si Si6 0.317371 0.074786 0.318951
Si Si7 0.515739 0.063581 0.679841
O O1 0.250000 0.009379 0.612030
O O2 0.314268 0.250000 0.630130
O O3 0.361952 0.014477 0.550589
O O4 0.343166 0.003247 0.724959
O O5 0.097575 0.750000 0.492315
O O6 0.047294 0.988082 0.416032
O O7 0.150894 0.949550 0.382490
O O8 0.102030 0.750000 0.767818
O O9 0.084274 0.509666 0.872897
O O10 0.044718 0.513522 0.703235
O O11 0.440767 0.750000 0.971174
O O12 0.500000 0.500000 0.000000
O O13 0.397174 0.521046 0.061260
O O14 0.124985 0.750000 0.172777
O O15 0.166157 0.469327 0.214135
O O16 0.059040 0.531479 0.233175
O O17 0.250000 0.070619 0.335561
O O18 0.338095 0.250000 0.341230
O O19 0.508878 0.250000 0.674606
#
# Coordination Sequence:
#
# PCOD9449907 Si02
#       7
#     8   8   8   8   8   8   8
#     4  11  25  44  63  82 109 151 199 242 285 336
#     4  10  21  37  60  87 115 149 188 233 286 343
#     4  11  23  37  59  89 117 150 192 237 288 340
#     4  10  20  35  57  86 115 147 188 231 281 342
#     4   9  18  33  53  79 113 149 187 230 278 334
#     4  10  20  33  51  79 114 149 188 234 282 336
#     4   9  18  34  56  85 120 151 180 225 285 342
#
# _framework density 19.509571999999999
#
# number of rings (size 3 to 8) (size 9 to 14) (size 15 to 20)
#    0.000    2.000    1.429    3.000    0.000    8.571 
#    0.000    0.714    0.000    4.286    0.000    0.000 
#    0.000    0.000    0.000    0.000    0.000    0.000 
#
# Total GULP energy -312492.703124 kJ/mol
# GULP energy per Si atom -5580.226842 kJ/mol
# Density = 1.946517 g / cm^3
# Si number density = 19.509572 Si / 1000 Ang^3
#
#
#
# Elastic Constant Matrix: (Units=GPa)
#
#
# Indices 1 2 3 4 5 6 
#
# 1 37.1736 12.7131 43.0753 0.0000 0.0000 0.0000
# 2 12.7131 17.9314 15.5831 0.0000 0.0000 0.0000
# 3 43.0753 15.5831 121.6239 0.0000 0.0000 0.0000
# 4 0.0000 0.0000 0.0000 21.8871 0.0000 0.0000
# 5 0.0000 0.0000 0.0000 0.0000 20.8882 0.0000
# 6 0.0000 0.0000 0.0000 0.0000 0.0000 28.3669
#
#
#
# Elastic Compliance Matrix: (Units=1/GPa)
#
#
# Indices 1 2 3 4 5 6 
#
# 1 0.053562 -0.024182 -0.015872 0.000000 0.000000 0.000000
# 2 -0.024182 0.073673 -0.000875 0.000000 0.000000 0.000000
# 3 -0.015872 -0.000875 0.013955 0.000000 0.000000 0.000000
# 4 0.000000 0.000000 0.000000 0.045689 0.000000 0.000000
# 5 0.000000 0.000000 0.000000 0.000000 0.047874 0.000000
# 6 0.000000 0.000000 0.000000 0.000000 0.000000 0.035252
#
#
# Mechanical properties :
#
#
# Convention : Reuss Voigt Hill
#
# Bulk Modulus (GPa) = 16.85380 35.49686 26.17533
# Shear Modulus (GPa) = 13.45384 21.25228 17.35306
#
# Velocity S-wave (km/s) = 2.62888 3.30407 2.98562
# Velocity P-wave (km/s) = 4.22755 5.72625 5.03300
#
# Compressibility (1/GPa) = 0.05933381
#
# Stress axis : x y z
#
# Youngs Moduli (GPa) = 18.66979 13.57351 71.65653
#
# Poissons Ratio (x) = 0.32823 1.13732
# Poissons Ratio (y) = 0.45147 0.06270
# Poissons Ratio (z) = 0.29632 0.01188
#
# Static dielectric constant tensor:
#      x y z
#    x 1.684340 0.000000 0.000000 
#    y 0.000000 1.677580 0.000000 
#    z 0.000000 0.000000 1.724480 
# 
# From -- ./inp_files/24195.got.cif
#   From: 2010.05.17/outbox.cif.g08.bks.cpg/sg59_13_cif.got.tgz:24195.got - 2010.06.03 14:40:33.
