data_PCOD9449966
_publ_section_title
;
Structure prediction by ZEFSAII (Michael W. Deem and Ramdas Pophale) SiO2 
 PCOD9449966
Probable space group: P M M N
;
_chemical_formula_sum "Si O2"
_cell_formula_units_Z 56
_cell_length_a 7.445727
_cell_length_b 13.950677
_cell_length_c 21.300770
_cell_angle_alpha 90.000000
_cell_angle_beta 90.000000
_cell_angle_gamma 90.000000
_cell_volume 2212.573442
_symmetry_space_group_name_H-M "P M M N"
_symmetry_group_IT_number 59
_space_group.IT_coordinate_system_code '2'
_symmetry_cell_setting 'orthorhombic'
loop_
_space_group_symop_operation_xyz
x,y,z
1/2-x,1/2-y,z
1/2+x,-y,-z
-x,1/2+y,-z
-x,-y,-z
1/2+x,1/2+y,-z
1/2-x,y,z
x,1/2-y,z
loop_
_atom_site_type_symbol
_atom_site_label
_atom_site_fract_x
_atom_site_fract_y
_atom_site_fract_z
Si Si1 0.965088 0.113607 0.506416
Si Si2 0.961079 0.433684 0.772094
Si Si3 0.543670 0.647968 0.768038
Si Si4 0.960718 0.564240 0.091451
Si Si5 0.458285 0.613971 0.358556
Si Si6 0.967805 0.388976 0.370741
Si Si7 0.466396 0.142616 0.041532
O O1 0.750000 0.128850 0.508344
O O2 0.036629 0.146822 0.574222
O O3 0.027632 0.149233 0.438498
O O4 0.000000 0.000000 0.500000
O O5 0.750000 0.446250 0.757516
O O6 0.039529 0.542211 0.777195
O O7 0.032982 0.373720 0.712302
O O8 0.972656 0.395209 0.842413
O O9 0.750000 0.644505 0.791577
O O10 0.466136 0.750000 0.791253
O O11 0.542440 0.654492 0.692571
O O12 0.750000 0.580947 0.091052
O O13 0.033879 0.613185 0.028172
O O14 0.990088 0.449265 0.084525
O O15 0.250000 0.644292 0.358134
O O16 0.472586 0.499361 0.365961
O O17 0.750000 0.383310 0.368509
O O18 0.250000 0.145780 0.039897
O O19 0.528275 0.250000 0.058291
#
# Coordination Sequence:
#
# PCOD9449966 Si02
#       7
#     8   8   8   8   8   8   8
#     4   8  13  21  34  53  76 101 132 173 220 269
#     4   9  17  29  45  65  92 127 161 192 232 284
#     4   9  18  31  43  55  78 119 166 200 230 283
#     4  10  20  33  52  80 108 130 160 205 248 283
#     4   8  14  25  39  55  79 113 148 177 213 270
#     4   9  15  22  35  56  79 102 135 186 241 279
#     4   9  19  37  58  77 101 135 168 195 233 291
#
# _framework density 25.309895000000001
#
# number of rings (size 3 to 8) (size 9 to 14) (size 15 to 20)
#    0.000    3.143    0.000    1.714    0.000    4.571 
#    0.000    1.429    0.000    0.000    0.000    1.000 
#    0.000    5.714    0.000    0.000    0.000    0.000 
#
# Total GULP energy -312079.486982 kJ/mol
# GULP energy per Si atom -5572.847982 kJ/mol
# Density = 2.525229 g / cm^3
# Si number density = 25.309895 Si / 1000 Ang^3
#
#
#
# Elastic Constant Matrix: (Units=GPa)
#
#
# Indices 1 2 3 4 5 6 
#
# 1 91.4873 -6.1758 0.4055 0.0000 0.0000 0.0000
# 2 -6.1758 90.1925 5.6222 0.0000 0.0000 0.0000
# 3 0.4055 5.6222 227.2485 0.0000 0.0000 0.0000
# 4 0.0000 0.0000 0.0000 -93.0305 0.0000 0.0000
# 5 0.0000 0.0000 0.0000 0.0000 21.0821 0.0000
# 6 0.0000 0.0000 0.0000 0.0000 0.0000 -18.2923
#
#
#
# Elastic Compliance Matrix: (Units=1/GPa)
#
#
# Indices 1 2 3 4 5 6 
#
# 1 0.010982 0.000754 -0.000038 0.000000 0.000000 0.000000
# 2 0.000754 0.011156 -0.000277 0.000000 0.000000 0.000000
# 3 -0.000038 -0.000277 0.004407 0.000000 0.000000 0.000000
# 4 0.000000 0.000000 0.000000 -0.010749 0.000000 0.000000
# 5 0.000000 0.000000 0.000000 0.000000 0.047434 0.000000
# 6 0.000000 0.000000 0.000000 0.000000 0.000000 -0.054668
#
#
# Mechanical properties :
#
#
# Convention : Reuss Voigt Hill
#
# Bulk Modulus (GPa) = 36.46610 45.40356 40.93483
# Shear Modulus (GPa) = 297.16809 9.22361 153.19585
#
# Velocity S-wave (km/s) = 10.84743 1.91107 7.78842
# Velocity P-wave (km/s) = 13.08924 4.77991 9.85332
#
# Compressibility (1/GPa) = 0.02742273
#
# Stress axis : x y z
#
# Youngs Moduli (GPa) = 91.06171 89.63517 226.89116
#
# Poissons Ratio (x) = -0.06761 0.00868
# Poissons Ratio (y) = -0.06869 0.06293
# Poissons Ratio (z) = 0.00348 0.02486
#
# Static dielectric constant tensor:
#      x y z
#    x 1.938820 0.000000 0.000000 
#    y 0.000000 2.023270 0.000000 
#    z 0.000000 0.000000 2.056060 
# 
# From -- ./inp_files/29335.got.cif
#   From: 2010.05.17/outbox.cif.g08.bks.cpg/sg59_15_cif.got.tgz:29335.got - 2010.06.03 14:40:33.
