data_PCOD9449571
_publ_section_title
;
Structure prediction by ZEFSAII (Michael W. Deem and Ramdas Pophale) SiO2 
 PCOD9449571
Probable space group: P M M N
;
_chemical_formula_sum "Si O2"
_cell_formula_units_Z 48
_cell_length_a 7.939021
_cell_length_b 16.595937
_cell_length_c 17.620043
_cell_angle_alpha 90.000000
_cell_angle_beta 90.000000
_cell_angle_gamma 90.000000
_cell_volume 2321.537441
_symmetry_space_group_name_H-M "P M M N"
_symmetry_group_IT_number 59
_space_group.IT_coordinate_system_code '2'
_symmetry_cell_setting 'orthorhombic'
loop_
_space_group_symop_operation_xyz
x,y,z
1/2-x,1/2-y,z
1/2+x,-y,-z
-x,1/2+y,-z
-x,-y,-z
1/2+x,1/2+y,-z
1/2-x,y,z
x,1/2-y,z
loop_
_atom_site_type_symbol
_atom_site_label
_atom_site_fract_x
_atom_site_fract_y
_atom_site_fract_z
Si Si1 0.044477 0.342553 0.491079
Si Si2 0.050844 0.413600 0.033526
Si Si3 0.952587 0.927184 0.660086
Si Si4 0.545503 0.750000 0.228261
Si Si5 0.052645 0.750000 0.052707
Si Si6 0.043634 0.157805 0.188056
Si Si7 0.952914 0.609979 0.340732
O O1 0.250000 0.346419 0.492597
O O2 0.999193 0.250000 0.475815
O O3 0.983889 0.398192 0.422142
O O4 0.985138 0.367246 0.574794
O O5 0.250000 0.417172 0.040487
O O6 0.013247 0.333426 0.984119
O O7 0.982161 0.396620 0.118238
O O8 0.000000 0.500000 0.000000
O O9 0.750000 0.919761 0.657750
O O10 0.013490 0.873036 0.730002
O O11 0.997539 0.019054 0.675589
O O12 0.750000 0.750000 0.226310
O O13 0.484899 0.750000 0.142289
O O14 0.488823 0.827641 0.276726
O O15 0.250000 0.750000 0.039806
O O16 0.250000 0.156003 0.188720
O O17 0.993945 0.250000 0.174567
O O18 0.750000 0.616128 0.342670
#
# Coordination Sequence:
#
# PCOD9449571 Si02
#       7
#     8   8   8   4   4   8   8
#     4   9  16  31  55  81 110 148 194 234 275 339
#     4  11  23  42  66  93 127 164 204 253 309 371
#     4  10  20  32  55  87 115 145 188 238 286 339
#     4  10  22  40  60  81 110 154 198 241 298 356
#     4  12  26  44  66  93 122 158 208 261 314 374
#     4   9  18  36  60  85 115 151 190 236 288 345
#     4  10  20  36  56  79 112 152 192 236 288 347
#
# _framework density 20.675951999999999
#
# number of rings (size 3 to 8) (size 9 to 14) (size 15 to 20)
#    0.000    2.000    1.667    2.250    2.333    2.667 
#    0.000    0.833    0.000    2.500    0.000    0.000 
#    0.000    0.000    0.000    0.000    0.000    0.000 
#
# Total GULP energy -268057.872096 kJ/mol
# GULP energy per Si atom -5584.539002 kJ/mol
# Density = 2.062889 g / cm^3
# Si number density = 20.675952 Si / 1000 Ang^3
#
#
#
# Elastic Constant Matrix: (Units=GPa)
#
#
# Indices 1 2 3 4 5 6 
#
# 1 19.2534 -1.9852 0.6724 0.0000 0.0000 0.0000
# 2 -1.9852 100.9522 24.0916 0.0000 0.0000 0.0000
# 3 0.6724 24.0916 103.9451 0.0000 0.0000 0.0000
# 4 0.0000 0.0000 0.0000 208.6644 0.0000 0.0000
# 5 0.0000 0.0000 0.0000 0.0000 5.0180 0.0000
# 6 0.0000 0.0000 0.0000 0.0000 0.0000 25.5930
#
#
#
# Elastic Compliance Matrix: (Units=1/GPa)
#
#
# Indices 1 2 3 4 5 6 
#
# 1 0.052081 0.001169 -0.000608 0.000000 0.000000 0.000000
# 2 0.001169 0.010512 -0.002444 0.000000 0.000000 0.000000
# 3 -0.000608 -0.002444 0.010191 0.000000 0.000000 0.000000
# 4 0.000000 0.000000 0.000000 0.004792 0.000000 0.000000
# 5 0.000000 0.000000 0.000000 0.000000 0.199284 0.000000
# 6 0.000000 0.000000 0.000000 0.000000 0.000000 0.039073
#
#
# Mechanical properties :
#
#
# Convention : Reuss Voigt Hill
#
# Bulk Modulus (GPa) = 14.48895 29.96759 22.22827
# Shear Modulus (GPa) = 14.58984 61.27987 37.93485
#
# Velocity S-wave (km/s) = 2.65928 5.45001 4.28803
# Velocity P-wave (km/s) = 4.05609 7.35723 5.94057
#
# Compressibility (1/GPa) = 0.06901809
#
# Stress axis : x y z
#
# Youngs Moduli (GPa) = 19.20102 95.13031 98.12739
#
# Poissons Ratio (x) = -0.11123 0.05965
# Poissons Ratio (y) = -0.02245 0.23982
# Poissons Ratio (z) = 0.01167 0.23249
#
# Static dielectric constant tensor:
#      x y z
#    x 1.750920 0.000000 0.000000 
#    y 0.000000 1.670040 0.000000 
#    z 0.000000 0.000000 1.749790 
# 
# From -- ./inp_files/25617.got.cif
#   From: 2010.05.17/outbox.cif.g08.bks.cpg/sg59_13_cif.got.tgz:25617.got - 2010.06.03 14:40:33.
