data_PCOD9449186
_publ_section_title
;
Structure prediction by ZEFSAII (Michael W. Deem and Ramdas Pophale) SiO2 
 PCOD9449186
Probable space group: P M M N
;
_chemical_formula_sum "Si O2"
_cell_formula_units_Z 48
_cell_length_a 13.031983
_cell_length_b 13.403855
_cell_length_c 12.048068
_cell_angle_alpha 90.000000
_cell_angle_beta 90.000000
_cell_angle_gamma 90.000000
_cell_volume 2104.542187
_symmetry_space_group_name_H-M "P M M N"
_symmetry_group_IT_number 59
_space_group.IT_coordinate_system_code '2'
_symmetry_cell_setting 'orthorhombic'
loop_
_space_group_symop_operation_xyz
x,y,z
1/2-x,1/2-y,z
1/2+x,-y,-z
-x,1/2+y,-z
-x,-y,-z
1/2+x,1/2+y,-z
1/2-x,y,z
x,1/2-y,z
loop_
_atom_site_type_symbol
_atom_site_label
_atom_site_fract_x
_atom_site_fract_y
_atom_site_fract_z
Si Si1 0.638047 0.928077 0.318659
Si Si2 0.628146 0.919299 0.568115
Si Si3 0.924161 0.355285 0.315182
Si Si4 0.978422 0.858286 0.911475
Si Si5 0.051054 0.922134 0.149285
Si Si6 0.133450 0.641938 0.367262
O O1 0.750000 0.897012 0.278031
O O2 0.620535 0.883556 0.440874
O O3 0.551672 0.913762 0.226191
O O4 0.636570 0.046392 0.344544
O O5 0.750000 0.910070 0.599900
O O6 0.541786 0.865101 0.641035
O O7 0.596083 0.036484 0.583268
O O8 0.881245 0.250000 0.353950
O O9 0.933745 0.355155 0.182151
O O10 0.924255 0.750000 0.905285
O O11 0.026496 0.871371 0.032935
O O12 0.922371 0.962296 0.879967
O O13 0.130541 0.874125 0.234010
O O14 0.250000 0.647285 0.404966
O O15 0.083955 0.750000 0.390797
#
# Coordination Sequence:
#
# PCOD9449186 Si02
#       6
#     8   8   8   8   8   8
#     4  10  21  37  56  80 115 153 188 229 279 332
#     4  10  20  37  57  82 116 145 182 232 281 337
#     4  10  20  36  59  84 112 147 188 230 282 338
#     4   9  18  34  56  82 110 147 191 233 280 333
#     4  10  19  36  58  79 115 152 184 235 280 336
#     4  10  20  34  56  86 113 141 183 230 281 338
#
# _framework density 22.807811000000001
#
# number of rings (size 3 to 8) (size 9 to 14) (size 15 to 20)
#    0.000    2.167    3.333    1.000    0.000    1.333 
#    0.000   10.833    0.000   10.500    0.000    0.000 
#    0.000    0.000    0.000    0.000    0.000    0.000 
#
# Total GULP energy -267529.630749 kJ/mol
# GULP energy per Si atom -5573.533974 kJ/mol
# Density = 2.275590 g / cm^3
# Si number density = 22.807811 Si / 1000 Ang^3
#
#
#
# Elastic Constant Matrix: (Units=GPa)
#
#
# Indices 1 2 3 4 5 6 
#
# 1 96.1625 -0.6955 18.3580 0.0000 0.0000 0.0000
# 2 -0.6955 100.5489 8.9732 0.0000 0.0000 0.0000
# 3 18.3580 8.9732 153.7864 0.0000 0.0000 0.0000
# 4 0.0000 0.0000 0.0000 -33.1890 0.0000 0.0000
# 5 0.0000 0.0000 0.0000 0.0000 9.3197 0.0000
# 6 0.0000 0.0000 0.0000 0.0000 0.0000 14.5379
#
#
#
# Elastic Compliance Matrix: (Units=1/GPa)
#
#
# Indices 1 2 3 4 5 6 
#
# 1 0.010645 0.000188 -0.001282 0.000000 0.000000 0.000000
# 2 0.000188 0.010001 -0.000606 0.000000 0.000000 0.000000
# 3 -0.001282 -0.000606 0.006691 0.000000 0.000000 0.000000
# 4 0.000000 0.000000 0.000000 -0.030130 0.000000 0.000000
# 5 0.000000 0.000000 0.000000 0.000000 0.107300 0.000000
# 6 0.000000 0.000000 0.000000 0.000000 0.000000 0.068786
#
#
# Mechanical properties :
#
#
# Convention : Reuss Voigt Hill
#
# Bulk Modulus (GPa) = 41.77555 44.86324 43.31940
# Shear Modulus (GPa) = 27.07526 19.72451 23.39988
#
# Velocity S-wave (km/s) = 3.44918 2.94396 3.20653
# Velocity P-wave (km/s) = 5.84966 5.59184 5.72220
#
# Compressibility (1/GPa) = 0.02393745
#
# Stress axis : x y z
#
# Youngs Moduli (GPa) = 93.93978 99.99209 149.45702
#
# Poissons Ratio (x) = -0.01880 0.19156
# Poissons Ratio (y) = -0.01766 0.09057
# Poissons Ratio (z) = 0.12040 0.06059
#
# Static dielectric constant tensor:
#      x y z
#    x 1.846320 0.000000 0.000000 
#    y 0.000000 1.963520 0.000000 
#    z 0.000000 0.000000 1.840470 
# 
# From -- ./inp_files/16852.got.cif
#   From: 2010.05.17/outbox.cif.g08.bks.cpg/sg59_9_cif.got.tgz:16852.got - 2010.06.03 14:40:33.
