data_PCOD9449097
_publ_section_title
;
Structure prediction by ZEFSAII (Michael W. Deem and Ramdas Pophale) SiO2 
 PCOD9449097
Probable space group: P M M N
;
_chemical_formula_sum "Si O2"
_cell_formula_units_Z 64
_cell_length_a 25.987509
_cell_length_b 7.615530
_cell_length_c 14.937114
_cell_angle_alpha 90.000000
_cell_angle_beta 90.000000
_cell_angle_gamma 90.000000
_cell_volume 2956.184133
_symmetry_space_group_name_H-M "P M M N"
_symmetry_group_IT_number 59
_space_group.IT_coordinate_system_code '2'
_symmetry_cell_setting 'orthorhombic'
loop_
_space_group_symop_operation_xyz
x,y,z
1/2-x,1/2-y,z
1/2+x,-y,-z
-x,1/2+y,-z
-x,-y,-z
1/2+x,1/2+y,-z
1/2-x,y,z
x,1/2-y,z
loop_
_atom_site_type_symbol
_atom_site_label
_atom_site_fract_x
_atom_site_fract_y
_atom_site_fract_z
Si Si1 0.307909 0.041927 0.787612
Si Si2 0.833770 0.051812 0.009388
Si Si3 0.556669 0.958149 0.033857
Si Si4 0.019325 0.463982 0.779417
Si Si5 0.558661 0.540401 0.530856
Si Si6 0.605384 0.535445 0.351666
Si Si7 0.911030 0.455779 0.732213
Si Si8 0.194242 0.965629 0.183581
O O1 0.250000 0.969567 0.777932
O O2 0.305458 0.250000 0.770979
O O3 0.348847 0.973408 0.713978
O O4 0.324639 0.025305 0.891908
O O5 0.814860 0.250000 0.016611
O O6 0.894880 0.048736 0.989573
O O7 0.809475 0.973266 0.919866
O O8 0.565468 0.750000 0.028811
O O9 0.553600 0.016231 0.136767
O O10 0.500000 0.000000 0.000000
O O11 0.017053 0.250000 0.781098
O O12 0.051003 0.516420 0.692812
O O13 0.961265 0.531932 0.782233
O O14 0.500000 0.500000 0.500000
O O15 0.562014 0.750000 0.536724
O O16 0.599080 0.479653 0.454326
O O17 0.574453 0.469173 0.627736
O O18 0.607100 0.750000 0.350862
O O19 0.909377 0.250000 0.755165
O O20 0.855799 0.527547 0.761825
O O21 0.250000 0.016998 0.220743
O O22 0.193106 0.750000 0.181907
#
# Coordination Sequence:
#
# PCOD9449097 Si02
#       8
#     8   8   8   8   8   8   8   8
#     4  10  20  36  58  81 106 144 190 229 271 329
#     4  11  21  35  56  82 112 147 189 232 277 325
#     4  11  21  34  52  77 112 149 189 229 274 330
#     4   9  16  30  52  74 104 143 176 213 267 333
#     4  11  21  35  57  83 111 141 178 222 275 330
#     4   9  17  33  54  76 106 142 175 213 267 333
#     4  10  19  35  58  81 105 139 183 227 273 326
#     4   9  19  36  57  79 107 148 193 228 267 329
#
# _framework density 21.649529999999999
#
# number of rings (size 3 to 8) (size 9 to 14) (size 15 to 20)
#    0.000    2.000    2.500    2.250    0.000    2.750 
#    0.000    6.875    0.000    2.625    0.000    0.000 
#    0.000    0.000    0.000    0.000    0.000    0.000 
#
# Total GULP energy -357116.908696 kJ/mol
# GULP energy per Si atom -5579.951698 kJ/mol
# Density = 2.160025 g / cm^3
# Si number density = 21.649530 Si / 1000 Ang^3
#
#
#
# Elastic Constant Matrix: (Units=GPa)
#
#
# Indices 1 2 3 4 5 6 
#
# 1 174.1000 1.8222 44.4648 0.0000 0.0000 0.0000
# 2 1.8222 47.9472 -6.3528 0.0000 0.0000 0.0000
# 3 44.4648 -6.3528 65.1399 0.0000 0.0000 0.0000
# 4 0.0000 0.0000 0.0000 18.0996 0.0000 0.0000
# 5 0.0000 0.0000 0.0000 0.0000 23.0836 0.0000
# 6 0.0000 0.0000 0.0000 0.0000 0.0000 5.0434
#
#
#
# Elastic Compliance Matrix: (Units=1/GPa)
#
#
# Indices 1 2 3 4 5 6 
#
# 1 0.006996 -0.000910 -0.004864 0.000000 0.000000 0.000000
# 2 -0.000910 0.021248 0.002694 0.000000 0.000000 0.000000
# 3 -0.004864 0.002694 0.018934 0.000000 0.000000 0.000000
# 4 0.000000 0.000000 0.000000 0.055250 0.000000 0.000000
# 5 0.000000 0.000000 0.000000 0.000000 0.043321 0.000000
# 6 0.000000 0.000000 0.000000 0.000000 0.000000 0.198278
#
#
# Mechanical properties :
#
#
# Convention : Reuss Voigt Hill
#
# Bulk Modulus (GPa) = 24.38053 40.78395 32.58224
# Shear Modulus (GPa) = 13.74156 25.72886 19.73521
#
# Velocity S-wave (km/s) = 2.52211 3.45110 3.02251
# Velocity P-wave (km/s) = 4.44605 5.89570 5.22142
#
# Compressibility (1/GPa) = 0.04101633
#
# Stress axis : x y z
#
# Youngs Moduli (GPa) = 142.94678 47.06382 52.81373
#
# Poissons Ratio (x) = 0.04284 0.25689
# Poissons Ratio (y) = 0.13013 -0.14226
# Poissons Ratio (z) = 0.69530 -0.12677
#
# Static dielectric constant tensor:
#      x y z
#    x 1.824400 0.000000 0.000000 
#    y 0.000000 1.812220 0.000000 
#    z 0.000000 0.000000 1.818270 
# 
# From -- ./inp_files/24786.got.cif
#   From: 2010.05.17/outbox.cif.g08.bks.cpg/sg59_13_cif.got.tgz:24786.got - 2010.06.03 14:40:33.
