data_PCOD9449118
_publ_section_title
;
Structure prediction by ZEFSAII (Michael W. Deem and Ramdas Pophale) SiO2 
 PCOD9449118
Probable space group: P M M N
;
_chemical_formula_sum "Si O2"
_cell_formula_units_Z 48
_cell_length_a 9.685373
_cell_length_b 7.480431
_cell_length_c 29.761432
_cell_angle_alpha 90.000000
_cell_angle_beta 90.000000
_cell_angle_gamma 90.000000
_cell_volume 2156.238499
_symmetry_space_group_name_H-M "P M M N"
_symmetry_group_IT_number 59
_space_group.IT_coordinate_system_code '2'
_symmetry_cell_setting 'orthorhombic'
loop_
_space_group_symop_operation_xyz
x,y,z
1/2-x,1/2-y,z
1/2+x,-y,-z
-x,1/2+y,-z
-x,-y,-z
1/2+x,1/2+y,-z
1/2-x,y,z
x,1/2-y,z
loop_
_atom_site_type_symbol
_atom_site_label
_atom_site_fract_x
_atom_site_fract_y
_atom_site_fract_z
Si Si1 0.408138 0.036573 0.127347
Si Si2 0.750000 0.035520 0.428965
Si Si3 0.750000 0.468178 0.531517
Si Si4 0.596875 0.031632 0.706163
Si Si5 0.591079 0.464334 0.044092
Si Si6 0.455834 0.957647 0.393812
Si Si7 0.593401 0.535072 0.214179
O O1 0.250000 0.967457 0.127864
O O2 0.397933 0.250000 0.121140
O O3 0.503635 0.966513 0.086699
O O4 0.490947 0.005875 0.173276
O O5 0.750000 0.250000 0.429732
O O6 0.750000 0.968383 0.480469
O O7 0.615982 0.972324 0.403064
O O8 0.750000 0.250000 0.528253
O O9 0.621389 0.528967 0.562027
O O10 0.750000 0.983288 0.722790
O O11 0.590455 0.250000 0.705189
O O12 0.580763 0.966884 0.654924
O O13 0.478184 0.970264 0.739887
O O14 0.750000 0.531268 0.041474
O O15 0.600994 0.250000 0.048779
O O16 0.500000 0.500000 0.000000
O O17 0.414602 0.750000 0.391610
O O18 0.750000 0.468358 0.207472
O O19 0.601325 0.750000 0.217053
#
# Coordination Sequence:
#
# PCOD9449118 Si02
#       7
#     8   4   4   8   8   8   8
#     4  10  21  38  59  82 111 150 192 229 270 327
#     4  11  23  35  49  77 117 145 169 217 272 321
#     4   9  18  35  57  81 105 135 181 227 266 317
#     4   9  17  32  56  82 105 132 175 229 274 315
#     4  10  21  37  58  84 114 150 192 236 281 327
#     4  10  19  35  59  81 101 137 184 223 264 322
#     4  10  21  35  55  85 115 140 173 224 281 329
#
# _framework density 22.260987
#
# number of rings (size 3 to 8) (size 9 to 14) (size 15 to 20)
#    0.000    2.167    0.833    2.250    1.167    3.667 
#    0.000    2.083    0.000    1.000    0.000    0.000 
#    0.000    0.000    0.000    0.000    0.000    0.000 
#
# Total GULP energy -268136.685064 kJ/mol
# GULP energy per Si atom -5586.180939 kJ/mol
# Density = 2.221032 g / cm^3
# Si number density = 22.260987 Si / 1000 Ang^3
#
#
#
# Elastic Constant Matrix: (Units=GPa)
#
#
# Indices 1 2 3 4 5 6 
#
# 1 217.7797 4.0746 74.0555 0.0000 0.0000 0.0000
# 2 4.0746 65.9996 1.9559 0.0000 0.0000 0.0000
# 3 74.0555 1.9559 132.2203 0.0000 0.0000 0.0000
# 4 0.0000 0.0000 0.0000 6.8795 0.0000 0.0000
# 5 0.0000 0.0000 0.0000 0.0000 43.7666 0.0000
# 6 0.0000 0.0000 0.0000 0.0000 0.0000 61.0777
#
#
#
# Elastic Compliance Matrix: (Units=1/GPa)
#
#
# Indices 1 2 3 4 5 6 
#
# 1 0.005676 -0.000256 -0.003176 0.000000 0.000000 0.000000
# 2 -0.000256 0.015170 -0.000081 0.000000 0.000000 0.000000
# 3 -0.003176 -0.000081 0.009343 0.000000 0.000000 0.000000
# 4 0.000000 0.000000 0.000000 0.145359 0.000000 0.000000
# 5 0.000000 0.000000 0.000000 0.000000 0.022848 0.000000
# 6 0.000000 0.000000 0.000000 0.000000 0.000000 0.016373
#
#
# Mechanical properties :
#
#
# Convention : Reuss Voigt Hill
#
# Bulk Modulus (GPa) = 43.17085 64.01906 53.59495
# Shear Modulus (GPa) = 21.78499 44.73901 33.26200
#
# Velocity S-wave (km/s) = 3.13168 4.48789 3.86966
# Velocity P-wave (km/s) = 5.70190 7.46161 6.64031
#
# Compressibility (1/GPa) = 0.02316378
#
# Stress axis : x y z
#
# Youngs Moduli (GPa) = 176.16736 65.92030 107.03302
#
# Poissons Ratio (x) = 0.01690 0.33989
# Poissons Ratio (y) = 0.04516 0.00865
# Poissons Ratio (z) = 0.55942 0.00533
#
# Static dielectric constant tensor:
#      x y z
#    x 1.837440 0.000000 0.000000 
#    y 0.000000 1.881950 0.000000 
#    z 0.000000 0.000000 1.783130 
# 
# From -- ./inp_files/32936.got.cif
#   From: 2010.05.17/outbox.cif.g08.bks.cpg/sg59_17_cif.got.tgz:32936.got - 2010.06.03 14:40:33.
