data_PCOD9449856
_publ_section_title
;
Structure prediction by ZEFSAII (Michael W. Deem and Ramdas Pophale) SiO2 
 PCOD9449856
Probable space group: P M M N
;
_chemical_formula_sum "Si O2"
_cell_formula_units_Z 64
_cell_length_a 14.884545
_cell_length_b 7.717836
_cell_length_c 27.511836
_cell_angle_alpha 90.000000
_cell_angle_beta 90.000000
_cell_angle_gamma 90.000000
_cell_volume 3160.462802
_symmetry_space_group_name_H-M "P M M N"
_symmetry_group_IT_number 59
_space_group.IT_coordinate_system_code '2'
_symmetry_cell_setting 'orthorhombic'
loop_
_space_group_symop_operation_xyz
x,y,z
1/2-x,1/2-y,z
1/2+x,-y,-z
-x,1/2+y,-z
-x,-y,-z
1/2+x,1/2+y,-z
1/2-x,y,z
x,1/2-y,z
loop_
_atom_site_type_symbol
_atom_site_label
_atom_site_fract_x
_atom_site_fract_y
_atom_site_fract_z
Si Si1 0.851454 0.457227 0.869969
Si Si2 0.499174 0.458445 0.943484
Si Si3 0.497496 0.037148 0.319435
Si Si4 0.649382 0.454375 0.390849
Si Si5 0.141224 0.046399 0.503161
Si Si6 0.851748 0.542561 0.131511
Si Si7 0.001687 0.043148 0.208794
Si Si8 0.146400 0.462062 0.397729
O O1 0.750000 0.526825 0.867839
O O2 0.844862 0.250000 0.875631
O O3 0.912603 0.523565 0.914693
O O4 0.911188 0.488677 0.822124
O O5 0.499021 0.250000 0.938881
O O6 0.411436 0.522903 0.914035
O O7 0.500000 0.500000 0.000000
O O8 0.497870 0.250000 0.318811
O O9 0.584118 0.976097 0.349626
O O10 0.496413 0.977354 0.263961
O O11 0.412931 0.984173 0.352239
O O12 0.750000 0.530120 0.389908
O O13 0.656893 0.250000 0.381725
O O14 0.611216 0.470444 0.445545
O O15 0.250000 0.025175 0.501951
O O16 0.121569 0.250000 0.505142
O O17 0.110740 0.977703 0.450660
O O18 0.750000 0.473782 0.134089
O O19 0.845302 0.750000 0.126358
O O20 0.912923 0.509916 0.178872
O O21 0.001873 0.250000 0.210545
O O22 0.250000 0.514530 0.392405
O O23 0.145246 0.250000 0.399658
#
# Coordination Sequence:
#
# PCOD9449856 Si02
#       8
#     8   8   8   8   8   8   8   8
#     4   9  19  37  57  74 100 142 180 205 242 300
#     4   9  18  32  51  78 110 139 168 205 247 291
#     4   9  18  30  44  66  94 121 151 189 239 295
#     4   9  17  29  44  62  88 121 150 179 225 286
#     4   8  14  26  44  64  85 111 147 189 227 269
#     4   9  19  37  57  74  99 140 180 207 243 300
#     4  10  20  33  51  77 104 127 163 220 266 293
#     4   8  14  26  44  64  87 116 148 184 230 284
#
# _framework density 20.250198000000001
#
# number of rings (size 3 to 8) (size 9 to 14) (size 15 to 20)
#    0.000    3.125    0.000    1.875    0.000    4.500 
#    0.000    3.750    0.000    3.000    0.000    1.750 
#    0.000    0.000    0.000    0.000    0.000    0.000 
#
# Total GULP energy -356804.225478 kJ/mol
# GULP energy per Si atom -5575.066023 kJ/mol
# Density = 2.020411 g / cm^3
# Si number density = 20.250198 Si / 1000 Ang^3
#
#
#
# Elastic Constant Matrix: (Units=GPa)
#
#
# Indices 1 2 3 4 5 6 
#
# 1 173.5266 6.5421 109.5943 0.0000 0.0000 0.0000
# 2 6.5421 25.6570 1.3763 0.0000 0.0000 0.0000
# 3 109.5943 1.3763 215.6813 0.0000 0.0000 0.0000
# 4 0.0000 0.0000 0.0000 26.0956 0.0000 0.0000
# 5 0.0000 0.0000 0.0000 0.0000 22.3847 0.0000
# 6 0.0000 0.0000 0.0000 0.0000 0.0000 2.0796
#
#
#
# Elastic Compliance Matrix: (Units=1/GPa)
#
#
# Indices 1 2 3 4 5 6 
#
# 1 0.008583 -0.001955 -0.004349 0.000000 0.000000 0.000000
# 2 -0.001955 0.039434 0.000742 0.000000 0.000000 0.000000
# 3 -0.004349 0.000742 0.006842 0.000000 0.000000 0.000000
# 4 0.000000 0.000000 0.000000 0.038321 0.000000 0.000000
# 5 0.000000 0.000000 0.000000 0.000000 0.044673 0.000000
# 6 0.000000 0.000000 0.000000 0.000000 0.000000 0.480859
#
#
# Mechanical properties :
#
#
# Convention : Reuss Voigt Hill
#
# Bulk Modulus (GPa) = 22.86517 72.21005 47.53761
# Shear Modulus (GPa) = 7.75897 29.93546 18.84722
#
# Velocity S-wave (km/s) = 1.95956 3.84901 3.05408
# Velocity P-wave (km/s) = 4.05409 7.44913 5.99688
#
# Compressibility (1/GPa) = 0.04373463
#
# Stress axis : x y z
#
# Youngs Moduli (GPa) = 116.50743 25.35851 146.16604
#
# Poissons Ratio (x) = 0.04958 0.63566
# Poissons Ratio (y) = 0.22780 -0.10844
# Poissons Ratio (z) = 0.50668 -0.01881
#
# Static dielectric constant tensor:
#      x y z
#    x 1.729970 0.000000 0.000000 
#    y 0.000000 1.748900 0.000000 
#    z 0.000000 0.000000 1.700920 
# 
# From -- ./inp_files/32192.got.cif
#   From: 2010.05.17/outbox.cif.g08.bks.cpg/sg59_17_cif.got.tgz:32192.got - 2010.06.03 14:40:33.
