data_PCOD9449223
_publ_section_title
;
Structure prediction by ZEFSAII (Michael W. Deem and Ramdas Pophale) SiO2 
 PCOD9449223
Probable space group: P M M N
;
_chemical_formula_sum "Si O2"
_cell_formula_units_Z 64
_cell_length_a 8.842221
_cell_length_b 32.526758
_cell_length_c 11.854420
_cell_angle_alpha 90.000000
_cell_angle_beta 90.000000
_cell_angle_gamma 90.000000
_cell_volume 3409.435305
_symmetry_space_group_name_H-M "P M M N"
_symmetry_group_IT_number 59
_space_group.IT_coordinate_system_code '2'
_symmetry_cell_setting 'orthorhombic'
loop_
_space_group_symop_operation_xyz
x,y,z
1/2-x,1/2-y,z
1/2+x,-y,-z
-x,1/2+y,-z
-x,-y,-z
1/2+x,1/2+y,-z
1/2-x,y,z
x,1/2-y,z
loop_
_atom_site_type_symbol
_atom_site_label
_atom_site_fract_x
_atom_site_fract_y
_atom_site_fract_z
Si Si1 0.066628 0.619777 0.374317
Si Si2 0.432068 0.866449 0.117809
Si Si3 0.570009 0.966885 0.414040
Si Si4 0.926577 0.061341 0.032469
Si Si5 0.075566 0.998520 0.185746
Si Si6 0.422773 0.299731 0.261451
Si Si7 0.932083 0.797633 0.985387
Si Si8 0.568754 0.297238 0.498778
O O1 0.250000 0.617046 0.382092
O O2 0.023372 0.619208 0.242125
O O3 0.019001 0.664181 0.424535
O O4 0.996231 0.579168 0.430339
O O5 0.250000 0.867119 0.115300
O O6 0.487238 0.896343 0.018252
O O7 0.494316 0.822300 0.086353
O O8 0.750000 0.966028 0.425271
O O9 0.500000 0.000000 0.500000
O O10 0.522368 0.981715 0.288621
O O11 0.750000 0.064967 0.064187
O O12 0.932472 0.031821 0.922129
O O13 0.017115 0.041401 0.134766
O O14 0.250000 0.000594 0.222136
O O15 0.250000 0.314236 0.277964
O O16 0.415958 0.250000 0.252769
O O17 0.481020 0.313517 0.138977
O O18 0.520948 0.308267 0.371147
O O19 0.750000 0.800799 0.988017
O O20 0.973060 0.750000 0.993999
O O21 0.750000 0.295554 0.506886
O O22 0.513244 0.250000 0.523204
#
# Coordination Sequence:
#
# PCOD9449223 Si02
#       8
#     8   8   8   8   8   8   8   8
#     4  10  21  40  60  83 118 155 192 239 289 344
#     4  10  20  35  56  81 113 150 189 233 283 341
#     4  12  25  42  64  87 115 153 196 241 294 351
#     4   9  18  34  56  84 114 145 184 230 278 335
#     4  10  19  36  61  86 113 145 184 229 280 337
#     4   8  15  31  53  73 101 142 183 228 282 334
#     4   9  19  35  53  77 111 150 190 234 286 340
#     4   9  18  33  57  87 116 150 192 237 286 339
#
# _framework density 18.771436999999999
#
# number of rings (size 3 to 8) (size 9 to 14) (size 15 to 20)
#    0.000    2.375    1.250    2.250    0.000    3.250 
#    2.250    2.500    0.000    1.500    0.000    0.000 
#    0.000    0.000    0.000    0.000    0.000    0.000 
#
# Total GULP energy -356707.973274 kJ/mol
# GULP energy per Si atom -5573.562082 kJ/mol
# Density = 1.872871 g / cm^3
# Si number density = 18.771437 Si / 1000 Ang^3
#
#
#
# Elastic Constant Matrix: (Units=GPa)
#
#
# Indices 1 2 3 4 5 6 
#
# 1 35.2761 30.0317 19.0582 0.0000 0.0000 0.0000
# 2 30.0317 109.3532 45.1778 0.0000 0.0000 0.0000
# 3 19.0582 45.1778 47.8881 0.0000 0.0000 0.0000
# 4 0.0000 0.0000 0.0000 33.2129 0.0000 0.0000
# 5 0.0000 0.0000 0.0000 0.0000 26.4252 0.0000
# 6 0.0000 0.0000 0.0000 0.0000 0.0000 26.5164
#
#
#
# Elastic Compliance Matrix: (Units=1/GPa)
#
#
# Indices 1 2 3 4 5 6 
#
# 1 0.039193 -0.007078 -0.008920 0.000000 0.000000 0.000000
# 2 -0.007078 0.016264 -0.012526 0.000000 0.000000 0.000000
# 3 -0.008920 -0.012526 0.036249 0.000000 0.000000 0.000000
# 4 0.000000 0.000000 0.000000 0.030109 0.000000 0.000000
# 5 0.000000 0.000000 0.000000 0.000000 0.037843 0.000000
# 6 0.000000 0.000000 0.000000 0.000000 0.000000 0.037713
#
#
# Mechanical properties :
#
#
# Convention : Reuss Voigt Hill
#
# Bulk Modulus (GPa) = 28.85444 42.33919 35.59682
# Shear Modulus (GPa) = 18.79903 23.78086 21.28994
#
# Velocity S-wave (km/s) = 3.16803 3.56316 3.37139
# Velocity P-wave (km/s) = 5.36533 6.28747 5.84461
#
# Compressibility (1/GPa) = 0.03465671
#
# Stress axis : x y z
#
# Youngs Moduli (GPa) = 25.51477 61.48686 27.58685
#
# Poissons Ratio (x) = 0.43523 0.24607
# Poissons Ratio (y) = 0.18060 0.34556
# Poissons Ratio (z) = 0.22759 0.77019
#
# Static dielectric constant tensor:
#      x y z
#    x 1.637480 0.000000 0.000000 
#    y 0.000000 1.684310 0.000000 
#    z 0.000000 0.000000 1.643980 
# 
# From -- ./inp_files/15071.got.cif
#   From: 2010.05.17/outbox.cif.g08.bks.cpg/sg59_8_cif.got.tgz:15071.got - 2010.06.03 14:40:33.
