data_PCOD9449988
_publ_section_title
;
Structure prediction by ZEFSAII (Michael W. Deem and Ramdas Pophale) SiO2 
 PCOD9449988
Probable space group: P M M N
;
_chemical_formula_sum "Si O2"
_cell_formula_units_Z 64
_cell_length_a 30.607538
_cell_length_b 9.225367
_cell_length_c 11.960841
_cell_angle_alpha 90.000000
_cell_angle_beta 90.000000
_cell_angle_gamma 90.000000
_cell_volume 3377.332091
_symmetry_space_group_name_H-M "P M M N"
_symmetry_group_IT_number 59
_space_group.IT_coordinate_system_code '2'
_symmetry_cell_setting 'orthorhombic'
loop_
_space_group_symop_operation_xyz
x,y,z
1/2-x,1/2-y,z
1/2+x,-y,-z
-x,1/2+y,-z
-x,-y,-z
1/2+x,1/2+y,-z
1/2-x,y,z
x,1/2-y,z
loop_
_atom_site_type_symbol
_atom_site_label
_atom_site_fract_x
_atom_site_fract_y
_atom_site_fract_z
Si Si1 0.301927 0.084435 0.368156
Si Si2 0.563534 0.915526 0.713021
Si Si3 0.845581 0.585949 0.848349
Si Si4 0.699541 0.424310 0.404741
Si Si5 0.383114 0.586659 0.961863
Si Si6 0.525951 0.413976 0.906392
Si Si7 0.889383 0.074320 0.287915
Si Si8 0.547807 0.426030 0.492505
O O1 0.250000 0.094757 0.368430
O O2 0.319942 0.250000 0.377103
O O3 0.316354 0.019612 0.249811
O O4 0.313456 0.990626 0.475558
O O5 0.550239 0.750000 0.686319
O O6 0.606973 0.908257 0.788418
O O7 0.528459 0.996860 0.791357
O O8 0.571471 0.009309 0.602388
O O9 0.830549 0.750000 0.868363
O O10 0.849466 0.504814 0.965033
O O11 0.750000 0.469011 0.377975
O O12 0.699660 0.250000 0.411536
O O13 0.660139 0.466960 0.322557
O O14 0.366289 0.750000 0.945196
O O15 0.396249 0.526602 0.840159
O O16 0.425863 0.595633 0.039518
O O17 0.509813 0.250000 0.889178
O O18 0.500000 0.500000 0.000000
O O19 0.891916 0.250000 0.288744
O O20 0.924906 0.030015 0.381440
O O21 0.500000 0.500000 0.500000
O O22 0.545026 0.250000 0.497214
#
# Coordination Sequence:
#
# PCOD9449988 Si02
#       8
#     8   8   8   8   8   8   8   8
#     4   9  17  30  50  76 107 138 167 207 262 316
#     4  10  20  35  53  73 101 133 169 215 263 310
#     4   9  18  33  52  75 102 133 170 214 261 307
#     4   9  17  31  54  82 107 135 176 219 258 309
#     4   9  19  35  53  73  99 138 177 210 259 318
#     4  10  20  33  53  77 100 131 174 220 264 314
#     4   9  19  36  55  75 106 144 175 214 270 321
#     4  11  23  37  54  77 106 140 178 219 267 323
#
# _framework density 18.949867999999999
#
# number of rings (size 3 to 8) (size 9 to 14) (size 15 to 20)
#    0.000    2.500    0.000    1.875    1.750    1.500 
#    0.000    3.125    0.000    0.750    0.000    0.000 
#    0.000    0.000    0.000    0.000    0.000    0.000 
#
# Total GULP energy -356508.201619 kJ/mol
# GULP energy per Si atom -5570.440650 kJ/mol
# Density = 1.890674 g / cm^3
# Si number density = 18.949868 Si / 1000 Ang^3
#
#
#
# Elastic Constant Matrix: (Units=GPa)
#
#
# Indices 1 2 3 4 5 6 
#
# 1 29.8936 10.6409 7.9869 0.0000 0.0000 0.0000
# 2 10.6409 59.9372 27.2468 0.0000 0.0000 0.0000
# 3 7.9869 27.2468 104.4938 0.0000 0.0000 0.0000
# 4 0.0000 0.0000 0.0000 24.2610 0.0000 0.0000
# 5 0.0000 0.0000 0.0000 0.0000 29.8075 0.0000
# 6 0.0000 0.0000 0.0000 0.0000 0.0000 16.9611
#
#
#
# Elastic Compliance Matrix: (Units=1/GPa)
#
#
# Indices 1 2 3 4 5 6 
#
# 1 0.035846 -0.005807 -0.001226 0.000000 0.000000 0.000000
# 2 -0.005807 0.019868 -0.004737 0.000000 0.000000 0.000000
# 3 -0.001226 -0.004737 0.010899 0.000000 0.000000 0.000000
# 4 0.000000 0.000000 0.000000 0.041218 0.000000 0.000000
# 5 0.000000 0.000000 0.000000 0.000000 0.033549 0.000000
# 6 0.000000 0.000000 0.000000 0.000000 0.000000 0.058959
#
#
# Mechanical properties :
#
#
# Convention : Reuss Voigt Hill
#
# Bulk Modulus (GPa) = 23.21541 31.78597 27.50069
# Shear Modulus (GPa) = 20.98757 24.10257 22.54507
#
# Velocity S-wave (km/s) = 3.33157 3.57026 3.45298
# Velocity P-wave (km/s) = 5.20353 5.81427 5.51736
#
# Compressibility (1/GPa) = 0.04307483
#
# Stress axis : x y z
#
# Youngs Moduli (GPa) = 27.89678 50.33135 91.75340
#
# Poissons Ratio (x) = 0.29226 0.11247
# Poissons Ratio (y) = 0.16199 0.43462
# Poissons Ratio (z) = 0.03420 0.23841
#
# Static dielectric constant tensor:
#      x y z
#    x 1.706470 0.000000 0.000000 
#    y 0.000000 1.667440 0.000000 
#    z 0.000000 0.000000 1.676410 
# 
# From -- ./inp_files/19319.got.cif
#   From: 2010.05.17/outbox.cif.g08.bks.cpg/sg59_10_cif.got.tgz:19319.got - 2010.06.03 14:40:33.
