data_PCOD9449224
_publ_section_title
;
Structure prediction by ZEFSAII (Michael W. Deem and Ramdas Pophale) SiO2 
 PCOD9449224
Probable space group: P M M N
;
_chemical_formula_sum "Si O2"
_cell_formula_units_Z 56
_cell_length_a 22.356232
_cell_length_b 8.468545
_cell_length_c 15.215895
_cell_angle_alpha 90.000000
_cell_angle_beta 90.000000
_cell_angle_gamma 90.000000
_cell_volume 2880.745619
_symmetry_space_group_name_H-M "P M M N"
_symmetry_group_IT_number 59
_space_group.IT_coordinate_system_code '2'
_symmetry_cell_setting 'orthorhombic'
loop_
_space_group_symop_operation_xyz
x,y,z
1/2-x,1/2-y,z
1/2+x,-y,-z
-x,1/2+y,-z
-x,-y,-z
1/2+x,1/2+y,-z
1/2-x,y,z
x,1/2-y,z
loop_
_atom_site_type_symbol
_atom_site_label
_atom_site_fract_x
_atom_site_fract_y
_atom_site_fract_z
Si Si1 0.180173 0.440122 0.862061
Si Si2 0.250000 0.426378 0.320580
Si Si3 0.414815 0.939325 0.732976
Si Si4 0.124160 0.058681 0.044841
Si Si5 0.750000 0.572788 0.886997
Si Si6 0.436417 0.940950 0.533494
Si Si7 0.122346 0.561596 0.357027
Si Si8 0.960843 0.439512 0.805750
O O1 0.250000 0.491782 0.873407
O O2 0.181421 0.250000 0.859558
O O3 0.146942 0.503697 0.776155
O O4 0.136231 0.484388 0.943426
O O5 0.250000 0.250000 0.358980
O O6 0.250000 0.411526 0.216060
O O7 0.190288 0.517418 0.342787
O O8 0.416149 0.750000 0.733735
O O9 0.421934 0.995912 0.631958
O O10 0.472275 0.000438 0.787491
O O11 0.120734 0.250000 0.051155
O O12 0.186880 0.000017 0.087170
O O13 0.069753 0.993451 0.102883
O O14 0.750000 0.750000 0.928955
O O15 0.436030 0.750000 0.536219
O O16 0.394260 0.996029 0.454248
O O17 0.500000 0.000000 0.500000
O O18 0.114709 0.750000 0.356229
O O19 0.080513 0.501795 0.276663
O O20 0.961635 0.250000 0.805063
#
# Coordination Sequence:
#
# PCOD9449224 Si02
#       8
#     8   4   8   8   4   8   8   8
#     4  10  22  42  67  89 116 158 202 245 294 345
#     4  11  21  33  55  86 119 156 196 241 291 351
#     4  11  24  41  63  89 118 154 198 247 297 349
#     4  10  19  36  61  88 118 155 197 240 289 348
#     4   9  16  29  53  82 113 148 190 235 281 337
#     4  10  21  39  63  87 113 152 196 242 298 354
#     4  10  21  37  56  83 121 158 192 240 300 357
#     4  11  22  36  59  91 124 156 192 241 299 352
#
# _framework density 19.439409999999999
#
# number of rings (size 3 to 8) (size 9 to 14) (size 15 to 20)
#    0.000    1.714    3.571    1.071    0.000    3.143 
#    1.286    0.357    0.000    0.000    0.000    0.000 
#    0.000    0.000    0.000    0.000    0.000    0.000 
#
# Total GULP energy -312301.953802 kJ/mol
# GULP energy per Si atom -5576.820604 kJ/mol
# Density = 1.939517 g / cm^3
# Si number density = 19.439410 Si / 1000 Ang^3
#
#
#
# Elastic Constant Matrix: (Units=GPa)
#
#
# Indices 1 2 3 4 5 6 
#
# 1 86.1168 11.5949 53.6206 0.0000 0.0000 0.0000
# 2 11.5949 12.9204 25.6639 0.0000 0.0000 0.0000
# 3 53.6206 25.6639 136.0968 0.0000 0.0000 0.0000
# 4 0.0000 0.0000 0.0000 20.6842 0.0000 0.0000
# 5 0.0000 0.0000 0.0000 0.0000 36.7929 0.0000
# 6 0.0000 0.0000 0.0000 0.0000 0.0000 23.5187
#
#
#
# Elastic Compliance Matrix: (Units=1/GPa)
#
#
# Indices 1 2 3 4 5 6 
#
# 1 0.015452 -0.002837 -0.005553 0.000000 0.000000 0.000000
# 2 -0.002837 0.124269 -0.022316 0.000000 0.000000 0.000000
# 3 -0.005553 -0.022316 0.013744 0.000000 0.000000 0.000000
# 4 0.000000 0.000000 0.000000 0.048346 0.000000 0.000000
# 5 0.000000 0.000000 0.000000 0.000000 0.027179 0.000000
# 6 0.000000 0.000000 0.000000 0.000000 0.000000 0.042519
#
#
# Mechanical properties :
#
#
# Convention : Reuss Voigt Hill
#
# Bulk Modulus (GPa) = 10.86331 46.32142 28.59236
# Shear Modulus (GPa) = 13.75126 25.81613 19.78369
#
# Velocity S-wave (km/s) = 2.66257 3.64817 3.19362
# Velocity P-wave (km/s) = 3.87979 6.45181 5.32347
#
# Compressibility (1/GPa) = 0.09205300
#
# Stress axis : x y z
#
# Youngs Moduli (GPa) = 64.71851 8.04709 72.76145
#
# Poissons Ratio (x) = 0.02283 0.40403
# Poissons Ratio (y) = 0.18359 1.62373
# Poissons Ratio (z) = 0.35937 0.17958
#
# Static dielectric constant tensor:
#      x y z
#    x 1.584640 0.000000 0.000000 
#    y 0.000000 1.685110 0.000000 
#    z 0.000000 0.000000 1.724750 
# 
# From -- ./inp_files/24331.got.cif
#   From: 2010.05.17/outbox.cif.g08.bks.cpg/sg59_13_cif.got.tgz:24331.got - 2010.06.03 14:40:33.
