data_PCOD9449083
_publ_section_title
;
Structure prediction by ZEFSAII (Michael W. Deem and Ramdas Pophale) SiO2 
 PCOD9449083
Probable space group: P M M N
;
_chemical_formula_sum "Si O2"
_cell_formula_units_Z 52
_cell_length_a 13.919994
_cell_length_b 24.733264
_cell_length_c 8.492769
_cell_angle_alpha 90.000000
_cell_angle_beta 90.000000
_cell_angle_gamma 90.000000
_cell_volume 2923.948997
_symmetry_space_group_name_H-M "P M M N"
_symmetry_group_IT_number 59
_space_group.IT_coordinate_system_code '2'
_symmetry_cell_setting 'orthorhombic'
loop_
_space_group_symop_operation_xyz
x,y,z
1/2-x,1/2-y,z
1/2+x,-y,-z
-x,1/2+y,-z
-x,-y,-z
1/2+x,1/2+y,-z
1/2-x,y,z
x,1/2-y,z
loop_
_atom_site_type_symbol
_atom_site_label
_atom_site_fract_x
_atom_site_fract_y
_atom_site_fract_z
Si Si1 0.638731 0.023729 0.927687
Si Si2 0.145497 0.156626 0.366955
Si Si3 0.140403 0.250000 0.113385
Si Si4 0.484625 0.587817 0.485470
Si Si5 0.636549 0.358832 0.782031
Si Si6 0.853004 0.750000 0.376730
Si Si7 0.974095 0.250000 0.859858
Si Si8 0.546254 0.498013 0.260814
O O1 0.750000 0.011153 0.893589
O O2 0.624341 0.088055 0.893594
O O3 0.562211 0.994531 0.812403
O O4 0.612794 0.008664 0.107761
O O5 0.250000 0.129036 0.355848
O O6 0.134105 0.196185 0.219289
O O7 0.147818 0.197515 0.514015
O O8 0.056674 0.118884 0.400620
O O9 0.250000 0.250000 0.049580
O O10 0.048627 0.250000 0.002992
O O11 0.413420 0.624994 0.383855
O O12 0.545611 0.554911 0.353522
O O13 0.433540 0.545187 0.601723
O O14 0.750000 0.350508 0.760780
O O15 0.588398 0.304628 0.849998
O O16 0.750000 0.750000 0.289766
O O17 0.950952 0.750000 0.283554
#
# Coordination Sequence:
#
# PCOD9449083 Si02
#       8
#     8   8   4   8   8   4   4   8
#     4   9  19  38  56  76 113 147 174 225 277 320
#     4   9  18  34  53  78 110 138 168 212 273 333
#     4   9  21  36  53  79 109 142 174 214 278 340
#     4  10  19  35  57  82 108 143 177 230 270 321
#     4  10  22  37  55  80 109 146 187 228 275 315
#     4   9  17  32  54  79 106 135 170 209 268 327
#     4  12  20  34  59  80 103 145 184 231 260 325
#     4   9  20  34  57  83 106 139 191 217 264 333
#
# _framework density 17.784168000000001
#
# number of rings (size 3 to 8) (size 9 to 14) (size 15 to 20)
#    0.000    2.462    1.538    1.385    2.154    1.846 
#    0.000    3.077    0.000    0.000    0.000    0.000 
#    0.000    0.000    0.000    0.000    0.000    0.000 
#
# Total GULP energy -289523.949692 kJ/mol
# GULP energy per Si atom -5567.768263 kJ/mol
# Density = 1.774369 g / cm^3
# Si number density = 17.784168 Si / 1000 Ang^3
#
#
#
# Elastic Constant Matrix: (Units=GPa)
#
#
# Indices 1 2 3 4 5 6 
#
# 1 100.8101 38.0870 27.7343 0.0000 0.0000 0.0000
# 2 38.0870 48.8210 25.8326 0.0000 0.0000 0.0000
# 3 27.7343 25.8326 75.5002 0.0000 0.0000 0.0000
# 4 0.0000 0.0000 0.0000 16.5612 0.0000 0.0000
# 5 0.0000 0.0000 0.0000 0.0000 21.9457 0.0000
# 6 0.0000 0.0000 0.0000 0.0000 0.0000 21.8766
#
#
#
# Elastic Compliance Matrix: (Units=1/GPa)
#
#
# Indices 1 2 3 4 5 6 
#
# 1 0.014252 -0.010194 -0.001747 0.000000 0.000000 0.000000
# 2 -0.010194 0.032302 -0.007308 0.000000 0.000000 0.000000
# 3 -0.001747 -0.007308 0.016387 0.000000 0.000000 0.000000
# 4 0.000000 0.000000 0.000000 0.060382 0.000000 0.000000
# 5 0.000000 0.000000 0.000000 0.000000 0.045567 0.000000
# 6 0.000000 0.000000 0.000000 0.000000 0.000000 0.045711
#
#
# Mechanical properties :
#
#
# Convention : Reuss Voigt Hill
#
# Bulk Modulus (GPa) = 40.91069 45.38212 43.14641
# Shear Modulus (GPa) = 19.13901 20.97518 20.05710
#
# Velocity S-wave (km/s) = 3.28408 3.43801 3.36193
# Velocity P-wave (km/s) = 6.11835 6.42912 6.27566
#
# Compressibility (1/GPa) = 0.02444349
#
# Stress axis : x y z
#
# Youngs Moduli (GPa) = 70.16751 30.95771 61.02294
#
# Poissons Ratio (x) = 0.31557 0.10663
# Poissons Ratio (y) = 0.71526 0.44594
# Poissons Ratio (z) = 0.12261 0.22623
#
# Static dielectric constant tensor:
#      x y z
#    x 1.603080 0.000000 0.000000 
#    y 0.000000 1.626660 0.000000 
#    z 0.000000 0.000000 1.608190 
# 
# From -- ./inp_files/7830.got.cif
#   From: 2010.05.17/outbox.cif.g08.bks.cpg/sg59_4_cif.got.tgz:7830.got - 2010.06.03 14:40:33.
