data_PCOD9449940
_publ_section_title
;
Structure prediction by ZEFSAII (Michael W. Deem and Ramdas Pophale) SiO2 
 PCOD9449940
Probable space group: P M M N
;
_chemical_formula_sum "Si O2"
_cell_formula_units_Z 64
_cell_length_a 15.519926
_cell_length_b 7.884653
_cell_length_c 23.900212
_cell_angle_alpha 90.000000
_cell_angle_beta 90.000000
_cell_angle_gamma 90.000000
_cell_volume 2924.650565
_symmetry_space_group_name_H-M "P M M N"
_symmetry_group_IT_number 59
_space_group.IT_coordinate_system_code '2'
_symmetry_cell_setting 'orthorhombic'
loop_
_space_group_symop_operation_xyz
x,y,z
1/2-x,1/2-y,z
1/2+x,-y,-z
-x,1/2+y,-z
-x,-y,-z
1/2+x,1/2+y,-z
1/2-x,y,z
x,1/2-y,z
loop_
_atom_site_type_symbol
_atom_site_label
_atom_site_fract_x
_atom_site_fract_y
_atom_site_fract_z
Si Si1 0.349835 0.944809 0.783168
Si Si2 0.650156 0.561008 0.097237
Si Si3 0.345327 0.049392 0.592957
Si Si4 0.465103 0.945914 0.245039
Si Si5 0.595085 0.954287 0.980240
Si Si6 0.526315 0.040922 0.634125
Si Si7 0.152330 0.047435 0.141845
Si Si8 0.848220 0.045499 0.535082
O O1 0.250000 0.006355 0.774939
O O2 0.351214 0.750000 0.765196
O O3 0.375605 0.953037 0.849288
O O4 0.430592 0.040073 0.756477
O O5 0.750000 0.585475 0.107125
O O6 0.607967 0.750000 0.099368
O O7 0.645109 0.485794 0.035356
O O8 0.250000 0.976667 0.605261
O O9 0.341290 0.250000 0.604783
O O10 0.428333 0.980839 0.624819
O O11 0.362479 0.027270 0.526747
O O12 0.441691 0.750000 0.244322
O O13 0.439335 0.017577 0.305688
O O14 0.415779 0.018360 0.191398
O O15 0.605914 0.750000 0.978184
O O16 0.620337 0.019555 0.918959
O O17 0.500000 0.000000 0.000000
O O18 0.525916 0.250000 0.634372
O O19 0.584710 0.988033 0.581862
O O20 0.250000 0.984409 0.153575
O O21 0.158204 0.250000 0.135885
O O22 0.750000 0.003380 0.551488
O O23 0.854272 0.250000 0.530497
#
# Coordination Sequence:
#
# PCOD9449940 Si02
#       8
#     8   8   8   8   8   8   8   8
#     4  10  21  37  56  79 110 146 181 223 281 344
#     4   9  17  31  52  76  99 125 163 210 258 314
#     4   9  17  31  52  78 107 136 167 207 257 315
#     4  11  23  38  57  81 108 143 192 241 277 318
#     4  10  20  33  52  78 106 136 171 215 270 330
#     4   9  19  34  52  75 103 138 178 218 263 314
#     4  10  22  41  61  80 110 153 193 231 281 336
#     4   9  17  31  52  77 105 136 169 208 258 314
#
# _framework density 21.882956
#
# number of rings (size 3 to 8) (size 9 to 14) (size 15 to 20)
#    0.000    2.375    0.000    2.250    0.000    6.500 
#    0.000    5.000    0.000    5.250    0.000    0.000 
#    0.000    0.000    0.000    0.000    0.000    0.000 
#
# Total GULP energy -356687.751549 kJ/mol
# GULP energy per Si atom -5573.246118 kJ/mol
# Density = 2.183315 g / cm^3
# Si number density = 21.882956 Si / 1000 Ang^3
#
#
#
# Elastic Constant Matrix: (Units=GPa)
#
#
# Indices 1 2 3 4 5 6 
#
# 1 84.4860 -1.1730 30.9462 0.0000 0.0000 0.0000
# 2 -1.1730 16.3349 -6.0836 0.0000 0.0000 0.0000
# 3 30.9462 -6.0836 59.3040 0.0000 0.0000 0.0000
# 4 0.0000 0.0000 0.0000 17.7969 0.0000 0.0000
# 5 0.0000 0.0000 0.0000 0.0000 0.4923 0.0000
# 6 0.0000 0.0000 0.0000 0.0000 0.0000 15.7455
#
#
#
# Elastic Compliance Matrix: (Units=1/GPa)
#
#
# Indices 1 2 3 4 5 6 
#
# 1 0.014688 -0.001871 -0.007857 0.000000 0.000000 0.000000
# 2 -0.001871 0.063889 0.007530 0.000000 0.000000 0.000000
# 3 -0.007857 0.007530 0.021734 0.000000 0.000000 0.000000
# 4 0.000000 0.000000 0.000000 0.056190 0.000000 0.000000
# 5 0.000000 0.000000 0.000000 0.000000 2.031458 0.000000
# 6 0.000000 0.000000 0.000000 0.000000 0.000000 0.063510
#
#
# Mechanical properties :
#
#
# Convention : Reuss Voigt Hill
#
# Bulk Modulus (GPa) = 10.42573 23.05600 16.74086
# Shear Modulus (GPa) = 2.18547 15.90260 9.04404
#
# Velocity S-wave (km/s) = 1.00044 2.69868 2.03516
# Velocity P-wave (km/s) = 2.47167 4.50216 3.63171
#
# Compressibility (1/GPa) = 0.09591656
#
# Stress axis : x y z
#
# Youngs Moduli (GPa) = 68.08259 15.65219 46.00988
#
# Poissons Ratio (x) = 0.02929 0.36148
# Poissons Ratio (y) = 0.12740 -0.34647
# Poissons Ratio (z) = 0.53489 -0.11787
#
# Static dielectric constant tensor:
#      x y z
#    x 1.709720 0.000000 0.000000 
#    y 0.000000 1.588380 0.000000 
#    z 0.000000 0.000000 1.836280 
# 
# From -- ./inp_files/32257.got.cif
#   From: 2010.05.17/outbox.cif.g08.bks.cpg/sg59_17_cif.got.tgz:32257.got - 2010.06.03 14:40:33.
