data_PCOD9449993
_publ_section_title
;
Structure prediction by ZEFSAII (Michael W. Deem and Ramdas Pophale) SiO2 
 PCOD9449993
Probable space group: P M M N
;
_chemical_formula_sum "Si O2"
_cell_formula_units_Z 48
_cell_length_a 14.775004
_cell_length_b 24.624019
_cell_length_c 7.497419
_cell_angle_alpha 90.000000
_cell_angle_beta 90.000000
_cell_angle_gamma 90.000000
_cell_volume 2727.710825
_symmetry_space_group_name_H-M "P M M N"
_symmetry_group_IT_number 59
_space_group.IT_coordinate_system_code '2'
_symmetry_cell_setting 'orthorhombic'
loop_
_space_group_symop_operation_xyz
x,y,z
1/2-x,1/2-y,z
1/2+x,-y,-z
-x,1/2+y,-z
-x,-y,-z
1/2+x,1/2+y,-z
1/2-x,y,z
x,1/2-y,z
loop_
_atom_site_type_symbol
_atom_site_label
_atom_site_fract_x
_atom_site_fract_y
_atom_site_fract_z
Si Si1 0.855804 0.187332 0.133940
Si Si2 0.453560 0.626201 0.156079
Si Si3 0.607352 0.994390 0.527996
Si Si4 0.647365 0.381866 0.482776
Si Si5 0.652297 0.921174 0.207607
Si Si6 0.897398 0.009410 0.936920
O O1 0.750000 0.178577 0.082221
O O2 0.864136 0.250000 0.190009
O O3 0.876370 0.147409 0.298599
O O4 0.922804 0.174237 0.971842
O O5 0.420454 0.633358 0.358446
O O6 0.560356 0.611223 0.157513
O O7 0.394774 0.574350 0.082841
O O8 0.640815 0.945492 0.406104
O O9 0.623115 0.987691 0.738596
O O10 0.500000 0.000000 0.500000
O O11 0.645411 0.052737 0.467370
O O12 0.750000 0.365424 0.530287
O O13 0.750000 0.892932 0.190767
O O14 0.654728 0.974618 0.081722
O O15 0.000000 0.000000 0.000000
#
# Coordination Sequence:
#
# PCOD9449993 Si02
#       6
#     8   8   8   8   8   8
#     4  10  22  38  57  81 104 130 171 225 280 332
#     4  10  20  34  55  75 106 141 178 215 267 316
#     4  11  18  32  51  75 109 150 181 215 255 316
#     4  10  20  33  53  78 107 143 177 215 266 321
#     4  11  22  33  49  78 113 147 187 222 254 305
#     4   9  18  31  50  74 105 145 180 213 255 307
#
# _framework density 17.597173000000002
#
# number of rings (size 3 to 8) (size 9 to 14) (size 15 to 20)
#    0.000    1.833    5.000    2.000    2.333    6.000 
#    0.000    1.667    0.000    0.500    0.000    0.000 
#    0.000    0.000    0.000    0.000    0.000    0.000 
#
# Total GULP energy -267537.175806 kJ/mol
# GULP energy per Si atom -5573.691163 kJ/mol
# Density = 1.755712 g / cm^3
# Si number density = 17.597173 Si / 1000 Ang^3
#
#
#
# Elastic Constant Matrix: (Units=GPa)
#
#
# Indices 1 2 3 4 5 6 
#
# 1 109.0550 15.0665 25.9130 0.0000 0.0000 0.0000
# 2 15.0665 32.1255 31.1625 0.0000 0.0000 0.0000
# 3 25.9130 31.1625 74.1095 0.0000 0.0000 0.0000
# 4 0.0000 0.0000 0.0000 16.0972 0.0000 0.0000
# 5 0.0000 0.0000 0.0000 0.0000 10.9718 0.0000
# 6 0.0000 0.0000 0.0000 0.0000 0.0000 20.9183
#
#
#
# Elastic Compliance Matrix: (Units=1/GPa)
#
#
# Indices 1 2 3 4 5 6 
#
# 1 0.010093 -0.002213 -0.002599 0.000000 0.000000 0.000000
# 2 -0.002213 0.053056 -0.021536 0.000000 0.000000 0.000000
# 3 -0.002599 -0.021536 0.023458 0.000000 0.000000 0.000000
# 4 0.000000 0.000000 0.000000 0.062123 0.000000 0.000000
# 5 0.000000 0.000000 0.000000 0.000000 0.091143 0.000000
# 6 0.000000 0.000000 0.000000 0.000000 0.000000 0.047805
#
#
# Mechanical properties :
#
#
# Convention : Reuss Voigt Hill
#
# Bulk Modulus (GPa) = 29.48793 39.95269 34.72031
# Shear Modulus (GPa) = 14.21761 19.14065 16.67913
#
# Velocity S-wave (km/s) = 2.84553 3.30162 3.08202
# Velocity P-wave (km/s) = 5.25258 6.10636 5.69549
#
# Compressibility (1/GPa) = 0.03391218
#
# Stress axis : x y z
#
# Youngs Moduli (GPa) = 99.08006 18.84795 42.62950
#
# Poissons Ratio (x) = 0.04171 0.11078
# Poissons Ratio (y) = 0.21924 0.91807
# Poissons Ratio (z) = 0.25747 0.40591
#
# Static dielectric constant tensor:
#      x y z
#    x 1.697600 0.000000 0.000000 
#    y 0.000000 1.599790 0.000000 
#    z 0.000000 0.000000 16.571460 
# 
# From -- ./inp_files/9209.got.cif
#   From: 2010.05.17/outbox.cif.g08.bks.cpg/sg59_5_cif.got.tgz:9209.got - 2010.06.03 14:40:33.
