data_PCOD9449482
_publ_section_title
;
Structure prediction by ZEFSAII (Michael W. Deem and Ramdas Pophale) SiO2 
 PCOD9449482
Probable space group: P M M N
;
_chemical_formula_sum "Si O2"
_cell_formula_units_Z 56
_cell_length_a 9.194515
_cell_length_b 24.606379
_cell_length_c 13.932047
_cell_angle_alpha 90.000000
_cell_angle_beta 90.000000
_cell_angle_gamma 90.000000
_cell_volume 3152.038152
_symmetry_space_group_name_H-M "P M M N"
_symmetry_group_IT_number 59
_space_group.IT_coordinate_system_code '2'
_symmetry_cell_setting 'orthorhombic'
loop_
_space_group_symop_operation_xyz
x,y,z
1/2-x,1/2-y,z
1/2+x,-y,-z
-x,1/2+y,-z
-x,-y,-z
1/2+x,1/2+y,-z
1/2-x,y,z
x,1/2-y,z
loop_
_atom_site_type_symbol
_atom_site_label
_atom_site_fract_x
_atom_site_fract_y
_atom_site_fract_z
Si Si1 0.423116 0.686270 0.337841
Si Si2 0.076983 0.414107 0.325212
Si Si3 0.076838 0.687866 0.766910
Si Si4 0.577531 0.312801 0.005004
Si Si5 0.923475 0.903665 0.453634
Si Si6 0.076080 0.372588 0.839179
Si Si7 0.422851 0.020573 0.727308
O O1 0.250000 0.677761 0.329970
O O2 0.450242 0.750000 0.351700
O O3 0.488930 0.649775 0.422700
O O4 0.500977 0.665033 0.241455
O O5 0.250000 0.413698 0.314195
O O6 0.042618 0.420859 0.438346
O O7 0.009968 0.357674 0.289494
O O8 0.008301 0.464596 0.268572
O O9 0.250000 0.681988 0.750140
O O10 0.036366 0.750000 0.741734
O O11 0.053057 0.681027 0.881313
O O12 0.750000 0.320176 0.987094
O O13 0.541840 0.250000 0.979533
O O14 0.486083 0.353723 0.940651
O O15 0.750000 0.892895 0.446661
O O16 0.956855 0.949257 0.373757
O O17 0.250000 0.366158 0.834381
O O18 0.042552 0.434655 0.808530
O O19 0.250000 0.010034 0.729736
#
# Coordination Sequence:
#
# PCOD9449482 Si02
#       7
#     8   8   8   8   8   8   8
#     4  10  20  32  48  74 106 139 176 214 253 306
#     4  11  22  35  55  81 105 133 172 218 266 308
#     4   9  20  39  59  78 104 139 176 213 255 306
#     4   9  18  34  56  80 105 136 175 215 255 304
#     4   9  20  36  52  74 104 137 174 218 264 307
#     4  10  20  33  52  79 108 138 171 210 260 312
#     4   9  19  36  54  74 104 139 174 210 252 310
#
# _framework density 17.766280999999999
#
# number of rings (size 3 to 8) (size 9 to 14) (size 15 to 20)
#    0.000    2.429    0.000    3.857    0.000    8.571 
#    0.000    5.000    0.000    0.000    0.000    0.000 
#    0.000    0.000    0.000    0.000    0.000    0.000 
#
# Total GULP energy -312517.105472 kJ/mol
# GULP energy per Si atom -5580.662598 kJ/mol
# Density = 1.772584 g / cm^3
# Si number density = 17.766281 Si / 1000 Ang^3
#
#
#
# Elastic Constant Matrix: (Units=GPa)
#
#
# Indices 1 2 3 4 5 6 
#
# 1 33.1638 44.5173 17.5382 0.0000 0.0000 0.0000
# 2 44.5173 102.5131 23.5695 0.0000 0.0000 0.0000
# 3 17.5382 23.5695 29.1159 0.0000 0.0000 0.0000
# 4 0.0000 0.0000 0.0000 18.3976 0.0000 0.0000
# 5 0.0000 0.0000 0.0000 0.0000 29.0206 0.0000
# 6 0.0000 0.0000 0.0000 0.0000 0.0000 33.1946
#
#
#
# Elastic Compliance Matrix: (Units=1/GPa)
#
#
# Indices 1 2 3 4 5 6 
#
# 1 0.086347 -0.031379 -0.026611 0.000000 0.000000 0.000000
# 2 -0.031379 0.023389 -0.000032 0.000000 0.000000 0.000000
# 3 -0.026611 -0.000032 0.050401 0.000000 0.000000 0.000000
# 4 0.000000 0.000000 0.000000 0.054355 0.000000 0.000000
# 5 0.000000 0.000000 0.000000 0.000000 0.034458 0.000000
# 6 0.000000 0.000000 0.000000 0.000000 0.000000 0.030125
#
#
# Mechanical properties :
#
#
# Convention : Reuss Voigt Hill
#
# Bulk Modulus (GPa) = 22.67905 37.33808 30.00856
# Shear Modulus (GPa) = 12.20058 21.40042 16.80050
#
# Velocity S-wave (km/s) = 2.62339 3.47443 3.07846
# Velocity P-wave (km/s) = 4.68713 6.09569 5.43722
#
# Compressibility (1/GPa) = 0.04409356
#
# Stress axis : x y z
#
# Youngs Moduli (GPa) = 11.58112 42.75549 19.84104
#
# Poissons Ratio (x) = 1.34162 0.52798
# Poissons Ratio (y) = 0.36340 0.00063
# Poissons Ratio (z) = 0.30818 0.00137
#
# Static dielectric constant tensor:
#      x y z
#    x 1.586870 0.000000 0.000000 
#    y 0.000000 1.591300 0.000000 
#    z 0.000000 0.000000 1.605990 
# 
# From -- ./inp_files/21046.got.cif
#   From: 2010.05.17/outbox.cif.g08.bks.cpg/sg59_11_cif.got.tgz:21046.got - 2010.06.03 14:40:33.
