data_PCOD9449220
_publ_section_title
;
Structure prediction by ZEFSAII (Michael W. Deem and Ramdas Pophale) SiO2 
 PCOD9449220
Probable space group: P M M N
;
_chemical_formula_sum "Si O2"
_cell_formula_units_Z 56
_cell_length_a 8.560404
_cell_length_b 17.247818
_cell_length_c 19.976603
_cell_angle_alpha 90.000000
_cell_angle_beta 90.000000
_cell_angle_gamma 90.000000
_cell_volume 2949.511277
_symmetry_space_group_name_H-M "P M M N"
_symmetry_group_IT_number 59
_space_group.IT_coordinate_system_code '2'
_symmetry_cell_setting 'orthorhombic'
loop_
_space_group_symop_operation_xyz
x,y,z
1/2-x,1/2-y,z
1/2+x,-y,-z
-x,1/2+y,-z
-x,-y,-z
1/2+x,1/2+y,-z
1/2-x,y,z
x,1/2-y,z
loop_
_atom_site_type_symbol
_atom_site_label
_atom_site_fract_x
_atom_site_fract_y
_atom_site_fract_z
Si Si1 0.938692 0.158972 0.025733
Si Si2 0.440430 0.898054 0.119800
Si Si3 0.437042 0.429587 0.155217
Si Si4 0.436915 0.660968 0.716600
Si Si5 0.060907 0.750000 0.206584
Si Si6 0.061213 0.096154 0.564186
Si Si7 0.438862 0.250000 0.642987
Si Si8 0.936755 0.571621 0.589025
O O1 0.750000 0.154025 0.029947
O O2 0.979290 0.250000 0.023011
O O3 0.010223 0.118321 0.090252
O O4 0.989091 0.118207 0.956624
O O5 0.250000 0.897732 0.119663
O O6 0.490502 0.826776 0.166529
O O7 0.492230 0.981611 0.146190
O O8 0.250000 0.430198 0.158694
O O9 0.501347 0.389403 0.221629
O O10 0.250000 0.661132 0.718928
O O11 0.492295 0.750000 0.722197
O O12 0.491418 0.623400 0.647168
O O13 0.250000 0.750000 0.207199
O O14 0.000454 0.750000 0.281831
O O15 0.250000 0.090880 0.566916
O O16 0.010947 0.172657 0.603648
O O17 0.016387 0.098928 0.485729
O O18 0.991405 0.017477 0.594418
O O19 0.250000 0.250000 0.643978
O O20 0.750000 0.575121 0.593598
#
# Coordination Sequence:
#
# PCOD9449220 Si02
#       8
#     8   8   8   8   4   8   4   8
#     4  10  19  36  61  84 111 152 194 233 284 347
#     4   9  19  37  60  84 112 150 194 237 287 345
#     4  11  23  37  57  87 119 149 191 243 293 345
#     4  11  25  43  61  84 116 156 198 241 293 355
#     4  10  20  38  60  84 113 150 197 244 285 340
#     4   9  20  39  61  87 123 160 195 237 293 355
#     4  10  22  38  58  88 123 158 193 236 293 348
#     4  10  21  38  64  90 117 154 198 246 295 348
#
# _framework density 18.986196
#
# number of rings (size 3 to 8) (size 9 to 14) (size 15 to 20)
#    0.000    2.000    0.714    2.143    3.000    4.286 
#    0.000    2.143    0.000    0.000    0.000    0.000 
#    0.000    0.000    0.000    0.000    0.000    0.000 
#
# Total GULP energy -312870.001993 kJ/mol
# GULP energy per Si atom -5586.964321 kJ/mol
# Density = 1.894298 g / cm^3
# Si number density = 18.986196 Si / 1000 Ang^3
#
#
#
# Elastic Constant Matrix: (Units=GPa)
#
#
# Indices 1 2 3 4 5 6 
#
# 1 21.0164 32.6840 25.3101 0.0000 0.0000 0.0000
# 2 32.6840 146.9696 88.1195 0.0000 0.0000 0.0000
# 3 25.3101 88.1195 124.9586 0.0000 0.0000 0.0000
# 4 0.0000 0.0000 0.0000 27.4619 0.0000 0.0000
# 5 0.0000 0.0000 0.0000 0.0000 35.1041 0.0000
# 6 0.0000 0.0000 0.0000 0.0000 0.0000 27.2662
#
#
#
# Elastic Compliance Matrix: (Units=1/GPa)
#
#
# Indices 1 2 3 4 5 6 
#
# 1 0.075215 -0.013154 -0.005958 0.000000 0.000000 0.000000
# 2 -0.013154 0.014089 -0.007271 0.000000 0.000000 0.000000
# 3 -0.005958 -0.007271 0.014337 0.000000 0.000000 0.000000
# 4 0.000000 0.000000 0.000000 0.036414 0.000000 0.000000
# 5 0.000000 0.000000 0.000000 0.000000 0.028487 0.000000
# 6 0.000000 0.000000 0.000000 0.000000 0.000000 0.036676
#
#
# Mechanical properties :
#
#
# Convention : Reuss Voigt Hill
#
# Bulk Modulus (GPa) = 19.65662 65.01908 42.33785
# Shear Modulus (GPa) = 18.18564 27.75515 22.97040
#
# Velocity S-wave (km/s) = 3.09825 3.82758 3.48206
# Velocity P-wave (km/s) = 4.81398 7.33850 6.20597
#
# Compressibility (1/GPa) = 0.05087344
#
# Stress axis : x y z
#
# Youngs Moduli (GPa) = 13.29526 70.97731 69.74983
#
# Poissons Ratio (x) = 0.93366 0.41559
# Poissons Ratio (y) = 0.17489 0.50715
# Poissons Ratio (z) = 0.07922 0.51608
#
# Static dielectric constant tensor:
#      x y z
#    x 1.652770 0.000000 0.000000 
#    y 0.000000 1.645530 0.000000 
#    z 0.000000 0.000000 1.621620 
# 
# From -- ./inp_files/29209.got.cif
#   From: 2010.05.17/outbox.cif.g08.bks.cpg/sg59_15_cif.got.tgz:29209.got - 2010.06.03 14:40:33.
