data_PCOD9449316
_publ_section_title
;
Structure prediction by ZEFSAII (Michael W. Deem and Ramdas Pophale) SiO2 
 PCOD9449316
Probable space group: P M M N
;
_chemical_formula_sum "Si O2"
_cell_formula_units_Z 64
_cell_length_a 8.913831
_cell_length_b 27.389655
_cell_length_c 14.653957
_cell_angle_alpha 90.000000
_cell_angle_beta 90.000000
_cell_angle_gamma 90.000000
_cell_volume 3577.716061
_symmetry_space_group_name_H-M "P M M N"
_symmetry_group_IT_number 59
_space_group.IT_coordinate_system_code '2'
_symmetry_cell_setting 'orthorhombic'
loop_
_space_group_symop_operation_xyz
x,y,z
1/2-x,1/2-y,z
1/2+x,-y,-z
-x,1/2+y,-z
-x,-y,-z
1/2+x,1/2+y,-z
1/2-x,y,z
x,1/2-y,z
loop_
_atom_site_type_symbol
_atom_site_label
_atom_site_fract_x
_atom_site_fract_y
_atom_site_fract_z
Si Si1 0.570961 0.808197 0.266751
Si Si2 0.072414 0.050394 0.527036
Si Si3 0.071677 0.446668 0.021933
Si Si4 0.928326 0.110605 0.863019
Si Si5 0.428300 0.433077 0.236695
Si Si6 0.917974 0.191969 0.542204
Si Si7 0.429435 0.363058 0.391409
Si Si8 0.072192 0.035056 0.729720
O O1 0.750000 0.814907 0.263646
O O2 0.539070 0.750000 0.253063
O O3 0.496131 0.842607 0.190059
O O4 0.513413 0.822724 0.368229
O O5 0.250000 0.045165 0.518244
O O6 0.027120 0.092687 0.459096
O O7 0.040871 0.059676 0.632578
O O8 0.000000 0.000000 0.500000
O O9 0.250000 0.449969 0.004143
O O10 0.049439 0.433541 0.128242
O O11 0.000000 0.500000 0.000000
O O12 0.000092 0.404153 0.959942
O O13 0.750000 0.115249 0.869778
O O14 0.974644 0.063424 0.803242
O O15 0.250000 0.441639 0.254651
O O16 0.467877 0.383439 0.291025
O O17 0.522039 0.478843 0.274215
O O18 0.750000 0.171022 0.548503
O O19 0.908665 0.250000 0.549622
O O20 0.989282 0.180405 0.443750
O O21 0.250000 0.355194 0.394715
O O22 0.250000 0.038698 0.749973
#
# Coordination Sequence:
#
# PCOD9449316 Si02
#       8
#     8   8   8   8   8   8   8   8
#     4  10  21  39  63  89 116 146 183 231 285 340
#     4  10  20  31  46  71 104 141 176 215 262 320
#     4  11  22  37  57  82 112 148 193 240 287 339
#     4  12  24  37  57  83 113 150 187 231 286 343
#     4  10  21  36  54  76 107 147 189 235 281 329
#     4  10  21  37  58  86 117 149 187 230 277 334
#     4  10  20  35  54  77 109 149 190 230 276 330
#     4  11  21  32  50  77 109 147 188 228 274 332
#
# _framework density 17.888507000000001
#
# number of rings (size 3 to 8) (size 9 to 14) (size 15 to 20)
#    0.000    1.500    2.500    3.375    0.000    4.500 
#    0.000    0.000    0.000    0.750    0.000    1.750 
#    0.000    0.000    0.000    0.000    0.000    0.000 
#
# Total GULP energy -357107.570400 kJ/mol
# GULP energy per Si atom -5579.805788 kJ/mol
# Density = 1.784779 g / cm^3
# Si number density = 17.888507 Si / 1000 Ang^3
#
#
#
# Elastic Constant Matrix: (Units=GPa)
#
#
# Indices 1 2 3 4 5 6 
#
# 1 80.0002 34.4132 58.6832 0.0000 0.0000 0.0000
# 2 34.4132 54.0262 33.7896 0.0000 0.0000 0.0000
# 3 58.6832 33.7896 107.7713 0.0000 0.0000 0.0000
# 4 0.0000 0.0000 0.0000 33.9196 0.0000 0.0000
# 5 0.0000 0.0000 0.0000 0.0000 21.9971 0.0000
# 6 0.0000 0.0000 0.0000 0.0000 0.0000 28.7739
#
#
#
# Elastic Compliance Matrix: (Units=1/GPa)
#
#
# Indices 1 2 3 4 5 6 
#
# 1 0.023730 -0.008750 -0.010178 0.000000 0.000000 0.000000
# 2 -0.008750 0.026251 -0.003466 0.000000 0.000000 0.000000
# 3 -0.010178 -0.003466 0.015908 0.000000 0.000000 0.000000
# 4 0.000000 0.000000 0.000000 0.029481 0.000000 0.000000
# 5 0.000000 0.000000 0.000000 0.000000 0.045461 0.000000
# 6 0.000000 0.000000 0.000000 0.000000 0.000000 0.034754
#
#
# Mechanical properties :
#
#
# Convention : Reuss Voigt Hill
#
# Bulk Modulus (GPa) = 47.39166 55.06331 51.22748
# Shear Modulus (GPa) = 21.98728 24.59889 23.29309
#
# Velocity S-wave (km/s) = 3.50970 3.71229 3.61241
# Velocity P-wave (km/s) = 6.55548 7.01591 6.78960
#
# Compressibility (1/GPa) = 0.02110076
#
# Stress axis : x y z
#
# Youngs Moduli (GPa) = 42.14152 38.09447 62.86271
#
# Poissons Ratio (x) = 0.33331 0.63981
# Poissons Ratio (y) = 0.36872 0.21789
# Poissons Ratio (z) = 0.42891 0.13204
#
# Static dielectric constant tensor:
#      x y z
#    x 1.605390 0.000000 0.000000 
#    y 0.000000 1.656340 0.000000 
#    z 0.000000 0.000000 1.657400 
# 
# From -- ./inp_files/21513.got.cif
#   From: 2010.05.17/outbox.cif.g08.bks.cpg/sg59_11_cif.got.tgz:21513.got - 2010.06.03 14:40:33.
