data_PCOD9449004
_publ_section_title
;
Structure prediction by ZEFSAII (Michael W. Deem and Ramdas Pophale) SiO2 
 PCOD9449004
Probable space group: P M M N
;
_chemical_formula_sum "Si O2"
_cell_formula_units_Z 40
_cell_length_a 9.168373
_cell_length_b 29.178712
_cell_length_c 7.663800
_cell_angle_alpha 90.000000
_cell_angle_beta 90.000000
_cell_angle_gamma 90.000000
_cell_volume 2050.229856
_symmetry_space_group_name_H-M "P M M N"
_symmetry_group_IT_number 59
_space_group.IT_coordinate_system_code '2'
_symmetry_cell_setting 'orthorhombic'
loop_
_space_group_symop_operation_xyz
x,y,z
1/2-x,1/2-y,z
1/2+x,-y,-z
-x,1/2+y,-z
-x,-y,-z
1/2+x,1/2+y,-z
1/2-x,y,z
x,1/2-y,z
loop_
_atom_site_type_symbol
_atom_site_label
_atom_site_fract_x
_atom_site_fract_y
_atom_site_fract_z
Si Si1 0.922882 0.145645 0.698788
Si Si2 0.423449 0.696800 0.947093
Si Si3 0.424412 0.362449 0.346754
Si Si4 0.419073 0.036957 0.234588
Si Si5 0.081591 0.446186 0.816280
O O1 0.750000 0.143004 0.668638
O O2 0.005399 0.157432 0.521369
O O3 0.984444 0.096742 0.762294
O O4 0.950484 0.181313 0.854453
O O5 0.250000 0.690713 0.914465
O O6 0.459836 0.750000 0.921075
O O7 0.512420 0.664332 0.818403
O O8 0.250000 0.359623 0.348756
O O9 0.463278 0.416473 0.331446
O O10 0.250000 0.026303 0.276005
O O11 0.519984 0.993134 0.264621
O O12 0.424945 0.048025 0.026595
O O13 0.250000 0.438499 0.766445
#
# Coordination Sequence:
#
# PCOD9449004 Si02
#       5
#     8   8   8   8   8
#     4  11  23  39  62  91 124 162 203 246 300 362
#     4  10  23  44  67  89 117 155 199 249 303 359
#     4  11  23  40  63  92 125 158 199 249 302 358
#     4   9  19  35  56  85 121 160 201 247 298 356
#     4  10  19  34  58  87 120 160 205 251 296 350
#
# _framework density 19.510007999999999
#
# number of rings (size 3 to 8) (size 9 to 14) (size 15 to 20)
#    0.000    1.800    2.000    1.800    0.000    5.200 
#    0.000    2.000    0.000    0.000    0.000    0.000 
#    0.000    0.000    0.000    0.000    0.000    0.000 
#
# Total GULP energy -223622.183757 kJ/mol
# GULP energy per Si atom -5590.554594 kJ/mol
# Density = 1.946560 g / cm^3
# Si number density = 19.510008 Si / 1000 Ang^3
#
#
#
# Elastic Constant Matrix: (Units=GPa)
#
#
# Indices 1 2 3 4 5 6 
#
# 1 31.4350 15.2417 7.2571 0.0000 0.0000 0.0000
# 2 15.2417 51.1366 -10.9084 0.0000 0.0000 0.0000
# 3 7.2571 -10.9084 29.2805 0.0000 0.0000 0.0000
# 4 0.0000 0.0000 0.0000 4.0558 0.0000 0.0000
# 5 0.0000 0.0000 0.0000 0.0000 29.2053 0.0000
# 6 0.0000 0.0000 0.0000 0.0000 0.0000 22.5673
#
#
#
# Elastic Compliance Matrix: (Units=1/GPa)
#
#
# Indices 1 2 3 4 5 6 
#
# 1 0.043869 -0.016724 -0.017103 0.000000 0.000000 0.000000
# 2 -0.016724 0.027619 0.014435 0.000000 0.000000 0.000000
# 3 -0.017103 0.014435 0.043769 0.000000 0.000000 0.000000
# 4 0.000000 0.000000 0.000000 0.246562 0.000000 0.000000
# 5 0.000000 0.000000 0.000000 0.000000 0.034240 0.000000
# 6 0.000000 0.000000 0.000000 0.000000 0.000000 0.044312
#
#
# Mechanical properties :
#
#
# Convention : Reuss Voigt Hill
#
# Bulk Modulus (GPa) = 13.07671 15.00365 14.04018
# Shear Modulus (GPa) = 9.90789 17.84977 13.87883
#
# Velocity S-wave (km/s) = 2.25597 3.02802 2.67005
# Velocity P-wave (km/s) = 3.67464 4.46454 4.08871
#
# Compressibility (1/GPa) = 0.07647181
#
# Stress axis : x y z
#
# Youngs Moduli (GPa) = 22.79509 36.20643 22.84725
#
# Poissons Ratio (x) = 0.60552 0.39076
# Poissons Ratio (y) = 0.38123 -0.32979
# Poissons Ratio (z) = 0.38987 -0.52262
#
# Static dielectric constant tensor:
#      x y z
#    x 1.644410 0.000000 0.000000 
#    y 0.000000 1.649560 0.000000 
#    z 0.000000 0.000000 1.705260 
# 
# From -- ./inp_files/5844.got.cif
#   From: 2010.05.17/outbox.cif.g08.bks.cpg/sg59_3_cif.got.tgz:5844.got - 2010.06.03 14:40:33.
