data_PCOD9449027
_publ_section_title
;
Structure prediction by ZEFSAII (Michael W. Deem and Ramdas Pophale) SiO2 
 PCOD9449027
Probable space group: P M M N
;
_chemical_formula_sum "Si O2"
_cell_formula_units_Z 48
_cell_length_a 14.822033
_cell_length_b 13.820296
_cell_length_c 10.538562
_cell_angle_alpha 90.000000
_cell_angle_beta 90.000000
_cell_angle_gamma 90.000000
_cell_volume 2158.770504
_symmetry_space_group_name_H-M "P M M N"
_symmetry_group_IT_number 59
_space_group.IT_coordinate_system_code '2'
_symmetry_cell_setting 'orthorhombic'
loop_
_space_group_symop_operation_xyz
x,y,z
1/2-x,1/2-y,z
1/2+x,-y,-z
-x,1/2+y,-z
-x,-y,-z
1/2+x,1/2+y,-z
1/2-x,y,z
x,1/2-y,z
loop_
_atom_site_type_symbol
_atom_site_label
_atom_site_fract_x
_atom_site_fract_y
_atom_site_fract_z
Si Si1 0.044410 0.447972 0.367627
Si Si2 0.415007 0.638021 0.024490
Si Si3 0.344215 0.135741 0.153465
Si Si4 0.144119 0.033617 0.607467
Si Si5 0.893814 0.552990 0.110284
Si Si6 0.352287 0.640765 0.299796
O O1 0.073143 0.398341 0.237645
O O2 0.102008 0.407922 0.487327
O O3 0.936579 0.452575 0.383228
O O4 0.993441 0.595234 0.085961
O O5 0.425252 0.750000 0.985115
O O6 0.388748 0.562530 0.915286
O O7 0.350251 0.634148 0.146453
O O8 0.250000 0.101938 0.215734
O O9 0.345754 0.250000 0.148955
O O10 0.345126 0.097301 0.011361
O O11 0.250000 0.009697 0.586052
O O12 0.082720 0.942536 0.350280
O O13 0.138509 0.078543 0.749114
O O14 0.250000 0.628741 0.346874
O O15 0.383466 0.750000 0.330314
#
# Coordination Sequence:
#
# PCOD9449027 Si02
#       6
#     8   8   8   8   8   8
#     4  11  22  44  67  87 127 170 212 262 313 377
#     4  10  20  35  59  91 125 168 214 258 316 377
#     4  11  23  40  66  96 126 169 220 262 311 384
#     4  11  24  40  64  95 127 167 210 260 327 384
#     4  11  20  38  61  91 133 169 204 271 325 377
#     4  10  19  34  62  94 119 156 210 258 303 366
#
# _framework density 22.234877999999998
#
# number of rings (size 3 to 8) (size 9 to 14) (size 15 to 20)
#    0.000    1.333    3.333    3.500    0.000    0.667 
#    0.000    5.833    0.000   10.000    0.000    0.000 
#    0.000    0.000    0.000    0.000    0.000    0.000 
#
# Total GULP energy -267636.122416 kJ/mol
# GULP energy per Si atom -5575.752550 kJ/mol
# Density = 2.218427 g / cm^3
# Si number density = 22.234878 Si / 1000 Ang^3
#
#
#
# Elastic Constant Matrix: (Units=GPa)
#
#
# Indices 1 2 3 4 5 6 
#
# 1 148.7623 10.6225 32.6110 0.0000 0.0000 0.0000
# 2 10.6225 88.7192 1.0311 0.0000 0.0000 0.0000
# 3 32.6110 1.0311 115.4724 0.0000 0.0000 0.0000
# 4 0.0000 0.0000 0.0000 -1.2205 0.0000 0.0000
# 5 0.0000 0.0000 0.0000 0.0000 11.1511 0.0000
# 6 0.0000 0.0000 0.0000 0.0000 0.0000 8.7458
#
#
#
# Elastic Compliance Matrix: (Units=1/GPa)
#
#
# Indices 1 2 3 4 5 6 
#
# 1 0.007228 -0.000842 -0.002034 0.000000 0.000000 0.000000
# 2 -0.000842 0.011371 0.000136 0.000000 0.000000 0.000000
# 3 -0.002034 0.000136 0.009233 0.000000 0.000000 0.000000
# 4 0.000000 0.000000 0.000000 -0.819331 0.000000 0.000000
# 5 0.000000 0.000000 0.000000 0.000000 0.089677 0.000000
# 6 0.000000 0.000000 0.000000 0.000000 0.000000 0.114340
#
#
# Mechanical properties :
#
#
# Convention : Reuss Voigt Hill
#
# Bulk Modulus (GPa) = 44.73619 49.05368 46.89493
# Shear Modulus (GPa) = -8.70243 24.31458 7.80608
#
# Velocity S-wave (km/s) = -1.98049 3.31045 1.87573
# Velocity P-wave (km/s) = 3.86441 6.05983 5.08209
#
# Compressibility (1/GPa) = 0.02235327
#
# Stress axis : x y z
#
# Youngs Moduli (GPa) = 138.34930 87.94510 108.30447
#
# Poissons Ratio (x) = 0.07403 0.22027
# Poissons Ratio (y) = 0.11646 -0.01475
# Poissons Ratio (z) = 0.28137 -0.01198
#
# Static dielectric constant tensor:
#      x y z
#    x 1.923410 0.000000 0.000000 
#    y 0.000000 1.798980 0.000000 
#    z 0.000000 0.000000 1.876920 
# 
# From -- ./inp_files/10245.got.cif
#   From: 2010.05.17/outbox.cif.g08.bks.cpg/sg59_6_cif.got.tgz:10245.got - 2010.06.03 14:40:33.
