data_PCOD9449646
_publ_section_title
;
Structure prediction by ZEFSAII (Michael W. Deem and Ramdas Pophale) SiO2 
 PCOD9449646
Probable space group: P M M N
;
_chemical_formula_sum "Si O2"
_cell_formula_units_Z 48
_cell_length_a 9.276506
_cell_length_b 7.535588
_cell_length_c 31.874242
_cell_angle_alpha 90.000000
_cell_angle_beta 90.000000
_cell_angle_gamma 90.000000
_cell_volume 2228.134695
_symmetry_space_group_name_H-M "P M M N"
_symmetry_group_IT_number 59
_space_group.IT_coordinate_system_code '2'
_symmetry_cell_setting 'orthorhombic'
loop_
_space_group_symop_operation_xyz
x,y,z
1/2-x,1/2-y,z
1/2+x,-y,-z
-x,1/2+y,-z
-x,-y,-z
1/2+x,1/2+y,-z
1/2-x,y,z
x,1/2-y,z
loop_
_atom_site_type_symbol
_atom_site_label
_atom_site_fract_x
_atom_site_fract_y
_atom_site_fract_z
Si Si1 0.583699 0.967133 0.875131
Si Si2 0.416111 0.032671 0.292274
Si Si3 0.913126 0.460547 0.542342
Si Si4 0.083866 0.966729 0.791439
Si Si5 0.412596 0.539672 0.626251
Si Si6 0.586135 0.037162 0.042466
O O1 0.750000 0.023508 0.875103
O O2 0.583864 0.750000 0.875319
O O3 0.500395 0.022830 0.833182
O O4 0.500363 0.027510 0.916779
O O5 0.250000 0.976033 0.291675
O O6 0.415226 0.250000 0.292536
O O7 0.501128 0.977616 0.250584
O O8 0.497597 0.970156 0.334118
O O9 0.750000 0.534263 0.541327
O O10 0.901868 0.250000 0.545199
O O11 0.000000 0.500000 0.500000
O O12 0.001332 0.518879 0.583092
O O13 0.250000 0.023982 0.791650
O O14 0.084416 0.750000 0.791487
O O15 0.250000 0.467050 0.623456
O O16 0.399733 0.750000 0.633436
O O17 0.750000 0.968969 0.040666
O O18 0.594390 0.250000 0.046579
O O19 0.500000 0.000000 0.000000
#
# Coordination Sequence:
#
# PCOD9449646 Si02
#       6
#     8   8   8   8   8   8
#     4   9  16  26  41  62  90 124 161 202 249 299
#     4   9  16  26  42  66  97 132 167 203 246 294
#     4  11  24  40  58  81 107 136 172 212 254 301
#     4   9  15  23  37  60  92 127 162 202 247 294
#     4  10  20  34  53  78 107 138 172 209 250 297
#     4  10  20  33  49  70  96 127 164 206 253 304
#
# _framework density 21.542681999999999
#
# number of rings (size 3 to 8) (size 9 to 14) (size 15 to 20)
#    0.000    2.333    0.000    3.500    0.000   11.333 
#    0.000    0.000    0.000    0.000    0.000    1.167 
#    0.000    9.333    0.000    0.000    0.000    0.000 
#
# Total GULP energy -268295.447982 kJ/mol
# GULP energy per Si atom -5589.488500 kJ/mol
# Density = 2.149365 g / cm^3
# Si number density = 21.542682 Si / 1000 Ang^3
#
#
#
# Elastic Constant Matrix: (Units=GPa)
#
#
# Indices 1 2 3 4 5 6 
#
# 1 279.4586 6.0169 167.1037 0.0000 0.0000 0.0000
# 2 6.0169 52.9496 -3.9957 0.0000 0.0000 0.0000
# 3 167.1037 -3.9957 255.4230 0.0000 0.0000 0.0000
# 4 0.0000 0.0000 0.0000 11.2810 0.0000 0.0000
# 5 0.0000 0.0000 0.0000 0.0000 46.2022 0.0000
# 6 0.0000 0.0000 0.0000 0.0000 0.0000 6.1085
#
#
#
# Elastic Compliance Matrix: (Units=1/GPa)
#
#
# Indices 1 2 3 4 5 6 
#
# 1 0.005927 -0.000967 -0.003893 0.000000 0.000000 0.000000
# 2 -0.000967 0.019066 0.000931 0.000000 0.000000 0.000000
# 3 -0.003893 0.000931 0.006476 0.000000 0.000000 0.000000
# 4 0.000000 0.000000 0.000000 0.088645 0.000000 0.000000
# 5 0.000000 0.000000 0.000000 0.000000 0.021644 0.000000
# 6 0.000000 0.000000 0.000000 0.000000 0.000000 0.163706
#
#
# Mechanical properties :
#
#
# Convention : Reuss Voigt Hill
#
# Bulk Modulus (GPa) = 42.35214 102.89788 72.62501
# Shear Modulus (GPa) = 15.56702 40.63209 28.09955
#
# Velocity S-wave (km/s) = 2.69106 4.34766 3.61552
# Velocity P-wave (km/s) = 5.41831 8.54817 7.15644
#
# Compressibility (1/GPa) = 0.02361156
#
# Stress axis : x y z
#
# Youngs Moduli (GPa) = 168.72695 52.44928 154.41086
#
# Poissons Ratio (x) = 0.05073 0.60105
# Poissons Ratio (y) = 0.16320 -0.14376
# Poissons Ratio (z) = 0.65678 -0.04883
#
# Static dielectric constant tensor:
#      x y z
#    x 1.755570 0.000000 0.000000 
#    y 0.000000 1.864370 0.000000 
#    z 0.000000 0.000000 1.601550 
# 
# From -- ./inp_files/32886.got.cif
#   From: 2010.05.17/outbox.cif.g08.bks.cpg/sg59_17_cif.got.tgz:32886.got - 2010.06.03 14:40:33.
