data_PCOD9449038
_publ_section_title
;
Structure prediction by ZEFSAII (Michael W. Deem and Ramdas Pophale) SiO2 
 PCOD9449038
Probable space group: P M M N
;
_chemical_formula_sum "Si O2"
_cell_formula_units_Z 56
_cell_length_a 19.452728
_cell_length_b 8.880266
_cell_length_c 18.315818
_cell_angle_alpha 90.000000
_cell_angle_beta 90.000000
_cell_angle_gamma 90.000000
_cell_volume 3163.973290
_symmetry_space_group_name_H-M "P M M N"
_symmetry_group_IT_number 59
_space_group.IT_coordinate_system_code '2'
_symmetry_cell_setting 'orthorhombic'
loop_
_space_group_symop_operation_xyz
x,y,z
1/2-x,1/2-y,z
1/2+x,-y,-z
-x,1/2+y,-z
-x,-y,-z
1/2+x,1/2+y,-z
1/2-x,y,z
x,1/2-y,z
loop_
_atom_site_type_symbol
_atom_site_label
_atom_site_fract_x
_atom_site_fract_y
_atom_site_fract_z
Si Si1 0.830618 0.930713 0.414794
Si Si2 0.909556 0.931737 0.265687
Si Si3 0.570138 0.430965 0.531868
Si Si4 0.565217 0.066899 0.699629
Si Si5 0.330747 0.929955 0.870740
Si Si6 0.669944 0.068265 0.824302
Si Si7 0.666482 0.576491 0.976818
O O1 0.750000 0.965505 0.411370
O O2 0.838600 0.750000 0.423516
O O3 0.867751 0.972421 0.338946
O O4 0.868219 0.012290 0.481258
O O5 0.907404 0.750000 0.258980
O O6 0.988677 0.978708 0.276233
O O7 0.874481 0.003081 0.195201
O O8 0.500000 0.500000 0.500000
O O9 0.565463 0.250000 0.529896
O O10 0.578385 0.479341 0.616193
O O11 0.566074 0.250000 0.699792
O O12 0.622333 0.016970 0.757535
O O13 0.250000 0.972266 0.861079
O O14 0.334798 0.750000 0.871318
O O15 0.354626 0.993406 0.949041
O O16 0.750000 0.025636 0.813229
O O17 0.667408 0.250000 0.828485
O O18 0.645181 0.002265 0.901575
O O19 0.750000 0.571867 0.976427
O O20 0.644855 0.750000 0.978324
#
# Coordination Sequence:
#
# PCOD9449038 Si02
#       7
#     8   8   8   8   8   8   8
#     4  10  21  37  57  82 112 146 185 230 280 330
#     4  10  19  35  55  75 105 145 184 219 265 324
#     4  11  21  37  59  81 109 146 188 229 275 331
#     4   9  19  35  56  79 105 141 182 220 265 327
#     4  10  20  33  51  78 109 138 175 223 269 315
#     4   9  17  32  55  80 105 134 172 222 273 315
#     4   9  17  31  52  77 105 139 177 215 262 320
#
# _framework density 17.699265
#
# number of rings (size 3 to 8) (size 9 to 14) (size 15 to 20)
#    0.000    2.286    1.429    1.714    0.000    4.571 
#    0.000    4.286    0.000    1.714    0.000    0.000 
#    0.000    0.000    0.000    0.000    0.000    0.000 
#
# Total GULP energy -312477.944167 kJ/mol
# GULP energy per Si atom -5579.963289 kJ/mol
# Density = 1.765898 g / cm^3
# Si number density = 17.699265 Si / 1000 Ang^3
#
#
#
# Elastic Constant Matrix: (Units=GPa)
#
#
# Indices 1 2 3 4 5 6 
#
# 1 106.4144 38.5105 96.8151 0.0000 0.0000 0.0000
# 2 38.5105 32.3546 53.7443 0.0000 0.0000 0.0000
# 3 96.8151 53.7443 213.6935 0.0000 0.0000 0.0000
# 4 0.0000 0.0000 0.0000 32.9183 0.0000 0.0000
# 5 0.0000 0.0000 0.0000 0.0000 28.1240 0.0000
# 6 0.0000 0.0000 0.0000 0.0000 0.0000 21.0874
#
#
#
# Elastic Compliance Matrix: (Units=1/GPa)
#
#
# Indices 1 2 3 4 5 6 
#
# 1 0.019266 -0.014483 -0.005086 0.000000 0.000000 0.000000
# 2 -0.014483 0.063972 -0.009528 0.000000 0.000000 0.000000
# 3 -0.005086 -0.009528 0.009380 0.000000 0.000000 0.000000
# 4 0.000000 0.000000 0.000000 0.030378 0.000000 0.000000
# 5 0.000000 0.000000 0.000000 0.000000 0.035557 0.000000
# 6 0.000000 0.000000 0.000000 0.000000 0.000000 0.047422
#
#
# Mechanical properties :
#
#
# Convention : Reuss Voigt Hill
#
# Bulk Modulus (GPa) = 29.04860 81.17805 55.11333
# Shear Modulus (GPa) = 18.13945 27.31878 22.72912
#
# Velocity S-wave (km/s) = 3.20483 3.93300 3.58744
# Velocity P-wave (km/s) = 5.49022 8.16023 6.95457
#
# Compressibility (1/GPa) = 0.03442506
#
# Stress axis : x y z
#
# Youngs Moduli (GPa) = 51.90599 15.63178 106.60973
#
# Poissons Ratio (x) = 0.22639 0.54221
# Poissons Ratio (y) = 0.75175 1.01573
# Poissons Ratio (z) = 0.26399 0.14893
#
# Static dielectric constant tensor:
#      x y z
#    x 1.593160 0.000000 0.000000 
#    y 0.000000 1.598730 0.000000 
#    z 0.000000 0.000000 1.581930 
# 
# From -- ./inp_files/24214.got.cif
#   From: 2010.05.17/outbox.cif.g08.bks.cpg/sg59_13_cif.got.tgz:24214.got - 2010.06.03 14:40:33.
