data_PCOD9449432
_publ_section_title
;
Structure prediction by ZEFSAII (Michael W. Deem and Ramdas Pophale) SiO2 
 PCOD9449432
Probable space group: P M M N
;
_chemical_formula_sum "Si O2"
_cell_formula_units_Z 64
_cell_length_a 9.145316
_cell_length_b 23.682630
_cell_length_c 18.308305
_cell_angle_alpha 90.000000
_cell_angle_beta 90.000000
_cell_angle_gamma 90.000000
_cell_volume 3965.306711
_symmetry_space_group_name_H-M "P M M N"
_symmetry_group_IT_number 59
_space_group.IT_coordinate_system_code '2'
_symmetry_cell_setting 'orthorhombic'
loop_
_space_group_symop_operation_xyz
x,y,z
1/2-x,1/2-y,z
1/2+x,-y,-z
-x,1/2+y,-z
-x,-y,-z
1/2+x,1/2+y,-z
1/2-x,y,z
x,1/2-y,z
loop_
_atom_site_type_symbol
_atom_site_label
_atom_site_fract_x
_atom_site_fract_y
_atom_site_fract_z
Si Si1 0.424369 0.683076 0.780498
Si Si2 0.918156 0.318614 0.922139
Si Si3 0.924189 0.380989 0.638203
Si Si4 0.581520 0.818683 0.931146
Si Si5 0.424517 0.123523 0.354903
Si Si6 0.921098 0.817000 0.491836
Si Si7 0.424631 0.316956 0.771049
Si Si8 0.074648 0.003071 0.420801
O O1 0.250000 0.676859 0.785104
O O2 0.456328 0.750000 0.769075
O O3 0.498296 0.665686 0.856988
O O4 0.490014 0.647813 0.713889
O O5 0.750000 0.337574 0.919305
O O6 0.916558 0.250000 0.924691
O O7 0.005182 0.333362 0.848736
O O8 0.998622 0.337984 0.995799
O O9 0.750000 0.375181 0.647037
O O10 0.959604 0.446763 0.624765
O O11 0.978114 0.348488 0.565981
O O12 0.005543 0.353371 0.706642
O O13 0.750000 0.837161 0.930308
O O14 0.581689 0.750000 0.933234
O O15 0.250000 0.124768 0.339981
O O16 0.451234 0.161918 0.426362
O O17 0.466699 0.060080 0.378274
O O18 0.750000 0.830399 0.475986
O O19 0.939598 0.750000 0.486393
O O20 0.250000 0.323437 0.773032
O O21 0.455569 0.250000 0.758530
O O22 0.250000 0.004964 0.431995
O O23 0.000000 0.000000 0.500000
#
# Coordination Sequence:
#
# PCOD9449432 Si02
#       8
#     8   8   8   8   8   8   8   8
#     4  10  20  32  47  72 105 135 165 205 250 294
#     4   9  16  27  45  70 101 134 166 203 246 289
#     4  11  22  34  50  73  98 126 162 207 256 297
#     4   9  16  27  45  69  99 136 172 201 236 290
#     4  10  20  35  53  71  94 128 167 206 249 297
#     4  10  20  33  50  71  96 129 165 198 240 299
#     4  10  20  33  49  71 101 136 171 204 242 295
#     4  10  21  37  56  74  93 122 165 213 255 298
#
# _framework density 16.139986
#
# number of rings (size 3 to 8) (size 9 to 14) (size 15 to 20)
#    0.000    2.125    1.250    2.625    0.000    8.250 
#    0.000    0.000    0.000    0.000    0.000    0.875 
#    0.000    0.000    0.000    0.000    0.000    0.000 
#
# Total GULP energy -357114.629896 kJ/mol
# GULP energy per Si atom -5579.916092 kJ/mol
# Density = 1.610325 g / cm^3
# Si number density = 16.139986 Si / 1000 Ang^3
#
#
#
# Elastic Constant Matrix: (Units=GPa)
#
#
# Indices 1 2 3 4 5 6 
#
# 1 83.2263 37.6641 70.2446 0.0000 0.0000 0.0000
# 2 37.6641 49.4072 38.3805 0.0000 0.0000 0.0000
# 3 70.2446 38.3805 128.5158 0.0000 0.0000 0.0000
# 4 0.0000 0.0000 0.0000 -0.6273 0.0000 0.0000
# 5 0.0000 0.0000 0.0000 0.0000 34.6239 0.0000
# 6 0.0000 0.0000 0.0000 0.0000 0.0000 17.9764
#
#
#
# Elastic Compliance Matrix: (Units=1/GPa)
#
#
# Indices 1 2 3 4 5 6 
#
# 1 0.026671 -0.011728 -0.011075 0.000000 0.000000 0.000000
# 2 -0.011728 0.031511 -0.003000 0.000000 0.000000 0.000000
# 3 -0.011075 -0.003000 0.014731 0.000000 0.000000 0.000000
# 4 0.000000 0.000000 0.000000 -1.594252 0.000000 0.000000
# 5 0.000000 0.000000 0.000000 0.000000 0.028882 0.000000
# 6 0.000000 0.000000 0.000000 0.000000 0.000000 0.055629
#
#
# Mechanical properties :
#
#
# Convention : Reuss Voigt Hill
#
# Bulk Modulus (GPa) = 46.93651 61.52532 54.23092
# Shear Modulus (GPa) = -3.62813 18.05194 7.21190
#
# Velocity S-wave (km/s) = -1.50093 3.34797 2.11614
# Velocity P-wave (km/s) = 5.11276 7.29025 6.29635
#
# Compressibility (1/GPa) = 0.02130537
#
# Stress axis : x y z
#
# Youngs Moduli (GPa) = 37.49431 31.73476 67.88550
#
# Poissons Ratio (x) = 0.37219 0.75185
# Poissons Ratio (y) = 0.43974 0.20367
# Poissons Ratio (z) = 0.41526 0.09521
#
# Static dielectric constant tensor:
#      x y z
#    x 1.547300 0.000000 0.000000 
#    y 0.000000 1.524140 0.000000 
#    z 0.000000 0.000000 1.516560 
# 
# From -- ./inp_files/26437.got.cif
#   From: 2010.05.17/outbox.cif.g08.bks.cpg/sg59_14_cif.got.tgz:26437.got - 2010.06.03 14:40:33.
