data_PCOD9449935
_publ_section_title
;
Structure prediction by ZEFSAII (Michael W. Deem and Ramdas Pophale) SiO2 
 PCOD9449935
Probable space group: P M M N
;
_chemical_formula_sum "Si O2"
_cell_formula_units_Z 64
_cell_length_a 9.489839
_cell_length_b 14.330977
_cell_length_c 24.641203
_cell_angle_alpha 90.000000
_cell_angle_beta 90.000000
_cell_angle_gamma 90.000000
_cell_volume 3351.170698
_symmetry_space_group_name_H-M "P M M N"
_symmetry_group_IT_number 59
_space_group.IT_coordinate_system_code '2'
_symmetry_cell_setting 'orthorhombic'
loop_
_space_group_symop_operation_xyz
x,y,z
1/2-x,1/2-y,z
1/2+x,-y,-z
-x,1/2+y,-z
-x,-y,-z
1/2+x,1/2+y,-z
1/2-x,y,z
x,1/2-y,z
loop_
_atom_site_type_symbol
_atom_site_label
_atom_site_fract_x
_atom_site_fract_y
_atom_site_fract_z
Si Si1 0.088426 0.863522 0.427031
Si Si2 0.920979 0.644894 0.081148
Si Si3 0.085029 0.861972 0.636261
Si Si4 0.418956 0.524864 0.744345
Si Si5 0.911775 0.862362 0.960067
Si Si6 0.581245 0.042653 0.135329
Si Si7 0.080619 0.859177 0.303986
Si Si8 0.587745 0.864074 0.530678
O O1 0.250000 0.893739 0.434608
O O2 0.090248 0.750000 0.428403
O O3 0.040992 0.886397 0.366061
O O4 0.991503 0.895418 0.476240
O O5 0.750000 0.649331 0.078561
O O6 0.971492 0.750000 0.092604
O O7 0.956800 0.565710 0.124089
O O8 0.966338 0.613798 0.020598
O O9 0.250000 0.881553 0.624859
O O10 0.070591 0.750000 0.641412
O O11 0.046708 0.909770 0.693109
O O12 0.991151 0.893715 0.585520
O O13 0.250000 0.509683 0.744477
O O14 0.456282 0.567304 0.802911
O O15 0.498925 0.427904 0.735348
O O16 0.750000 0.895706 0.954837
O O17 0.909242 0.750000 0.958954
O O18 0.004165 0.899578 0.911044
O O19 0.750000 0.052477 0.129064
O O20 0.250000 0.868973 0.299748
O O21 0.046939 0.750000 0.295810
O O22 0.750000 0.891985 0.530600
O O23 0.583312 0.750000 0.530456
#
# Coordination Sequence:
#
# PCOD9449935 Si02
#       8
#     8   8   8   8   8   8   8   8
#     4   8  14  27  48  72  97 127 162 198 245 308
#     4   8  15  30  52  77 106 138 170 206 252 307
#     4   9  18  34  52  67  93 135 173 207 253 307
#     4  10  22  36  51  76 104 133 175 218 254 297
#     4   9  18  33  53  77 105 138 173 207 250 306
#     4  10  20  33  52  78 105 135 172 215 259 299
#     4   9  19  36  56  76 101 136 173 208 251 303
#     4   9  16  26  45  75 102 122 155 206 259 308
#
# _framework density 19.097805000000001
#
# number of rings (size 3 to 8) (size 9 to 14) (size 15 to 20)
#    0.000    3.000    0.000    2.250    0.000    4.500 
#    0.000    4.375    0.000    2.625    0.000    0.000 
#    0.000    0.000    0.000    0.000    0.000    0.000 
#
# Total GULP energy -357013.093916 kJ/mol
# GULP energy per Si atom -5578.329592 kJ/mol
# Density = 1.905434 g / cm^3
# Si number density = 19.097805 Si / 1000 Ang^3
#
#
#
# Elastic Constant Matrix: (Units=GPa)
#
#
# Indices 1 2 3 4 5 6 
#
# 1 29.7740 1.1302 29.5985 0.0000 0.0000 0.0000
# 2 1.1302 20.2379 -1.1035 0.0000 0.0000 0.0000
# 3 29.5985 -1.1035 79.2976 0.0000 0.0000 0.0000
# 4 0.0000 0.0000 0.0000 22.3462 0.0000 0.0000
# 5 0.0000 0.0000 0.0000 0.0000 23.8614 0.0000
# 6 0.0000 0.0000 0.0000 0.0000 0.0000 18.0859
#
#
#
# Elastic Compliance Matrix: (Units=1/GPa)
#
#
# Indices 1 2 3 4 5 6 
#
# 1 0.053739 -0.004098 -0.020116 0.000000 0.000000 0.000000
# 2 -0.004098 0.049762 0.002222 0.000000 0.000000 0.000000
# 3 -0.020116 0.002222 0.020150 0.000000 0.000000 0.000000
# 4 0.000000 0.000000 0.000000 0.044750 0.000000 0.000000
# 5 0.000000 0.000000 0.000000 0.000000 0.041909 0.000000
# 6 0.000000 0.000000 0.000000 0.000000 0.000000 0.055292
#
#
# Mechanical properties :
#
#
# Convention : Reuss Voigt Hill
#
# Bulk Modulus (GPa) = 12.55203 20.95111 16.75157
# Shear Modulus (GPa) = 14.87471 19.50431 17.18951
#
# Velocity S-wave (km/s) = 2.79385 3.19922 3.00338
# Velocity P-wave (km/s) = 4.12241 4.96396 4.56263
#
# Compressibility (1/GPa) = 0.07966841
#
# Stress axis : x y z
#
# Youngs Moduli (GPa) = 18.60846 20.09555 49.62791
#
# Poissons Ratio (x) = 0.08235 0.99829
# Poissons Ratio (y) = 0.07625 -0.11027
# Poissons Ratio (z) = 0.37432 -0.04465
#
# Static dielectric constant tensor:
#      x y z
#    x 1.632300 0.000000 0.000000 
#    y 0.000000 1.687720 0.000000 
#    z 0.000000 0.000000 1.651740 
# 
# From -- ./inp_files/31610.got.cif
#   From: 2010.05.17/outbox.cif.g08.bks.cpg/sg59_16_cif.got.tgz:31610.got - 2010.06.03 14:40:33.
