data_PCOD9449490
_publ_section_title
;
Structure prediction by ZEFSAII (Michael W. Deem and Ramdas Pophale) SiO2 
 PCOD9449490
Probable space group: P M M N
;
_chemical_formula_sum "Si O2"
_cell_formula_units_Z 48
_cell_length_a 8.696492
_cell_length_b 21.253345
_cell_length_c 15.433789
_cell_angle_alpha 90.000000
_cell_angle_beta 90.000000
_cell_angle_gamma 90.000000
_cell_volume 2852.620195
_symmetry_space_group_name_H-M "P M M N"
_symmetry_group_IT_number 59
_space_group.IT_coordinate_system_code '2'
_symmetry_cell_setting 'orthorhombic'
loop_
_space_group_symop_operation_xyz
x,y,z
1/2-x,1/2-y,z
1/2+x,-y,-z
-x,1/2+y,-z
-x,-y,-z
1/2+x,1/2+y,-z
1/2-x,y,z
x,1/2-y,z
loop_
_atom_site_type_symbol
_atom_site_label
_atom_site_fract_x
_atom_site_fract_y
_atom_site_fract_z
Si Si1 0.437500 0.317589 0.007340
Si Si2 0.433405 0.050640 0.932342
Si Si3 0.429121 0.155639 0.201136
Si Si4 0.928292 0.991479 0.767084
Si Si5 0.935275 0.955508 0.574960
Si Si6 0.066770 0.820010 0.613399
O O1 0.250000 0.319340 0.007730
O O2 0.485333 0.250000 0.970641
O O3 0.490170 0.379851 0.958411
O O4 0.483762 0.320915 0.108207
O O5 0.250000 0.049088 0.940837
O O6 0.479856 0.033139 0.834843
O O7 0.500000 0.000000 0.000000
O O8 0.250000 0.173907 0.213853
O O9 0.432921 0.080022 0.197935
O O10 0.522958 0.176682 0.284767
O O11 0.750000 0.011612 0.766175
O O12 0.983707 0.984890 0.668140
O O13 0.750000 0.954617 0.573632
O O14 0.992151 0.882858 0.572308
O O15 0.000000 0.000000 0.500000
O O16 0.250000 0.824505 0.603439
O O17 0.017629 0.750000 0.581809
#
# Coordination Sequence:
#
# PCOD9449490 Si02
#       6
#     8   8   8   8   8   8
#     4   9  17  29  45  66  95 132 173 213 252 295
#     4  11  20  31  49  72  99 133 173 213 251 296
#     4   9  16  29  48  69  97 133 171 207 248 305
#     4   9  18  33  51  75 101 129 167 207 250 305
#     4  10  21  37  58  80 105 134 172 218 265 320
#     4  10  20  32  48  75 110 140 168 206 255 314
#
# _framework density 16.826635
#
# number of rings (size 3 to 8) (size 9 to 14) (size 15 to 20)
#    0.000    2.333    1.667    3.000    0.000    5.333 
#    0.000    0.000    0.000    4.000    0.000    4.667 
#    0.000    0.000    0.000    0.000    0.000    0.000 
#
# Total GULP energy -267550.774255 kJ/mol
# GULP energy per Si atom -5573.974464 kJ/mol
# Density = 1.678834 g / cm^3
# Si number density = 16.826635 Si / 1000 Ang^3
#
#
#
# Elastic Constant Matrix: (Units=GPa)
#
#
# Indices 1 2 3 4 5 6 
#
# 1 36.1923 35.2901 26.6553 0.0000 0.0000 0.0000
# 2 35.2901 156.0408 75.1069 0.0000 0.0000 0.0000
# 3 26.6553 75.1069 84.7464 0.0000 0.0000 0.0000
# 4 0.0000 0.0000 0.0000 18.8956 0.0000 0.0000
# 5 0.0000 0.0000 0.0000 0.0000 25.8463 0.0000
# 6 0.0000 0.0000 0.0000 0.0000 0.0000 19.6089
#
#
#
# Elastic Compliance Matrix: (Units=1/GPa)
#
#
# Indices 1 2 3 4 5 6 
#
# 1 0.038041 -0.004960 -0.007569 0.000000 0.000000 0.000000
# 2 -0.004960 0.011823 -0.008918 0.000000 0.000000 0.000000
# 3 -0.007569 -0.008918 0.022084 0.000000 0.000000 0.000000
# 4 0.000000 0.000000 0.000000 0.052922 0.000000 0.000000
# 5 0.000000 0.000000 0.000000 0.000000 0.038690 0.000000
# 6 0.000000 0.000000 0.000000 0.000000 0.000000 0.050997
#
#
# Mechanical properties :
#
#
# Convention : Reuss Voigt Hill
#
# Bulk Modulus (GPa) = 34.41890 61.23156 47.82523
# Shear Modulus (GPa) = 18.71696 22.19864 20.45780
#
# Velocity S-wave (km/s) = 3.33880 3.63610 3.49061
# Velocity P-wave (km/s) = 5.94667 7.35506 6.68804
#
# Compressibility (1/GPa) = 0.02905380
#
# Stress axis : x y z
#
# Youngs Moduli (GPa) = 26.28724 84.58230 45.28120
#
# Poissons Ratio (x) = 0.41954 0.34274
# Poissons Ratio (y) = 0.13039 0.40381
# Poissons Ratio (z) = 0.19897 0.75430
#
# Static dielectric constant tensor:
#      x y z
#    x 1.574150 0.000000 0.000000 
#    y 0.000000 1.600350 0.000000 
#    z 0.000000 0.000000 1.551300 
# 
# From -- ./inp_files/20722.got.cif
#   From: 2010.05.17/outbox.cif.g08.bks.cpg/sg59_11_cif.got.tgz:20722.got - 2010.06.03 14:40:33.
