data_PCOD9449812
_publ_section_title
;
Structure prediction by ZEFSAII (Michael W. Deem and Ramdas Pophale) SiO2 
 PCOD9449812
Probable space group: P M M N
;
_chemical_formula_sum "Si O2"
_cell_formula_units_Z 64
_cell_length_a 18.857161
_cell_length_b 20.237196
_cell_length_c 8.617511
_cell_angle_alpha 90.000000
_cell_angle_beta 90.000000
_cell_angle_gamma 90.000000
_cell_volume 3288.580622
_symmetry_space_group_name_H-M "P M M N"
_symmetry_group_IT_number 59
_space_group.IT_coordinate_system_code '2'
_symmetry_cell_setting 'orthorhombic'
loop_
_space_group_symop_operation_xyz
x,y,z
1/2-x,1/2-y,z
1/2+x,-y,-z
-x,1/2+y,-z
-x,-y,-z
1/2+x,1/2+y,-z
1/2-x,y,z
x,1/2-y,z
loop_
_atom_site_type_symbol
_atom_site_label
_atom_site_fract_x
_atom_site_fract_y
_atom_site_fract_z
Si Si1 0.168393 0.547159 0.481853
Si Si2 0.671929 0.869522 0.980214
Si Si3 0.057652 0.175584 0.523034
Si Si4 0.399196 0.675182 0.612654
Si Si5 0.534091 0.823265 0.117299
Si Si6 0.404330 0.060908 0.291995
Si Si7 0.048154 0.911113 0.891312
Si Si8 0.171372 0.497400 0.831236
O O1 0.250000 0.541941 0.431268
O O2 0.147628 0.622616 0.518393
O O3 0.116981 0.508936 0.364844
O O4 0.161492 0.510784 0.649047
O O5 0.750000 0.839261 0.968614
O O6 0.653722 0.913674 0.830502
O O7 0.604542 0.823929 0.010672
O O8 0.671393 0.921289 0.122450
O O9 0.086970 0.250000 0.493291
O O10 0.056510 0.163706 0.706525
O O11 0.092905 0.116974 0.425998
O O12 0.976050 0.176813 0.468051
O O13 0.371509 0.750000 0.620031
O O14 0.414500 0.644150 0.782397
O O15 0.501653 0.750000 0.111494
O O16 0.482662 0.877662 0.044759
O O17 0.480867 0.061341 0.206638
O O18 0.106841 0.966725 0.917294
O O19 0.250000 0.523896 0.872978
#
# Coordination Sequence:
#
# PCOD9449812 Si02
#       8
#     8   8   8   8   8   8   8   8
#     4  10  20  33  51  75 105 142 179 219 264 310
#     4  10  21  35  52  75 104 137 171 213 262 310
#     4   9  19  35  54  77 104 134 171 216 264 312
#     4   9  18  33  52  75 104 135 170 215 263 312
#     4  10  20  34  54  77 101 133 173 215 257 306
#     4  10  20  33  53  78 107 138 177 221 262 311
#     4   9  19  33  55  80 103 134 172 217 264 310
#     4   9  19  35  52  75 106 136 169 210 260 313
#
# _framework density 19.461283999999999
#
# number of rings (size 3 to 8) (size 9 to 14) (size 15 to 20)
#    0.000    2.500    0.000    1.500    0.000   12.000 
#    0.000    0.625    0.000    3.750    0.000    1.750 
#    0.000    3.000    0.000    0.000    0.000    0.000 
#
# Total GULP energy -357052.329066 kJ/mol
# GULP energy per Si atom -5578.942642 kJ/mol
# Density = 1.941699 g / cm^3
# Si number density = 19.461284 Si / 1000 Ang^3
#
#
#
# Elastic Constant Matrix: (Units=GPa)
#
#
# Indices 1 2 3 4 5 6 
#
# 1 42.7015 13.1833 -5.2274 0.0000 0.0000 0.0000
# 2 13.1833 79.3711 18.8760 0.0000 0.0000 0.0000
# 3 -5.2274 18.8760 28.9713 0.0000 0.0000 0.0000
# 4 0.0000 0.0000 0.0000 13.9382 0.0000 0.0000
# 5 0.0000 0.0000 0.0000 0.0000 13.0802 0.0000
# 6 0.0000 0.0000 0.0000 0.0000 0.0000 15.0800
#
#
#
# Elastic Compliance Matrix: (Units=1/GPa)
#
#
# Indices 1 2 3 4 5 6 
#
# 1 0.026557 -0.006568 0.009071 0.000000 0.000000 0.000000
# 2 -0.006568 0.016534 -0.011958 0.000000 0.000000 0.000000
# 3 0.009071 -0.011958 0.043945 0.000000 0.000000 0.000000
# 4 0.000000 0.000000 0.000000 0.071745 0.000000 0.000000
# 5 0.000000 0.000000 0.000000 0.000000 0.076451 0.000000
# 6 0.000000 0.000000 0.000000 0.000000 0.000000 0.066313
#
#
# Mechanical properties :
#
#
# Convention : Reuss Voigt Hill
#
# Bulk Modulus (GPa) = 14.67874 22.74530 18.71202
# Shear Modulus (GPa) = 14.57037 16.70049 15.63543
#
# Velocity S-wave (km/s) = 2.73918 2.93258 2.83753
# Velocity P-wave (km/s) = 4.19083 4.81451 4.51346
#
# Compressibility (1/GPa) = 0.06812575
#
# Stress axis : x y z
#
# Youngs Moduli (GPa) = 37.65527 60.48231 22.75596
#
# Poissons Ratio (x) = 0.39727 -0.20643
# Poissons Ratio (y) = 0.24733 0.27211
# Poissons Ratio (z) = -0.34158 0.72322
#
# Static dielectric constant tensor:
#      x y z
#    x 1.678160 0.000000 0.000000 
#    y 0.000000 1.699560 0.000000 
#    z 0.000000 0.000000 1.683280 
# 
# From -- ./inp_files/10714.got.cif
#   From: 2010.05.17/outbox.cif.g08.bks.cpg/sg59_6_cif.got.tgz:10714.got - 2010.06.03 14:40:33.
