data_PCOD9449853
_publ_section_title
;
Structure prediction by ZEFSAII (Michael W. Deem and Ramdas Pophale) SiO2 
 PCOD9449853
Probable space group: P M M N
;
_chemical_formula_sum "Si O2"
_cell_formula_units_Z 56
_cell_length_a 20.608722
_cell_length_b 10.637299
_cell_length_c 13.809301
_cell_angle_alpha 90.000000
_cell_angle_beta 90.000000
_cell_angle_gamma 90.000000
_cell_volume 3027.290679
_symmetry_space_group_name_H-M "P M M N"
_symmetry_group_IT_number 59
_space_group.IT_coordinate_system_code '2'
_symmetry_cell_setting 'orthorhombic'
loop_
_space_group_symop_operation_xyz
x,y,z
1/2-x,1/2-y,z
1/2+x,-y,-z
-x,1/2+y,-z
-x,-y,-z
1/2+x,1/2+y,-z
1/2-x,y,z
x,1/2-y,z
loop_
_atom_site_type_symbol
_atom_site_label
_atom_site_fract_x
_atom_site_fract_y
_atom_site_fract_z
Si Si1 0.327406 0.610574 0.729803
Si Si2 0.999178 0.385990 0.617588
Si Si3 0.320160 0.393322 0.379104
Si Si4 0.949286 0.890500 0.742580
Si Si5 0.608184 0.032654 0.466669
Si Si6 0.052124 0.394124 0.027051
Si Si7 0.826555 0.896674 0.112634
O O1 0.250000 0.602930 0.710717
O O2 0.340801 0.750000 0.771684
O O3 0.365757 0.597375 0.629364
O O4 0.342790 0.497024 0.803258
O O5 0.996078 0.250000 0.664754
O O6 0.990128 0.499746 0.692546
O O7 0.943376 0.395427 0.535091
O O8 0.067191 0.410049 0.565089
O O9 0.250000 0.415069 0.334004
O O10 0.321646 0.250000 0.416287
O O11 0.378277 0.403964 0.303891
O O12 0.333537 0.488838 0.465475
O O13 0.974273 0.750000 0.717826
O O14 0.942953 0.900036 0.857054
O O15 0.031745 0.250000 0.001917
O O16 0.121173 0.414799 0.973300
O O17 0.000000 0.500000 0.000000
O O18 0.750000 0.915507 0.085823
O O19 0.832245 0.750000 0.144463
#
# Coordination Sequence:
#
# PCOD9449853 Si02
#       7
#     8   8   8   8   8   8   8
#     4  10  21  36  55  80 109 144 184 224 273 329
#     4  10  21  35  53  77 107 146 186 223 267 324
#     4   9  17  31  53  80 108 139 177 222 269 322
#     4   9  20  37  55  79 110 139 176 224 276 329
#     4  10  20  33  51  76 110 144 183 223 271 316
#     4  10  22  39  59  86 114 146 185 233 288 339
#     4   9  20  39  60  83 113 147 187 234 283 338
#
# _framework density 18.498387999999998
#
# number of rings (size 3 to 8) (size 9 to 14) (size 15 to 20)
#    0.000    2.429    0.000    1.286    2.000    6.857 
#    0.000    4.286    0.000    3.857    0.000    4.000 
#    0.000    0.000    0.000    0.000    0.000    0.000 
#
# Total GULP energy -312185.417039 kJ/mol
# GULP energy per Si atom -5574.739590 kJ/mol
# Density = 1.845629 g / cm^3
# Si number density = 18.498388 Si / 1000 Ang^3
#
#
#
# Elastic Constant Matrix: (Units=GPa)
#
#
# Indices 1 2 3 4 5 6 
#
# 1 54.5307 39.1732 20.6787 0.0000 0.0000 0.0000
# 2 39.1732 129.0209 57.2121 0.0000 0.0000 0.0000
# 3 20.6787 57.2121 76.2395 0.0000 0.0000 0.0000
# 4 0.0000 0.0000 0.0000 0.2965 0.0000 0.0000
# 5 0.0000 0.0000 0.0000 0.0000 7.4935 0.0000
# 6 0.0000 0.0000 0.0000 0.0000 0.0000 14.7540
#
#
#
# Elastic Compliance Matrix: (Units=1/GPa)
#
#
# Indices 1 2 3 4 5 6 
#
# 1 0.023573 -0.006477 -0.001533 0.000000 0.000000 0.000000
# 2 -0.006477 0.013396 -0.008296 0.000000 0.000000 0.000000
# 3 -0.001533 -0.008296 0.019758 0.000000 0.000000 0.000000
# 4 0.000000 0.000000 0.000000 3.372368 0.000000 0.000000
# 5 0.000000 0.000000 0.000000 0.000000 0.133450 0.000000
# 6 0.000000 0.000000 0.000000 0.000000 0.000000 0.067778
#
#
# Mechanical properties :
#
#
# Convention : Reuss Voigt Hill
#
# Bulk Modulus (GPa) = 41.46926 54.87991 48.17459
# Shear Modulus (GPa) = 1.36204 14.02395 7.69299
#
# Velocity S-wave (km/s) = 0.85901 2.75638 2.04151
# Velocity P-wave (km/s) = 4.84255 6.31363 5.62638
#
# Compressibility (1/GPa) = 0.02411425
#
# Stress axis : x y z
#
# Youngs Moduli (GPa) = 42.42184 74.64924 50.61310
#
# Poissons Ratio (x) = 0.48353 0.07758
# Poissons Ratio (y) = 0.27478 0.41988
# Poissons Ratio (z) = 0.06503 0.61928
#
# Static dielectric constant tensor:
#      x y z
#    x 1.635570 0.000000 0.000000 
#    y 0.000000 1.661550 0.000000 
#    z 0.000000 0.000000 1.610750 
# 
# From -- ./inp_files/18326.got.cif
#   From: 2010.05.17/outbox.cif.g08.bks.cpg/sg59_10_cif.got.tgz:18326.got - 2010.06.03 14:40:33.
