data_PCOD9449680
_publ_section_title
;
Structure prediction by ZEFSAII (Michael W. Deem and Ramdas Pophale) SiO2 
 PCOD9449680
Probable space group: P M M N
;
_chemical_formula_sum "Si O2"
_cell_formula_units_Z 48
_cell_length_a 7.455419
_cell_length_b 14.961211
_cell_length_c 18.768091
_cell_angle_alpha 90.000000
_cell_angle_beta 90.000000
_cell_angle_gamma 90.000000
_cell_volume 2093.432222
_symmetry_space_group_name_H-M "P M M N"
_symmetry_group_IT_number 59
_space_group.IT_coordinate_system_code '2'
_symmetry_cell_setting 'orthorhombic'
loop_
_space_group_symop_operation_xyz
x,y,z
1/2-x,1/2-y,z
1/2+x,-y,-z
-x,1/2+y,-z
-x,-y,-z
1/2+x,1/2+y,-z
1/2-x,y,z
x,1/2-y,z
loop_
_atom_site_type_symbol
_atom_site_label
_atom_site_fract_x
_atom_site_fract_y
_atom_site_fract_z
Si Si1 0.029977 0.647452 0.808392
Si Si2 0.964494 0.500925 0.083462
Si Si3 0.457855 0.859563 0.652683
Si Si4 0.964264 0.853029 0.347374
Si Si5 0.535545 0.352660 0.499241
Si Si6 0.531005 0.646693 0.192370
O O1 0.250000 0.646493 0.805883
O O2 0.976396 0.750000 0.818628
O O3 0.970397 0.584975 0.872556
O O4 0.966994 0.616166 0.729928
O O5 0.750000 0.501017 0.090678
O O6 0.031832 0.586943 0.126954
O O7 0.000000 0.500000 0.000000
O O8 0.250000 0.889512 0.653985
O O9 0.458422 0.750000 0.651249
O O10 0.535244 0.888718 0.576303
O O11 0.750000 0.849318 0.343675
O O12 0.032402 0.750000 0.349873
O O13 0.024499 0.889376 0.270711
O O14 0.003177 0.896195 0.423918
O O15 0.750000 0.348287 0.491332
O O16 0.467189 0.250000 0.504837
O O17 0.750000 0.646008 0.191531
O O18 0.476534 0.750000 0.186564
#
# Coordination Sequence:
#
# PCOD9449680 Si02
#       6
#     8   8   8   8   8   8
#     4   8  14  26  45  68  91 114 144 182 219 257
#     4  10  20  33  50  70  89 112 143 180 224 269
#     4   7  10  18  34  57  84 112 140 171 208 249
#     4   8  13  22  37  56  79 110 146 178 205 238
#     4   8  12  18  32  57  85 109 137 174 212 248
#     4   8  15  29  47  65  87 118 153 181 207 252
#
# _framework density 22.928854999999999
#
# number of rings (size 3 to 8) (size 9 to 14) (size 15 to 20)
#    0.000    3.833    0.000    3.000    0.000    0.667 
#    0.000    0.833    0.000    3.000    0.000    2.333 
#    0.000    0.000    0.000    0.000    0.000    0.000 
#
# Total GULP energy -267457.262385 kJ/mol
# GULP energy per Si atom -5572.026300 kJ/mol
# Density = 2.287667 g / cm^3
# Si number density = 22.928855 Si / 1000 Ang^3
#
#
#
# Elastic Constant Matrix: (Units=GPa)
#
#
# Indices 1 2 3 4 5 6 
#
# 1 65.9835 2.5340 6.1663 0.0000 0.0000 0.0000
# 2 2.5340 94.4607 92.8847 0.0000 0.0000 0.0000
# 3 6.1663 92.8847 304.1317 0.0000 0.0000 0.0000
# 4 0.0000 0.0000 0.0000 62.8630 0.0000 0.0000
# 5 0.0000 0.0000 0.0000 0.0000 25.2856 0.0000
# 6 0.0000 0.0000 0.0000 0.0000 0.0000 -10.7507
#
#
#
# Elastic Compliance Matrix: (Units=1/GPa)
#
#
# Indices 1 2 3 4 5 6 
#
# 1 0.015186 -0.000150 -0.000262 0.000000 0.000000 0.000000
# 2 -0.000150 0.015132 -0.004618 0.000000 0.000000 0.000000
# 3 -0.000262 -0.004618 0.004704 0.000000 0.000000 0.000000
# 4 0.000000 0.000000 0.000000 0.015908 0.000000 0.000000
# 5 0.000000 0.000000 0.000000 0.000000 0.039548 0.000000
# 6 0.000000 0.000000 0.000000 0.000000 0.000000 -0.093017
#
#
# Mechanical properties :
#
#
# Convention : Reuss Voigt Hill
#
# Bulk Modulus (GPa) = 40.06257 74.19397 57.12827
# Shear Modulus (GPa) = 315.64693 39.67895 177.66294
#
# Velocity S-wave (km/s) = 11.74574 4.16447 8.81207
# Velocity P-wave (km/s) = 14.19368 7.45334 11.33607
#
# Compressibility (1/GPa) = 0.02496096
#
# Stress axis : x y z
#
# Youngs Moduli (GPa) = 65.85204 66.08639 212.59188
#
# Poissons Ratio (x) = 0.00988 0.05575
# Poissons Ratio (y) = 0.00985 0.98182
# Poissons Ratio (z) = 0.01727 0.30521
#
# Static dielectric constant tensor:
#      x y z
#    x 1.900310 0.000000 0.000000 
#    y 0.000000 1.886520 0.000000 
#    z 0.000000 0.000000 1.890520 
# 
# From -- ./inp_files/25737.got.cif
#   From: 2010.05.17/outbox.cif.g08.bks.cpg/sg59_13_cif.got.tgz:25737.got - 2010.06.03 14:40:33.
