data_PCOD9449452
_publ_section_title
;
Structure prediction by ZEFSAII (Michael W. Deem and Ramdas Pophale) SiO2 
 PCOD9449452
Probable space group: P M M N
;
_chemical_formula_sum "Si O2"
_cell_formula_units_Z 64
_cell_length_a 8.951615
_cell_length_b 24.462777
_cell_length_c 16.473040
_cell_angle_alpha 90.000000
_cell_angle_beta 90.000000
_cell_angle_gamma 90.000000
_cell_volume 3607.288728
_symmetry_space_group_name_H-M "P M M N"
_symmetry_group_IT_number 59
_space_group.IT_coordinate_system_code '2'
_symmetry_cell_setting 'orthorhombic'
loop_
_space_group_symop_operation_xyz
x,y,z
1/2-x,1/2-y,z
1/2+x,-y,-z
-x,1/2+y,-z
-x,-y,-z
1/2+x,1/2+y,-z
1/2-x,y,z
x,1/2-y,z
loop_
_atom_site_type_symbol
_atom_site_label
_atom_site_fract_x
_atom_site_fract_y
_atom_site_fract_z
Si Si1 0.422501 0.184327 0.819367
Si Si2 0.570478 0.185666 0.645397
Si Si3 0.571414 0.034214 0.387666
Si Si4 0.928983 0.691342 0.851621
Si Si5 0.429132 0.423277 0.222876
Si Si6 0.080573 0.657755 0.014336
Si Si7 0.919542 0.462200 0.063888
Si Si8 0.070863 0.085564 0.547481
O O1 0.250000 0.166732 0.811687
O O2 0.424677 0.250000 0.829660
O O3 0.510162 0.172781 0.736056
O O4 0.497047 0.160320 0.900057
O O5 0.750000 0.181795 0.643512
O O6 0.530768 0.250000 0.628071
O O7 0.500085 0.140367 0.585521
O O8 0.750000 0.040709 0.391420
O O9 0.506171 0.055286 0.303463
O O10 0.496529 0.068904 0.460224
O O11 0.538804 0.969455 0.399892
O O12 0.750000 0.688021 0.859514
O O13 0.968824 0.750000 0.814575
O O14 0.975440 0.639130 0.798928
O O15 0.996449 0.688596 0.941761
O O16 0.250000 0.425758 0.229901
O O17 0.486018 0.457546 0.145876
O O18 0.250000 0.678072 0.024535
O O19 0.085903 0.596682 0.979183
O O20 0.750000 0.479691 0.081692
O O21 0.000000 0.500000 0.000000
O O22 0.250000 0.091904 0.542299
#
# Coordination Sequence:
#
# PCOD9449452 Si02
#       8
#     8   8   8   8   8   8   8   8
#     4  10  20  33  50  73 102 137 176 215 255 305
#     4  10  21  37  57  82 113 146 179 220 271 324
#     4  10  21  38  60  85 112 141 178 224 269 317
#     4   9  18  33  52  74 102 137 177 219 263 314
#     4  10  20  35  56  80 107 141 179 221 271 323
#     4  10  20  32  48  72 100 132 173 219 264 310
#     4  10  21  36  52  72 101 137 176 218 265 316
#     4  10  21  38  61  86 110 141 179 219 267 321
#
# _framework density 17.741857
#
# number of rings (size 3 to 8) (size 9 to 14) (size 15 to 20)
#    0.000    2.125    0.000    3.000    0.000    7.750 
#    0.000    0.625    0.000    2.250    0.000    0.000 
#    0.000    0.000    0.000    0.000    0.000    0.000 
#
# Total GULP energy -357045.352958 kJ/mol
# GULP energy per Si atom -5578.833640 kJ/mol
# Density = 1.770148 g / cm^3
# Si number density = 17.741857 Si / 1000 Ang^3
#
#
#
# Elastic Constant Matrix: (Units=GPa)
#
#
# Indices 1 2 3 4 5 6 
#
# 1 79.3542 51.4480 56.7676 0.0000 0.0000 0.0000
# 2 51.4480 88.8369 80.3582 0.0000 0.0000 0.0000
# 3 56.7676 80.3582 136.5718 0.0000 0.0000 0.0000
# 4 0.0000 0.0000 0.0000 9.8074 0.0000 0.0000
# 5 0.0000 0.0000 0.0000 0.0000 37.4711 0.0000
# 6 0.0000 0.0000 0.0000 0.0000 0.0000 23.1815
#
#
#
# Elastic Compliance Matrix: (Units=1/GPa)
#
#
# Indices 1 2 3 4 5 6 
#
# 1 0.020868 -0.009062 -0.003342 0.000000 0.000000 0.000000
# 2 -0.009062 0.028000 -0.012708 0.000000 0.000000 0.000000
# 3 -0.003342 -0.012708 0.016189 0.000000 0.000000 0.000000
# 4 0.000000 0.000000 0.000000 0.101963 0.000000 0.000000
# 5 0.000000 0.000000 0.000000 0.000000 0.026687 0.000000
# 6 0.000000 0.000000 0.000000 0.000000 0.000000 0.043138
#
#
# Mechanical properties :
#
#
# Convention : Reuss Voigt Hill
#
# Bulk Modulus (GPa) = 67.42210 75.76783 71.59496
# Shear Modulus (GPa) = 17.12246 21.83794 19.48020
#
# Velocity S-wave (km/s) = 3.10996 3.51218 3.31717
# Velocity P-wave (km/s) = 7.14003 7.69712 7.42380
#
# Compressibility (1/GPa) = 0.01483193
#
# Stress axis : x y z
#
# Youngs Moduli (GPa) = 47.92098 35.71378 61.77151
#
# Poissons Ratio (x) = 0.32365 0.20642
# Poissons Ratio (y) = 0.43428 0.78502
# Poissons Ratio (z) = 0.16013 0.45387
#
# Static dielectric constant tensor:
#      x y z
#    x 1.606160 0.000000 0.000000 
#    y 0.000000 1.616120 0.000000 
#    z 0.000000 0.000000 1.557480 
# 
# From -- ./inp_files/21511.got.cif
#   From: 2010.05.17/outbox.cif.g08.bks.cpg/sg59_11_cif.got.tgz:21511.got - 2010.06.03 14:40:33.
