data_PCOD9449135
_publ_section_title
;
Structure prediction by ZEFSAII (Michael W. Deem and Ramdas Pophale) SiO2 
 PCOD9449135
Probable space group: P M M N
;
_chemical_formula_sum "Si O2"
_cell_formula_units_Z 64
_cell_length_a 25.697317
_cell_length_b 7.984437
_cell_length_c 14.702720
_cell_angle_alpha 90.000000
_cell_angle_beta 90.000000
_cell_angle_gamma 90.000000
_cell_volume 3016.683633
_symmetry_space_group_name_H-M "P M M N"
_symmetry_group_IT_number 59
_space_group.IT_coordinate_system_code '2'
_symmetry_cell_setting 'orthorhombic'
loop_
_space_group_symop_operation_xyz
x,y,z
1/2-x,1/2-y,z
1/2+x,-y,-z
-x,1/2+y,-z
-x,-y,-z
1/2+x,1/2+y,-z
1/2-x,y,z
x,1/2-y,z
loop_
_atom_site_type_symbol
_atom_site_label
_atom_site_fract_x
_atom_site_fract_y
_atom_site_fract_z
Si Si1 0.689551 0.047858 0.898821
Si Si2 0.911597 0.445072 0.371381
Si Si3 0.640585 0.450848 0.085202
Si Si4 0.809206 0.548735 0.698430
Si Si5 0.692067 0.045402 0.270385
Si Si6 0.399927 0.445228 0.427939
Si Si7 0.483064 0.555970 0.285344
Si Si8 0.978317 0.949983 0.097688
O O1 0.750000 0.994527 0.907365
O O2 0.688559 0.250000 0.899629
O O3 0.670664 0.992902 0.799548
O O4 0.657805 0.985263 0.986087
O O5 0.917542 0.250000 0.344958
O O6 0.855268 0.504598 0.335883
O O7 0.914054 0.461626 0.479732
O O8 0.958716 0.543556 0.325460
O O9 0.646081 0.250000 0.082278
O O10 0.676578 0.509435 0.168350
O O11 0.580884 0.489924 0.106142
O O12 0.750000 0.484302 0.690835
O O13 0.807705 0.750000 0.691487
O O14 0.847794 0.487416 0.620427
O O15 0.750000 0.987857 0.295245
O O16 0.692993 0.250000 0.270964
O O17 0.392843 0.250000 0.451300
O O18 0.444962 0.460788 0.352944
O O19 0.466283 0.750000 0.283572
O O20 0.487194 0.488126 0.182570
O O21 0.978287 0.750000 0.104455
O O22 0.000000 0.000000 0.000000
#
# Coordination Sequence:
#
# PCOD9449135 Si02
#       8
#     8   8   8   8   8   8   8   8
#     4   9  18  32  54  84 115 149 189 234 281 332
#     4  11  22  39  63  90 120 154 195 246 299 351
#     4  10  19  35  59  86 119 156 195 238 287 348
#     4   9  20  39  59  82 116 156 194 237 292 350
#     4   9  18  34  59  90 122 158 199 243 293 352
#     4  11  24  40  62  88 116 154 198 243 296 358
#     4  11  24  43  64  87 118 154 196 246 294 349
#     4  11  25  41  60  87 121 157 194 240 294 351
#
# _framework density 21.215350000000001
#
# number of rings (size 3 to 8) (size 9 to 14) (size 15 to 20)
#    0.000    1.875    1.250    2.250    1.750    5.000 
#    0.000    0.000    0.000    3.750    0.000    0.000 
#    0.000    0.000    0.000    0.000    0.000    0.000 
#
# Total GULP energy -357619.621691 kJ/mol
# GULP energy per Si atom -5587.806589 kJ/mol
# Density = 2.116706 g / cm^3
# Si number density = 21.215350 Si / 1000 Ang^3
#
#
#
# Elastic Constant Matrix: (Units=GPa)
#
#
# Indices 1 2 3 4 5 6 
#
# 1 61.7482 -9.0639 14.1353 0.0000 0.0000 0.0000
# 2 -9.0639 21.0801 -4.6415 0.0000 0.0000 0.0000
# 3 14.1353 -4.6415 104.3130 0.0000 0.0000 0.0000
# 4 0.0000 0.0000 0.0000 15.9626 0.0000 0.0000
# 5 0.0000 0.0000 0.0000 0.0000 27.0941 0.0000
# 6 0.0000 0.0000 0.0000 0.0000 0.0000 0.6434
#
#
#
# Elastic Compliance Matrix: (Units=1/GPa)
#
#
# Indices 1 2 3 4 5 6 
#
# 1 0.017723 0.007162 -0.002083 0.000000 0.000000 0.000000
# 2 0.007162 0.050801 0.001290 0.000000 0.000000 0.000000
# 3 -0.002083 0.001290 0.009926 0.000000 0.000000 0.000000
# 4 0.000000 0.000000 0.000000 0.062646 0.000000 0.000000
# 5 0.000000 0.000000 0.000000 0.000000 0.036908 0.000000
# 6 0.000000 0.000000 0.000000 0.000000 0.000000 1.554282
#
#
# Mechanical properties :
#
#
# Convention : Reuss Voigt Hill
#
# Bulk Modulus (GPa) = 10.96633 20.88901 15.92767
# Shear Modulus (GPa) = 2.85723 21.18745 12.02234
#
# Velocity S-wave (km/s) = 1.16177 3.16363 2.38309
# Velocity P-wave (km/s) = 2.64195 4.81791 3.88537
#
# Compressibility (1/GPa) = 0.09118820
#
# Stress axis : x y z
#
# Youngs Moduli (GPa) = 56.42415 19.68447 100.74366
#
# Poissons Ratio (x) = -0.14098 0.20984
# Poissons Ratio (y) = -0.40410 -0.12996
# Poissons Ratio (z) = 0.11753 -0.02539
#
# Static dielectric constant tensor:
#      x y z
#    x 1.753010 0.000000 0.000000 
#    y 0.000000 1.754310 0.000000 
#    z 0.000000 0.000000 1.757760 
# 
# From -- ./inp_files/24729.got.cif
#   From: 2010.05.17/outbox.cif.g08.bks.cpg/sg59_13_cif.got.tgz:24729.got - 2010.06.03 14:40:33.
