data_PCOD9449002
_publ_section_title
;
Structure prediction by ZEFSAII (Michael W. Deem and Ramdas Pophale) SiO2 
 PCOD9449002
Probable space group: P M M N
;
_chemical_formula_sum "Si O2"
_cell_formula_units_Z 64
_cell_length_a 7.938494
_cell_length_b 31.766723
_cell_length_c 12.233252
_cell_angle_alpha 90.000000
_cell_angle_beta 90.000000
_cell_angle_gamma 90.000000
_cell_volume 3084.980755
_symmetry_space_group_name_H-M "P M M N"
_symmetry_group_IT_number 59
_space_group.IT_coordinate_system_code '2'
_symmetry_cell_setting 'orthorhombic'
loop_
_space_group_symop_operation_xyz
x,y,z
1/2-x,1/2-y,z
1/2+x,-y,-z
-x,1/2+y,-z
-x,-y,-z
1/2+x,1/2+y,-z
1/2-x,y,z
x,1/2-y,z
loop_
_atom_site_type_symbol
_atom_site_label
_atom_site_fract_x
_atom_site_fract_y
_atom_site_fract_z
Si Si1 0.054508 0.450632 0.255736
Si Si2 0.043268 0.957691 0.222587
Si Si3 0.951444 0.378336 0.636100
Si Si4 0.046501 0.296874 0.772249
Si Si5 0.053562 0.628988 0.608422
Si Si6 0.454866 0.334929 0.003425
Si Si7 0.052079 0.568629 0.986092
Si Si8 0.450954 0.296877 0.233300
O O1 0.250000 0.448869 0.287161
O O2 0.989485 0.497952 0.273853
O O3 0.966318 0.413225 0.320423
O O4 0.039747 0.442707 0.125882
O O5 0.250000 0.957563 0.220351
O O6 0.984256 0.917203 0.290564
O O7 0.989526 0.954081 0.096021
O O8 0.750000 0.384532 0.630217
O O9 0.019787 0.377472 0.512715
O O10 0.984818 0.334190 0.695086
O O11 0.250000 0.296920 0.767909
O O12 0.987267 0.250000 0.742731
O O13 0.998893 0.308169 0.896857
O O14 0.250000 0.638030 0.595475
O O15 0.981653 0.668369 0.674753
O O16 0.250000 0.338352 0.006201
O O17 0.528155 0.381628 0.994047
O O18 0.513923 0.313932 0.116318
O O19 0.250000 0.559512 0.971401
O O20 0.250000 0.293647 0.221337
O O21 0.516883 0.250000 0.257700
#
# Coordination Sequence:
#
# PCOD9449002 Si02
#       8
#     8   8   8   8   8   8   8   8
#     4  11  22  38  60  85 116 152 189 233 288 346
#     4   9  20  38  60  85 115 151 188 233 286 343
#     4  10  22  42  61  80 112 153 196 240 288 337
#     4  10  21  37  59  89 121 150 187 235 283 337
#     4  11  24  40  59  83 114 151 194 245 289 332
#     4  10  19  34  58  87 118 151 185 228 284 340
#     4  11  20  34  59  88 119 150 185 230 283 345
#     4  10  21  38  61  86 115 153 191 230 283 344
#
# _framework density 20.745671999999999
#
# number of rings (size 3 to 8) (size 9 to 14) (size 15 to 20)
#    0.000    1.750    2.500    1.875    0.000    4.000 
#    0.000    5.625    0.000    2.250    0.000    0.000 
#    0.000    0.000    0.000    0.000    0.000    0.000 
#
# Total GULP energy -357583.433286 kJ/mol
# GULP energy per Si atom -5587.241145 kJ/mol
# Density = 2.069845 g / cm^3
# Si number density = 20.745672 Si / 1000 Ang^3
#
#
#
# Elastic Constant Matrix: (Units=GPa)
#
#
# Indices 1 2 3 4 5 6 
#
# 1 15.2009 -14.8794 -8.3151 0.0000 0.0000 0.0000
# 2 -14.8794 105.5616 23.5022 0.0000 0.0000 0.0000
# 3 -8.3151 23.5022 109.7705 0.0000 0.0000 0.0000
# 4 0.0000 0.0000 0.0000 -0.5264 0.0000 0.0000
# 5 0.0000 0.0000 0.0000 0.0000 12.5320 0.0000
# 6 0.0000 0.0000 0.0000 0.0000 0.0000 10.1616
#
#
#
# Elastic Compliance Matrix: (Units=1/GPa)
#
#
# Indices 1 2 3 4 5 6 
#
# 1 0.077735 0.010129 0.003720 0.000000 0.000000 0.000000
# 2 0.010129 0.011267 -0.001645 0.000000 0.000000 0.000000
# 3 0.003720 -0.001645 0.009744 0.000000 0.000000 0.000000
# 4 0.000000 0.000000 0.000000 -1.899819 0.000000 0.000000
# 5 0.000000 0.000000 0.000000 0.000000 0.079796 0.000000
# 6 0.000000 0.000000 0.000000 0.000000 0.000000 0.098410
#
#
# Mechanical properties :
#
#
# Convention : Reuss Voigt Hill
#
# Bulk Modulus (GPa) = 8.11999 25.68319 16.90159
# Shear Modulus (GPa) = -3.11289 19.78179 8.33445
#
# Velocity S-wave (km/s) = -1.22628 3.09129 2.00653
# Velocity P-wave (km/s) = 1.38476 5.01481 3.67871
#
# Compressibility (1/GPa) = 0.12315284
#
# Stress axis : x y z
#
# Youngs Moduli (GPa) = 12.86426 88.75388 102.62837
#
# Poissons Ratio (x) = -0.89898 -0.38175
# Poissons Ratio (y) = -0.13030 0.16883
# Poissons Ratio (z) = -0.04785 0.14601
#
# Static dielectric constant tensor:
#      x y z
#    x 1.761030 0.000000 0.000000 
#    y 0.000000 1.729200 0.000000 
#    z 0.000000 0.000000 1.733150 
# 
# From -- ./inp_files/15059.got.cif
#   From: 2010.05.17/outbox.cif.g08.bks.cpg/sg59_8_cif.got.tgz:15059.got - 2010.06.03 14:40:33.
