data_PCOD9449923
_publ_section_title
;
Structure prediction by ZEFSAII (Michael W. Deem and Ramdas Pophale) SiO2 
 PCOD9449923
Probable space group: P M M N
;
_chemical_formula_sum "Si O2"
_cell_formula_units_Z 64
_cell_length_a 19.208919
_cell_length_b 9.320893
_cell_length_c 21.049376
_cell_angle_alpha 90.000000
_cell_angle_beta 90.000000
_cell_angle_gamma 90.000000
_cell_volume 3768.770342
_symmetry_space_group_name_H-M "P M M N"
_symmetry_group_IT_number 59
_space_group.IT_coordinate_system_code '2'
_symmetry_cell_setting 'orthorhombic'
loop_
_space_group_symop_operation_xyz
x,y,z
1/2-x,1/2-y,z
1/2+x,-y,-z
-x,1/2+y,-z
-x,-y,-z
1/2+x,1/2+y,-z
1/2-x,y,z
x,1/2-y,z
loop_
_atom_site_type_symbol
_atom_site_label
_atom_site_fract_x
_atom_site_fract_y
_atom_site_fract_z
Si Si1 0.668386 0.920830 0.626768
Si Si2 0.576492 0.921860 0.250785
Si Si3 0.430368 0.078654 0.255406
Si Si4 0.332086 0.079640 0.626201
Si Si5 0.834783 0.084709 0.500110
Si Si6 0.578961 0.919943 0.889494
Si Si7 0.330905 0.922578 0.005111
Si Si8 0.415482 0.921755 0.878970
O O1 0.750000 0.954472 0.637108
O O2 0.663402 0.750000 0.615113
O O3 0.623987 0.954673 0.689199
O O4 0.643297 0.004236 0.564283
O O5 0.572389 0.750000 0.243973
O O6 0.626084 0.955713 0.310173
O O7 0.500780 0.989431 0.263628
O O8 0.601762 0.993402 0.185184
O O9 0.446096 0.250000 0.257446
O O10 0.402840 0.049613 0.184194
O O11 0.250000 0.049499 0.635327
O O12 0.339079 0.250000 0.614170
O O13 0.357264 0.994225 0.564255
O O14 0.750000 0.079673 0.499966
O O15 0.856359 0.250000 0.500554
O O16 0.587804 0.750000 0.900577
O O17 0.496438 0.952627 0.895876
O O18 0.625304 0.006663 0.938550
O O19 0.250000 0.965329 0.006895
O O20 0.334531 0.750000 0.010903
O O21 0.366450 0.960071 0.937838
O O22 0.410854 0.750000 0.867485
#
# Coordination Sequence:
#
# PCOD9449923 Si02
#       8
#     8   8   8   8   8   8   8   8
#     4   9  17  31  52  74  97 130 168 203 243 293
#     4  10  20  33  52  77 101 127 163 206 248 290
#     4   9  19  35  53  74 101 132 165 201 244 295
#     4   9  18  33  51  71  98 131 165 202 245 294
#     4   9  17  29  47  73 101 128 163 206 248 291
#     4   9  18  33  53  74  96 129 170 205 238 284
#     4  10  21  35  51  75 105 132 160 200 249 294
#     4   9  19  36  54  71  97 133 168 200 239 293
#
# _framework density 16.981665
#
# number of rings (size 3 to 8) (size 9 to 14) (size 15 to 20)
#    0.000    2.750    0.000    1.875    0.000    6.750 
#    0.000    1.875    0.000    1.500    0.000    0.000 
#    0.000    0.000    0.000    0.000    0.000    0.000 
#
# Total GULP energy -356860.744103 kJ/mol
# GULP energy per Si atom -5575.949127 kJ/mol
# Density = 1.694301 g / cm^3
# Si number density = 16.981665 Si / 1000 Ang^3
#
#
#
# Elastic Constant Matrix: (Units=GPa)
#
#
# Indices 1 2 3 4 5 6 
#
# 1 51.7143 38.7626 70.1647 0.0000 0.0000 0.0000
# 2 38.7626 43.3918 67.2459 0.0000 0.0000 0.0000
# 3 70.1647 67.2459 152.6514 0.0000 0.0000 0.0000
# 4 0.0000 0.0000 0.0000 30.3431 0.0000 0.0000
# 5 0.0000 0.0000 0.0000 0.0000 33.8695 0.0000
# 6 0.0000 0.0000 0.0000 0.0000 0.0000 19.5429
#
#
#
# Elastic Compliance Matrix: (Units=1/GPa)
#
#
# Indices 1 2 3 4 5 6 
#
# 1 0.066738 -0.038067 -0.013906 0.000000 0.000000 0.000000
# 2 -0.038067 0.094343 -0.024062 0.000000 0.000000 0.000000
# 3 -0.013906 -0.024062 0.023543 0.000000 0.000000 0.000000
# 4 0.000000 0.000000 0.000000 0.032956 0.000000 0.000000
# 5 0.000000 0.000000 0.000000 0.000000 0.029525 0.000000
# 6 0.000000 0.000000 0.000000 0.000000 0.000000 0.051170
#
#
# Mechanical properties :
#
#
# Convention : Reuss Voigt Hill
#
# Bulk Modulus (GPa) = 30.72068 66.67821 48.69945
# Shear Modulus (GPa) = 10.84138 21.52337 16.18238
#
# Velocity S-wave (km/s) = 2.52943 3.56399 3.09031
# Velocity P-wave (km/s) = 5.16338 7.50240 6.43997
#
# Compressibility (1/GPa) = 0.03255136
#
# Stress axis : x y z
#
# Youngs Moduli (GPa) = 14.98404 10.59967 42.47631
#
# Poissons Ratio (x) = 0.40350 0.59067
# Poissons Ratio (y) = 0.57040 1.02208
# Poissons Ratio (z) = 0.20837 0.25505
#
# Static dielectric constant tensor:
#      x y z
#    x 1.558920 0.000000 0.000000 
#    y 0.000000 1.566650 0.000000 
#    z 0.000000 0.000000 1.557390 
# 
# From -- ./inp_files/29533.got.cif
#   From: 2010.05.17/outbox.cif.g08.bks.cpg/sg59_15_cif.got.tgz:29533.got - 2010.06.03 14:40:33.
