data_PCOD9449539
_publ_section_title
;
Structure prediction by ZEFSAII (Michael W. Deem and Ramdas Pophale) SiO2 
 PCOD9449539
Probable space group: P M M N
;
_chemical_formula_sum "Si O2"
_cell_formula_units_Z 56
_cell_length_a 7.758425
_cell_length_b 14.898322
_cell_length_c 22.772061
_cell_angle_alpha 90.000000
_cell_angle_beta 90.000000
_cell_angle_gamma 90.000000
_cell_volume 2632.165917
_symmetry_space_group_name_H-M "P M M N"
_symmetry_group_IT_number 59
_space_group.IT_coordinate_system_code '2'
_symmetry_cell_setting 'orthorhombic'
loop_
_space_group_symop_operation_xyz
x,y,z
1/2-x,1/2-y,z
1/2+x,-y,-z
-x,1/2+y,-z
-x,-y,-z
1/2+x,1/2+y,-z
1/2-x,y,z
x,1/2-y,z
loop_
_atom_site_type_symbol
_atom_site_label
_atom_site_fract_x
_atom_site_fract_y
_atom_site_fract_z
Si Si1 0.042845 0.414145 0.332465
Si Si2 0.457482 0.750000 0.455442
Si Si3 0.959419 0.112222 0.640977
Si Si4 0.453574 0.155348 0.771941
Si Si5 0.548824 0.352445 0.961121
Si Si6 0.043266 0.250000 0.408392
Si Si7 0.547448 0.547081 0.923904
Si Si8 0.955800 0.042470 0.203131
O O1 0.250000 0.415084 0.336294
O O2 0.981135 0.509960 0.356081
O O3 0.974997 0.336189 0.373802
O O4 0.000214 0.407841 0.263581
O O5 0.250000 0.750000 0.454799
O O6 0.515840 0.835157 0.416827
O O7 0.510343 0.750000 0.522612
O O8 0.750000 0.115510 0.643093
O O9 0.024446 0.154476 0.701597
O O10 0.250000 0.154623 0.785450
O O11 0.526498 0.250000 0.795093
O O12 0.527613 0.059946 0.791834
O O13 0.750000 0.346929 0.944792
O O14 0.477470 0.250000 0.953356
O O15 0.477412 0.443362 0.929067
O O16 0.534471 0.385820 0.028744
O O17 0.250000 0.250000 0.401370
O O18 0.750000 0.542873 0.938178
O O19 0.522963 0.580392 0.857828
O O20 0.750000 0.038028 0.199947
#
# Coordination Sequence:
#
# PCOD9449539 Si02
#       8
#     8   4   8   8   8   4   8   8
#     4   9  19  37  56  73 100 136 175 221 267 310
#     4  10  20  32  50  78 106 132 167 210 259 324
#     4   9  17  31  51  74 100 131 166 207 258 318
#     4   9  17  29  47  73 104 135 169 213 264 316
#     4   9  19  37  59  82 112 147 182 223 267 311
#     4  10  22  38  54  74 100 134 175 220 267 308
#     4  10  20  35  56  83 113 145 182 223 266 315
#     4  10  20  34  53  78 107 141 179 218 264 317
#
# _framework density 21.275255000000001
#
# number of rings (size 3 to 8) (size 9 to 14) (size 15 to 20)
#    0.000    2.571    0.714    0.857    0.000    3.714 
#    1.286    0.000    0.000    0.000    0.000    0.000 
#    0.000    0.000    0.000    0.000    0.000    0.000 
#
# Total GULP energy -312275.351645 kJ/mol
# GULP energy per Si atom -5576.345565 kJ/mol
# Density = 2.122683 g / cm^3
# Si number density = 21.275255 Si / 1000 Ang^3
#
#
#
# Elastic Constant Matrix: (Units=GPa)
#
#
# Indices 1 2 3 4 5 6 
#
# 1 32.4315 3.0966 -13.3475 0.0000 0.0000 0.0000
# 2 3.0966 64.9851 21.6178 0.0000 0.0000 0.0000
# 3 -13.3475 21.6178 125.1484 0.0000 0.0000 0.0000
# 4 0.0000 0.0000 0.0000 9.4013 0.0000 0.0000
# 5 0.0000 0.0000 0.0000 0.0000 21.6591 0.0000
# 6 0.0000 0.0000 0.0000 0.0000 0.0000 9.5727
#
#
#
# Elastic Compliance Matrix: (Units=1/GPa)
#
#
# Indices 1 2 3 4 5 6 
#
# 1 0.032753 -0.002889 0.003992 0.000000 0.000000 0.000000
# 2 -0.002889 0.016581 -0.003172 0.000000 0.000000 0.000000
# 3 0.003992 -0.003172 0.008964 0.000000 0.000000 0.000000
# 4 0.000000 0.000000 0.000000 0.106368 0.000000 0.000000
# 5 0.000000 0.000000 0.000000 0.000000 0.046170 0.000000
# 6 0.000000 0.000000 0.000000 0.000000 0.000000 0.104463
#
#
# Mechanical properties :
#
#
# Convention : Reuss Voigt Hill
#
# Bulk Modulus (GPa) = 18.46352 27.25542 22.85947
# Shear Modulus (GPa) = 14.81519 22.20649 18.51084
#
# Velocity S-wave (km/s) = 2.64172 3.23425 2.95289
# Velocity P-wave (km/s) = 4.24290 5.17550 4.73223
#
# Compressibility (1/GPa) = 0.05416086
#
# Stress axis : x y z
#
# Youngs Moduli (GPa) = 30.53144 60.30967 111.55398
#
# Poissons Ratio (x) = 0.17422 -0.44535
# Poissons Ratio (y) = 0.08820 0.35388
# Poissons Ratio (z) = -0.12189 0.19132
#
# Static dielectric constant tensor:
#      x y z
#    x 1.776240 0.000000 0.000000 
#    y 0.000000 1.832930 0.000000 
#    z 0.000000 0.000000 1.740090 
# 
# From -- ./inp_files/29242.got.cif
#   From: 2010.05.17/outbox.cif.g08.bks.cpg/sg59_15_cif.got.tgz:29242.got - 2010.06.03 14:40:33.
