data_PCOD9449606
_publ_section_title
;
Structure prediction by ZEFSAII (Michael W. Deem and Ramdas Pophale) SiO2 
 PCOD9449606
Probable space group: P M M N
;
_chemical_formula_sum "Si O2"
_cell_formula_units_Z 64
_cell_length_a 25.683335
_cell_length_b 15.163169
_cell_length_c 9.810035
_cell_angle_alpha 90.000000
_cell_angle_beta 90.000000
_cell_angle_gamma 90.000000
_cell_volume 3820.427379
_symmetry_space_group_name_H-M "P M M N"
_symmetry_group_IT_number 59
_space_group.IT_coordinate_system_code '2'
_symmetry_cell_setting 'orthorhombic'
loop_
_space_group_symop_operation_xyz
x,y,z
1/2-x,1/2-y,z
1/2+x,-y,-z
-x,1/2+y,-z
-x,-y,-z
1/2+x,1/2+y,-z
1/2-x,y,z
x,1/2-y,z
loop_
_atom_site_type_symbol
_atom_site_label
_atom_site_fract_x
_atom_site_fract_y
_atom_site_fract_z
Si Si1 0.525492 0.081163 0.585082
Si Si2 0.997051 0.847654 0.682239
Si Si3 0.392305 0.461108 0.305748
Si Si4 0.070810 0.647152 0.921493
Si Si5 0.687661 0.853650 0.513414
Si Si6 0.476837 0.353809 0.864871
Si Si7 0.117816 0.030284 0.985557
Si Si8 0.687693 0.649960 0.195589
O O1 0.521644 0.153491 0.467728
O O2 0.491591 0.108965 0.715703
O O3 0.500000 0.000000 0.500000
O O4 0.582674 0.051612 0.635144
O O5 0.985669 0.750000 0.732952
O O6 0.039365 0.883498 0.787329
O O7 0.943040 0.898504 0.687103
O O8 0.346844 0.418125 0.395194
O O9 0.376915 0.466062 0.148207
O O10 0.087288 0.750000 0.907516
O O11 0.113225 0.572418 0.946813
O O12 0.029126 0.642447 0.044406
O O13 0.750000 0.867699 0.528243
O O14 0.677573 0.750000 0.546320
O O15 0.673455 0.866082 0.353939
O O16 0.461172 0.250000 0.856936
O O17 0.433928 0.415567 0.937202
O O18 0.163036 0.079964 0.905071
O O19 0.750000 0.647812 0.189022
O O20 0.670882 0.750000 0.160587
#
# Coordination Sequence:
#
# PCOD9449606 Si02
#       8
#     8   8   8   8   8   8   8   8
#     4  10  21  33  46  72 106 140 179 222 254 303
#     4  10  20  33  48  72 106 138 175 218 257 304
#     4  11  21  32  50  76 103 139 180 218 260 309
#     4  10  21  36  53  75 110 147 178 216 264 313
#     4   9  20  38  55  74 104 138 173 216 264 316
#     4  11  21  34  52  77 111 151 180 210 263 321
#     4  12  21  34  55  79 108 142 182 220 263 314
#     4   9  21  39  57  81 109 137 173 217 267 324
#
# _framework density 16.752051999999999
#
# number of rings (size 3 to 8) (size 9 to 14) (size 15 to 20)
#    0.000    1.750    2.500    3.750    5.250    2.000 
#    0.000    1.250    0.000    0.375    0.000    0.000 
#    0.000    2.000    0.000    0.000    0.000    0.000 
#
# Total GULP energy -356771.367113 kJ/mol
# GULP energy per Si atom -5574.552611 kJ/mol
# Density = 1.671392 g / cm^3
# Si number density = 16.752052 Si / 1000 Ang^3
#
#
#
# Elastic Constant Matrix: (Units=GPa)
#
#
# Indices 1 2 3 4 5 6 
#
# 1 41.7990 28.0724 32.3742 0.0000 0.0000 0.0000
# 2 28.0724 78.8464 26.5972 0.0000 0.0000 0.0000
# 3 32.3742 26.5972 102.5164 0.0000 0.0000 0.0000
# 4 0.0000 0.0000 0.0000 26.6067 0.0000 0.0000
# 5 0.0000 0.0000 0.0000 0.0000 28.9512 0.0000
# 6 0.0000 0.0000 0.0000 0.0000 0.0000 27.9273
#
#
#
# Elastic Compliance Matrix: (Units=1/GPa)
#
#
# Indices 1 2 3 4 5 6 
#
# 1 0.038174 -0.010438 -0.009347 0.000000 0.000000 0.000000
# 2 -0.010438 0.016754 -0.001050 0.000000 0.000000 0.000000
# 3 -0.009347 -0.001050 0.012979 0.000000 0.000000 0.000000
# 4 0.000000 0.000000 0.000000 0.037585 0.000000 0.000000
# 5 0.000000 0.000000 0.000000 0.000000 0.034541 0.000000
# 6 0.000000 0.000000 0.000000 0.000000 0.000000 0.035807
#
#
# Mechanical properties :
#
#
# Convention : Reuss Voigt Hill
#
# Bulk Modulus (GPa) = 38.11684 44.13881 41.12783
# Shear Modulus (GPa) = 22.09892 25.77156 23.93524
#
# Velocity S-wave (km/s) = 3.63599 3.92651 3.78404
# Velocity P-wave (km/s) = 6.35847 6.85290 6.61031
#
# Compressibility (1/GPa) = 0.02623512
#
# Stress axis : x y z
#
# Youngs Moduli (GPa) = 26.19584 59.68845 77.04909
#
# Poissons Ratio (x) = 0.62305 0.72018
# Poissons Ratio (y) = 0.27344 0.08092
# Poissons Ratio (z) = 0.24485 0.06269
#
# Static dielectric constant tensor:
#      x y z
#    x 1.542920 0.000000 0.000000 
#    y 0.000000 1.609290 0.000000 
#    z 0.000000 0.000000 1.603040 
# 
# From -- ./inp_files/12240.got.cif
#   From: 2010.05.17/outbox.cif.g08.bks.cpg/sg59_7_cif.got.tgz:12240.got - 2010.06.03 14:40:33.
