data_PCOD9449296
_publ_section_title
;
Structure prediction by ZEFSAII (Michael W. Deem and Ramdas Pophale) SiO2 
 PCOD9449296
Probable space group: P M M N
;
_chemical_formula_sum "Si O2"
_cell_formula_units_Z 64
_cell_length_a 29.464641
_cell_length_b 8.667589
_cell_length_c 16.071629
_cell_angle_alpha 90.000000
_cell_angle_beta 90.000000
_cell_angle_gamma 90.000000
_cell_volume 4104.491515
_symmetry_space_group_name_H-M "P M M N"
_symmetry_group_IT_number 59
_space_group.IT_coordinate_system_code '2'
_symmetry_cell_setting 'orthorhombic'
loop_
_space_group_symop_operation_xyz
x,y,z
1/2-x,1/2-y,z
1/2+x,-y,-z
-x,1/2+y,-z
-x,-y,-z
1/2+x,1/2+y,-z
1/2-x,y,z
x,1/2-y,z
loop_
_atom_site_type_symbol
_atom_site_label
_atom_site_fract_x
_atom_site_fract_y
_atom_site_fract_z
Si Si1 0.949765 0.564505 0.317521
Si Si2 0.551182 0.935104 0.500958
Si Si3 0.199241 0.435919 0.089132
Si Si4 0.104569 0.564233 0.838180
Si Si5 0.199429 0.936400 0.903053
Si Si6 0.055816 0.565104 0.325385
Si Si7 0.550759 0.435724 0.993681
Si Si8 0.894923 0.935365 0.835388
O O1 0.949598 0.750000 0.312568
O O2 0.930816 0.521592 0.409214
O O3 0.921003 0.498896 0.242008
O O4 0.002881 0.515724 0.312820
O O5 0.550202 0.750000 0.506382
O O6 0.500000 0.000000 0.500000
O O7 0.572153 0.003027 0.584953
O O8 0.250000 0.480684 0.117642
O O9 0.198199 0.250000 0.081818
O O10 0.157277 0.481758 0.146989
O O11 0.192523 0.505470 0.997259
O O12 0.104077 0.750000 0.834079
O O13 0.156775 0.511963 0.848164
O O14 0.078157 0.520175 0.922804
O O15 0.250000 0.986299 0.876189
O O16 0.198855 0.750000 0.904754
O O17 0.056417 0.750000 0.326627
O O18 0.085202 0.502352 0.249542
O O19 0.549945 0.250000 0.987961
O O20 0.575657 0.503106 0.912915
O O21 0.500000 0.500000 0.000000
O O22 0.897656 0.750000 0.833391
#
# Coordination Sequence:
#
# PCOD9449296 Si02
#       8
#     8   8   8   8   8   8   8   8
#     4   9  19  32  47  68  94 125 156 190 231 276
#     4   9  17  31  49  70  95 123 158 198 240 282
#     4   9  18  32  49  69  92 120 157 199 242 287
#     4  10  20  31  45  67  92 122 158 193 230 277
#     4   9  17  31  49  67  89 118 154 198 244 281
#     4  10  20  33  49  70  96 127 162 198 236 283
#     4  11  22  34  45  63  94 130 167 198 230 276
#     4  11  21  32  48  70  95 127 161 197 241 285
#
# _framework density 15.592675
#
# number of rings (size 3 to 8) (size 9 to 14) (size 15 to 20)
#    0.000    2.250    1.250    3.000    0.000    7.000 
#    0.000    0.000    0.000    0.000    0.000    0.875 
#    0.000    1.000    0.000    0.000    0.000    0.000 
#
# Total GULP energy -356800.289018 kJ/mol
# GULP energy per Si atom -5575.004516 kJ/mol
# Density = 1.555719 g / cm^3
# Si number density = 15.592675 Si / 1000 Ang^3
#
#
#
# Elastic Constant Matrix: (Units=GPa)
#
#
# Indices 1 2 3 4 5 6 
#
# 1 104.7742 25.0680 56.4606 0.0000 0.0000 0.0000
# 2 25.0680 28.0844 30.8129 0.0000 0.0000 0.0000
# 3 56.4606 30.8129 123.1764 0.0000 0.0000 0.0000
# 4 0.0000 0.0000 0.0000 29.7176 0.0000 0.0000
# 5 0.0000 0.0000 0.0000 0.0000 7.9475 0.0000
# 6 0.0000 0.0000 0.0000 0.0000 0.0000 17.2331
#
#
#
# Elastic Compliance Matrix: (Units=1/GPa)
#
#
# Indices 1 2 3 4 5 6 
#
# 1 0.013696 -0.007356 -0.004438 0.000000 0.000000 0.000000
# 2 -0.007356 0.053027 -0.009893 0.000000 0.000000 0.000000
# 3 -0.004438 -0.009893 0.012627 0.000000 0.000000 0.000000
# 4 0.000000 0.000000 0.000000 0.033650 0.000000 0.000000
# 5 0.000000 0.000000 0.000000 0.000000 0.125826 0.000000
# 6 0.000000 0.000000 0.000000 0.000000 0.000000 0.058028
#
#
# Mechanical properties :
#
#
# Convention : Reuss Voigt Hill
#
# Bulk Modulus (GPa) = 27.79572 53.41312 40.60442
# Shear Modulus (GPa) = 14.19568 20.55920 17.37744
#
# Velocity S-wave (km/s) = 3.02057 3.63508 3.34198
# Velocity P-wave (km/s) = 5.47996 7.20750 6.40226
#
# Compressibility (1/GPa) = 0.03597676
#
# Stress axis : x y z
#
# Youngs Moduli (GPa) = 73.01601 18.85827 79.19363
#
# Poissons Ratio (x) = 0.13872 0.35143
# Poissons Ratio (y) = 0.53710 0.78347
# Poissons Ratio (z) = 0.32401 0.18657
#
# Static dielectric constant tensor:
#      x y z
#    x 1.525620 0.000000 0.000000 
#    y 0.000000 1.526230 0.000000 
#    z 0.000000 0.000000 1.509100 
# 
# From -- ./inp_files/21886.got.cif
#   From: 2010.05.17/outbox.cif.g08.bks.cpg/sg59_11_cif.got.tgz:21886.got - 2010.06.03 14:40:33.
