data_PCOD9449686
_publ_section_title
;
Structure prediction by ZEFSAII (Michael W. Deem and Ramdas Pophale) SiO2 
 PCOD9449686
Probable space group: P M M N
;
_chemical_formula_sum "Si O2"
_cell_formula_units_Z 48
_cell_length_a 9.894029
_cell_length_b 14.674747
_cell_length_c 15.542994
_cell_angle_alpha 90.000000
_cell_angle_beta 90.000000
_cell_angle_gamma 90.000000
_cell_volume 2256.724173
_symmetry_space_group_name_H-M "P M M N"
_symmetry_group_IT_number 59
_space_group.IT_coordinate_system_code '2'
_symmetry_cell_setting 'orthorhombic'
loop_
_space_group_symop_operation_xyz
x,y,z
1/2-x,1/2-y,z
1/2+x,-y,-z
-x,1/2+y,-z
-x,-y,-z
1/2+x,1/2+y,-z
1/2-x,y,z
x,1/2-y,z
loop_
_atom_site_type_symbol
_atom_site_label
_atom_site_fract_x
_atom_site_fract_y
_atom_site_fract_z
Si Si1 0.402842 0.884610 0.059956
Si Si2 0.096060 0.361665 0.595098
Si Si3 0.596937 0.600052 0.911557
Si Si4 0.902913 0.139113 0.441823
Si Si5 0.401471 0.856491 0.256210
Si Si6 0.096502 0.639643 0.755903
O O1 0.250000 0.851238 0.043998
O O2 0.443754 0.859350 0.156810
O O3 0.394728 0.994068 0.062662
O O4 0.506885 0.855685 0.986769
O O5 0.250000 0.393672 0.596321
O O6 0.100212 0.250000 0.595679
O O7 0.014291 0.390173 0.510263
O O8 0.011500 0.393585 0.678074
O O9 0.750000 0.635209 0.904322
O O10 0.514522 0.606248 0.822894
O O11 0.750000 0.111533 0.466458
O O12 0.903288 0.250000 0.442824
O O13 0.928716 0.112377 0.343090
O O14 0.250000 0.897691 0.262689
O O15 0.388246 0.750000 0.279197
O O16 0.250000 0.610638 0.779586
O O17 0.094605 0.750000 0.758491
#
# Coordination Sequence:
#
# PCOD9449686 Si02
#       6
#     8   8   8   8   8   8
#     4   9  19  35  51  68  93 126 162 195 232 284
#     4   9  16  25  40  66  98 125 148 183 232 278
#     4  10  20  33  50  71  95 124 157 196 240 284
#     4   8  14  26  44  65  90 122 157 188 222 271
#     4   9  17  30  49  70  91 120 158 195 229 270
#     4   9  18  32  50  72  97 125 158 196 235 277
#
# _framework density 21.269767000000002
#
# number of rings (size 3 to 8) (size 9 to 14) (size 15 to 20)
#    0.000    3.000    0.000    2.000    0.000    5.000 
#    0.000    3.333    0.000    1.000    0.000    0.000 
#    0.000    0.000    0.000    0.000    0.000    0.000 
#
# Total GULP energy -267914.780401 kJ/mol
# GULP energy per Si atom -5581.557925 kJ/mol
# Density = 2.122136 g / cm^3
# Si number density = 21.269767 Si / 1000 Ang^3
#
#
#
# Elastic Constant Matrix: (Units=GPa)
#
#
# Indices 1 2 3 4 5 6 
#
# 1 194.0526 -0.6452 145.6781 0.0000 0.0000 0.0000
# 2 -0.6452 47.7079 -12.5007 0.0000 0.0000 0.0000
# 3 145.6781 -12.5007 151.4761 0.0000 0.0000 0.0000
# 4 0.0000 0.0000 0.0000 24.8530 0.0000 0.0000
# 5 0.0000 0.0000 0.0000 0.0000 5.1660 0.0000
# 6 0.0000 0.0000 0.0000 0.0000 0.0000 -7.5310
#
#
#
# Elastic Compliance Matrix: (Units=1/GPa)
#
#
# Indices 1 2 3 4 5 6 
#
# 1 0.019540 -0.004763 -0.019185 0.000000 0.000000 0.000000
# 2 -0.004763 0.022585 0.006444 0.000000 0.000000 0.000000
# 3 -0.019185 0.006444 0.025584 0.000000 0.000000 0.000000
# 4 0.000000 0.000000 0.000000 0.040237 0.000000 0.000000
# 5 0.000000 0.000000 0.000000 0.000000 0.193575 0.000000
# 6 0.000000 0.000000 0.000000 0.000000 0.000000 -0.132784
#
#
# Mechanical properties :
#
#
# Convention : Reuss Voigt Hill
#
# Bulk Modulus (GPa) = 30.57898 73.14455 51.86176
# Shear Modulus (GPa) = 23.29435 21.87788 22.58611
#
# Velocity S-wave (km/s) = 3.31295 3.21064 3.26220
# Velocity P-wave (km/s) = 5.38907 6.94319 6.21490
#
# Compressibility (1/GPa) = 0.03270220
#
# Stress axis : x y z
#
# Youngs Moduli (GPa) = 51.17740 44.27709 39.08664
#
# Poissons Ratio (x) = 0.21088 0.74988
# Poissons Ratio (y) = 0.24374 -0.25188
# Poissons Ratio (z) = 0.98184 -0.28533
#
# Static dielectric constant tensor:
#      x y z
#    x 1.757330 0.000000 0.000000 
#    y 0.000000 1.829560 0.000000 
#    z 0.000000 0.000000 1.731660 
# 
# From -- ./inp_files/20455.got.cif
#   From: 2010.05.17/outbox.cif.g08.bks.cpg/sg59_11_cif.got.tgz:20455.got - 2010.06.03 14:40:33.
