data_PCOD9449528
_publ_section_title
;
Structure prediction by ZEFSAII (Michael W. Deem and Ramdas Pophale) SiO2 
 PCOD9449528
Probable space group: P M M N
;
_chemical_formula_sum "Si O2"
_cell_formula_units_Z 56
_cell_length_a 8.731475
_cell_length_b 20.139555
_cell_length_c 16.280497
_cell_angle_alpha 90.000000
_cell_angle_beta 90.000000
_cell_angle_gamma 90.000000
_cell_volume 2862.893178
_symmetry_space_group_name_H-M "P M M N"
_symmetry_group_IT_number 59
_space_group.IT_coordinate_system_code '2'
_symmetry_cell_setting 'orthorhombic'
loop_
_space_group_symop_operation_xyz
x,y,z
1/2-x,1/2-y,z
1/2+x,-y,-z
-x,1/2+y,-z
-x,-y,-z
1/2+x,1/2+y,-z
1/2-x,y,z
x,1/2-y,z
loop_
_atom_site_type_symbol
_atom_site_label
_atom_site_fract_x
_atom_site_fract_y
_atom_site_fract_z
Si Si1 0.936619 0.176004 0.830145
Si Si2 0.065038 0.958318 0.251736
Si Si3 0.434375 0.824989 0.979659
Si Si4 0.431394 0.456058 0.573207
Si Si5 0.567942 0.172934 0.501040
Si Si6 0.069955 0.171344 0.323818
Si Si7 0.434032 0.411391 0.163617
O O1 0.750000 0.176007 0.828207
O O2 0.986633 0.250000 0.804828
O O3 0.987993 0.114811 0.774915
O O4 0.980566 0.165177 0.925392
O O5 0.250000 0.958162 0.258718
O O6 0.997252 0.977962 0.339233
O O7 0.023837 0.012755 0.183157
O O8 0.250000 0.826575 0.977579
O O9 0.483098 0.750000 0.955210
O O10 0.497337 0.878988 0.917331
O O11 0.500000 0.500000 0.500000
O O12 0.250000 0.461637 0.572163
O O13 0.483272 0.380288 0.557108
O O14 0.750000 0.166449 0.512257
O O15 0.525215 0.250000 0.516405
O O16 0.523436 0.157640 0.406569
O O17 0.250000 0.156108 0.339468
O O18 0.057887 0.250000 0.306797
O O19 0.019238 0.130851 0.244157
O O20 0.250000 0.407234 0.158128
#
# Coordination Sequence:
#
# PCOD9449528 Si02
#       7
#     8   8   8   8   8   8   8
#     4   8  16  34  58  81 108 145 187 228 270 320
#     4  10  21  37  57  82 110 143 184 228 278 335
#     4   9  18  33  54  79 107 144 188 227 264 315
#     4  12  25  41  61  84 113 148 188 234 284 339
#     4  10  21  37  58  84 112 144 185 231 281 338
#     4   9  17  30  48  71 104 145 183 222 274 332
#     4  10  20  32  49  77 111 143 177 222 277 333
#
# _framework density 19.560631999999998
#
# number of rings (size 3 to 8) (size 9 to 14) (size 15 to 20)
#    0.000    2.286    0.000    3.857    0.000    5.143 
#    0.000    3.571    0.000    0.857    0.000    0.000 
#    0.000    0.000    0.000    0.000    0.000    0.000 
#
# Total GULP energy -312733.318557 kJ/mol
# GULP energy per Si atom -5584.523546 kJ/mol
# Density = 1.951611 g / cm^3
# Si number density = 19.560632 Si / 1000 Ang^3
#
#
#
# Elastic Constant Matrix: (Units=GPa)
#
#
# Indices 1 2 3 4 5 6 
#
# 1 30.0872 30.6920 18.7747 0.0000 0.0000 0.0000
# 2 30.6920 91.3705 49.2014 0.0000 0.0000 0.0000
# 3 18.7747 49.2014 66.3771 0.0000 0.0000 0.0000
# 4 0.0000 0.0000 0.0000 37.9991 0.0000 0.0000
# 5 0.0000 0.0000 0.0000 0.0000 23.3813 0.0000
# 6 0.0000 0.0000 0.0000 0.0000 0.0000 23.2619
#
#
#
# Elastic Compliance Matrix: (Units=1/GPa)
#
#
# Indices 1 2 3 4 5 6 
#
# 1 0.050888 -0.015549 -0.002868 0.000000 0.000000 0.000000
# 2 -0.015549 0.022966 -0.012625 0.000000 0.000000 0.000000
# 3 -0.002868 -0.012625 0.025235 0.000000 0.000000 0.000000
# 4 0.000000 0.000000 0.000000 0.026316 0.000000 0.000000
# 5 0.000000 0.000000 0.000000 0.000000 0.042769 0.000000
# 6 0.000000 0.000000 0.000000 0.000000 0.000000 0.042989
#
#
# Mechanical properties :
#
#
# Convention : Reuss Voigt Hill
#
# Bulk Modulus (GPa) = 27.02388 42.79678 34.91033
# Shear Modulus (GPa) = 17.50800 22.87291 20.19046
#
# Velocity S-wave (km/s) = 2.99501 3.42326 3.21627
# Velocity P-wave (km/s) = 5.07991 6.12793 5.62837
#
# Compressibility (1/GPa) = 0.03700431
#
# Stress axis : x y z
#
# Youngs Moduli (GPa) = 19.65084 43.54242 39.62756
#
# Poissons Ratio (x) = 0.67706 0.11365
# Poissons Ratio (y) = 0.30556 0.50031
# Poissons Ratio (z) = 0.05636 0.54973
#
# Static dielectric constant tensor:
#      x y z
#    x 1.659900 0.000000 0.000000 
#    y 0.000000 1.710050 0.000000 
#    z 0.000000 0.000000 1.655740 
# 
# From -- ./inp_files/21066.got.cif
#   From: 2010.05.17/outbox.cif.g08.bks.cpg/sg59_11_cif.got.tgz:21066.got - 2010.06.03 14:40:33.
