data_PCOD9449309
_publ_section_title
;
Structure prediction by ZEFSAII (Michael W. Deem and Ramdas Pophale) SiO2 
 PCOD9449309
Probable space group: P M M N
;
_chemical_formula_sum "Si O2"
_cell_formula_units_Z 64
_cell_length_a 31.496758
_cell_length_b 8.780939
_cell_length_c 14.786409
_cell_angle_alpha 90.000000
_cell_angle_beta 90.000000
_cell_angle_gamma 90.000000
_cell_volume 4089.493560
_symmetry_space_group_name_H-M "P M M N"
_symmetry_group_IT_number 59
_space_group.IT_coordinate_system_code '2'
_symmetry_cell_setting 'orthorhombic'
loop_
_space_group_symop_operation_xyz
x,y,z
1/2-x,1/2-y,z
1/2+x,-y,-z
-x,1/2+y,-z
-x,-y,-z
1/2+x,1/2+y,-z
1/2-x,y,z
x,1/2-y,z
loop_
_atom_site_type_symbol
_atom_site_label
_atom_site_fract_x
_atom_site_fract_y
_atom_site_fract_z
Si Si1 0.620759 0.572210 0.569007
Si Si2 0.457894 0.433314 0.547648
Si Si3 0.798093 0.433110 0.647242
Si Si4 0.615437 0.430079 0.934184
Si Si5 0.074795 0.074502 0.238053
Si Si6 0.016803 0.432005 0.747786
Si Si7 0.541430 0.568775 0.050456
Si Si8 0.797952 0.435581 0.856276
O O1 0.627889 0.750000 0.548410
O O2 0.585456 0.510957 0.499436
O O3 0.665877 0.492182 0.580487
O O4 0.598937 0.561387 0.667425
O O5 0.500000 0.500000 0.500000
O O6 0.459470 0.250000 0.535136
O O7 0.458956 0.465460 0.654619
O O8 0.750000 0.480775 0.624084
O O9 0.799225 0.250000 0.648129
O O10 0.806103 0.483299 0.751811
O O11 0.615599 0.250000 0.951183
O O12 0.594464 0.465139 0.837003
O O13 0.664011 0.485545 0.921720
O O14 0.584589 0.508600 0.005865
O O15 0.077451 0.250000 0.206698
O O16 0.026570 0.025833 0.253277
O O17 0.007273 0.250000 0.747766
O O18 0.039346 0.466904 0.842762
O O19 0.539101 0.750000 0.039630
O O20 0.500000 0.500000 0.000000
O O21 0.750000 0.482902 0.880557
O O22 0.798585 0.250000 0.855981
#
# Coordination Sequence:
#
# PCOD9449309 Si02
#       8
#     8   8   8   8   8   8   8   8
#     4  10  20  31  45  70 100 127 157 195 243 281
#     4  10  20  34  49  69  94 125 162 198 235 283
#     4   9  17  30  48  69  94 126 161 193 229 281
#     4  11  20  31  49  71  95 129 164 195 236 284
#     4  11  20  29  45  69  99 128 157 197 236 276
#     4  10  21  35  50  65  90 128 167 199 234 279
#     4  11  22  34  48  69  95 126 163 202 239 280
#     4   8  15  28  46  68  93 121 155 192 228 277
#
# _framework density 15.64986
#
# number of rings (size 3 to 8) (size 9 to 14) (size 15 to 20)
#    0.000    2.000    3.750    1.875    0.000    1.750 
#    0.000    0.000    0.000    1.500    0.000    0.875 
#    0.000    5.000    0.000    0.000    0.000    0.000 
#
# Total GULP energy -356790.728699 kJ/mol
# GULP energy per Si atom -5574.855136 kJ/mol
# Density = 1.561424 g / cm^3
# Si number density = 15.649860 Si / 1000 Ang^3
#
#
#
# Elastic Constant Matrix: (Units=GPa)
#
#
# Indices 1 2 3 4 5 6 
#
# 1 146.7078 31.5250 58.1519 0.0000 0.0000 0.0000
# 2 31.5250 19.4635 25.8808 0.0000 0.0000 0.0000
# 3 58.1519 25.8808 83.3466 0.0000 0.0000 0.0000
# 4 0.0000 0.0000 0.0000 15.2474 0.0000 0.0000
# 5 0.0000 0.0000 0.0000 0.0000 21.0664 0.0000
# 6 0.0000 0.0000 0.0000 0.0000 0.0000 22.9270
#
#
#
# Elastic Compliance Matrix: (Units=1/GPa)
#
#
# Indices 1 2 3 4 5 6 
#
# 1 0.011079 -0.013057 -0.003675 0.000000 0.000000 0.000000
# 2 -0.013057 0.102902 -0.022843 0.000000 0.000000 0.000000
# 3 -0.003675 -0.022843 0.021656 0.000000 0.000000 0.000000
# 4 0.000000 0.000000 0.000000 0.065585 0.000000 0.000000
# 5 0.000000 0.000000 0.000000 0.000000 0.047469 0.000000
# 6 0.000000 0.000000 0.000000 0.000000 0.000000 0.043617
#
#
# Mechanical properties :
#
#
# Convention : Reuss Voigt Hill
#
# Bulk Modulus (GPa) = 17.70374 53.40369 35.55372
# Shear Modulus (GPa) = 12.81111 20.77883 16.79497
#
# Velocity S-wave (km/s) = 2.86424 3.64776 3.27948
# Velocity P-wave (km/s) = 4.71969 7.20692 6.09160
#
# Compressibility (1/GPa) = 0.05648525
#
# Stress axis : x y z
#
# Youngs Moduli (GPa) = 90.26166 9.71800 46.17759
#
# Poissons Ratio (x) = 0.12689 0.16972
# Poissons Ratio (y) = 1.17859 1.05482
# Poissons Ratio (z) = 0.33174 0.22199
#
# Static dielectric constant tensor:
#      x y z
#    x 1.533160 0.000000 0.000000 
#    y 0.000000 1.536190 0.000000 
#    z 0.000000 0.000000 1.517390 
# 
# From -- ./inp_files/21920.got.cif
#   From: 2010.05.17/outbox.cif.g08.bks.cpg/sg59_11_cif.got.tgz:21920.got - 2010.06.03 14:40:33.
