data_PCOD9449460
_publ_section_title
;
Structure prediction by ZEFSAII (Michael W. Deem and Ramdas Pophale) SiO2 
 PCOD9449460
Probable space group: P M M N
;
_chemical_formula_sum "Si O2"
_cell_formula_units_Z 64
_cell_length_a 19.221499
_cell_length_b 7.831037
_cell_length_c 21.553430
_cell_angle_alpha 90.000000
_cell_angle_beta 90.000000
_cell_angle_gamma 90.000000
_cell_volume 3244.314314
_symmetry_space_group_name_H-M "P M M N"
_symmetry_group_IT_number 59
_space_group.IT_coordinate_system_code '2'
_symmetry_cell_setting 'orthorhombic'
loop_
_space_group_symop_operation_xyz
x,y,z
1/2-x,1/2-y,z
1/2+x,-y,-z
-x,1/2+y,-z
-x,-y,-z
1/2+x,1/2+y,-z
1/2-x,y,z
x,1/2-y,z
loop_
_atom_site_type_symbol
_atom_site_label
_atom_site_fract_x
_atom_site_fract_y
_atom_site_fract_z
Si Si1 0.670407 0.544215 0.429345
Si Si2 0.829625 0.550850 0.789513
Si Si3 0.330317 0.955918 0.941296
Si Si4 0.329331 0.955191 0.431895
Si Si5 0.829891 0.954876 0.193309
Si Si6 0.424994 0.950194 0.321861
Si Si7 0.834341 0.450304 0.925521
Si Si8 0.581662 0.540018 0.311129
O O1 0.750000 0.482515 0.421398
O O2 0.672007 0.750000 0.427057
O O3 0.646933 0.493477 0.498195
O O4 0.621979 0.486103 0.373266
O O5 0.750000 0.482663 0.786086
O O6 0.827318 0.750000 0.773903
O O7 0.879764 0.464573 0.740324
O O8 0.854576 0.533476 0.860642
O O9 0.250000 0.017793 0.938529
O O10 0.328776 0.750000 0.944911
O O11 0.360528 0.004448 0.874727
O O12 0.360542 0.016126 0.007501
O O13 0.250000 0.021091 0.424776
O O14 0.325807 0.750000 0.425195
O O15 0.380489 0.023784 0.379028
O O16 0.750000 0.020928 0.197242
O O17 0.826029 0.750000 0.198100
O O18 0.876659 0.017218 0.250069
O O19 0.434683 0.750000 0.335991
O O20 0.502220 0.020972 0.312681
O O21 0.750000 0.464839 0.929065
O O22 0.851183 0.250000 0.920446
O O23 0.581949 0.750000 0.309675
#
# Coordination Sequence:
#
# PCOD9449460 Si02
#       8
#     8   8   8   8   8   8   8   8
#     4   9  17  31  52  74  96 124 156 192 236 283
#     4  10  20  32  48  72  99 123 152 196 242 281
#     4   8  14  25  42  67  97 124 153 192 235 280
#     4   9  18  32  49  70  94 119 152 194 237 282
#     4   9  16  27  46  70  95 124 157 195 238 281
#     4  10  20  34  51  68  92 129 165 195 230 277
#     4   8  14  26  45  68  94 124 156 190 232 283
#     4   9  18  32  49  70  95 125 163 199 230 274
#
# _framework density 19.726818999999999
#
# number of rings (size 3 to 8) (size 9 to 14) (size 15 to 20)
#    0.000    3.000    0.000    1.875    0.000    4.250 
#    0.000    5.625    0.000    3.750    0.000    0.000 
#    0.000    0.000    0.000    0.000    0.000    0.000 
#
# Total GULP energy -356634.685199 kJ/mol
# GULP energy per Si atom -5572.416956 kJ/mol
# Density = 1.968192 g / cm^3
# Si number density = 19.726819 Si / 1000 Ang^3
#
#
#
# Elastic Constant Matrix: (Units=GPa)
#
#
# Indices 1 2 3 4 5 6 
#
# 1 78.5641 1.4712 83.1090 0.0000 0.0000 0.0000
# 2 1.4712 16.2312 -6.1916 0.0000 0.0000 0.0000
# 3 83.1090 -6.1916 170.0885 0.0000 0.0000 0.0000
# 4 0.0000 0.0000 0.0000 21.4398 0.0000 0.0000
# 5 0.0000 0.0000 0.0000 0.0000 -5.8613 0.0000
# 6 0.0000 0.0000 0.0000 0.0000 0.0000 5.7967
#
#
#
# Elastic Compliance Matrix: (Units=1/GPa)
#
#
# Indices 1 2 3 4 5 6 
#
# 1 0.027254 -0.007657 -0.013596 0.000000 0.000000 0.000000
# 2 -0.007657 0.064628 0.006094 0.000000 0.000000 0.000000
# 3 -0.013596 0.006094 0.012744 0.000000 0.000000 0.000000
# 4 0.000000 0.000000 0.000000 0.046642 0.000000 0.000000
# 5 0.000000 0.000000 0.000000 0.000000 -0.170609 0.000000
# 6 0.000000 0.000000 0.000000 0.000000 0.000000 0.172512
#
#
# Mechanical properties :
#
#
# Convention : Reuss Voigt Hill
#
# Bulk Modulus (GPa) = 13.45719 46.85122 30.15420
# Shear Modulus (GPa) = 24.00872 16.70805 20.35839
#
# Velocity S-wave (km/s) = 3.49242 2.91343 3.21599
# Velocity P-wave (km/s) = 4.80617 5.92613 5.39529
#
# Compressibility (1/GPa) = 0.07430974
#
# Stress axis : x y z
#
# Youngs Moduli (GPa) = 36.69202 15.47311 78.46701
#
# Poissons Ratio (x) = 0.11847 1.06680
# Poissons Ratio (y) = 0.28093 -0.47816
# Poissons Ratio (z) = 0.49885 -0.09429
#
# Static dielectric constant tensor:
#      x y z
#    x 1.677980 0.000000 0.000000 
#    y 0.000000 1.721150 0.000000 
#    z 0.000000 0.000000 1.707920 
# 
# From -- ./inp_files/30900.got.cif
#   From: 2010.05.17/outbox.cif.g08.bks.cpg/sg59_16_cif.got.tgz:30900.got - 2010.06.03 14:40:33.
