data_PCOD9449257
_publ_section_title
;
Structure prediction by ZEFSAII (Michael W. Deem and Ramdas Pophale) SiO2 
 PCOD9449257
Probable space group: P M M N
;
_chemical_formula_sum "Si O2"
_cell_formula_units_Z 56
_cell_length_a 16.359712
_cell_length_b 30.290047
_cell_length_c 5.352732
_cell_angle_alpha 90.000000
_cell_angle_beta 90.000000
_cell_angle_gamma 90.000000
_cell_volume 2652.473788
_symmetry_space_group_name_H-M "P M M N"
_symmetry_group_IT_number 59
_space_group.IT_coordinate_system_code '2'
_symmetry_cell_setting 'orthorhombic'
loop_
_space_group_symop_operation_xyz
x,y,z
1/2-x,1/2-y,z
1/2+x,-y,-z
-x,1/2+y,-z
-x,-y,-z
1/2+x,1/2+y,-z
1/2-x,y,z
x,1/2-y,z
loop_
_atom_site_type_symbol
_atom_site_label
_atom_site_fract_x
_atom_site_fract_y
_atom_site_fract_z
Si Si1 0.839222 0.669449 0.151576
Si Si2 0.054527 0.504120 0.753599
Si Si3 0.895305 0.100871 0.116284
Si Si4 0.065019 0.128019 0.227567
Si Si5 0.842348 0.574019 0.424083
Si Si6 0.342357 0.852432 0.365210
Si Si7 0.999994 0.799781 0.391790
O O1 0.750000 0.689792 0.189959
O O2 0.841842 0.622361 0.294767
O O3 0.920368 0.697166 0.212535
O O4 0.855199 0.652830 0.872534
O O5 0.100169 0.550883 0.785690
O O6 0.119445 0.464215 0.741547
O O7 0.000000 0.500000 0.500000
O O8 0.000000 0.500000 0.000000
O O9 0.861651 0.128058 0.357238
O O10 0.989819 0.114665 0.051706
O O11 0.849523 0.111298 0.857735
O O12 0.096273 0.083185 0.349546
O O13 0.023843 0.163387 0.407957
O O14 0.750000 0.563437 0.498980
O O15 0.250000 0.835115 0.365958
O O16 0.411416 0.815892 0.298372
O O17 0.005830 0.750000 0.487600
#
# Coordination Sequence:
#
# PCOD9449257 Si02
#       7
#     8   8   8   8   8   8   8
#     4  10  20  38  63  90 125 166 209 257 320 389
#     4  12  24  39  64  93 129 171 218 264 315 372
#     4  11  22  41  67  94 127 172 218 265 321 382
#     4  10  19  38  63  87 123 165 209 259 320 389
#     4  10  22  37  58  91 124 166 214 264 314 375
#     4  11  24  44  68  94 129 173 219 268 324 385
#     4  10  23  40  62  92 125 162 208 265 327 389
#
# _framework density 21.112368
#
# number of rings (size 3 to 8) (size 9 to 14) (size 15 to 20)
#    0.000    1.429    2.857    2.571    2.000    2.857 
#    0.000    0.000    0.000    1.714    0.000    0.000 
#    0.000    0.000    0.000    0.000    0.000    0.000 
#
# Total GULP energy -312054.154780 kJ/mol
# GULP energy per Si atom -5572.395621 kJ/mol
# Density = 2.106432 g / cm^3
# Si number density = 21.112368 Si / 1000 Ang^3
#
#
#
# Elastic Constant Matrix: (Units=GPa)
#
#
# Indices 1 2 3 4 5 6 
#
# 1 159.4791 37.6646 22.4965 0.0000 0.0000 0.0000
# 2 37.6646 61.7540 -8.1359 0.0000 0.0000 0.0000
# 3 22.4965 -8.1359 63.1617 0.0000 0.0000 0.0000
# 4 0.0000 0.0000 0.0000 4.0186 0.0000 0.0000
# 5 0.0000 0.0000 0.0000 0.0000 23.9490 0.0000
# 6 0.0000 0.0000 0.0000 0.0000 0.0000 6.5683
#
#
#
# Elastic Compliance Matrix: (Units=1/GPa)
#
#
# Indices 1 2 3 4 5 6 
#
# 1 0.008041 -0.005373 -0.003556 0.000000 0.000000 0.000000
# 2 -0.005373 0.020063 0.004498 0.000000 0.000000 0.000000
# 3 -0.003556 0.004498 0.017678 0.000000 0.000000 0.000000
# 4 0.000000 0.000000 0.000000 0.248842 0.000000 0.000000
# 5 0.000000 0.000000 0.000000 0.000000 0.041755 0.000000
# 6 0.000000 0.000000 0.000000 0.000000 0.000000 0.152246
#
#
# Mechanical properties :
#
#
# Convention : Reuss Voigt Hill
#
# Bulk Modulus (GPa) = 27.08534 43.16058 35.12296
# Shear Modulus (GPa) = 9.80788 22.39849 16.10319
#
# Velocity S-wave (km/s) = 2.15769 3.26071 2.76477
# Velocity P-wave (km/s) = 4.36629 5.88761 5.18307
#
# Compressibility (1/GPa) = 0.03692034
#
# Stress axis : x y z
#
# Youngs Moduli (GPa) = 124.36353 49.84348 56.56638
#
# Poissons Ratio (x) = 0.26780 0.20115
# Poissons Ratio (y) = 0.66818 -0.25443
# Poissons Ratio (z) = 0.44224 -0.22419
#
# Static dielectric constant tensor:
#      x y z
#    x 1.793210 0.000000 0.000000 
#    y 0.000000 1.740560 0.000000 
#    z 0.000000 0.000000 1.869940 
# 
# From -- ./inp_files/2289.got.cif
#   From: 2010.05.17/outbox.cif.g08.bks.cpg/sg59_2_cif.got.tgz:2289.got - 2010.06.03 14:40:33.
