data_PCOD9449996
_publ_section_title
;
Structure prediction by ZEFSAII (Michael W. Deem and Ramdas Pophale) SiO2 
 PCOD9449996
Probable space group: P M M N
;
_chemical_formula_sum "Si O2"
_cell_formula_units_Z 64
_cell_length_a 20.905518
_cell_length_b 8.350029
_cell_length_c 19.207200
_cell_angle_alpha 90.000000
_cell_angle_beta 90.000000
_cell_angle_gamma 90.000000
_cell_volume 3352.841130
_symmetry_space_group_name_H-M "P M M N"
_symmetry_group_IT_number 59
_space_group.IT_coordinate_system_code '2'
_symmetry_cell_setting 'orthorhombic'
loop_
_space_group_symop_operation_xyz
x,y,z
1/2-x,1/2-y,z
1/2+x,-y,-z
-x,1/2+y,-z
-x,-y,-z
1/2+x,1/2+y,-z
1/2-x,y,z
x,1/2-y,z
loop_
_atom_site_type_symbol
_atom_site_label
_atom_site_fract_x
_atom_site_fract_y
_atom_site_fract_z
Si Si1 0.439553 0.943394 0.704841
Si Si2 0.559302 0.942992 0.796948
Si Si3 0.823200 0.441899 0.048079
Si Si4 0.059729 0.943917 0.545438
Si Si5 0.676803 0.558178 0.203635
Si Si6 0.560521 0.941595 0.955866
Si Si7 0.323232 0.556639 0.293449
Si Si8 0.322415 0.945161 0.452823
O O1 0.441827 0.750000 0.703873
O O2 0.499227 0.001647 0.751261
O O3 0.444227 0.999927 0.625178
O O4 0.373851 0.993994 0.741256
O O5 0.555642 0.750000 0.798777
O O6 0.556855 0.001820 0.876370
O O7 0.624747 0.990392 0.759178
O O8 0.750000 0.495432 0.033918
O O9 0.824379 0.250000 0.047312
O O10 0.840191 0.499027 0.125978
O O11 0.874441 0.504822 0.993347
O O12 0.060207 0.750000 0.546095
O O13 0.124476 0.999433 0.507142
O O14 0.000000 0.000000 0.500000
O O15 0.750000 0.504910 0.217726
O O16 0.675555 0.750000 0.203932
O O17 0.558953 0.750000 0.954317
O O18 0.500000 0.000000 0.000000
O O19 0.250000 0.508084 0.277810
O O20 0.325274 0.750000 0.291552
O O21 0.337736 0.506638 0.373275
O O22 0.250000 0.996953 0.469105
O O23 0.322265 0.750000 0.453283
#
# Coordination Sequence:
#
# PCOD9449996 Si02
#       8
#     8   8   8   8   8   8   8   8
#     4  10  21  36  54  79 110 144 185 228 270 323
#     4  10  22  37  52  75 108 141 174 217 266 316
#     4  10  21  38  60  84 111 143 178 221 274 330
#     4  10  20  33  53  79 106 140 180 224 272 321
#     4  10  21  37  58  84 112 143 180 221 268 325
#     4  11  23  38  57  80 108 144 184 226 273 325
#     4   9  18  33  54  78 103 135 177 221 263 314
#     4   8  15  30  51  75 103 135 174 217 259 308
#
# _framework density 19.088290000000001
#
# number of rings (size 3 to 8) (size 9 to 14) (size 15 to 20)
#    0.000    2.250    0.000    3.375    0.000    5.750 
#    0.000    3.750    0.000    1.125    0.000    0.000 
#    0.000    0.000    0.000    0.000    0.000    0.000 
#
# Total GULP energy -357387.257500 kJ/mol
# GULP energy per Si atom -5584.175898 kJ/mol
# Density = 1.904484 g / cm^3
# Si number density = 19.088290 Si / 1000 Ang^3
#
#
#
# Elastic Constant Matrix: (Units=GPa)
#
#
# Indices 1 2 3 4 5 6 
#
# 1 139.5057 14.3374 132.3762 0.0000 0.0000 0.0000
# 2 14.3374 10.1973 22.7881 0.0000 0.0000 0.0000
# 3 132.3762 22.7881 201.8587 0.0000 0.0000 0.0000
# 4 0.0000 0.0000 0.0000 15.4930 0.0000 0.0000
# 5 0.0000 0.0000 0.0000 0.0000 42.4103 0.0000
# 6 0.0000 0.0000 0.0000 0.0000 0.0000 31.7681
#
#
#
# Elastic Compliance Matrix: (Units=1/GPa)
#
#
# Indices 1 2 3 4 5 6 
#
# 1 0.018994 0.001512 -0.012627 0.000000 0.000000 0.000000
# 2 0.001512 0.131272 -0.015811 0.000000 0.000000 0.000000
# 3 -0.012627 -0.015811 0.015019 0.000000 0.000000 0.000000
# 4 0.000000 0.000000 0.000000 0.064545 0.000000 0.000000
# 5 0.000000 0.000000 0.000000 0.000000 0.023579 0.000000
# 6 0.000000 0.000000 0.000000 0.000000 0.000000 0.031478
#
#
# Mechanical properties :
#
#
# Convention : Reuss Voigt Hill
#
# Bulk Modulus (GPa) = 8.97396 76.72946 42.85171
# Shear Modulus (GPa) = 13.30193 30.07162 21.68678
#
# Velocity S-wave (km/s) = 2.64268 3.97343 3.37431
# Velocity P-wave (km/s) = 3.74475 7.83168 6.13834
#
# Compressibility (1/GPa) = 0.11143349
#
# Stress axis : x y z
#
# Youngs Moduli (GPa) = 52.64686 7.61778 66.58037
#
# Poissons Ratio (x) = -0.01151 0.84071
# Poissons Ratio (y) = -0.07958 1.05268
# Poissons Ratio (z) = 0.66477 0.12044
#
# Static dielectric constant tensor:
#      x y z
#    x 1.645630 0.000000 0.000000 
#    y 0.000000 1.671610 0.000000 
#    z 0.000000 0.000000 1.642540 
# 
# From -- ./inp_files/28144.got.cif
#   From: 2010.05.17/outbox.cif.g08.bks.cpg/sg59_15_cif.got.tgz:28144.got - 2010.06.03 14:40:33.
