data_PCOD9449207
_publ_section_title
;
Structure prediction by ZEFSAII (Michael W. Deem and Ramdas Pophale) SiO2 
 PCOD9449207
Probable space group: P M M N
;
_chemical_formula_sum "Si O2"
_cell_formula_units_Z 40
_cell_length_a 7.691253
_cell_length_b 26.515593
_cell_length_c 9.416673
_cell_angle_alpha 90.000000
_cell_angle_beta 90.000000
_cell_angle_gamma 90.000000
_cell_volume 1920.418722
_symmetry_space_group_name_H-M "P M M N"
_symmetry_group_IT_number 59
_space_group.IT_coordinate_system_code '2'
_symmetry_cell_setting 'orthorhombic'
loop_
_space_group_symop_operation_xyz
x,y,z
1/2-x,1/2-y,z
1/2+x,-y,-z
-x,1/2+y,-z
-x,-y,-z
1/2+x,1/2+y,-z
1/2-x,y,z
x,1/2-y,z
loop_
_atom_site_type_symbol
_atom_site_label
_atom_site_fract_x
_atom_site_fract_y
_atom_site_fract_z
Si Si1 0.546275 0.750000 0.180269
Si Si2 0.959668 0.054577 0.163950
Si Si3 0.039584 0.750000 0.848466
Si Si4 0.457810 0.558184 0.160361
Si Si5 0.955107 0.149814 0.653055
Si Si6 0.463259 0.846808 0.668272
O O1 0.750000 0.750000 0.207089
O O2 0.472641 0.800142 0.253264
O O3 0.513876 0.750000 0.012188
O O4 0.750000 0.056273 0.160115
O O5 0.018522 0.100359 0.262335
O O6 0.024982 0.061360 0.001799
O O7 0.009562 0.998563 0.212705
O O8 0.250000 0.750000 0.846798
O O9 0.980362 0.700149 0.764843
O O10 0.250000 0.565278 0.150961
O O11 0.528877 0.601884 0.261698
O O12 0.750000 0.139810 0.634424
O O13 0.024256 0.157443 0.494069
O O14 0.250000 0.845671 0.669172
#
# Coordination Sequence:
#
# PCOD9449207 Si02
#       6
#     4   8   4   8   8   8
#     4  12  25  38  54  80 110 138 173 216 268 322
#     4   9  17  31  50  75 108 141 176 219 262 304
#     4  10  19  36  60  80 102 136 179 220 260 312
#     4   9  18  32  52  77 104 139 181 218 255 306
#     4  10  20  37  59  80 105 139 180 221 262 313
#     4   9  18  33  57  84 105 135 181 225 262 309
#
# _framework density 20.828792
#
# number of rings (size 3 to 8) (size 9 to 14) (size 15 to 20)
#    0.000    2.400    0.000    2.700    0.000    6.400 
#    0.000    8.000    0.000    0.000    0.000    0.000 
#    0.000    0.000    0.000    0.000    0.000    0.000 
#
# Total GULP energy -223375.030392 kJ/mol
# GULP energy per Si atom -5584.375760 kJ/mol
# Density = 2.078139 g / cm^3
# Si number density = 20.828792 Si / 1000 Ang^3
#
#
#
# Elastic Constant Matrix: (Units=GPa)
#
#
# Indices 1 2 3 4 5 6 
#
# 1 26.6719 -21.1427 -11.0292 0.0000 0.0000 0.0000
# 2 -21.1427 177.1881 109.1885 0.0000 0.0000 0.0000
# 3 -11.0292 109.1885 155.9511 0.0000 0.0000 0.0000
# 4 0.0000 0.0000 0.0000 -87.9611 0.0000 0.0000
# 5 0.0000 0.0000 0.0000 0.0000 0.3239 0.0000
# 6 0.0000 0.0000 0.0000 0.0000 0.0000 -27.1149
#
#
#
# Elastic Compliance Matrix: (Units=1/GPa)
#
#
# Indices 1 2 3 4 5 6 
#
# 1 0.041487 0.005527 -0.000936 0.000000 0.000000 0.000000
# 2 0.005527 0.010663 -0.007075 0.000000 0.000000 0.000000
# 3 -0.000936 -0.007075 0.011299 0.000000 0.000000 0.000000
# 4 0.000000 0.000000 0.000000 -0.011369 0.000000 0.000000
# 5 0.000000 0.000000 0.000000 0.000000 3.087324 0.000000
# 6 0.000000 0.000000 0.000000 0.000000 0.000000 -0.036880
#
#
# Mechanical properties :
#
#
# Convention : Reuss Voigt Hill
#
# Bulk Modulus (GPa) = 17.09911 57.09379 37.09645
# Shear Modulus (GPa) = 1.59898 -4.09744 -1.24923
#
# Velocity S-wave (km/s) = 0.87712 -1.40409 -0.77528
# Velocity P-wave (km/s) = 3.04187 4.98416 4.12885
#
# Compressibility (1/GPa) = 0.05848258
#
# Stress axis : x y z
#
# Youngs Moduli (GPa) = 24.10393 93.78382 88.50038
#
# Poissons Ratio (x) = -0.51834 0.08280
# Poissons Ratio (y) = -0.13322 0.62611
# Poissons Ratio (z) = 0.02255 0.66349
#
# Static dielectric constant tensor:
#      x y z
#    x 1.775150 0.000000 0.000000 
#    y 0.000000 1.667510 0.000000 
#    z 0.000000 0.000000 1.727430 
# 
# From -- ./inp_files/5943.got.cif
#   From: 2010.05.17/outbox.cif.g08.bks.cpg/sg59_3_cif.got.tgz:5943.got - 2010.06.03 14:40:33.
