data_PCOD9449585
_publ_section_title
;
Structure prediction by ZEFSAII (Michael W. Deem and Ramdas Pophale) SiO2 
 PCOD9449585
Probable space group: P M M N
;
_chemical_formula_sum "Si O2"
_cell_formula_units_Z 64
_cell_length_a 8.832812
_cell_length_b 14.334256
_cell_length_c 32.474640
_cell_angle_alpha 90.000000
_cell_angle_beta 90.000000
_cell_angle_gamma 90.000000
_cell_volume 4111.672248
_symmetry_space_group_name_H-M "P M M N"
_symmetry_group_IT_number 59
_space_group.IT_coordinate_system_code '2'
_symmetry_cell_setting 'orthorhombic'
loop_
_space_group_symop_operation_xyz
x,y,z
1/2-x,1/2-y,z
1/2+x,-y,-z
-x,1/2+y,-z
-x,-y,-z
1/2+x,1/2+y,-z
1/2-x,y,z
x,1/2-y,z
loop_
_atom_site_type_symbol
_atom_site_label
_atom_site_fract_x
_atom_site_fract_y
_atom_site_fract_z
Si Si1 0.569085 0.359113 0.318096
Si Si2 0.933959 0.642140 0.526230
Si Si3 0.067266 0.143870 0.982460
Si Si4 0.067730 0.859335 0.854458
Si Si5 0.424162 0.363190 0.231757
Si Si6 0.431158 0.028536 0.393663
Si Si7 0.931028 0.639692 0.433844
Si Si8 0.067124 0.543396 0.938493
O O1 0.750000 0.363412 0.319534
O O2 0.523625 0.250000 0.323830
O O3 0.512030 0.390412 0.273097
O O4 0.498790 0.421178 0.353994
O O5 0.750000 0.639071 0.525419
O O6 0.977381 0.750000 0.532403
O O7 0.985368 0.582324 0.564954
O O8 0.984307 0.613759 0.480367
O O9 0.250000 0.143283 0.985148
O O10 0.019146 0.250000 0.973154
O O11 0.024013 0.063177 0.949751
O O12 0.000646 0.108973 0.025884
O O13 0.250000 0.863060 0.851280
O O14 0.026617 0.750000 0.861030
O O15 0.019531 0.919898 0.893775
O O16 0.997973 0.892497 0.811344
O O17 0.250000 0.392582 0.234238
O O18 0.428564 0.250000 0.231048
O O19 0.250000 0.033323 0.391933
O O20 0.486490 0.923461 0.400571
O O21 0.750000 0.624444 0.431632
O O22 0.957418 0.750000 0.428971
O O23 0.250000 0.549794 0.940455
#
# Coordination Sequence:
#
# PCOD9449585 Si02
#       8
#     8   8   8   8   8   8   8   8
#     4  10  20  33  48  67  93 122 149 177 213 264
#     4   8  15  28  45  65  90 120 150 180 217 260
#     4   9  17  28  41  59  86 118 151 189 228 260
#     4   9  16  26  41  61  85 113 144 177 214 259
#     4   9  17  29  45  65  89 115 141 173 217 265
#     4  11  20  29  46  70  94 119 148 184 224 265
#     4   9  18  33  49  63  85 119 156 191 224 259
#     4   9  17  28  42  61  85 116 153 187 221 264
#
# _framework density 15.565443
#
# number of rings (size 3 to 8) (size 9 to 14) (size 15 to 20)
#    0.000    2.750    0.000    3.000    0.000    4.250 
#    0.000    1.875    0.000    1.500    0.000    0.875 
#    0.000    5.000    0.000    0.000    0.000    0.000 
#
# Total GULP energy -356650.682336 kJ/mol
# GULP energy per Si atom -5572.666911 kJ/mol
# Density = 1.553002 g / cm^3
# Si number density = 15.565443 Si / 1000 Ang^3
#
#
#
# Elastic Constant Matrix: (Units=GPa)
#
#
# Indices 1 2 3 4 5 6 
#
# 1 27.8183 28.5868 43.2074 0.0000 0.0000 0.0000
# 2 28.5868 78.1568 67.8170 0.0000 0.0000 0.0000
# 3 43.2074 67.8170 139.5329 0.0000 0.0000 0.0000
# 4 0.0000 0.0000 0.0000 25.5514 0.0000 0.0000
# 5 0.0000 0.0000 0.0000 0.0000 25.1567 0.0000
# 6 0.0000 0.0000 0.0000 0.0000 0.0000 16.6297
#
#
#
# Elastic Compliance Matrix: (Units=1/GPa)
#
#
# Indices 1 2 3 4 5 6 
#
# 1 0.075958 -0.012751 -0.017324 0.000000 0.000000 0.000000
# 2 -0.012751 0.024266 -0.007846 0.000000 0.000000 0.000000
# 3 -0.017324 -0.007846 0.016344 0.000000 0.000000 0.000000
# 4 0.000000 0.000000 0.000000 0.039137 0.000000 0.000000
# 5 0.000000 0.000000 0.000000 0.000000 0.039751 0.000000
# 6 0.000000 0.000000 0.000000 0.000000 0.000000 0.060134
#
#
# Mechanical properties :
#
#
# Convention : Reuss Voigt Hill
#
# Bulk Modulus (GPa) = 24.55299 58.30337 41.42818
# Shear Modulus (GPa) = 14.49250 20.52733 17.50991
#
# Velocity S-wave (km/s) = 3.05465 3.63543 3.35762
# Velocity P-wave (km/s) = 5.31502 7.42698 6.45792
#
# Compressibility (1/GPa) = 0.04072823
#
# Stress axis : x y z
#
# Youngs Moduli (GPa) = 13.16522 41.20935 61.18275
#
# Poissons Ratio (x) = 0.52545 1.05991
# Poissons Ratio (y) = 0.16786 0.48003
# Poissons Ratio (z) = 0.22807 0.32332
#
# Static dielectric constant tensor:
#      x y z
#    x 1.520080 0.000000 0.000000 
#    y 0.000000 1.521660 0.000000 
#    z 0.000000 0.000000 1.506080 
# 
# From -- ./inp_files/33192.got.cif
#   From: 2010.05.17/outbox.cif.g08.bks.cpg/sg59_17_cif.got.tgz:33192.got - 2010.06.03 14:40:33.
