data_PCOD9449288
_publ_section_title
;
Structure prediction by ZEFSAII (Michael W. Deem and Ramdas Pophale) SiO2 
 PCOD9449288
Probable space group: P M M N
;
_chemical_formula_sum "Si O2"
_cell_formula_units_Z 56
_cell_length_a 7.429427
_cell_length_b 20.058387
_cell_length_c 18.237165
_cell_angle_alpha 90.000000
_cell_angle_beta 90.000000
_cell_angle_gamma 90.000000
_cell_volume 2717.744674
_symmetry_space_group_name_H-M "P M M N"
_symmetry_group_IT_number 59
_space_group.IT_coordinate_system_code '2'
_symmetry_cell_setting 'orthorhombic'
loop_
_space_group_symop_operation_xyz
x,y,z
1/2-x,1/2-y,z
1/2+x,-y,-z
-x,1/2+y,-z
-x,-y,-z
1/2+x,1/2+y,-z
1/2-x,y,z
x,1/2-y,z
loop_
_atom_site_type_symbol
_atom_site_label
_atom_site_fract_x
_atom_site_fract_y
_atom_site_fract_z
Si Si1 0.469301 0.428257 0.287452
Si Si2 0.966907 0.087359 0.869538
Si Si3 0.030272 0.920387 0.296962
Si Si4 0.038262 0.325104 0.006952
Si Si5 0.969628 0.563747 0.880333
Si Si6 0.465071 0.174309 0.408752
Si Si7 0.034408 0.825851 0.426594
O O1 0.250000 0.427209 0.288117
O O2 0.523711 0.503038 0.309059
O O3 0.521689 0.417706 0.202867
O O4 0.534139 0.373836 0.345221
O O5 0.750000 0.085835 0.868978
O O6 0.025759 0.098664 0.785623
O O7 0.022171 0.143966 0.926059
O O8 0.027679 0.012907 0.893839
O O9 0.250000 0.919158 0.297199
O O10 0.966609 0.872222 0.361276
O O11 0.250000 0.320212 0.024009
O O12 0.963784 0.250000 0.012295
O O13 0.964361 0.381250 0.062365
O O14 0.750000 0.562652 0.883072
O O15 0.250000 0.177912 0.399681
O O16 0.536065 0.250000 0.404152
O O17 0.497770 0.148961 0.491226
O O18 0.250000 0.822828 0.419064
O O19 0.964912 0.750000 0.421862
#
# Coordination Sequence:
#
# PCOD9449288 Si02
#       7
#     8   8   8   8   8   8   8
#     4   8  14  26  45  67  88 110 141 182 219 250
#     4   9  17  31  51  69  86 114 152 190 223 258
#     4   8  15  28  46  67  86 108 145 186 217 250
#     4  10  20  31  44  67  97 122 145 178 221 268
#     4   8  15  29  48  68  89 116 150 184 220 263
#     4   9  17  28  43  65  90 114 142 176 214 256
#     4   9  17  29  44  61  84 115 146 175 212 258
#
# _framework density 20.605319999999999
#
# number of rings (size 3 to 8) (size 9 to 14) (size 15 to 20)
#    0.000    3.286    0.000    2.143    0.000    2.000 
#    0.000    5.000    0.000    6.000    0.000    2.000 
#    0.000    0.000    0.000    0.000    0.000    0.000 
#
# Total GULP energy -312371.611974 kJ/mol
# GULP energy per Si atom -5578.064500 kJ/mol
# Density = 2.055842 g / cm^3
# Si number density = 20.605320 Si / 1000 Ang^3
#
#
#
# Elastic Constant Matrix: (Units=GPa)
#
#
# Indices 1 2 3 4 5 6 
#
# 1 64.1676 -1.9395 -8.7136 0.0000 0.0000 0.0000
# 2 -1.9395 79.2563 54.9242 0.0000 0.0000 0.0000
# 3 -8.7136 54.9242 79.1142 0.0000 0.0000 0.0000
# 4 0.0000 0.0000 0.0000 -115.0098 0.0000 0.0000
# 5 0.0000 0.0000 0.0000 0.0000 16.4492 0.0000
# 6 0.0000 0.0000 0.0000 0.0000 0.0000 3.5725
#
#
#
# Elastic Compliance Matrix: (Units=1/GPa)
#
#
# Indices 1 2 3 4 5 6 
#
# 1 0.015924 -0.001591 0.002859 0.000000 0.000000 0.000000
# 2 -0.001591 0.024475 -0.017167 0.000000 0.000000 0.000000
# 3 0.002859 -0.017167 0.024873 0.000000 0.000000 0.000000
# 4 0.000000 0.000000 0.000000 -0.008695 0.000000 0.000000
# 5 0.000000 0.000000 0.000000 0.000000 0.060793 0.000000
# 6 0.000000 0.000000 0.000000 0.000000 0.000000 0.279913
#
#
# Mechanical properties :
#
#
# Convention : Reuss Voigt Hill
#
# Bulk Modulus (GPa) = 29.87484 34.56449 32.21967
# Shear Modulus (GPa) = 11.35746 -7.11314 2.12216
#
# Velocity S-wave (km/s) = 2.35029 -1.86000 1.01595
# Velocity P-wave (km/s) = 4.67924 3.49259 4.12877
#
# Compressibility (1/GPa) = 0.03347298
#
# Stress axis : x y z
#
# Youngs Moduli (GPa) = 62.79717 40.85850 40.20495
#
# Poissons Ratio (x) = 0.06502 -0.11493
# Poissons Ratio (y) = 0.09993 0.69018
# Poissons Ratio (z) = -0.17952 0.70140
#
# Static dielectric constant tensor:
#      x y z
#    x 1.813010 0.000000 0.000000 
#    y 0.000000 1.719680 0.000000 
#    z 0.000000 0.000000 1.706380 
# 
# From -- ./inp_files/26091.got.cif
#   From: 2010.05.17/outbox.cif.g08.bks.cpg/sg59_14_cif.got.tgz:26091.got - 2010.06.03 14:40:33.
