data_PCOD9449016
_publ_section_title
;
Structure prediction by ZEFSAII (Michael W. Deem and Ramdas Pophale) SiO2 
 PCOD9449016
Probable space group: P M M N
;
_chemical_formula_sum "Si O2"
_cell_formula_units_Z 48
_cell_length_a 27.951291
_cell_length_b 8.864796
_cell_length_c 10.175571
_cell_angle_alpha 90.000000
_cell_angle_beta 90.000000
_cell_angle_gamma 90.000000
_cell_volume 2521.328347
_symmetry_space_group_name_H-M "P M M N"
_symmetry_group_IT_number 59
_space_group.IT_coordinate_system_code '2'
_symmetry_cell_setting 'orthorhombic'
loop_
_space_group_symop_operation_xyz
x,y,z
1/2-x,1/2-y,z
1/2+x,-y,-z
-x,1/2+y,-z
-x,-y,-z
1/2+x,1/2+y,-z
1/2-x,y,z
x,1/2-y,z
loop_
_atom_site_type_symbol
_atom_site_label
_atom_site_fract_x
_atom_site_fract_y
_atom_site_fract_z
Si Si1 0.630767 0.429038 0.690768
Si Si2 0.938959 0.071030 0.103893
Si Si3 0.305352 0.427100 0.083306
Si Si4 0.456109 0.071001 0.178776
Si Si5 0.195728 0.069404 0.532419
Si Si6 0.832769 0.070297 0.191719
O O1 0.631203 0.250000 0.680845
O O2 0.661191 0.482955 0.817125
O O3 0.577266 0.488061 0.716868
O O4 0.656873 0.501105 0.565915
O O5 0.941006 0.250000 0.070795
O O6 0.890007 0.044780 0.181096
O O7 0.987380 0.034380 0.182794
O O8 0.939913 0.980294 0.967438
O O9 0.250000 0.439574 0.124082
O O10 0.318467 0.250000 0.084547
O O11 0.311085 0.494009 0.937923
O O12 0.450010 0.250000 0.191939
O O13 0.250000 0.032147 0.488491
O O14 0.191410 0.250000 0.535154
O O15 0.187707 0.002683 0.677031
O O16 0.824001 0.250000 0.190052
#
# Coordination Sequence:
#
# PCOD9449016 Si02
#       6
#     8   8   8   8   8   8
#     4  12  24  39  60  88 119 153 199 249 301 356
#     4   9  19  35  57  89 123 156 195 242 293 351
#     4  11  23  38  58  86 118 153 197 246 296 353
#     4  10  19  34  59  88 121 158 196 240 296 354
#     4  11  25  44  63  84 116 159 203 246 298 361
#     4  11  22  38  61  90 122 155 196 244 295 351
#
# _framework density 19.037585
#
# number of rings (size 3 to 8) (size 9 to 14) (size 15 to 20)
#    0.000    1.333    1.667    4.500    0.000    8.000 
#    0.000    0.833    0.000    0.000    0.000    0.000 
#    0.000    0.000    0.000    0.000    0.000    0.000 
#
# Total GULP energy -268379.605450 kJ/mol
# GULP energy per Si atom -5591.241780 kJ/mol
# Density = 1.899425 g / cm^3
# Si number density = 19.037585 Si / 1000 Ang^3
#
#
#
# Elastic Constant Matrix: (Units=GPa)
#
#
# Indices 1 2 3 4 5 6 
#
# 1 66.7254 27.7608 -9.8327 0.0000 0.0000 0.0000
# 2 27.7608 77.3430 2.5320 0.0000 0.0000 0.0000
# 3 -9.8327 2.5320 42.4822 0.0000 0.0000 0.0000
# 4 0.0000 0.0000 0.0000 33.2330 0.0000 0.0000
# 5 0.0000 0.0000 0.0000 0.0000 9.7931 0.0000
# 6 0.0000 0.0000 0.0000 0.0000 0.0000 29.3766
#
#
#
# Elastic Compliance Matrix: (Units=1/GPa)
#
#
# Indices 1 2 3 4 5 6 
#
# 1 0.018505 -0.006795 0.004688 0.000000 0.000000 0.000000
# 2 -0.006795 0.015450 -0.002494 0.000000 0.000000 0.000000
# 3 0.004688 -0.002494 0.024773 0.000000 0.000000 0.000000
# 4 0.000000 0.000000 0.000000 0.030091 0.000000 0.000000
# 5 0.000000 0.000000 0.000000 0.000000 0.102112 0.000000
# 6 0.000000 0.000000 0.000000 0.000000 0.000000 0.034041
#
#
# Mechanical properties :
#
#
# Convention : Reuss Voigt Hill
#
# Bulk Modulus (GPa) = 20.19149 25.27454 22.73301
# Shear Modulus (GPa) = 19.94557 25.55326 22.74942
#
# Velocity S-wave (km/s) = 3.24032 3.66765 3.46059
# Velocity P-wave (km/s) = 4.96273 5.58932 5.28532
#
# Compressibility (1/GPa) = 0.04952581
#
# Stress axis : x y z
#
# Youngs Moduli (GPa) = 54.03992 64.72429 40.36657
#
# Poissons Ratio (x) = 0.43983 -0.18924
# Poissons Ratio (y) = 0.36722 0.10066
# Poissons Ratio (z) = -0.25334 0.16140
#
# Static dielectric constant tensor:
#      x y z
#    x 1.699150 0.000000 0.000000 
#    y 0.000000 1.631900 0.000000 
#    z 0.000000 0.000000 1.625810 
# 
# From -- ./inp_files/12938.got.cif
#   From: 2010.05.17/outbox.cif.g08.bks.cpg/sg59_7_cif.got.tgz:12938.got - 2010.06.03 14:40:33.
