data_PCOD9449644
_publ_section_title
;
Structure prediction by ZEFSAII (Michael W. Deem and Ramdas Pophale) SiO2 
 PCOD9449644
Probable space group: P M M N
;
_chemical_formula_sum "Si O2"
_cell_formula_units_Z 48
_cell_length_a 7.644917
_cell_length_b 9.322712
_cell_length_c 32.674951
_cell_angle_alpha 90.000000
_cell_angle_beta 90.000000
_cell_angle_gamma 90.000000
_cell_volume 2328.788178
_symmetry_space_group_name_H-M "P M M N"
_symmetry_group_IT_number 59
_space_group.IT_coordinate_system_code '2'
_symmetry_cell_setting 'orthorhombic'
loop_
_space_group_symop_operation_xyz
x,y,z
1/2-x,1/2-y,z
1/2+x,-y,-z
-x,1/2+y,-z
-x,-y,-z
1/2+x,1/2+y,-z
1/2-x,y,z
x,1/2-y,z
loop_
_atom_site_type_symbol
_atom_site_label
_atom_site_fract_x
_atom_site_fract_y
_atom_site_fract_z
Si Si1 0.960215 0.586766 0.541081
Si Si2 0.035923 0.915299 0.378876
Si Si3 0.536585 0.417949 0.782690
Si Si4 0.535906 0.915090 0.702264
Si Si5 0.043739 0.411223 0.959817
Si Si6 0.540823 0.414874 0.871850
O O1 0.750000 0.594296 0.544603
O O2 0.026922 0.750000 0.539255
O O3 0.023493 0.501685 0.581081
O O4 0.000000 0.500000 0.500000
O O5 0.250000 0.915138 0.379120
O O6 0.979885 0.750000 0.379869
O O7 0.981145 0.994858 0.337408
O O8 0.750000 0.421246 0.781865
O O9 0.487567 0.250000 0.778758
O O10 0.476514 0.510061 0.744210
O O11 0.479660 0.472140 0.827788
O O12 0.750000 0.916073 0.702500
O O13 0.480928 0.750000 0.699620
O O14 0.250000 0.396706 0.959454
O O15 0.025394 0.250000 0.874148
O O16 0.997902 0.481503 0.915973
O O17 0.000000 0.500000 0.000000
O O18 0.750000 0.409022 0.869104
O O19 0.535561 0.250000 0.961678
#
# Coordination Sequence:
#
# PCOD9449644 Si02
#       6
#     8   8   8   8   8   8
#     4  10  20  33  49  70  96 126 161 201 245 293
#     4   9  16  26  41  61  87 120 156 193 234 281
#     4   8  13  22  37  56  78 108 145 180 218 268
#     4   9  15  22  34  56  87 117 143 179 229 278
#     4  10  20  33  50  72  96 124 159 197 238 284
#     4   8  14  26  44  64  88 119 152 186 225 271
#
# _framework density 20.611578999999999
#
# number of rings (size 3 to 8) (size 9 to 14) (size 15 to 20)
#    0.000    3.000    0.000    3.000    0.000    6.000 
#    0.000    0.833    0.000    3.000    0.000    1.167 
#    0.000    6.667    0.000    0.000    0.000    0.000 
#
# Total GULP energy -267650.090155 kJ/mol
# GULP energy per Si atom -5576.043545 kJ/mol
# Density = 2.056467 g / cm^3
# Si number density = 20.611579 Si / 1000 Ang^3
#
#
#
# Elastic Constant Matrix: (Units=GPa)
#
#
# Indices 1 2 3 4 5 6 
#
# 1 38.6594 5.1878 8.3693 0.0000 0.0000 0.0000
# 2 5.1878 143.0359 122.0338 0.0000 0.0000 0.0000
# 3 8.3693 122.0338 268.1491 0.0000 0.0000 0.0000
# 4 0.0000 0.0000 0.0000 34.5574 0.0000 0.0000
# 5 0.0000 0.0000 0.0000 0.0000 13.5015 0.0000
# 6 0.0000 0.0000 0.0000 0.0000 0.0000 4.4391
#
#
#
# Elastic Compliance Matrix: (Units=1/GPa)
#
#
# Indices 1 2 3 4 5 6 
#
# 1 0.026058 -0.000411 -0.000626 0.000000 0.000000 0.000000
# 2 -0.000411 0.011435 -0.005191 0.000000 0.000000 0.000000
# 3 -0.000626 -0.005191 0.006111 0.000000 0.000000 0.000000
# 4 0.000000 0.000000 0.000000 0.028937 0.000000 0.000000
# 5 0.000000 0.000000 0.000000 0.000000 0.074066 0.000000
# 6 0.000000 0.000000 0.000000 0.000000 0.000000 0.225273
#
#
# Mechanical properties :
#
#
# Convention : Reuss Voigt Hill
#
# Bulk Modulus (GPa) = 32.10532 80.11403 56.10967
# Shear Modulus (GPa) = 12.66721 31.44981 22.05851
#
# Velocity S-wave (km/s) = 2.48174 3.91043 3.27494
# Velocity P-wave (km/s) = 4.88080 7.70334 6.44840
#
# Compressibility (1/GPa) = 0.03114749
#
# Stress axis : x y z
#
# Youngs Moduli (GPa) = 38.37641 87.44914 163.62942
#
# Poissons Ratio (x) = 0.03591 0.10250
# Poissons Ratio (y) = 0.01576 0.84945
# Poissons Ratio (z) = 0.02404 0.45398
#
# Static dielectric constant tensor:
#      x y z
#    x 1.799780 0.000000 0.000000 
#    y 0.000000 1.703430 0.000000 
#    z 0.000000 0.000000 1.755320 
# 
# From -- ./inp_files/32908.got.cif
#   From: 2010.05.17/outbox.cif.g08.bks.cpg/sg59_17_cif.got.tgz:32908.got - 2010.06.03 14:40:33.
