data_PCOD9449750
_publ_section_title
;
Structure prediction by ZEFSAII (Michael W. Deem and Ramdas Pophale) SiO2 
 PCOD9449750
Probable space group: P M M N
;
_chemical_formula_sum "Si O2"
_cell_formula_units_Z 64
_cell_length_a 13.900489
_cell_length_b 8.842105
_cell_length_c 27.330433
_cell_angle_alpha 90.000000
_cell_angle_beta 90.000000
_cell_angle_gamma 90.000000
_cell_volume 3359.172131
_symmetry_space_group_name_H-M "P M M N"
_symmetry_group_IT_number 59
_space_group.IT_coordinate_system_code '2'
_symmetry_cell_setting 'orthorhombic'
loop_
_space_group_symop_operation_xyz
x,y,z
1/2-x,1/2-y,z
1/2+x,-y,-z
-x,1/2+y,-z
-x,-y,-z
1/2+x,1/2+y,-z
1/2-x,y,z
x,1/2-y,z
loop_
_atom_site_type_symbol
_atom_site_label
_atom_site_fract_x
_atom_site_fract_y
_atom_site_fract_z
Si Si1 0.361523 0.567309 0.672097
Si Si2 0.366198 0.423282 0.867584
Si Si3 0.358088 0.568225 0.479898
Si Si4 0.633106 0.072124 0.925573
Si Si5 0.960271 0.069606 0.226571
Si Si6 0.049000 0.430868 0.575396
Si Si7 0.361086 0.567130 0.182114
Si Si8 0.632421 0.072705 0.031473
O O1 0.250000 0.520372 0.669462
O O2 0.364390 0.750000 0.669759
O O3 0.407041 0.520497 0.723917
O O4 0.418853 0.501159 0.626371
O O5 0.250000 0.427488 0.868142
O O6 0.397642 0.250000 0.861682
O O7 0.402295 0.517079 0.821387
O O8 0.400094 0.484953 0.920294
O O9 0.250000 0.528350 0.464806
O O10 0.362966 0.750000 0.486581
O O11 0.440614 0.526604 0.441130
O O12 0.384370 0.491736 0.531396
O O13 0.750000 0.066039 0.924698
O O14 0.607905 0.250000 0.927095
O O15 0.605532 0.012126 0.872177
O O16 0.602736 0.007478 0.978247
O O17 0.966913 0.250000 0.226752
O O18 0.065611 0.997920 0.221169
O O19 0.055563 0.250000 0.577761
O O20 0.250000 0.523235 0.189692
O O21 0.364350 0.750000 0.181579
O O22 0.750000 0.068456 0.031727
O O23 0.606062 0.250000 0.035064
#
# Coordination Sequence:
#
# PCOD9449750 Si02
#       8
#     8   8   8   8   8   8   8   8
#     4  10  22  40  59  78 105 143 182 221 270 323
#     4  10  20  33  50  74 104 135 168 212 267 322
#     4   9  18  34  55  80 117 161 193 219 261 317
#     4   7  11  23  46  73  97 125 162 202 249 310
#     4  11  23  38  56  77 102 135 179 225 266 317
#     4  10  20  33  54  86 117 146 188 236 272 308
#     4   9  18  35  58  80 103 132 167 212 268 324
#     4   8  13  24  45  71  98 129 164 201 247 310
#
# _framework density 19.052313999999999
#
# number of rings (size 3 to 8) (size 9 to 14) (size 15 to 20)
#    0.000    2.750    0.000    3.375    0.000    5.000 
#    0.000    1.875    0.000    4.500    0.000    0.000 
#    0.000    0.000    0.000    0.000    0.000    0.000 
#
# Total GULP energy -357163.509557 kJ/mol
# GULP energy per Si atom -5580.679837 kJ/mol
# Density = 1.900895 g / cm^3
# Si number density = 19.052314 Si / 1000 Ang^3
#
#
#
# Elastic Constant Matrix: (Units=GPa)
#
#
# Indices 1 2 3 4 5 6 
#
# 1 105.8534 24.5093 65.0036 0.0000 0.0000 0.0000
# 2 24.5093 23.7404 33.6551 0.0000 0.0000 0.0000
# 3 65.0036 33.6551 148.9512 0.0000 0.0000 0.0000
# 4 0.0000 0.0000 0.0000 27.6288 0.0000 0.0000
# 5 0.0000 0.0000 0.0000 0.0000 21.5282 0.0000
# 6 0.0000 0.0000 0.0000 0.0000 0.0000 23.5648
#
#
#
# Elastic Compliance Matrix: (Units=1/GPa)
#
#
# Indices 1 2 3 4 5 6 
#
# 1 0.013985 -0.008512 -0.004180 0.000000 0.000000 0.000000
# 2 -0.008512 0.067154 -0.011458 0.000000 0.000000 0.000000
# 3 -0.004180 -0.011458 0.011127 0.000000 0.000000 0.000000
# 4 0.000000 0.000000 0.000000 0.036194 0.000000 0.000000
# 5 0.000000 0.000000 0.000000 0.000000 0.046451 0.000000
# 6 0.000000 0.000000 0.000000 0.000000 0.000000 0.042436
#
#
# Mechanical properties :
#
#
# Convention : Reuss Voigt Hill
#
# Bulk Modulus (GPa) = 22.74564 58.32010 40.53287
# Shear Modulus (GPa) = 17.83789 24.90281 21.37035
#
# Velocity S-wave (km/s) = 3.06315 3.61927 3.35276
# Velocity P-wave (km/s) = 4.94722 6.93848 6.02567
#
# Compressibility (1/GPa) = 0.04396448
#
# Stress axis : x y z
#
# Youngs Moduli (GPa) = 71.50680 14.89115 89.87420
#
# Poissons Ratio (x) = 0.12676 0.37565
# Poissons Ratio (y) = 0.60869 1.02982
# Poissons Ratio (z) = 0.29888 0.17063
#
# Static dielectric constant tensor:
#      x y z
#    x 1.709280 0.000000 0.000000 
#    y 0.000000 1.638070 0.000000 
#    z 0.000000 0.000000 1.641930 
# 
# From -- ./inp_files/32141.got.cif
#   From: 2010.05.17/outbox.cif.g08.bks.cpg/sg59_17_cif.got.tgz:32141.got - 2010.06.03 14:40:33.
