data_PCOD9449917
_publ_section_title
;
Structure prediction by ZEFSAII (Michael W. Deem and Ramdas Pophale) SiO2 
 PCOD9449917
Probable space group: P M M N
;
_chemical_formula_sum "Si O2"
_cell_formula_units_Z 48
_cell_length_a 28.814197
_cell_length_b 9.220568
_cell_length_c 9.054790
_cell_angle_alpha 90.000000
_cell_angle_beta 90.000000
_cell_angle_gamma 90.000000
_cell_volume 2405.706151
_symmetry_space_group_name_H-M "P M M N"
_symmetry_group_IT_number 59
_space_group.IT_coordinate_system_code '2'
_symmetry_cell_setting 'orthorhombic'
loop_
_space_group_symop_operation_xyz
x,y,z
1/2-x,1/2-y,z
1/2+x,-y,-z
-x,1/2+y,-z
-x,-y,-z
1/2+x,1/2+y,-z
1/2-x,y,z
x,1/2-y,z
loop_
_atom_site_type_symbol
_atom_site_label
_atom_site_fract_x
_atom_site_fract_y
_atom_site_fract_z
Si Si1 0.662035 0.083502 0.230772
Si Si2 0.122156 0.413505 0.025881
Si Si3 0.939923 0.414827 0.387773
Si Si4 0.303243 0.420526 0.492465
Si Si5 0.386594 0.924862 0.328248
Si Si6 0.476327 0.089551 0.869613
O O1 0.678100 0.250000 0.220778
O O2 0.610218 0.088974 0.303716
O O3 0.691400 0.987255 0.343898
O O4 0.657676 0.006331 0.072665
O O5 0.138507 0.250000 0.061826
O O6 0.107289 0.501126 0.170743
O O7 0.076617 0.398206 0.924819
O O8 0.957454 0.250000 0.393188
O O9 0.926091 0.464996 0.551667
O O10 0.973336 0.512044 0.288404
O O11 0.250000 0.433461 0.443763
O O12 0.316092 0.250000 0.493386
O O13 0.338468 0.511661 0.392259
O O14 0.384979 0.750000 0.320500
O O15 0.497231 0.250000 0.857712
O O16 0.500000 0.000000 0.000000
#
# Coordination Sequence:
#
# PCOD9449917 Si02
#       6
#     8   8   8   8   8   8
#     4   9  17  31  52  75  99 130 168 208 247 293
#     4  10  20  34  53  77 104 134 169 210 256 306
#     4   8  16  31  50  72  98 129 166 205 246 297
#     4  10  20  34  53  77 105 136 169 208 253 300
#     4  10  20  34  54  78 104 137 173 211 256 307
#     4  10  20  33  52  76 101 132 169 211 257 303
#
# _framework density 19.952562
#
# number of rings (size 3 to 8) (size 9 to 14) (size 15 to 20)
#    0.000    2.500    0.000    3.500    0.000    8.000 
#    0.000    1.667    0.000    5.000    0.000    0.000 
#    0.000    0.000    0.000    0.000    0.000    0.000 
#
# Total GULP energy -267800.394871 kJ/mol
# GULP energy per Si atom -5579.174893 kJ/mol
# Density = 1.990715 g / cm^3
# Si number density = 19.952562 Si / 1000 Ang^3
#
#
#
# Elastic Constant Matrix: (Units=GPa)
#
#
# Indices 1 2 3 4 5 6 
#
# 1 34.2301 20.7316 7.6921 0.0000 0.0000 0.0000
# 2 20.7316 113.3308 44.5376 0.0000 0.0000 0.0000
# 3 7.6921 44.5376 109.7179 0.0000 0.0000 0.0000
# 4 0.0000 0.0000 0.0000 33.9814 0.0000 0.0000
# 5 0.0000 0.0000 0.0000 0.0000 21.6319 0.0000
# 6 0.0000 0.0000 0.0000 0.0000 0.0000 20.9195
#
#
#
# Elastic Compliance Matrix: (Units=1/GPa)
#
#
# Indices 1 2 3 4 5 6 
#
# 1 0.032857 -0.006074 0.000162 0.000000 0.000000 0.000000
# 2 -0.006074 0.011621 -0.004292 0.000000 0.000000 0.000000
# 3 0.000162 -0.004292 0.010845 0.000000 0.000000 0.000000
# 4 0.000000 0.000000 0.000000 0.029428 0.000000 0.000000
# 5 0.000000 0.000000 0.000000 0.000000 0.046228 0.000000
# 6 0.000000 0.000000 0.000000 0.000000 0.000000 0.047802
#
#
# Mechanical properties :
#
#
# Convention : Reuss Voigt Hill
#
# Bulk Modulus (GPa) = 28.64042 44.80016 36.72029
# Shear Modulus (GPa) = 23.71614 27.59440 25.65527
#
# Velocity S-wave (km/s) = 3.45139 3.72291 3.58971
# Velocity P-wave (km/s) = 5.50165 6.40173 5.96868
#
# Compressibility (1/GPa) = 0.03491569
#
# Stress axis : x y z
#
# Youngs Moduli (GPa) = 30.43537 86.04788 92.20833
#
# Poissons Ratio (x) = 0.52267 -0.01495
# Poissons Ratio (y) = 0.18487 0.39572
# Poissons Ratio (z) = -0.00494 0.36929
#
# Static dielectric constant tensor:
#      x y z
#    x 1.719420 0.000000 0.000000 
#    y 0.000000 1.705450 0.000000 
#    z 0.000000 0.000000 1.702300 
# 
# From -- ./inp_files/6269.got.cif
#   From: 2010.05.17/outbox.cif.g08.bks.cpg/sg59_4_cif.got.tgz:6269.got - 2010.06.03 14:40:33.
