data_PCOD9449793
_publ_section_title
;
Structure prediction by ZEFSAII (Michael W. Deem and Ramdas Pophale) SiO2 
 PCOD9449793
Probable space group: P M M N
;
_chemical_formula_sum "Si O2"
_cell_formula_units_Z 56
_cell_length_a 19.886330
_cell_length_b 7.866220
_cell_length_c 18.379019
_cell_angle_alpha 90.000000
_cell_angle_beta 90.000000
_cell_angle_gamma 90.000000
_cell_volume 2875.034478
_symmetry_space_group_name_H-M "P M M N"
_symmetry_group_IT_number 59
_space_group.IT_coordinate_system_code '2'
_symmetry_cell_setting 'orthorhombic'
loop_
_space_group_symop_operation_xyz
x,y,z
1/2-x,1/2-y,z
1/2+x,-y,-z
-x,1/2+y,-z
-x,-y,-z
1/2+x,1/2+y,-z
1/2-x,y,z
x,1/2-y,z
loop_
_atom_site_type_symbol
_atom_site_label
_atom_site_fract_x
_atom_site_fract_y
_atom_site_fract_z
Si Si1 0.073934 0.544300 0.629655
Si Si2 0.419635 0.949544 0.793780
Si Si3 0.673288 0.547819 0.914572
Si Si4 0.327340 0.955622 0.923437
Si Si5 0.568687 0.450310 0.792585
Si Si6 0.920947 0.453726 0.629194
Si Si7 0.672489 0.041528 0.498533
O O1 0.075119 0.750000 0.631445
O O2 0.087404 0.479776 0.711824
O O3 0.129156 0.487631 0.571557
O O4 0.998019 0.493866 0.608491
O O5 0.402846 0.750000 0.788413
O O6 0.372957 0.021250 0.857430
O O7 0.497946 0.966385 0.813715
O O8 0.750000 0.481359 0.908474
O O9 0.675154 0.750000 0.906256
O O10 0.625236 0.477321 0.852517
O O11 0.649015 0.507789 0.996237
O O12 0.250000 0.012936 0.915403
O O13 0.327777 0.750000 0.921886
O O14 0.555374 0.250000 0.785517
O O15 0.588850 0.515878 0.712121
O O16 0.913806 0.250000 0.630190
O O17 0.867636 0.517418 0.570268
O O18 0.750000 0.987037 0.496803
O O19 0.672597 0.250000 0.498720
#
# Coordination Sequence:
#
# PCOD9449793 Si02
#       7
#     8   8   8   8   8   8   8
#     4   9  17  30  50  73  97 128 162 197 239 286
#     4   9  18  32  50  74 102 129 160 201 246 289
#     4  10  21  36  53  73  98 128 161 199 246 296
#     4   9  18  33  52  73  98 129 164 200 240 290
#     4  10  20  33  51  74  98 128 167 206 243 287
#     4   9  18  32  50  71  96 129 165 200 239 284
#     4   9  17  29  47  73 101 127 160 201 241 282
#
# _framework density 19.478027999999998
#
# number of rings (size 3 to 8) (size 9 to 14) (size 15 to 20)
#    0.000    2.714    0.000    1.286    0.000    3.714 
#    0.000    4.286    0.000    1.714    0.000    4.000 
#    0.000    0.000    0.000    0.000    0.000    0.000 
#
# Total GULP energy -312371.684817 kJ/mol
# GULP energy per Si atom -5578.065800 kJ/mol
# Density = 1.943369 g / cm^3
# Si number density = 19.478028 Si / 1000 Ang^3
#
#
#
# Elastic Constant Matrix: (Units=GPa)
#
#
# Indices 1 2 3 4 5 6 
#
# 1 121.5880 -10.7552 107.0711 0.0000 0.0000 0.0000
# 2 -10.7552 16.3736 -4.7348 0.0000 0.0000 0.0000
# 3 107.0711 -4.7348 138.5935 0.0000 0.0000 0.0000
# 4 0.0000 0.0000 0.0000 30.8872 0.0000 0.0000
# 5 0.0000 0.0000 0.0000 0.0000 -471.8819 0.0000
# 6 0.0000 0.0000 0.0000 0.0000 0.0000 7.6625
#
#
#
# Elastic Compliance Matrix: (Units=1/GPa)
#
#
# Indices 1 2 3 4 5 6 
#
# 1 0.027962 0.012241 -0.021184 0.000000 0.000000 0.000000
# 2 0.012241 0.067042 -0.007167 0.000000 0.000000 0.000000
# 3 -0.021184 -0.007167 0.023336 0.000000 0.000000 0.000000
# 4 0.000000 0.000000 0.000000 0.032376 0.000000 0.000000
# 5 0.000000 0.000000 0.000000 0.000000 -0.002119 0.000000
# 6 0.000000 0.000000 0.000000 0.000000 0.000000 0.130505
#
#
# Mechanical properties :
#
#
# Convention : Reuss Voigt Hill
#
# Bulk Modulus (GPa) = 11.61142 51.07968 31.34555
# Shear Modulus (GPa) = 14.70464 -74.33483 -29.81510
#
# Velocity S-wave (km/s) = 2.75059 -6.18436 -3.91667
# Velocity P-wave (km/s) = 4.00773 4.97130 2.07990
#
# Compressibility (1/GPa) = 0.08612210
#
# Stress axis : x y z
#
# Youngs Moduli (GPa) = 35.76267 14.91592 42.85161
#
# Poissons Ratio (x) = -0.18259 0.90777
# Poissons Ratio (y) = -0.43778 0.30710
# Poissons Ratio (z) = 0.75760 0.10690
#
# Static dielectric constant tensor:
#      x y z
#    x 1.648950 0.000000 0.000000 
#    y 0.000000 1.706040 0.000000 
#    z 0.000000 0.000000 1.687550 
# 
# From -- ./inp_files/24222.got.cif
#   From: 2010.05.17/outbox.cif.g08.bks.cpg/sg59_13_cif.got.tgz:24222.got - 2010.06.03 14:40:33.
