data_PCOD9449197
_publ_section_title
;
Structure prediction by ZEFSAII (Michael W. Deem and Ramdas Pophale) SiO2 
 PCOD9449197
Probable space group: P M M N
;
_chemical_formula_sum "Si O2"
_cell_formula_units_Z 32
_cell_length_a 8.756822
_cell_length_b 10.495925
_cell_length_c 19.608320
_cell_angle_alpha 90.000000
_cell_angle_beta 90.000000
_cell_angle_gamma 90.000000
_cell_volume 1802.219259
_symmetry_space_group_name_H-M "P M M N"
_symmetry_group_IT_number 59
_space_group.IT_coordinate_system_code '2'
_symmetry_cell_setting 'orthorhombic'
loop_
_space_group_symop_operation_xyz
x,y,z
1/2-x,1/2-y,z
1/2+x,-y,-z
-x,1/2+y,-z
-x,-y,-z
1/2+x,1/2+y,-z
1/2-x,y,z
x,1/2-y,z
loop_
_atom_site_type_symbol
_atom_site_label
_atom_site_fract_x
_atom_site_fract_y
_atom_site_fract_z
Si Si1 0.064871 0.000394 0.155911
Si Si2 0.932347 0.896909 0.448370
Si Si3 0.433356 0.750000 0.914756
Si Si4 0.431333 0.900263 0.301146
Si Si5 0.064397 0.750000 0.072435
O O1 0.250000 0.006687 0.153909
O O2 0.020502 0.978862 0.234734
O O3 0.016196 0.876751 0.112380
O O4 0.995679 0.125606 0.122944
O O5 0.750000 0.898955 0.453163
O O6 0.983898 0.750000 0.461973
O O7 0.983001 0.928516 0.371221
O O8 0.000000 0.000000 0.500000
O O9 0.250000 0.750000 0.913891
O O10 0.484797 0.750000 0.993879
O O11 0.250000 0.919660 0.311889
O O12 0.452798 0.750000 0.285359
O O13 0.250000 0.750000 0.073194
#
# Coordination Sequence:
#
# PCOD9449197 Si02
#       5
#     8   8   4   8   4
#     4  10  19  36  59  80 105 143 187 227 272 328
#     4  10  21  37  58  85 115 145 179 221 267 320
#     4  11  23  35  49  79 118 147 176 227 281 324
#     4   9  17  33  59  84 105 138 184 229 270 319
#     4   9  18  35  59  81 104 139 188 233 271 324
#
# _framework density 17.755884999999999
#
# number of rings (size 3 to 8) (size 9 to 14) (size 15 to 20)
#    0.000    2.250    1.250    1.875    0.000    2.500 
#    2.250    1.875    0.000    0.000    0.000    0.000 
#    0.000    0.000    0.000    0.000    0.000    0.000 
#
# Total GULP energy -178592.667690 kJ/mol
# GULP energy per Si atom -5581.020865 kJ/mol
# Density = 1.771547 g / cm^3
# Si number density = 17.755885 Si / 1000 Ang^3
#
#
#
# Elastic Constant Matrix: (Units=GPa)
#
#
# Indices 1 2 3 4 5 6 
#
# 1 30.0990 40.0888 49.0454 0.0000 0.0000 0.0000
# 2 40.0888 151.9788 108.0908 0.0000 0.0000 0.0000
# 3 49.0454 108.0908 169.5376 0.0000 0.0000 0.0000
# 4 0.0000 0.0000 0.0000 21.0699 0.0000 0.0000
# 5 0.0000 0.0000 0.0000 0.0000 28.5806 0.0000
# 6 0.0000 0.0000 0.0000 0.0000 0.0000 18.5541
#
#
#
# Elastic Compliance Matrix: (Units=1/GPa)
#
#
# Indices 1 2 3 4 5 6 
#
# 1 0.066781 -0.007090 -0.014798 0.000000 0.000000 0.000000
# 2 -0.007090 0.012792 -0.006104 0.000000 0.000000 0.000000
# 3 -0.014798 -0.006104 0.014071 0.000000 0.000000 0.000000
# 4 0.000000 0.000000 0.000000 0.047461 0.000000 0.000000
# 5 0.000000 0.000000 0.000000 0.000000 0.034989 0.000000
# 6 0.000000 0.000000 0.000000 0.000000 0.000000 0.053897
#
#
# Mechanical properties :
#
#
# Convention : Reuss Voigt Hill
#
# Bulk Modulus (GPa) = 26.55503 82.89614 54.72558
# Shear Modulus (GPa) = 16.74878 23.93362 20.34120
#
# Velocity S-wave (km/s) = 3.07462 3.67539 3.38835
# Velocity P-wave (km/s) = 5.25285 8.04980 6.79675
#
# Compressibility (1/GPa) = 0.03765765
#
# Stress axis : x y z
#
# Youngs Moduli (GPa) = 14.97431 78.17571 71.06655
#
# Poissons Ratio (x) = 0.55430 1.05168
# Poissons Ratio (y) = 0.10617 0.43381
# Poissons Ratio (z) = 0.22160 0.47721
#
# Static dielectric constant tensor:
#      x y z
#    x 1.601830 0.000000 0.000000 
#    y 0.000000 1.582910 0.000000 
#    z 0.000000 0.000000 1.589780 
# 
# From -- ./inp_files/25231.got.cif
#   From: 2010.05.17/outbox.cif.g08.bks.cpg/sg59_13_cif.got.tgz:25231.got - 2010.06.03 14:40:33.
