data_PCOD9449919
_publ_section_title
;
Structure prediction by ZEFSAII (Michael W. Deem and Ramdas Pophale) SiO2 
 PCOD9449919
Probable space group: P M M N
;
_chemical_formula_sum "Si O2"
_cell_formula_units_Z 40
_cell_length_a 17.862974
_cell_length_b 13.324693
_cell_length_c 7.078663
_cell_angle_alpha 90.000000
_cell_angle_beta 90.000000
_cell_angle_gamma 90.000000
_cell_volume 1684.853773
_symmetry_space_group_name_H-M "P M M N"
_symmetry_group_IT_number 59
_space_group.IT_coordinate_system_code '2'
_symmetry_cell_setting 'orthorhombic'
loop_
_space_group_symop_operation_xyz
x,y,z
1/2-x,1/2-y,z
1/2+x,-y,-z
-x,1/2+y,-z
-x,-y,-z
1/2+x,1/2+y,-z
1/2-x,y,z
x,1/2-y,z
loop_
_atom_site_type_symbol
_atom_site_label
_atom_site_fract_x
_atom_site_fract_y
_atom_site_fract_z
Si Si1 0.120269 0.640262 0.371003
Si Si2 0.994613 0.904057 0.633062
Si Si3 0.670894 0.869402 0.108994
Si Si4 0.489694 0.369005 0.935320
Si Si5 0.830465 0.586072 0.661007
O O1 0.157980 0.750000 0.346053
O O2 0.163981 0.534543 0.374588
O O3 0.068219 0.649719 0.556947
O O4 0.061919 0.626457 0.196721
O O5 0.909371 0.866326 0.596459
O O6 0.998391 0.917826 0.858520
O O7 0.000000 0.000000 0.500000
O O8 0.750000 0.913975 0.180790
O O9 0.674127 0.750000 0.139770
O O10 0.587706 0.902327 0.166619
O O11 0.670466 0.892234 0.884962
O O12 0.479234 0.250000 0.978212
O O13 0.750000 0.623692 0.588523
#
# Coordination Sequence:
#
# PCOD9449919 Si02
#       5
#     8   8   8   8   8
#     4  10  20  33  52  76 101 135 175 212 256 312
#     4   9  18  31  50  73  99 131 171 217 257 301
#     4   8  14  26  45  68  95 128 163 202 253 307
#     4   9  17  30  49  72  99 131 167 208 254 303
#     4   9  18  32  50  74 102 132 167 209 258 309
#
# _framework density 23.740931
#
# number of rings (size 3 to 8) (size 9 to 14) (size 15 to 20)
#    0.000    3.000    0.000    0.600    0.000    8.400 
#    0.000    1.000    0.000   13.200    0.000    5.600 
#    0.000    0.000    0.000    0.000    0.000    0.000 
#
# Total GULP energy -222769.431763 kJ/mol
# GULP energy per Si atom -5569.235794 kJ/mol
# Density = 2.368690 g / cm^3
# Si number density = 23.740931 Si / 1000 Ang^3
#
#
#
# Elastic Constant Matrix: (Units=GPa)
#
#
# Indices 1 2 3 4 5 6 
#
# 1 143.8591 5.2181 19.0601 0.0000 0.0000 0.0000
# 2 5.2181 85.1220 -13.7615 0.0000 0.0000 0.0000
# 3 19.0601 -13.7615 130.4748 0.0000 0.0000 0.0000
# 4 0.0000 0.0000 0.0000 10.7227 0.0000 0.0000
# 5 0.0000 0.0000 0.0000 0.0000 343.1906 0.0000
# 6 0.0000 0.0000 0.0000 0.0000 0.0000 136.0543
#
#
#
# Elastic Compliance Matrix: (Units=1/GPa)
#
#
# Indices 1 2 3 4 5 6 
#
# 1 0.007120 -0.000615 -0.001105 0.000000 0.000000 0.000000
# 2 -0.000615 0.012005 0.001356 0.000000 0.000000 0.000000
# 3 -0.001105 0.001356 0.007969 0.000000 0.000000 0.000000
# 4 0.000000 0.000000 0.000000 0.093260 0.000000 0.000000
# 5 0.000000 0.000000 0.000000 0.000000 0.002914 0.000000
# 6 0.000000 0.000000 0.000000 0.000000 0.000000 0.007350
#
#
# Mechanical properties :
#
#
# Convention : Reuss Voigt Hill
#
# Bulk Modulus (GPa) = 37.92853 42.27660 40.10257
# Shear Modulus (GPa) = 35.68017 121.25614 78.46815
#
# Velocity S-wave (km/s) = 3.88093 7.15441 5.75531
# Velocity P-wave (km/s) = 6.00773 9.27866 7.81621
#
# Compressibility (1/GPa) = 0.02636538
#
# Stress axis : x y z
#
# Youngs Moduli (GPa) = 140.45032 83.30017 125.49011
#
# Poissons Ratio (x) = 0.05124 0.13866
# Poissons Ratio (y) = 0.08639 -0.17017
# Poissons Ratio (z) = 0.15519 -0.11296
#
# Static dielectric constant tensor:
#      x y z
#    x 2.059450 0.000000 0.000000 
#    y 0.000000 2.625510 0.000000 
#    z 0.000000 0.000000 1.888810 
# 
# From -- ./inp_files/2631.got.cif
#   From: 2010.05.17/outbox.cif.g08.bks.cpg/sg59_2_cif.got.tgz:2631.got - 2010.06.03 14:40:33.
