data_PCOD9449968
_publ_section_title
;
Structure prediction by ZEFSAII (Michael W. Deem and Ramdas Pophale) SiO2 
 PCOD9449968
Probable space group: P M M N
;
_chemical_formula_sum "Si O2"
_cell_formula_units_Z 48
_cell_length_a 8.698060
_cell_length_b 9.570523
_cell_length_c 31.617595
_cell_angle_alpha 90.000000
_cell_angle_beta 90.000000
_cell_angle_gamma 90.000000
_cell_volume 2632.006167
_symmetry_space_group_name_H-M "P M M N"
_symmetry_group_IT_number 59
_space_group.IT_coordinate_system_code '2'
_symmetry_cell_setting 'orthorhombic'
loop_
_space_group_symop_operation_xyz
x,y,z
1/2-x,1/2-y,z
1/2+x,-y,-z
-x,1/2+y,-z
-x,-y,-z
1/2+x,1/2+y,-z
1/2-x,y,z
x,1/2-y,z
loop_
_atom_site_type_symbol
_atom_site_label
_atom_site_fract_x
_atom_site_fract_y
_atom_site_fract_z
Si Si1 0.065953 0.912986 0.129834
Si Si2 0.562911 0.590261 0.287647
Si Si3 0.933515 0.914194 0.039020
Si Si4 0.563828 0.088515 0.207561
Si Si5 0.065811 0.411963 0.460942
Si Si6 0.064576 0.413653 0.616073
O O1 0.250000 0.920281 0.129753
O O2 0.020220 0.750000 0.135810
O O3 0.003316 0.958771 0.084073
O O4 0.999120 0.005209 0.167442
O O5 0.750000 0.589968 0.287729
O O6 0.514579 0.750000 0.278732
O O7 0.511893 0.487029 0.250795
O O8 0.516917 0.553867 0.335584
O O9 0.750000 0.928618 0.040502
O O10 0.971312 0.750000 0.033612
O O11 0.000000 0.000000 0.000000
O O12 0.750000 0.083328 0.206565
O O13 0.516698 0.250000 0.206685
O O14 0.250000 0.414510 0.463058
O O15 0.015319 0.250000 0.462857
O O16 0.000000 0.500000 0.500000
O O17 0.010507 0.485916 0.418047
O O18 0.250000 0.425893 0.613425
O O19 0.027332 0.250000 0.607895
#
# Coordination Sequence:
#
# PCOD9449968 Si02
#       6
#     8   8   8   8   8   8
#     4  10  21  37  56  77 103 139 182 223 264 313
#     4   8  15  30  53  79 107 140 177 217 260 309
#     4  10  21  37  58  83 109 139 175 216 264 316
#     4  10  20  33  52  80 110 140 177 220 265 313
#     4  11  24  39  55  78 107 139 177 219 263 314
#     4   9  18  34  57  84 110 137 174 218 263 314
#
# _framework density 18.237038999999999
#
# number of rings (size 3 to 8) (size 9 to 14) (size 15 to 20)
#    0.000    2.333    0.000    3.500    0.000    8.000 
#    0.000    2.500    0.000    1.000    0.000    0.000 
#    0.000    0.000    0.000    0.000    0.000    0.000 
#
# Total GULP energy -267971.294404 kJ/mol
# GULP energy per Si atom -5582.735300 kJ/mol
# Density = 1.819553 g / cm^3
# Si number density = 18.237039 Si / 1000 Ang^3
#
#
#
# Elastic Constant Matrix: (Units=GPa)
#
#
# Indices 1 2 3 4 5 6 
#
# 1 23.0506 41.2354 40.1862 0.0000 0.0000 0.0000
# 2 41.2354 136.2651 129.7701 0.0000 0.0000 0.0000
# 3 40.1862 129.7701 191.1268 0.0000 0.0000 0.0000
# 4 0.0000 0.0000 0.0000 39.1297 0.0000 0.0000
# 5 0.0000 0.0000 0.0000 0.0000 30.7923 0.0000
# 6 0.0000 0.0000 0.0000 0.0000 0.0000 26.3300
#
#
#
# Elastic Compliance Matrix: (Units=1/GPa)
#
#
# Indices 1 2 3 4 5 6 
#
# 1 0.094698 -0.027433 -0.001285 0.000000 0.000000 0.000000
# 2 -0.027433 0.028714 -0.013728 0.000000 0.000000 0.000000
# 3 -0.001285 -0.013728 0.014823 0.000000 0.000000 0.000000
# 4 0.000000 0.000000 0.000000 0.025556 0.000000 0.000000
# 5 0.000000 0.000000 0.000000 0.000000 0.032476 0.000000
# 6 0.000000 0.000000 0.000000 0.000000 0.000000 0.037979
#
#
# Mechanical properties :
#
#
# Convention : Reuss Voigt Hill
#
# Bulk Modulus (GPa) = 18.74646 85.86956 52.30801
# Shear Modulus (GPa) = 14.84038 28.53380 21.68709
#
# Velocity S-wave (km/s) = 2.85572 3.95980 3.45219
# Velocity P-wave (km/s) = 4.60165 8.25192 6.68092
#
# Compressibility (1/GPa) = 0.05334339
#
# Stress axis : x y z
#
# Youngs Moduli (GPa) = 10.55987 34.82659 67.46280
#
# Poissons Ratio (x) = 0.95541 0.08666
# Poissons Ratio (y) = 0.28969 0.92611
# Poissons Ratio (z) = 0.01357 0.47809
#
# Static dielectric constant tensor:
#      x y z
#    x 1.620230 0.000000 0.000000 
#    y 0.000000 1.613150 0.000000 
#    z 0.000000 0.000000 1.602090 
# 
# From -- ./inp_files/32884.got.cif
#   From: 2010.05.17/outbox.cif.g08.bks.cpg/sg59_17_cif.got.tgz:32884.got - 2010.06.03 14:40:33.
