data_PCOD9449462
_publ_section_title
;
Structure prediction by ZEFSAII (Michael W. Deem and Ramdas Pophale) SiO2 
 PCOD9449462
Probable space group: P M M N
;
_chemical_formula_sum "Si O2"
_cell_formula_units_Z 64
_cell_length_a 21.585539
_cell_length_b 7.464358
_cell_length_c 16.941321
_cell_angle_alpha 90.000000
_cell_angle_beta 90.000000
_cell_angle_gamma 90.000000
_cell_volume 2729.622753
_symmetry_space_group_name_H-M "P M M N"
_symmetry_group_IT_number 59
_space_group.IT_coordinate_system_code '2'
_symmetry_cell_setting 'orthorhombic'
loop_
_space_group_symop_operation_xyz
x,y,z
1/2-x,1/2-y,z
1/2+x,-y,-z
-x,1/2+y,-z
-x,-y,-z
1/2+x,1/2+y,-z
1/2-x,y,z
x,1/2-y,z
loop_
_atom_site_type_symbol
_atom_site_label
_atom_site_fract_x
_atom_site_fract_y
_atom_site_fract_z
Si Si1 0.818992 0.466181 0.677207
Si Si2 0.918193 0.959756 0.792435
Si Si3 0.984668 0.546402 0.338727
Si Si4 0.082928 0.962796 0.451770
Si Si5 0.679200 0.969205 0.086297
Si Si6 0.860019 0.968455 0.261037
Si Si7 0.930618 0.964574 0.969787
Si Si8 0.815632 0.964181 0.427032
O O1 0.750000 0.533048 0.667020
O O2 0.818318 0.250000 0.672549
O O3 0.848860 0.519151 0.760197
O O4 0.864650 0.532869 0.608910
O O5 0.934951 0.750000 0.791722
O O6 0.925452 0.032211 0.880226
O O7 0.961219 0.051272 0.726951
O O8 0.965649 0.750000 0.359549
O O9 0.927198 0.466609 0.290981
O O10 0.017669 0.463941 0.416869
O O11 0.076815 0.750000 0.441155
O O12 0.118650 0.986311 0.533928
O O13 0.750000 0.023174 0.067011
O O14 0.678810 0.750000 0.086017
O O15 0.661622 0.028477 0.175215
O O16 0.624790 0.029237 0.026765
O O17 0.861736 0.750000 0.255732
O O18 0.817572 0.015341 0.335281
O O19 0.923142 0.750000 0.966281
O O20 0.000000 0.000000 0.000000
O O21 0.750000 0.032670 0.462543
O O22 0.813929 0.750000 0.431738
#
# Coordination Sequence:
#
# PCOD9449462 Si02
#       8
#     8   8   8   8   8   8   8   8
#     4   9  18  33  52  72  97 134 175 206 238 295
#     4  10  20  32  48  75 106 131 161 207 260 304
#     4   9  18  34  54  73  97 133 173 208 247 303
#     4   9  18  32  49  70  97 130 167 204 242 293
#     4   9  17  31  53  79 105 135 174 218 262 310
#     4   9  17  31  52  74  96 127 168 212 256 303
#     4  10  21  35  54  80 107 138 175 215 260 312
#     4  10  20  32  48  73 101 126 159 207 258 305
#
# _framework density 23.446463000000001
#
# number of rings (size 3 to 8) (size 9 to 14) (size 15 to 20)
#    0.000    2.625    0.000    2.625    0.000    7.500 
#    0.000    1.875    0.000    1.125    0.000    0.000 
#    0.000    0.000    0.000    0.000    0.000    0.000 
#
# Total GULP energy -357203.558032 kJ/mol
# GULP energy per Si atom -5581.305594 kJ/mol
# Density = 2.339310 g / cm^3
# Si number density = 23.446463 Si / 1000 Ang^3
#
#
#
# Elastic Constant Matrix: (Units=GPa)
#
#
# Indices 1 2 3 4 5 6 
#
# 1 157.0374 0.0596 36.7322 0.0000 0.0000 0.0000
# 2 0.0596 73.6467 -3.6013 0.0000 0.0000 0.0000
# 3 36.7322 -3.6013 131.2122 0.0000 0.0000 0.0000
# 4 0.0000 0.0000 0.0000 4.2910 0.0000 0.0000
# 5 0.0000 0.0000 0.0000 0.0000 24.9906 0.0000
# 6 0.0000 0.0000 0.0000 0.0000 0.0000 10.5182
#
#
#
# Elastic Compliance Matrix: (Units=1/GPa)
#
#
# Indices 1 2 3 4 5 6 
#
# 1 0.006815 -0.000099 -0.001910 0.000000 0.000000 0.000000
# 2 -0.000099 0.013598 0.000401 0.000000 0.000000 0.000000
# 3 -0.001910 0.000401 0.008167 0.000000 0.000000 0.000000
# 4 0.000000 0.000000 0.000000 0.233045 0.000000 0.000000
# 5 0.000000 0.000000 0.000000 0.000000 0.040015 0.000000
# 6 0.000000 0.000000 0.000000 0.000000 0.000000 0.095073
#
#
# Mechanical properties :
#
#
# Convention : Reuss Voigt Hill
#
# Bulk Modulus (GPa) = 39.42768 47.58637 43.50702
# Shear Modulus (GPa) = 12.24335 29.87368 21.05851
#
# Velocity S-wave (km/s) = 2.28761 3.57336 3.00017
# Velocity P-wave (km/s) = 4.88161 6.11269 5.53151
#
# Compressibility (1/GPa) = 0.02536289
#
# Stress axis : x y z
#
# Youngs Moduli (GPa) = 146.73895 73.54014 122.44278
#
# Poissons Ratio (x) = 0.00728 0.23393
# Poissons Ratio (y) = 0.01452 -0.04909
# Poissons Ratio (z) = 0.28034 -0.02948
#
# Static dielectric constant tensor:
#      x y z
#    x 1.925490 0.000000 0.000000 
#    y 0.000000 1.901530 0.000000 
#    z 0.000000 0.000000 1.890810 
# 
# From -- ./inp_files/28307.got.cif
#   From: 2010.05.17/outbox.cif.g08.bks.cpg/sg59_15_cif.got.tgz:28307.got - 2010.06.03 14:40:33.
