data_PCOD9449348
_publ_section_title
;
Structure prediction by ZEFSAII (Michael W. Deem and Ramdas Pophale) SiO2 
 PCOD9449348
Probable space group: P M M N
;
_chemical_formula_sum "Si O2"
_cell_formula_units_Z 64
_cell_length_a 8.905800
_cell_length_b 31.713237
_cell_length_c 12.555858
_cell_angle_alpha 90.000000
_cell_angle_beta 90.000000
_cell_angle_gamma 90.000000
_cell_volume 3546.172898
_symmetry_space_group_name_H-M "P M M N"
_symmetry_group_IT_number 59
_space_group.IT_coordinate_system_code '2'
_symmetry_cell_setting 'orthorhombic'
loop_
_space_group_symop_operation_xyz
x,y,z
1/2-x,1/2-y,z
1/2+x,-y,-z
-x,1/2+y,-z
-x,-y,-z
1/2+x,1/2+y,-z
1/2-x,y,z
x,1/2-y,z
loop_
_atom_site_type_symbol
_atom_site_label
_atom_site_fract_x
_atom_site_fract_y
_atom_site_fract_z
Si Si1 0.930932 0.120216 0.901951
Si Si2 0.428410 0.110368 0.680972
Si Si3 0.928332 0.483052 0.663701
Si Si4 0.425020 0.648312 0.520990
Si Si5 0.932068 0.131654 0.146411
Si Si6 0.073876 0.976977 0.095450
Si Si7 0.929124 0.700875 0.700609
Si Si8 0.075607 0.933271 0.675130
O O1 0.750000 0.124710 0.889823
O O2 0.972777 0.071149 0.906210
O O3 0.009035 0.131530 0.790305
O O4 0.971387 0.135252 0.021091
O O5 0.250000 0.105489 0.687965
O O6 0.499965 0.063628 0.655919
O O7 0.479667 0.139354 0.583627
O O8 0.750000 0.479482 0.642566
O O9 0.956196 0.494366 0.788194
O O10 0.995674 0.526566 0.618207
O O11 0.250000 0.655428 0.495917
O O12 0.493026 0.685538 0.591949
O O13 0.432652 0.606159 0.594179
O O14 0.750000 0.132731 0.154077
O O15 0.977270 0.088904 0.212524
O O16 0.002931 0.170756 0.208725
O O17 0.250000 0.977858 0.079271
O O18 0.000000 0.000000 0.000000
O O19 0.750000 0.694363 0.693815
O O20 0.958280 0.750000 0.721258
O O21 0.250000 0.945472 0.690247
#
# Coordination Sequence:
#
# PCOD9449348 Si02
#       8
#     8   8   8   8   8   8   8   8
#     4   9  18  33  50  71 102 138 175 215 258 305
#     4  11  22  35  52  74 102 140 185 228 269 314
#     4  10  20  32  45  65  97 138 181 223 267 314
#     4  10  21  38  58  78 104 138 176 219 265 317
#     4   9  18  33  55  81 109 141 175 213 259 314
#     4   9  17  27  40  60  89 127 170 214 256 296
#     4  10  21  37  59  88 117 139 163 203 255 310
#     4   9  18  32  50  74 101 132 175 225 272 313
#
# _framework density 18.047626000000001
#
# number of rings (size 3 to 8) (size 9 to 14) (size 15 to 20)
#    0.000    2.375    0.000    4.500    0.000    8.000 
#    0.000    0.000    0.000    0.750    0.000    3.500 
#    0.000    0.000    0.000    0.000    0.000    0.000 
#
# Total GULP energy -356436.548069 kJ/mol
# GULP energy per Si atom -5569.321064 kJ/mol
# Density = 1.800655 g / cm^3
# Si number density = 18.047626 Si / 1000 Ang^3
#
#
#
# Elastic Constant Matrix: (Units=GPa)
#
#
# Indices 1 2 3 4 5 6 
#
# 1 47.2556 32.0595 28.2627 0.0000 0.0000 0.0000
# 2 32.0595 68.6721 18.1906 0.0000 0.0000 0.0000
# 3 28.2627 18.1906 74.1835 0.0000 0.0000 0.0000
# 4 0.0000 0.0000 0.0000 17.4077 0.0000 0.0000
# 5 0.0000 0.0000 0.0000 0.0000 25.3815 0.0000
# 6 0.0000 0.0000 0.0000 0.0000 0.0000 24.2073
#
#
#
# Elastic Compliance Matrix: (Units=1/GPa)
#
#
# Indices 1 2 3 4 5 6 
#
# 1 0.037518 -0.014683 -0.010693 0.000000 0.000000 0.000000
# 2 -0.014683 0.021320 0.000366 0.000000 0.000000 0.000000
# 3 -0.010693 0.000366 0.017464 0.000000 0.000000 0.000000
# 4 0.000000 0.000000 0.000000 0.057446 0.000000 0.000000
# 5 0.000000 0.000000 0.000000 0.000000 0.039399 0.000000
# 6 0.000000 0.000000 0.000000 0.000000 0.000000 0.041310
#
#
# Mechanical properties :
#
#
# Convention : Reuss Voigt Hill
#
# Bulk Modulus (GPa) = 38.04894 38.57076 38.30985
# Shear Modulus (GPa) = 18.29908 20.83917 19.56912
#
# Velocity S-wave (km/s) = 3.18769 3.40174 3.29645
# Velocity P-wave (km/s) = 5.88870 6.07019 5.98013
#
# Compressibility (1/GPa) = 0.02628194
#
# Stress axis : x y z
#
# Youngs Moduli (GPa) = 26.65370 46.90508 57.25950
#
# Poissons Ratio (x) = 0.68870 0.61230
# Poissons Ratio (y) = 0.39135 -0.02096
# Poissons Ratio (z) = 0.28502 -0.01717
#
# Static dielectric constant tensor:
#      x y z
#    x 1.611600 0.000000 0.000000 
#    y 0.000000 1.631870 0.000000 
#    z 0.000000 0.000000 1.736270 
# 
# From -- ./inp_files/14874.got.cif
#   From: 2010.05.17/outbox.cif.g08.bks.cpg/sg59_8_cif.got.tgz:14874.got - 2010.06.03 14:40:33.
