data_PCOD9449863
_publ_section_title
;
Structure prediction by ZEFSAII (Michael W. Deem and Ramdas Pophale) SiO2 
 PCOD9449863
Probable space group: P M M N
;
_chemical_formula_sum "Si O2"
_cell_formula_units_Z 48
_cell_length_a 8.894193
_cell_length_b 14.507889
_cell_length_c 21.642356
_cell_angle_alpha 90.000000
_cell_angle_beta 90.000000
_cell_angle_gamma 90.000000
_cell_volume 2792.642287
_symmetry_space_group_name_H-M "P M M N"
_symmetry_group_IT_number 59
_space_group.IT_coordinate_system_code '2'
_symmetry_cell_setting 'orthorhombic'
loop_
_space_group_symop_operation_xyz
x,y,z
1/2-x,1/2-y,z
1/2+x,-y,-z
-x,1/2+y,-z
-x,-y,-z
1/2+x,1/2+y,-z
1/2-x,y,z
x,1/2-y,z
loop_
_atom_site_type_symbol
_atom_site_label
_atom_site_fract_x
_atom_site_fract_y
_atom_site_fract_z
Si Si1 0.070382 0.506755 0.598130
Si Si2 0.929340 0.499746 0.067813
Si Si3 0.930663 0.142409 0.838775
Si Si4 0.069301 0.142422 0.161538
Si Si5 0.429566 0.500433 0.267453
Si Si6 0.431226 0.356038 0.497403
O O1 0.250000 0.513475 0.597903
O O2 0.026810 0.417203 0.557158
O O3 0.010949 0.500043 0.667390
O O4 0.001368 0.593545 0.561757
O O5 0.750000 0.499586 0.064402
O O6 0.987391 0.587981 0.106496
O O7 0.987724 0.411587 0.106505
O O8 0.000000 0.500000 0.000000
O O9 0.750000 0.133332 0.847647
O O10 0.968480 0.250000 0.836525
O O11 0.967076 0.088746 0.775249
O O12 0.250000 0.133629 0.152711
O O13 0.031279 0.250000 0.164178
O O14 0.032936 0.088076 0.224814
O O15 0.250000 0.500221 0.277677
O O16 0.250000 0.358800 0.492017
O O17 0.478173 0.250000 0.502835
#
# Coordination Sequence:
#
# PCOD9449863 Si02
#       6
#     8   8   8   8   8   8
#     4  10  20  33  51  77 105 132 167 213 258 301
#     4  11  22  36  55  79 108 140 174 214 260 310
#     4   9  19  37  58  79 105 137 175 217 257 302
#     4   9  19  37  58  78 103 137 177 218 258 304
#     4   9  18  33  53  78 107 139 171 204 252 311
#     4   9  19  36  54  71  97 135 174 211 255 306
#
# _framework density 17.188023000000001
#
# number of rings (size 3 to 8) (size 9 to 14) (size 15 to 20)
#    0.000    2.500    0.000    3.000    0.000    6.333 
#    0.000    1.667    0.000    0.000    0.000    0.000 
#    0.000    0.000    0.000    0.000    0.000    0.000 
#
# Total GULP energy -267825.801812 kJ/mol
# GULP energy per Si atom -5579.704204 kJ/mol
# Density = 1.714890 g / cm^3
# Si number density = 17.188023 Si / 1000 Ang^3
#
#
#
# Elastic Constant Matrix: (Units=GPa)
#
#
# Indices 1 2 3 4 5 6 
#
# 1 47.4130 57.2233 63.2125 0.0000 0.0000 0.0000
# 2 57.2233 177.2331 88.3751 0.0000 0.0000 0.0000
# 3 63.2125 88.3751 168.7490 0.0000 0.0000 0.0000
# 4 0.0000 0.0000 0.0000 5.4093 0.0000 0.0000
# 5 0.0000 0.0000 0.0000 0.0000 34.4874 0.0000
# 6 0.0000 0.0000 0.0000 0.0000 0.0000 23.2274
#
#
#
# Elastic Compliance Matrix: (Units=1/GPa)
#
#
# Indices 1 2 3 4 5 6 
#
# 1 0.051835 -0.009547 -0.014417 0.000000 0.000000 0.000000
# 2 -0.009547 0.009395 -0.001344 0.000000 0.000000 0.000000
# 3 -0.014417 -0.001344 0.012030 0.000000 0.000000 0.000000
# 4 0.000000 0.000000 0.000000 0.184865 0.000000 0.000000
# 5 0.000000 0.000000 0.000000 0.000000 0.028996 0.000000
# 6 0.000000 0.000000 0.000000 0.000000 0.000000 0.043053
#
#
# Mechanical properties :
#
#
# Convention : Reuss Voigt Hill
#
# Bulk Modulus (GPa) = 44.16174 90.11300 67.13737
# Shear Modulus (GPa) = 12.87534 24.93044 18.90289
#
# Velocity S-wave (km/s) = 2.73992 3.81261 3.31988
# Velocity P-wave (km/s) = 5.97985 8.48074 7.33763
#
# Compressibility (1/GPa) = 0.02264403
#
# Stress axis : x y z
#
# Youngs Moduli (GPa) = 19.29181 106.44123 83.12232
#
# Poissons Ratio (x) = 1.01620 1.19841
# Poissons Ratio (y) = 0.18418 0.11171
# Poissons Ratio (z) = 0.27814 0.14304
#
# Static dielectric constant tensor:
#      x y z
#    x 1.575180 0.000000 0.000000 
#    y 0.000000 1.575630 0.000000 
#    z 0.000000 0.000000 1.548140 
# 
# From -- ./inp_files/25482.got.cif
#   From: 2010.05.17/outbox.cif.g08.bks.cpg/sg59_13_cif.got.tgz:25482.got - 2010.06.03 14:40:33.
