data_PCOD9449662
_publ_section_title
;
Structure prediction by ZEFSAII (Michael W. Deem and Ramdas Pophale) SiO2 
 PCOD9449662
Probable space group: P M M N
;
_chemical_formula_sum "Si O2"
_cell_formula_units_Z 48
_cell_length_a 24.588002
_cell_length_b 7.438691
_cell_length_c 10.229305
_cell_angle_alpha 90.000000
_cell_angle_beta 90.000000
_cell_angle_gamma 90.000000
_cell_volume 1870.965961
_symmetry_space_group_name_H-M "P M M N"
_symmetry_group_IT_number 59
_space_group.IT_coordinate_system_code '2'
_symmetry_cell_setting 'orthorhombic'
loop_
_space_group_symop_operation_xyz
x,y,z
1/2-x,1/2-y,z
1/2+x,-y,-z
-x,1/2+y,-z
-x,-y,-z
1/2+x,1/2+y,-z
1/2-x,y,z
x,1/2-y,z
loop_
_atom_site_type_symbol
_atom_site_label
_atom_site_fract_x
_atom_site_fract_y
_atom_site_fract_z
Si Si1 0.339792 0.960062 0.892609
Si Si2 0.424752 0.044262 0.518228
Si Si3 0.190903 0.529323 0.175968
Si Si4 0.071064 0.545995 0.232510
Si Si5 0.543487 0.532167 0.191787
Si Si6 0.309730 0.968269 0.605130
O O1 0.326544 0.750000 0.888048
O O2 0.319756 0.033536 0.753936
O O3 0.405285 0.979186 0.896457
O O4 0.312316 0.026269 0.023696
O O5 0.442647 0.250000 0.509672
O O6 0.441140 0.970114 0.660379
O O7 0.443654 0.949999 0.386723
O O8 0.359405 0.035989 0.520719
O O9 0.250000 0.472570 0.229767
O O10 0.190653 0.750000 0.187228
O O11 0.131554 0.466427 0.225028
O O12 0.075988 0.750000 0.183524
O O13 0.017566 0.465797 0.163283
O O14 0.542435 0.750000 0.193562
O O15 0.250000 0.021187 0.561485
O O16 0.312524 0.750000 0.603220
#
# Coordination Sequence:
#
# PCOD9449662 Si02
#       6
#     8   8   8   8   8   8
#     4   9  17  31  53  78 100 125 162 206 250 297
#     4  10  20  33  49  71 101 134 167 209 257 299
#     4   9  18  33  53  76 101 130 165 205 247 291
#     4  10  20  34  52  73 100 136 173 206 244 298
#     4   9  19  34  51  74 103 132 164 206 256 302
#     4   9  17  30  50  74  98 127 165 207 249 297
#
# _framework density 25.655196
#
# number of rings (size 3 to 8) (size 9 to 14) (size 15 to 20)
#    0.000    2.667    0.000    1.500    0.000    5.000 
#    0.000    2.500    0.000    2.500    0.000    0.000 
#    0.000    0.000    0.000    0.000    0.000    0.000 
#
# Total GULP energy -268169.245059 kJ/mol
# GULP energy per Si atom -5586.859272 kJ/mol
# Density = 2.559680 g / cm^3
# Si number density = 25.655196 Si / 1000 Ang^3
#
#
#
# Elastic Constant Matrix: (Units=GPa)
#
#
# Indices 1 2 3 4 5 6 
#
# 1 206.8676 -2.6690 15.4673 0.0000 0.0000 0.0000
# 2 -2.6690 82.3668 -0.6692 0.0000 0.0000 0.0000
# 3 15.4673 -0.6692 54.6877 0.0000 0.0000 0.0000
# 4 0.0000 0.0000 0.0000 4.2062 0.0000 0.0000
# 5 0.0000 0.0000 0.0000 0.0000 20.5660 0.0000
# 6 0.0000 0.0000 0.0000 0.0000 0.0000 13.7167
#
#
#
# Elastic Compliance Matrix: (Units=1/GPa)
#
#
# Indices 1 2 3 4 5 6 
#
# 1 0.004940 0.000149 -0.001395 0.000000 0.000000 0.000000
# 2 0.000149 0.012147 0.000107 0.000000 0.000000 0.000000
# 3 -0.001395 0.000107 0.018682 0.000000 0.000000 0.000000
# 4 0.000000 0.000000 0.000000 0.237745 0.000000 0.000000
# 5 0.000000 0.000000 0.000000 0.000000 0.048624 0.000000
# 6 0.000000 0.000000 0.000000 0.000000 0.000000 0.072904
#
#
# Mechanical properties :
#
#
# Convention : Reuss Voigt Hill
#
# Bulk Modulus (GPa) = 29.86133 40.90894 35.38514
# Shear Modulus (GPa) = 12.24040 29.81732 21.02886
#
# Velocity S-wave (km/s) = 2.18666 3.41285 2.86610
# Velocity P-wave (km/s) = 4.24736 5.61341 4.97747
#
# Compressibility (1/GPa) = 0.03348812
#
# Stress axis : x y z
#
# Youngs Moduli (GPa) = 202.41835 82.32821 53.52859
#
# Poissons Ratio (x) = -0.01225 0.07470
# Poissons Ratio (y) = -0.03011 -0.00570
# Poissons Ratio (z) = 0.28246 -0.00877
#
# Static dielectric constant tensor:
#      x y z
#    x 2.047520 0.000000 0.000000 
#    y 0.000000 1.583940 0.000000 
#    z 0.000000 0.000000 1.988930 
# 
# From -- ./inp_files/18583.got.cif
#   From: 2010.05.17/outbox.cif.g08.bks.cpg/sg59_10_cif.got.tgz:18583.got - 2010.06.03 14:40:33.
