data_PCOD9449488
_publ_section_title
;
Structure prediction by ZEFSAII (Michael W. Deem and Ramdas Pophale) SiO2 
 PCOD9449488
Probable space group: P M M N
;
_chemical_formula_sum "Si O2"
_cell_formula_units_Z 64
_cell_length_a 8.895428
_cell_length_b 23.619495
_cell_length_c 18.570482
_cell_angle_alpha 90.000000
_cell_angle_beta 90.000000
_cell_angle_gamma 90.000000
_cell_volume 3901.760725
_symmetry_space_group_name_H-M "P M M N"
_symmetry_group_IT_number 59
_space_group.IT_coordinate_system_code '2'
_symmetry_cell_setting 'orthorhombic'
loop_
_space_group_symop_operation_xyz
x,y,z
1/2-x,1/2-y,z
1/2+x,-y,-z
-x,1/2+y,-z
-x,-y,-z
1/2+x,1/2+y,-z
1/2-x,y,z
x,1/2-y,z
loop_
_atom_site_type_symbol
_atom_site_label
_atom_site_fract_x
_atom_site_fract_y
_atom_site_fract_z
Si Si1 0.429000 0.683058 0.229236
Si Si2 0.930799 0.315620 0.227454
Si Si3 0.929522 0.110983 0.365548
Si Si4 0.928429 0.617602 0.362025
Si Si5 0.070422 0.502974 0.419810
Si Si6 0.072037 0.181821 0.078470
Si Si7 0.927144 0.683323 0.509534
Si Si8 0.425556 0.181282 0.920365
O O1 0.250000 0.677870 0.235977
O O2 0.468065 0.750000 0.237258
O O3 0.510194 0.646964 0.290375
O O4 0.481328 0.664353 0.149567
O O5 0.750000 0.314630 0.225458
O O6 0.981575 0.250000 0.238165
O O7 0.976535 0.355080 0.293834
O O8 0.990485 0.337579 0.150724
O O9 0.750000 0.102100 0.363704
O O10 0.973329 0.149619 0.433631
O O11 0.012876 0.051734 0.376644
O O12 0.750000 0.607286 0.356239
O O13 0.953228 0.659505 0.429675
O O14 0.012303 0.559612 0.381365
O O15 0.250000 0.502803 0.425797
O O16 0.000000 0.500000 0.500000
O O17 0.250000 0.170697 0.083660
O O18 0.052446 0.250000 0.078070
O O19 0.020686 0.161321 0.999398
O O20 0.750000 0.673740 0.526301
O O21 0.956897 0.750000 0.512736
O O22 0.250000 0.165648 0.911864
O O23 0.430357 0.250000 0.922567
#
# Coordination Sequence:
#
# PCOD9449488 Si02
#       8
#     8   8   8   8   8   8   8   8
#     4  10  20  32  48  75 109 141 173 210 254 304
#     4   9  18  31  47  72 106 139 170 206 251 301
#     4  11  22  36  54  75 101 136 173 212 257 304
#     4  11  22  37  56  76 100 134 172 213 259 304
#     4  12  24  40  59  78  98 127 169 218 263 306
#     4   8  14  25  43  68  98 134 173 209 248 296
#     4  10  21  35  52  75 102 133 169 207 251 305
#     4   8  14  26  44  67  98 136 174 209 248 297
#
# _framework density 16.402850000000001
#
# number of rings (size 3 to 8) (size 9 to 14) (size 15 to 20)
#    0.000    2.125    1.250    3.750    0.000    4.000 
#    0.000    3.750    0.000    0.000    0.000    0.875 
#    0.000    0.000    0.000    0.000    0.000    0.000 
#
# Total GULP energy -356975.570631 kJ/mol
# GULP energy per Si atom -5577.743291 kJ/mol
# Density = 1.636552 g / cm^3
# Si number density = 16.402850 Si / 1000 Ang^3
#
#
#
# Elastic Constant Matrix: (Units=GPa)
#
#
# Indices 1 2 3 4 5 6 
#
# 1 59.9476 30.7057 46.1246 0.0000 0.0000 0.0000
# 2 30.7057 53.2193 27.7191 0.0000 0.0000 0.0000
# 3 46.1246 27.7191 122.5025 0.0000 0.0000 0.0000
# 4 0.0000 0.0000 0.0000 -0.0115 0.0000 0.0000
# 5 0.0000 0.0000 0.0000 0.0000 27.7017 0.0000
# 6 0.0000 0.0000 0.0000 0.0000 0.0000 22.7382
#
#
#
# Elastic Compliance Matrix: (Units=1/GPa)
#
#
# Indices 1 2 3 4 5 6 
#
# 1 0.029560 -0.012762 -0.008242 0.000000 0.000000 0.000000
# 2 -0.012762 0.026810 -0.001261 0.000000 0.000000 0.000000
# 3 -0.008242 -0.001261 0.011552 0.000000 0.000000 0.000000
# 4 0.000000 0.000000 0.000000-86.750822 0.000000 0.000000
# 5 0.000000 0.000000 0.000000 0.000000 0.036099 0.000000
# 6 0.000000 0.000000 0.000000 0.000000 0.000000 0.043979
#
#
# Mechanical properties :
#
#
# Convention : Reuss Voigt Hill
#
# Bulk Modulus (GPa) = 42.75156 49.41867 46.08512
# Shear Modulus (GPa) = -0.05777 18.82701 9.38462
#
# Velocity S-wave (km/s) = -0.18787 3.39158 2.39453
# Velocity P-wave (km/s) = 5.10617 6.74763 5.98346
#
# Compressibility (1/GPa) = 0.02339096
#
# Stress axis : x y z
#
# Youngs Moduli (GPa) = 33.82990 37.29900 86.56657
#
# Poissons Ratio (x) = 0.47601 0.71349
# Poissons Ratio (y) = 0.43174 0.10919
# Poissons Ratio (z) = 0.27883 0.04705
#
# Static dielectric constant tensor:
#      x y z
#    x 1.547670 0.000000 0.000000 
#    y 0.000000 1.529800 0.000000 
#    z 0.000000 0.000000 1.556760 
# 
# From -- ./inp_files/26356.got.cif
#   From: 2010.05.17/outbox.cif.g08.bks.cpg/sg59_14_cif.got.tgz:26356.got - 2010.06.03 14:40:33.
