data_PCOD9449413
_publ_section_title
;
Structure prediction by ZEFSAII (Michael W. Deem and Ramdas Pophale) SiO2 
 PCOD9449413
Probable space group: P M M N
;
_chemical_formula_sum "Si O2"
_cell_formula_units_Z 64
_cell_length_a 19.038727
_cell_length_b 7.451376
_cell_length_c 21.281542
_cell_angle_alpha 90.000000
_cell_angle_beta 90.000000
_cell_angle_gamma 90.000000
_cell_volume 3019.099857
_symmetry_space_group_name_H-M "P M M N"
_symmetry_group_IT_number 59
_space_group.IT_coordinate_system_code '2'
_symmetry_cell_setting 'orthorhombic'
loop_
_space_group_symop_operation_xyz
x,y,z
1/2-x,1/2-y,z
1/2+x,-y,-z
-x,1/2+y,-z
-x,-y,-z
1/2+x,1/2+y,-z
1/2-x,y,z
x,1/2-y,z
loop_
_atom_site_type_symbol
_atom_site_label
_atom_site_fract_x
_atom_site_fract_y
_atom_site_fract_z
Si Si1 0.169947 0.464041 0.242207
Si Si2 0.582293 0.035119 0.497559
Si Si3 0.169109 0.968548 0.763331
Si Si4 0.579108 0.030112 0.117437
Si Si5 0.419656 0.036233 0.125992
Si Si6 0.830230 0.034525 0.616326
Si Si7 0.331122 0.531258 0.621900
Si Si8 0.330121 0.965640 0.001741
O O1 0.250000 0.535117 0.237268
O O2 0.174453 0.250000 0.233285
O O3 0.119003 0.535424 0.188217
O O4 0.144506 0.493704 0.313284
O O5 0.591668 0.250000 0.497077
O O6 0.621495 0.966655 0.559945
O O7 0.618851 0.967611 0.433806
O O8 0.500000 0.000000 0.500000
O O9 0.250000 0.022241 0.775457
O O10 0.168648 0.750000 0.763427
O O11 0.117452 0.026412 0.818410
O O12 0.149650 0.026035 0.692640
O O13 0.579230 0.250000 0.116395
O O14 0.498556 0.968126 0.115195
O O15 0.624330 0.970135 0.057501
O O16 0.427017 0.250000 0.134520
O O17 0.370444 0.006824 0.065993
O O18 0.750000 0.967538 0.610605
O O19 0.827517 0.250000 0.611463
O O20 0.250000 0.480318 0.610030
O O21 0.332675 0.750000 0.622231
O O22 0.250000 0.033027 0.001781
O O23 0.326528 0.750000 0.996548
#
# Coordination Sequence:
#
# PCOD9449413 Si02
#       8
#     8   8   8   8   8   8   8   8
#     4   9  18  32  49  70  95 122 155 196 240 286
#     4  10  20  32  47  70 100 129 158 196 239 283
#     4   8  13  23  42  68  95 121 152 192 235 277
#     4   9  17  29  45  68  98 127 154 189 237 286
#     4  10  20  33  50  72  99 128 156 192 239 289
#     4   9  18  33  52  71  93 126 166 204 241 282
#     4   8  14  26  46  70  93 120 156 195 232 272
#     4  10  20  33  50  71  95 125 161 199 235 275
#
# _framework density 21.198371000000002
#
# number of rings (size 3 to 8) (size 9 to 14) (size 15 to 20)
#    0.000    2.875    0.000    2.250    0.000    5.750 
#    0.000    3.750    0.000    1.125    0.000    0.875 
#    0.000    2.000    0.000    0.000    0.000    0.000 
#
# Total GULP energy -357344.340893 kJ/mol
# GULP energy per Si atom -5583.505326 kJ/mol
# Density = 2.115012 g / cm^3
# Si number density = 21.198371 Si / 1000 Ang^3
#
#
#
# Elastic Constant Matrix: (Units=GPa)
#
#
# Indices 1 2 3 4 5 6 
#
# 1 167.0226 1.6524 138.2838 0.0000 0.0000 0.0000
# 2 1.6524 61.9645 -2.0625 0.0000 0.0000 0.0000
# 3 138.2838 -2.0625 211.4324 0.0000 0.0000 0.0000
# 4 0.0000 0.0000 0.0000 -12.5543 0.0000 0.0000
# 5 0.0000 0.0000 0.0000 0.0000 -54.5033 0.0000
# 6 0.0000 0.0000 0.0000 0.0000 0.0000 11.0322
#
#
#
# Elastic Compliance Matrix: (Units=1/GPa)
#
#
# Indices 1 2 3 4 5 6 
#
# 1 0.013083 -0.000634 -0.008563 0.000000 0.000000 0.000000
# 2 -0.000634 0.016174 0.000572 0.000000 0.000000 0.000000
# 3 -0.008563 0.000572 0.010336 0.000000 0.000000 0.000000
# 4 0.000000 0.000000 0.000000 -0.079654 0.000000 0.000000
# 5 0.000000 0.000000 0.000000 0.000000 -0.018348 0.000000
# 6 0.000000 0.000000 0.000000 0.000000 0.000000 0.090644
#
#
# Mechanical properties :
#
#
# Convention : Reuss Voigt Hill
#
# Bulk Modulus (GPa) = 44.75470 79.57411 62.16441
# Shear Modulus (GPa) = 87.82365 8.96463 48.39414
#
# Velocity S-wave (km/s) = 6.44355 2.05867 4.78317
# Velocity P-wave (km/s) = 8.74742 6.57800 7.73910
#
# Compressibility (1/GPa) = 0.02234402
#
# Stress axis : x y z
#
# Youngs Moduli (GPa) = 76.43497 61.82673 96.75243
#
# Poissons Ratio (x) = 0.03919 0.82848
# Poissons Ratio (y) = 0.04845 -0.05538
# Poissons Ratio (z) = 0.65451 -0.03539
#
# Static dielectric constant tensor:
#      x y z
#    x 1.728270 0.000000 0.000000 
#    y 0.000000 1.832760 0.000000 
#    z 0.000000 0.000000 1.735140 
# 
# From -- ./inp_files/28301.got.cif
#   From: 2010.05.17/outbox.cif.g08.bks.cpg/sg59_15_cif.got.tgz:28301.got - 2010.06.03 14:40:33.
