data_PCOD9449332
_publ_section_title
;
Structure prediction by ZEFSAII (Michael W. Deem and Ramdas Pophale) SiO2 
 PCOD9449332
Probable space group: P M M N
;
_chemical_formula_sum "Si O2"
_cell_formula_units_Z 64
_cell_length_a 7.438254
_cell_length_b 15.735206
_cell_length_c 25.077747
_cell_angle_alpha 90.000000
_cell_angle_beta 90.000000
_cell_angle_gamma 90.000000
_cell_volume 2935.161174
_symmetry_space_group_name_H-M "P M M N"
_symmetry_group_IT_number 59
_space_group.IT_coordinate_system_code '2'
_symmetry_cell_setting 'orthorhombic'
loop_
_space_group_symop_operation_xyz
x,y,z
1/2-x,1/2-y,z
1/2+x,-y,-z
-x,1/2+y,-z
-x,-y,-z
1/2+x,1/2+y,-z
1/2-x,y,z
x,1/2-y,z
loop_
_atom_site_type_symbol
_atom_site_label
_atom_site_fract_x
_atom_site_fract_y
_atom_site_fract_z
Si Si1 0.463021 0.487400 0.192679
Si Si2 0.959250 0.157130 0.624782
Si Si3 0.466906 0.347245 0.874669
Si Si4 0.971049 0.993275 0.686429
Si Si5 0.456380 0.353453 0.991021
Si Si6 0.029443 0.348818 0.107765
Si Si7 0.036997 0.099780 0.506511
Si Si8 0.969273 0.656885 0.608531
O O1 0.250000 0.472259 0.196096
O O2 0.488227 0.580980 0.167936
O O3 0.532192 0.483110 0.252929
O O4 0.532384 0.414884 0.152495
O O5 0.750000 0.162272 0.639699
O O6 0.040700 0.250000 0.632621
O O7 0.964166 0.133199 0.562344
O O8 0.034767 0.080831 0.659838
O O9 0.250000 0.343408 0.878517
O O10 0.527363 0.250000 0.863317
O O11 0.536066 0.375454 0.933444
O O12 0.750000 0.993456 0.686153
O O13 0.028224 0.917089 0.647838
O O14 0.250000 0.384021 0.990896
O O15 0.452834 0.250000 0.991242
O O16 0.533858 0.376844 0.048559
O O17 0.250000 0.349354 0.106156
O O18 0.978331 0.250000 0.117150
O O19 0.250000 0.113706 0.509077
O O20 0.969600 0.142734 0.452244
O O21 0.000000 0.000000 0.500000
O O22 0.750000 0.653483 0.607105
O O23 0.022081 0.750000 0.627403
#
# Coordination Sequence:
#
# PCOD9449332 Si02
#       8
#     8   8   8   8   8   8   8   8
#     4  10  20  31  49  76 101 128 166 212 254 292
#     4  10  20  35  54  74 100 137 174 207 249 301
#     4   9  18  33  51  69  93 130 170 205 247 304
#     4   9  18  33  48  69 102 135 167 201 246 302
#     4   7  11  23  44  67  93 127 162 195 242 305
#     4   8  14  26  45  72 103 129 158 202 252 301
#     4  11  20  33  55  81 109 135 163 203 253 302
#     4   9  17  30  51  76 100 127 160 199 242 290
#
# _framework density 21.804596
#
# number of rings (size 3 to 8) (size 9 to 14) (size 15 to 20)
#    0.000    2.875    1.250    2.250    0.000    2.500 
#    0.000    4.375    0.000    0.375    0.000    1.750 
#    0.000    0.000    0.000    0.000    0.000    0.000 
#
# Total GULP energy -357195.851304 kJ/mol
# GULP energy per Si atom -5581.185177 kJ/mol
# Density = 2.175497 g / cm^3
# Si number density = 21.804596 Si / 1000 Ang^3
#
#
#
# Elastic Constant Matrix: (Units=GPa)
#
#
# Indices 1 2 3 4 5 6 
#
# 1 67.7212 -6.2822 -3.0855 0.0000 0.0000 0.0000
# 2 -6.2822 91.0039 23.6955 0.0000 0.0000 0.0000
# 3 -3.0855 23.6955 104.6295 0.0000 0.0000 0.0000
# 4 0.0000 0.0000 0.0000 -38.8600 0.0000 0.0000
# 5 0.0000 0.0000 0.0000 0.0000 64.2429 0.0000
# 6 0.0000 0.0000 0.0000 0.0000 0.0000 -3.3329
#
#
#
# Elastic Compliance Matrix: (Units=1/GPa)
#
#
# Indices 1 2 3 4 5 6 
#
# 1 0.014866 0.000969 0.000219 0.000000 0.000000 0.000000
# 2 0.000969 0.011740 -0.002630 0.000000 0.000000 0.000000
# 3 0.000219 -0.002630 0.010160 0.000000 0.000000 0.000000
# 4 0.000000 0.000000 0.000000 -0.025733 0.000000 0.000000
# 5 0.000000 0.000000 0.000000 0.000000 0.015566 0.000000
# 6 0.000000 0.000000 0.000000 0.000000 0.000000 -0.300037
#
#
# Mechanical properties :
#
#
# Convention : Reuss Voigt Hill
#
# Bulk Modulus (GPa) = 29.51410 32.44557 30.97984
# Shear Modulus (GPa) = -19.28569 21.01178 0.86305
#
# Velocity S-wave (km/s) = -2.97724 3.10762 0.62982
# Velocity P-wave (km/s) = 1.32154 5.27152 3.84287
#
# Compressibility (1/GPa) = 0.03388211
#
# Stress axis : x y z
#
# Youngs Moduli (GPa) = 67.26613 85.17663 98.42849
#
# Poissons Ratio (x) = -0.08256 -0.02155
# Poissons Ratio (y) = -0.06520 0.25889
# Poissons Ratio (z) = -0.01472 0.22404
#
# Static dielectric constant tensor:
#      x y z
#    x 2.267470 0.000000 0.000000 
#    y 0.000000 1.773180 0.000000 
#    z 0.000000 0.000000 1.773750 
# 
# From -- ./inp_files/31527.got.cif
#   From: 2010.05.17/outbox.cif.g08.bks.cpg/sg59_16_cif.got.tgz:31527.got - 2010.06.03 14:40:33.
