data_PCOD9449673
_publ_section_title
;
Structure prediction by ZEFSAII (Michael W. Deem and Ramdas Pophale) SiO2 
 PCOD9449673
Probable space group: P M M N
;
_chemical_formula_sum "Si O2"
_cell_formula_units_Z 40
_cell_length_a 8.532354
_cell_length_b 18.636142
_cell_length_c 14.199034
_cell_angle_alpha 90.000000
_cell_angle_beta 90.000000
_cell_angle_gamma 90.000000
_cell_volume 2257.790679
_symmetry_space_group_name_H-M "P M M N"
_symmetry_group_IT_number 59
_space_group.IT_coordinate_system_code '2'
_symmetry_cell_setting 'orthorhombic'
loop_
_space_group_symop_operation_xyz
x,y,z
1/2-x,1/2-y,z
1/2+x,-y,-z
-x,1/2+y,-z
-x,-y,-z
1/2+x,1/2+y,-z
1/2-x,y,z
x,1/2-y,z
loop_
_atom_site_type_symbol
_atom_site_label
_atom_site_fract_x
_atom_site_fract_y
_atom_site_fract_z
Si Si1 0.560844 0.329488 0.194255
Si Si2 0.939185 0.602946 0.616792
Si Si3 0.437912 0.976221 0.899165
Si Si4 0.062317 0.544843 0.289012
Si Si5 0.060522 0.332873 0.582872
O O1 0.750000 0.330199 0.195722
O O2 0.508415 0.250000 0.165377
O O3 0.501294 0.347556 0.298876
O O4 0.509323 0.395284 0.128197
O O5 0.750000 0.605193 0.618026
O O6 0.988066 0.521782 0.643325
O O7 0.992800 0.631132 0.515557
O O8 0.250000 0.977649 0.899555
O O9 0.498409 0.026226 0.814310
O O10 0.500000 0.000000 0.000000
O O11 0.250000 0.545561 0.286006
O O12 0.000417 0.618266 0.332533
O O13 0.250000 0.334051 0.583446
O O14 0.010254 0.250000 0.587753
#
# Coordination Sequence:
#
# PCOD9449673 Si02
#       5
#     8   8   8   8   8
#     4   9  18  32  51  77 105 130 160 204 256 303
#     4   9  18  32  51  75 103 136 171 206 248 299
#     4  10  20  36  57  77 100 131 168 211 258 309
#     4  10  20  34  53  76 101 132 172 213 253 302
#     4  10  20  33  49  72 105 142 175 208 249 296
#
# _framework density 17.716435000000001
#
# number of rings (size 3 to 8) (size 9 to 14) (size 15 to 20)
#    0.000    2.400    0.000    2.400    0.000    4.000 
#    0.000    1.000    0.000    3.600    0.000    0.000 
#    0.000    0.000    0.000    0.000    0.000    0.000 
#
# Total GULP energy -223202.033553 kJ/mol
# GULP energy per Si atom -5580.050839 kJ/mol
# Density = 1.767611 g / cm^3
# Si number density = 17.716435 Si / 1000 Ang^3
#
#
#
# Elastic Constant Matrix: (Units=GPa)
#
#
# Indices 1 2 3 4 5 6 
#
# 1 16.4437 26.3711 25.9306 0.0000 0.0000 0.0000
# 2 26.3711 126.6278 100.1019 0.0000 0.0000 0.0000
# 3 25.9306 100.1019 145.2984 0.0000 0.0000 0.0000
# 4 0.0000 0.0000 0.0000 14.1036 0.0000 0.0000
# 5 0.0000 0.0000 0.0000 0.0000 29.0436 0.0000
# 6 0.0000 0.0000 0.0000 0.0000 0.0000 22.4583
#
#
#
# Elastic Compliance Matrix: (Units=1/GPa)
#
#
# Indices 1 2 3 4 5 6 
#
# 1 0.094686 -0.013968 -0.007275 0.000000 0.000000 0.000000
# 2 -0.013968 0.019402 -0.010874 0.000000 0.000000 0.000000
# 3 -0.007275 -0.010874 0.015672 0.000000 0.000000 0.000000
# 4 0.000000 0.000000 0.000000 0.070904 0.000000 0.000000
# 5 0.000000 0.000000 0.000000 0.000000 0.034431 0.000000
# 6 0.000000 0.000000 0.000000 0.000000 0.000000 0.044527
#
#
# Mechanical properties :
#
#
# Convention : Reuss Voigt Hill
#
# Bulk Modulus (GPa) = 15.26098 65.90857 40.58477
# Shear Modulus (GPa) = 13.67239 22.18551 17.92895
#
# Velocity S-wave (km/s) = 2.78103 3.54256 3.18464
# Velocity P-wave (km/s) = 4.35257 7.34954 6.03989
#
# Compressibility (1/GPa) = 0.06552657
#
# Stress axis : x y z
#
# Youngs Moduli (GPa) = 10.56118 51.53979 63.80603
#
# Poissons Ratio (x) = 0.71991 0.46419
# Poissons Ratio (y) = 0.14752 0.69385
# Poissons Ratio (z) = 0.07683 0.56046
#
# Static dielectric constant tensor:
#      x y z
#    x 1.599380 0.000000 0.000000 
#    y 0.000000 1.620930 0.000000 
#    z 0.000000 0.000000 1.565170 
# 
# From -- ./inp_files/13831.got.cif
#   From: 2010.05.17/outbox.cif.g08.bks.cpg/sg59_7_cif.got.tgz:13831.got - 2010.06.03 14:40:33.
