data_PCOD9449645
_publ_section_title
;
Structure prediction by ZEFSAII (Michael W. Deem and Ramdas Pophale) SiO2 
 PCOD9449645
Probable space group: P M M N
;
_chemical_formula_sum "Si O2"
_cell_formula_units_Z 48
_cell_length_a 9.356350
_cell_length_b 7.564954
_cell_length_c 32.096827
_cell_angle_alpha 90.000000
_cell_angle_beta 90.000000
_cell_angle_gamma 90.000000
_cell_volume 2271.824885
_symmetry_space_group_name_H-M "P M M N"
_symmetry_group_IT_number 59
_space_group.IT_coordinate_system_code '2'
_symmetry_cell_setting 'orthorhombic'
loop_
_space_group_symop_operation_xyz
x,y,z
1/2-x,1/2-y,z
1/2+x,-y,-z
-x,1/2+y,-z
-x,-y,-z
1/2+x,1/2+y,-z
1/2-x,y,z
x,1/2-y,z
loop_
_atom_site_type_symbol
_atom_site_label
_atom_site_fract_x
_atom_site_fract_y
_atom_site_fract_z
Si Si1 0.589248 0.459315 0.459044
Si Si2 0.912888 0.962118 0.041868
Si Si3 0.085853 0.533445 0.287881
Si Si4 0.412732 0.459475 0.632346
Si Si5 0.585316 0.965910 0.205641
Si Si6 0.584944 0.466305 0.876832
O O1 0.500000 0.500000 0.500000
O O2 0.750000 0.535008 0.462503
O O3 0.599896 0.250000 0.456666
O O4 0.528372 0.517173 0.414357
O O5 0.750000 0.029632 0.040016
O O6 0.904562 0.750000 0.045825
O O7 0.999470 0.026269 0.082257
O O8 0.000000 0.000000 0.000000
O O9 0.250000 0.476574 0.284977
O O10 0.086969 0.750000 0.288002
O O11 0.010801 0.471946 0.330474
O O12 0.994139 0.478705 0.247815
O O13 0.250000 0.531940 0.633365
O O14 0.401433 0.250000 0.639260
O O15 0.750000 0.023332 0.204358
O O16 0.586355 0.750000 0.205565
O O17 0.497360 0.021491 0.164925
O O18 0.750000 0.522755 0.877287
O O19 0.585610 0.250000 0.877062
#
# Coordination Sequence:
#
# PCOD9449645 Si02
#       6
#     8   8   8   8   8   8
#     4  10  21  36  54  76 101 130 165 204 246 292
#     4  10  20  33  49  70  96 127 164 205 250 300
#     4   9  16  25  39  62  91 121 154 192 233 278
#     4   9  17  30  47  67  94 127 159 192 233 281
#     4   9  15  23  37  59  89 123 156 191 234 284
#     4   9  16  26  41  62  90 123 158 198 243 289
#
# _framework density 21.128388000000001
#
# number of rings (size 3 to 8) (size 9 to 14) (size 15 to 20)
#    0.000    2.667    0.000    2.500    0.000    8.667 
#    0.000    1.667    0.000    0.000    0.000    1.167 
#    0.000    6.667    0.000    0.000    0.000    0.000 
#
# Total GULP energy -268044.388640 kJ/mol
# GULP energy per Si atom -5584.258097 kJ/mol
# Density = 2.108030 g / cm^3
# Si number density = 21.128388 Si / 1000 Ang^3
#
#
#
# Elastic Constant Matrix: (Units=GPa)
#
#
# Indices 1 2 3 4 5 6 
#
# 1 201.2423 5.5540 146.7425 0.0000 0.0000 0.0000
# 2 5.5540 48.6173 -0.8918 0.0000 0.0000 0.0000
# 3 146.7425 -0.8918 247.1182 0.0000 0.0000 0.0000
# 4 0.0000 0.0000 0.0000 11.9888 0.0000 0.0000
# 5 0.0000 0.0000 0.0000 0.0000 41.7769 0.0000
# 6 0.0000 0.0000 0.0000 0.0000 0.0000 3.0448
#
#
#
# Elastic Compliance Matrix: (Units=1/GPa)
#
#
# Indices 1 2 3 4 5 6 
#
# 1 0.008823 -0.001104 -0.005243 0.000000 0.000000 0.000000
# 2 -0.001104 0.020708 0.000730 0.000000 0.000000 0.000000
# 3 -0.005243 0.000730 0.007163 0.000000 0.000000 0.000000
# 4 0.000000 0.000000 0.000000 0.083411 0.000000 0.000000
# 5 0.000000 0.000000 0.000000 0.000000 0.023937 0.000000
# 6 0.000000 0.000000 0.000000 0.000000 0.000000 0.328424
#
#
# Mechanical properties :
#
#
# Convention : Reuss Voigt Hill
#
# Bulk Modulus (GPa) = 39.27703 88.86525 64.07114
# Shear Modulus (GPa) = 10.15876 34.40032 22.27954
#
# Velocity S-wave (km/s) = 2.19512 4.03942 3.25080
# Velocity P-wave (km/s) = 5.00548 7.99418 6.66939
#
# Compressibility (1/GPa) = 0.02546017
#
# Stress axis : x y z
#
# Youngs Moduli (GPa) = 113.34311 48.28978 139.61212
#
# Poissons Ratio (x) = 0.05332 0.73200
# Poissons Ratio (y) = 0.12514 -0.10197
# Poissons Ratio (z) = 0.59427 -0.03527
#
# Static dielectric constant tensor:
#      x y z
#    x 1.729650 0.000000 0.000000 
#    y 0.000000 1.827890 0.000000 
#    z 0.000000 0.000000 1.736170 
# 
# From -- ./inp_files/32867.got.cif
#   From: 2010.05.17/outbox.cif.g08.bks.cpg/sg59_17_cif.got.tgz:32867.got - 2010.06.03 14:40:33.
