data_PCOD9449272
_publ_section_title
;
Structure prediction by ZEFSAII (Michael W. Deem and Ramdas Pophale) SiO2 
 PCOD9449272
Probable space group: P M M N
;
_chemical_formula_sum "Si O2"
_cell_formula_units_Z 56
_cell_length_a 7.886365
_cell_length_b 14.316699
_cell_length_c 20.999865
_cell_angle_alpha 90.000000
_cell_angle_beta 90.000000
_cell_angle_gamma 90.000000
_cell_volume 2371.025750
_symmetry_space_group_name_H-M "P M M N"
_symmetry_group_IT_number 59
_space_group.IT_coordinate_system_code '2'
_symmetry_cell_setting 'orthorhombic'
loop_
_space_group_symop_operation_xyz
x,y,z
1/2-x,1/2-y,z
1/2+x,-y,-z
-x,1/2+y,-z
-x,-y,-z
1/2+x,1/2+y,-z
1/2-x,y,z
x,1/2-y,z
loop_
_atom_site_type_symbol
_atom_site_label
_atom_site_fract_x
_atom_site_fract_y
_atom_site_fract_z
Si Si1 0.448049 0.651504 0.622529
Si Si2 0.458315 0.441162 0.649876
Si Si3 0.557477 0.649339 0.808026
Si Si4 0.451088 0.437555 0.788121
Si Si5 0.444123 0.393708 0.923300
Si Si6 0.437212 0.882427 0.940671
Si Si7 0.047204 0.393125 0.514101
O O1 0.250000 0.650344 0.640656
O O2 0.524626 0.750000 0.645902
O O3 0.517411 0.549743 0.642357
O O4 0.461883 0.654824 0.545872
O O5 0.250000 0.443517 0.648913
O O6 0.514416 0.406370 0.719023
O O7 0.507131 0.381472 0.587622
O O8 0.750000 0.644705 0.784429
O O9 0.481292 0.750000 0.788680
O O10 0.471773 0.550742 0.790837
O O11 0.559532 0.649803 0.885143
O O12 0.250000 0.419712 0.790701
O O13 0.522026 0.389484 0.852345
O O14 0.250000 0.360391 0.922091
O O15 0.439805 0.505146 0.936114
O O16 0.529418 0.354754 0.986712
O O17 0.250000 0.852672 0.921276
O O18 0.250000 0.377808 0.510181
O O19 0.000000 0.500000 0.500000
#
# Coordination Sequence:
#
# PCOD9449272 Si02
#       7
#     8   8   8   8   8   8   8
#     4   9  17  29  45  66  92 120 150 185 224 263
#     4   8  15  28  45  65  88 116 150 184 218 258
#     4  10  20  31  41  57  85 116 142 172 211 251
#     4   9  17  29  45  63  83 111 145 175 205 249
#     4   8  14  24  39  60  82 101 126 167 212 244
#     4   9  16  26  42  60  77 103 138 172 204 240
#     4   9  16  28  46  65  87 115 148 187 226 263
#
# _framework density 23.618469999999999
#
# number of rings (size 3 to 8) (size 9 to 14) (size 15 to 20)
#    0.000    3.143    0.000    3.000    0.000    5.429 
#    0.000    5.000    0.000    0.000    0.000    1.000 
#    0.000    3.429    0.000    0.000    0.000    0.000 
#
# Total GULP energy -311925.839996 kJ/mol
# GULP energy per Si atom -5570.104286 kJ/mol
# Density = 2.356471 g / cm^3
# Si number density = 23.618470 Si / 1000 Ang^3
#
#
#
# Elastic Constant Matrix: (Units=GPa)
#
#
# Indices 1 2 3 4 5 6 
#
# 1 36.8646 -7.9520 1.3356 0.0000 0.0000 0.0000
# 2 -7.9520 44.4835 -9.9993 0.0000 0.0000 0.0000
# 3 1.3356 -9.9993 185.0755 0.0000 0.0000 0.0000
# 4 0.0000 0.0000 0.0000 -15.6779 0.0000 0.0000
# 5 0.0000 0.0000 0.0000 0.0000 16.8666 0.0000
# 6 0.0000 0.0000 0.0000 0.0000 0.0000 -700.1550
#
#
#
# Elastic Compliance Matrix: (Units=1/GPa)
#
#
# Indices 1 2 3 4 5 6 
#
# 1 0.028215 0.005060 0.000070 0.000000 0.000000 0.000000
# 2 0.005060 0.023664 0.001242 0.000000 0.000000 0.000000
# 3 0.000070 0.001242 0.005470 0.000000 0.000000 0.000000
# 4 0.000000 0.000000 0.000000 -0.063784 0.000000 0.000000
# 5 0.000000 0.000000 0.000000 0.000000 0.059289 0.000000
# 6 0.000000 0.000000 0.000000 0.000000 0.000000 -0.001428
#
#
# Mechanical properties :
#
#
# Convention : Reuss Voigt Hill
#
# Bulk Modulus (GPa) = 14.26709 25.91023 20.08866
# Shear Modulus (GPa) = 80.58456 -120.92398 -20.16971
#
# Velocity S-wave (km/s) = 5.84751 -7.16310 -2.92546
# Velocity P-wave (km/s) = 7.18644 7.57755 1.69917
#
# Compressibility (1/GPa) = 0.07009138
#
# Stress axis : x y z
#
# Youngs Moduli (GPa) = 35.44192 42.25850 182.82198
#
# Poissons Ratio (x) = -0.21381 -0.01275
# Poissons Ratio (y) = -0.17932 -0.22707
# Poissons Ratio (z) = -0.00247 -0.05249
#
# Static dielectric constant tensor:
#      x y z
#    x 1.854000 0.000000 0.000000 
#    y 0.000000 1.912950 0.000000 
#    z 0.000000 0.000000 1.960770 
# 
# From -- ./inp_files/31696.got.cif
#   From: 2010.05.17/outbox.cif.g08.bks.cpg/sg59_16_cif.got.tgz:31696.got - 2010.06.03 14:40:33.
