data_PCOD9449541
_publ_section_title
;
Structure prediction by ZEFSAII (Michael W. Deem and Ramdas Pophale) SiO2 
 PCOD9449541
Probable space group: P M M N
;
_chemical_formula_sum "Si O2"
_cell_formula_units_Z 48
_cell_length_a 32.731001
_cell_length_b 8.640452
_cell_length_c 9.255552
_cell_angle_alpha 90.000000
_cell_angle_beta 90.000000
_cell_angle_gamma 90.000000
_cell_volume 2617.568613
_symmetry_space_group_name_H-M "P M M N"
_symmetry_group_IT_number 59
_space_group.IT_coordinate_system_code '2'
_symmetry_cell_setting 'orthorhombic'
loop_
_space_group_symop_operation_xyz
x,y,z
1/2-x,1/2-y,z
1/2+x,-y,-z
-x,1/2+y,-z
-x,-y,-z
1/2+x,1/2+y,-z
1/2-x,y,z
x,1/2-y,z
loop_
_atom_site_type_symbol
_atom_site_label
_atom_site_fract_x
_atom_site_fract_y
_atom_site_fract_z
Si Si1 0.038596 0.936018 0.912075
Si Si2 0.380872 0.934762 0.087719
Si Si3 0.293661 0.433566 0.426756
Si Si4 0.118101 0.062358 0.412062
Si Si5 0.205246 0.432633 0.076496
Si Si6 0.461826 0.436069 0.589254
O O1 0.036784 0.750000 0.910676
O O2 0.037208 0.999627 0.750481
O O3 0.081014 0.983468 0.989148
O O4 0.000000 0.000000 0.000000
O O5 0.381022 0.750000 0.099396
O O6 0.386466 0.004218 0.248115
O O7 0.336559 0.987392 0.028770
O O8 0.250000 0.500238 0.477139
O O9 0.292906 0.250000 0.460258
O O10 0.337938 0.494404 0.472706
O O11 0.294264 0.446292 0.251765
O O12 0.119539 0.250000 0.406979
O O13 0.079920 0.015821 0.508897
O O14 0.250000 0.489946 0.025648
O O15 0.202788 0.250000 0.043720
O O16 0.500000 0.500000 0.500000
O O17 0.463466 0.250000 0.591958
#
# Coordination Sequence:
#
# PCOD9449541 Si02
#       6
#     8   8   8   8   8   8
#     4  11  24  40  57  78 105 138 177 220 268 321
#     4  10  20  32  50  78 108 138 173 215 263 311
#     4   7  10  20  41  68  96 125 159 200 243 287
#     4   9  18  32  51  76 104 135 171 211 257 308
#     4   8  14  26  46  72 102 137 175 213 253 300
#     4  11  23  38  57  79 104 136 174 217 265 316
#
# _framework density 18.337629
#
# number of rings (size 3 to 8) (size 9 to 14) (size 15 to 20)
#    0.000    2.667    0.000    4.500    0.000    7.000 
#    0.000    0.000    0.000    1.000    0.000    2.333 
#    0.000    0.000    0.000    0.000    0.000    0.000 
#
# Total GULP energy -267489.448248 kJ/mol
# GULP energy per Si atom -5572.696838 kJ/mol
# Density = 1.829589 g / cm^3
# Si number density = 18.337629 Si / 1000 Ang^3
#
#
#
# Elastic Constant Matrix: (Units=GPa)
#
#
# Indices 1 2 3 4 5 6 
#
# 1 240.1269 45.0208 88.1253 0.0000 0.0000 0.0000
# 2 45.0208 25.0305 21.0570 0.0000 0.0000 0.0000
# 3 88.1253 21.0570 84.5404 0.0000 0.0000 0.0000
# 4 0.0000 0.0000 0.0000 22.7301 0.0000 0.0000
# 5 0.0000 0.0000 0.0000 0.0000 23.4414 0.0000
# 6 0.0000 0.0000 0.0000 0.0000 0.0000 28.3282
#
#
#
# Elastic Compliance Matrix: (Units=1/GPa)
#
#
# Indices 1 2 3 4 5 6 
#
# 1 0.008240 -0.009608 -0.006196 0.000000 0.000000 0.000000
# 2 -0.009608 0.061745 -0.005364 0.000000 0.000000 0.000000
# 3 -0.006196 -0.005364 0.019623 0.000000 0.000000 0.000000
# 4 0.000000 0.000000 0.000000 0.043995 0.000000 0.000000
# 5 0.000000 0.000000 0.000000 0.000000 0.042660 0.000000
# 6 0.000000 0.000000 0.000000 0.000000 0.000000 0.035301
#
#
# Mechanical properties :
#
#
# Convention : Reuss Voigt Hill
#
# Bulk Modulus (GPa) = 21.15399 73.12268 47.13833
# Shear Modulus (GPa) = 18.54217 27.93291 23.23754
#
# Velocity S-wave (km/s) = 3.18331 3.90713 3.56364
# Velocity P-wave (km/s) = 5.00721 7.76637 6.53409
#
# Compressibility (1/GPa) = 0.04727241
#
# Stress axis : x y z
#
# Youngs Moduli (GPa) = 121.36303 16.19571 50.95938
#
# Poissons Ratio (x) = 0.15561 0.31575
# Poissons Ratio (y) = 1.16604 0.27334
# Poissons Ratio (z) = 0.75197 0.08687
#
# Static dielectric constant tensor:
#      x y z
#    x 1.683900 0.000000 0.000000 
#    y 0.000000 1.619060 0.000000 
#    z 0.000000 0.000000 1.593380 
# 
# From -- ./inp_files/12974.got.cif
#   From: 2010.05.17/outbox.cif.g08.bks.cpg/sg59_7_cif.got.tgz:12974.got - 2010.06.03 14:40:33.
