data_PCOD9449559
_publ_section_title
;
Structure prediction by ZEFSAII (Michael W. Deem and Ramdas Pophale) SiO2 
 PCOD9449559
Probable space group: P M M N
;
_chemical_formula_sum "Si O2"
_cell_formula_units_Z 48
_cell_length_a 15.122993
_cell_length_b 7.661045
_cell_length_c 20.397481
_cell_angle_alpha 90.000000
_cell_angle_beta 90.000000
_cell_angle_gamma 90.000000
_cell_volume 2363.209924
_symmetry_space_group_name_H-M "P M M N"
_symmetry_group_IT_number 59
_space_group.IT_coordinate_system_code '2'
_symmetry_cell_setting 'orthorhombic'
loop_
_space_group_symop_operation_xyz
x,y,z
1/2-x,1/2-y,z
1/2+x,-y,-z
-x,1/2+y,-z
-x,-y,-z
1/2+x,1/2+y,-z
1/2-x,y,z
x,1/2-y,z
loop_
_atom_site_type_symbol
_atom_site_label
_atom_site_fract_x
_atom_site_fract_y
_atom_site_fract_z
Si Si1 0.149365 0.460474 0.090782
Si Si2 0.980763 0.957644 0.170152
Si Si3 0.647464 0.537087 0.056029
Si Si4 0.442736 0.457531 0.435207
Si Si5 0.434001 0.042067 0.686296
Si Si6 0.750000 0.536130 0.373511
Si Si7 0.250000 0.463731 0.473909
O O1 0.250000 0.519619 0.102362
O O2 0.150572 0.250000 0.089426
O O3 0.079893 0.515715 0.145010
O O4 0.121767 0.520330 0.017514
O O5 0.965068 0.750000 0.172582
O O6 0.915642 0.028157 0.113587
O O7 0.962252 0.028343 0.242727
O O8 0.750000 0.489141 0.066780
O O9 0.644260 0.750000 0.055863
O O10 0.500000 0.500000 0.500000
O O11 0.436905 0.250000 0.432198
O O12 0.494030 0.516135 0.370482
O O13 0.342258 0.524814 0.442479
O O14 0.423194 0.250000 0.693230
O O15 0.339289 0.974381 0.661465
O O16 0.750000 0.750000 0.372755
O O17 0.750000 0.485699 0.449644
O O18 0.250000 0.250000 0.471921
#
# Coordination Sequence:
#
# PCOD9449559 Si02
#       7
#     8   8   8   8   8   4   4
#     4   9  18  34  54  73 100 140 182 219 260 314
#     4  10  20  32  52  80 107 135 172 219 267 311
#     4   8  15  29  51  80 106 132 174 222 262 309
#     4  11  21  37  59  82 108 138 177 219 258 308
#     4  10  21  36  54  80 110 140 172 211 262 316
#     4   9  16  32  56  78 106 137 166 203 255 318
#     4   9  18  34  58  80 100 133 174 213 255 308
#
# _framework density 20.311356
#
# number of rings (size 3 to 8) (size 9 to 14) (size 15 to 20)
#    0.000    2.500    1.667    2.000    1.167    1.000 
#    1.500    2.917    0.000    1.500    0.000    0.000 
#    0.000    0.000    0.000    0.000    0.000    0.000 
#
# Total GULP energy -267939.461511 kJ/mol
# GULP energy per Si atom -5582.072115 kJ/mol
# Density = 2.026513 g / cm^3
# Si number density = 20.311356 Si / 1000 Ang^3
#
#
#
# Elastic Constant Matrix: (Units=GPa)
#
#
# Indices 1 2 3 4 5 6 
#
# 1 174.1842 -0.9184 116.6011 0.0000 0.0000 0.0000
# 2 -0.9184 35.5389 1.5508 0.0000 0.0000 0.0000
# 3 116.6011 1.5508 173.0817 0.0000 0.0000 0.0000
# 4 0.0000 0.0000 0.0000 12.8949 0.0000 0.0000
# 5 0.0000 0.0000 0.0000 0.0000 2.5646 0.0000
# 6 0.0000 0.0000 0.0000 0.0000 0.0000 18.9859
#
#
#
# Elastic Compliance Matrix: (Units=1/GPa)
#
#
# Indices 1 2 3 4 5 6 
#
# 1 0.010469 0.000578 -0.007058 0.000000 0.000000 0.000000
# 2 0.000578 0.028181 -0.000642 0.000000 0.000000 0.000000
# 3 -0.007058 -0.000642 0.010538 0.000000 0.000000 0.000000
# 4 0.000000 0.000000 0.000000 0.077550 0.000000 0.000000
# 5 0.000000 0.000000 0.000000 0.000000 0.389928 0.000000
# 6 0.000000 0.000000 0.000000 0.000000 0.000000 0.052671
#
#
# Mechanical properties :
#
#
# Convention : Reuss Voigt Hill
#
# Bulk Modulus (GPa) = 28.61645 68.58575 48.60110
# Shear Modulus (GPa) = 8.40016 24.59383 16.49699
#
# Velocity S-wave (km/s) = 2.03585 3.48349 2.85301
# Velocity P-wave (km/s) = 4.43235 7.07249 5.90194
#
# Compressibility (1/GPa) = 0.03494493
#
# Stress axis : x y z
#
# Youngs Moduli (GPa) = 95.52436 35.48475 94.89551
#
# Poissons Ratio (x) = -0.02053 0.66973
# Poissons Ratio (y) = -0.05526 0.06094
# Poissons Ratio (z) = 0.67417 0.02279
#
# Static dielectric constant tensor:
#      x y z
#    x 1.713410 0.000000 0.000000 
#    y 0.000000 1.776560 0.000000 
#    z 0.000000 0.000000 1.683440 
# 
# From -- ./inp_files/25518.got.cif
#   From: 2010.05.17/outbox.cif.g08.bks.cpg/sg59_13_cif.got.tgz:25518.got - 2010.06.03 14:40:33.
