data_PCOD9449538
_publ_section_title
;
Structure prediction by ZEFSAII (Michael W. Deem and Ramdas Pophale) SiO2 
 PCOD9449538
Probable space group: P M M N
;
_chemical_formula_sum "Si O2"
_cell_formula_units_Z 56
_cell_length_a 14.916864
_cell_length_b 8.115059
_cell_length_c 23.008047
_cell_angle_alpha 90.000000
_cell_angle_beta 90.000000
_cell_angle_gamma 90.000000
_cell_volume 2785.152423
_symmetry_space_group_name_H-M "P M M N"
_symmetry_group_IT_number 59
_space_group.IT_coordinate_system_code '2'
_symmetry_cell_setting 'orthorhombic'
loop_
_space_group_symop_operation_xyz
x,y,z
1/2-x,1/2-y,z
1/2+x,-y,-z
-x,1/2+y,-z
-x,-y,-z
1/2+x,1/2+y,-z
1/2-x,y,z
x,1/2-y,z
loop_
_atom_site_type_symbol
_atom_site_label
_atom_site_fract_x
_atom_site_fract_y
_atom_site_fract_z
Si Si1 0.387415 0.550180 0.860595
Si Si2 0.457850 0.553019 0.293423
Si Si3 0.086899 0.051566 0.167527
Si Si4 0.344689 0.054022 0.733032
Si Si5 0.646628 0.948409 0.469468
Si Si6 0.750000 0.948654 0.909953
Si Si7 0.750000 0.448353 0.042909
Si Si8 0.537031 0.554370 0.582230
O O1 0.381032 0.750000 0.856140
O O2 0.490857 0.500532 0.857981
O O3 0.345868 0.475865 0.802178
O O4 0.335411 0.499041 0.918427
O O5 0.461165 0.750000 0.294677
O O6 0.407622 0.502510 0.234582
O O7 0.560271 0.485334 0.287865
O O8 0.423850 0.490743 0.355065
O O9 0.088895 0.250000 0.167694
O O10 0.164140 0.989366 0.125473
O O11 0.250000 0.987453 0.709300
O O12 0.345629 0.250000 0.721671
O O13 0.750000 0.007409 0.460010
O O14 0.652277 0.750000 0.470922
O O15 0.602248 0.007759 0.530552
O O16 0.565402 0.989361 0.424986
O O17 0.750000 0.750000 0.906363
O O18 0.750000 0.991824 0.977402
O O19 0.750000 0.250000 0.041322
O O20 0.532051 0.750000 0.576279
#
# Coordination Sequence:
#
# PCOD9449538 Si02
#       8
#     8   8   8   8   8   4   4   8
#     4   9  17  31  51  74 100 130 164 206 260 318
#     4  10  20  34  53  78 108 142 179 218 266 320
#     4   9  19  37  56  73 100 137 177 222 267 311
#     4   9  17  29  47  72 101 133 169 210 258 313
#     4   9  19  37  59  81 110 148 184 223 271 317
#     4  10  22  38  54  74 100 136 179 222 267 312
#     4  10  20  32  50  78 106 132 165 210 265 326
#     4  10  20  35  56  83 113 144 183 226 268 319
#
# _framework density 20.106619999999999
#
# number of rings (size 3 to 8) (size 9 to 14) (size 15 to 20)
#    0.000    2.571    0.714    0.857    0.000    3.714 
#    1.286    1.429    0.000    0.000    0.000    0.000 
#    0.000    0.000    0.000    0.000    0.000    0.000 
#
# Total GULP energy -312179.644624 kJ/mol
# GULP energy per Si atom -5574.636511 kJ/mol
# Density = 2.006086 g / cm^3
# Si number density = 20.106620 Si / 1000 Ang^3
#
#
#
# Elastic Constant Matrix: (Units=GPa)
#
#
# Indices 1 2 3 4 5 6 
#
# 1 64.0779 10.0324 22.4387 0.0000 0.0000 0.0000
# 2 10.0324 8.6971 -1.9353 0.0000 0.0000 0.0000
# 3 22.4387 -1.9353 122.8017 0.0000 0.0000 0.0000
# 4 0.0000 0.0000 0.0000 28.9968 0.0000 0.0000
# 5 0.0000 0.0000 0.0000 0.0000 10.7282 0.0000
# 6 0.0000 0.0000 0.0000 0.0000 0.0000 13.9285
#
#
#
# Elastic Compliance Matrix: (Units=1/GPa)
#
#
# Indices 1 2 3 4 5 6 
#
# 1 0.021039 -0.025213 -0.004242 0.000000 0.000000 0.000000
# 2 -0.025213 0.145601 0.006902 0.000000 0.000000 0.000000
# 3 -0.004242 0.006902 0.009027 0.000000 0.000000 0.000000
# 4 0.000000 0.000000 0.000000 0.034487 0.000000 0.000000
# 5 0.000000 0.000000 0.000000 0.000000 0.093212 0.000000
# 6 0.000000 0.000000 0.000000 0.000000 0.000000 0.071795
#
#
# Mechanical properties :
#
#
# Convention : Reuss Voigt Hill
#
# Bulk Modulus (GPa) = 7.65924 28.51647 18.08785
# Shear Modulus (GPa) = 10.78080 21.73344 16.25712
#
# Velocity S-wave (km/s) = 2.31807 3.29129 2.84658
# Velocity P-wave (km/s) = 3.31394 5.35321 4.45191
#
# Compressibility (1/GPa) = 0.13056129
#
# Stress axis : x y z
#
# Youngs Moduli (GPa) = 47.53120 6.86806 110.77856
#
# Poissons Ratio (x) = 0.17316 0.46988
# Poissons Ratio (y) = 1.19840 -0.76455
# Poissons Ratio (z) = 0.20161 -0.04740
#
# Static dielectric constant tensor:
#      x y z
#    x 1.758030 0.000000 0.000000 
#    y 0.000000 1.723330 0.000000 
#    z 0.000000 0.000000 1.696420 
# 
# From -- ./inp_files/30511.got.cif
#   From: 2010.05.17/outbox.cif.g08.bks.cpg/sg59_16_cif.got.tgz:30511.got - 2010.06.03 14:40:33.
