data_PCOD9449071
_publ_section_title
;
Structure prediction by ZEFSAII (Michael W. Deem and Ramdas Pophale) SiO2 
 PCOD9449071
Probable space group: P M M N
;
_chemical_formula_sum "Si O2"
_cell_formula_units_Z 64
_cell_length_a 7.564068
_cell_length_b 19.075197
_cell_length_c 20.421668
_cell_angle_alpha 90.000000
_cell_angle_beta 90.000000
_cell_angle_gamma 90.000000
_cell_volume 2946.562570
_symmetry_space_group_name_H-M "P M M N"
_symmetry_group_IT_number 59
_space_group.IT_coordinate_system_code '2'
_symmetry_cell_setting 'orthorhombic'
loop_
_space_group_symop_operation_xyz
x,y,z
1/2-x,1/2-y,z
1/2+x,-y,-z
-x,1/2+y,-z
-x,-y,-z
1/2+x,1/2+y,-z
1/2-x,y,z
x,1/2-y,z
loop_
_atom_site_type_symbol
_atom_site_label
_atom_site_fract_x
_atom_site_fract_y
_atom_site_fract_z
Si Si1 0.959565 0.672371 0.020230
Si Si2 0.046351 0.064847 0.084120
Si Si3 0.959301 0.171016 0.196228
Si Si4 0.963122 0.830001 0.394663
Si Si5 0.965481 0.831202 0.541251
Si Si6 0.464308 0.918546 0.137851
Si Si7 0.036348 0.094372 0.328601
Si Si8 0.040428 0.557431 0.284056
O O1 0.750000 0.675732 0.006014
O O2 0.032885 0.750000 0.008411
O O3 0.982201 0.647473 0.094517
O O4 0.035886 0.612030 0.973118
O O5 0.250000 0.051081 0.065738
O O6 0.042841 0.113284 0.148769
O O7 0.968949 0.989426 0.102082
O O8 0.750000 0.170110 0.183513
O O9 0.025458 0.250000 0.184048
O O10 0.990055 0.148379 0.270987
O O11 0.750000 0.828374 0.396103
O O12 0.023597 0.750000 0.382514
O O13 0.022836 0.851377 0.467873
O O14 0.015583 0.883652 0.338655
O O15 0.750000 0.832948 0.541495
O O16 0.015789 0.750000 0.552127
O O17 0.027801 0.879013 0.600912
O O18 0.250000 0.920374 0.138592
O O19 0.528082 0.920252 0.212702
O O20 0.250000 0.091505 0.332021
O O21 0.969029 0.017586 0.308102
O O22 0.250000 0.547034 0.275487
#
# Coordination Sequence:
#
# PCOD9449071 Si02
#       8
#     8   8   8   8   8   8   8   8
#     4  10  22  38  58  86 113 140 183 232 274 325
#     4  10  20  39  62  82 108 146 187 225 268 326
#     4  11  23  35  51  82 119 149 181 223 270 321
#     4   9  19  36  56  79 107 141 185 232 277 329
#     4   8  15  30  54  81 106 139 186 231 270 320
#     4  10  21  38  58  81 111 146 184 227 276 329
#     4  10  19  35  57  79 108 147 188 227 268 325
#     4  10  21  36  54  81 112 141 183 230 271 326
#
# _framework density 21.720224000000002
#
# number of rings (size 3 to 8) (size 9 to 14) (size 15 to 20)
#    0.000    2.250    1.250    2.250    0.000    5.500 
#    0.000    3.125    0.000    0.750    0.000    0.000 
#    0.000    0.000    0.000    0.000    0.000    0.000 
#
# Total GULP energy -357527.481344 kJ/mol
# GULP energy per Si atom -5586.366896 kJ/mol
# Density = 2.167079 g / cm^3
# Si number density = 21.720224 Si / 1000 Ang^3
#
#
#
# Elastic Constant Matrix: (Units=GPa)
#
#
# Indices 1 2 3 4 5 6 
#
# 1 51.7414 -6.9391 -6.8369 0.0000 0.0000 0.0000
# 2 -6.9391 40.2085 25.1753 0.0000 0.0000 0.0000
# 3 -6.8369 25.1753 117.2636 0.0000 0.0000 0.0000
# 4 0.0000 0.0000 0.0000 38.1015 0.0000 0.0000
# 5 0.0000 0.0000 0.0000 0.0000 20.7524 0.0000
# 6 0.0000 0.0000 0.0000 0.0000 0.0000 -102.8081
#
#
#
# Elastic Compliance Matrix: (Units=1/GPa)
#
#
# Indices 1 2 3 4 5 6 
#
# 1 0.019809 0.003114 0.000486 0.000000 0.000000 0.000000
# 2 0.003114 0.029222 -0.006092 0.000000 0.000000 0.000000
# 3 0.000486 -0.006092 0.009864 0.000000 0.000000 0.000000
# 4 0.000000 0.000000 0.000000 0.026246 0.000000 0.000000
# 5 0.000000 0.000000 0.000000 0.000000 0.048187 0.000000
# 6 0.000000 0.000000 0.000000 0.000000 0.000000 -0.009727
#
#
# Mechanical properties :
#
#
# Convention : Reuss Voigt Hill
#
# Bulk Modulus (GPa) = 18.54889 25.77911 22.16400
# Shear Modulus (GPa) = 34.11686 4.39678 19.25682
#
# Velocity S-wave (km/s) = 3.96756 1.42432 2.98079
# Velocity P-wave (km/s) = 5.43573 3.82091 4.69822
#
# Compressibility (1/GPa) = 0.05391157
#
# Stress axis : x y z
#
# Youngs Moduli (GPa) = 50.48270 34.22055 101.37800
#
# Poissons Ratio (x) = -0.10656 -0.04931
# Poissons Ratio (y) = -0.15720 0.61761
# Poissons Ratio (z) = -0.02455 0.20848
#
# Static dielectric constant tensor:
#      x y z
#    x 1.839450 0.000000 0.000000 
#    y 0.000000 1.770120 0.000000 
#    z 0.000000 0.000000 1.776800 
# 
# From -- ./inp_files/29406.got.cif
#   From: 2010.05.17/outbox.cif.g08.bks.cpg/sg59_15_cif.got.tgz:29406.got - 2010.06.03 14:40:33.
