data_PCOD9449337
_publ_section_title
;
Structure prediction by ZEFSAII (Michael W. Deem and Ramdas Pophale) SiO2 
 PCOD9449337
Probable space group: P M M N
;
_chemical_formula_sum "Si O2"
_cell_formula_units_Z 56
_cell_length_a 9.251384
_cell_length_b 16.538681
_cell_length_c 20.764713
_cell_angle_alpha 90.000000
_cell_angle_beta 90.000000
_cell_angle_gamma 90.000000
_cell_volume 3177.119215
_symmetry_space_group_name_H-M "P M M N"
_symmetry_group_IT_number 59
_space_group.IT_coordinate_system_code '2'
_symmetry_cell_setting 'orthorhombic'
loop_
_space_group_symop_operation_xyz
x,y,z
1/2-x,1/2-y,z
1/2+x,-y,-z
-x,1/2+y,-z
-x,-y,-z
1/2+x,1/2+y,-z
1/2-x,y,z
x,1/2-y,z
loop_
_atom_site_type_symbol
_atom_site_label
_atom_site_fract_x
_atom_site_fract_y
_atom_site_fract_z
Si Si1 0.423225 0.841437 0.417472
Si Si2 0.413170 0.513419 0.103821
Si Si3 0.078569 0.750000 0.939946
Si Si4 0.588129 0.886974 0.012727
Si Si5 0.422658 0.570017 0.779113
Si Si6 0.924441 0.339731 0.429378
Si Si7 0.077406 0.496830 0.641438
Si Si8 0.924471 0.250000 0.209401
O O1 0.250000 0.847926 0.409165
O O2 0.466266 0.750000 0.396802
O O3 0.452062 0.846650 0.494267
O O4 0.500556 0.915698 0.382512
O O5 0.250000 0.538964 0.121306
O O6 0.518844 0.583904 0.079492
O O7 0.487477 0.463051 0.160721
O O8 0.400531 0.458559 0.039781
O O9 0.250000 0.750000 0.938839
O O10 0.029741 0.750000 0.865642
O O11 0.017862 0.674429 0.978061
O O12 0.750000 0.854730 0.021982
O O13 0.250000 0.571181 0.794833
O O14 0.443581 0.514422 0.716937
O O15 0.467660 0.662785 0.763039
O O16 0.750000 0.338423 0.420227
O O17 0.976590 0.250000 0.407765
O O18 0.975985 0.421239 0.394583
O O19 0.250000 0.489681 0.629512
O O20 0.750000 0.250000 0.212907
#
# Coordination Sequence:
#
# PCOD9449337 Si02
#       8
#     8   8   4   8   8   8   8   4
#     4   9  18  34  55  75 101 140 182 224 272 322
#     4  10  20  34  52  74  99 133 172 210 253 306
#     4  11  19  31  53  79 105 135 170 209 256 313
#     4  10  20  33  52  76 103 131 166 213 260 303
#     4  10  20  34  51  75 106 140 174 210 260 315
#     4   8  15  29  50  79 111 142 177 217 263 319
#     4  10  20  31  52  82 109 139 178 224 268 315
#     4   9  18  31  49  73 105 141 172 203 246 313
#
# _framework density 17.626031999999999
#
# number of rings (size 3 to 8) (size 9 to 14) (size 15 to 20)
#    0.000    2.429    1.429    2.357    1.000    2.000 
#    0.000    0.357    1.571    1.286    0.000    0.000 
#    0.000    0.000    0.000    0.000    0.000    0.000 
#
# Total GULP energy -311925.025074 kJ/mol
# GULP energy per Si atom -5570.089733 kJ/mol
# Density = 1.758591 g / cm^3
# Si number density = 17.626032 Si / 1000 Ang^3
#
#
#
# Elastic Constant Matrix: (Units=GPa)
#
#
# Indices 1 2 3 4 5 6 
#
# 1 56.6905 35.7215 34.2374 0.0000 0.0000 0.0000
# 2 35.7215 105.2169 43.7978 0.0000 0.0000 0.0000
# 3 34.2374 43.7978 47.0048 0.0000 0.0000 0.0000
# 4 0.0000 0.0000 0.0000 21.5627 0.0000 0.0000
# 5 0.0000 0.0000 0.0000 0.0000 16.3149 0.0000
# 6 0.0000 0.0000 0.0000 0.0000 0.0000 32.3279
#
#
#
# Elastic Compliance Matrix: (Units=1/GPa)
#
#
# Indices 1 2 3 4 5 6 
#
# 1 0.031720 -0.001881 -0.021351 0.000000 0.000000 0.000000
# 2 -0.001881 0.015638 -0.013201 0.000000 0.000000 0.000000
# 3 -0.021351 -0.013201 0.049126 0.000000 0.000000 0.000000
# 4 0.000000 0.000000 0.000000 0.046376 0.000000 0.000000
# 5 0.000000 0.000000 0.000000 0.000000 0.061294 0.000000
# 6 0.000000 0.000000 0.000000 0.000000 0.000000 0.030933
#
#
# Mechanical properties :
#
#
# Convention : Reuss Voigt Hill
#
# Bulk Modulus (GPa) = 42.34117 48.49172 45.41645
# Shear Modulus (GPa) = 15.83156 20.38480 18.10818
#
# Velocity S-wave (km/s) = 3.00024 3.40445 3.20871
# Velocity P-wave (km/s) = 6.00633 6.55933 6.28891
#
# Compressibility (1/GPa) = 0.02361768
#
# Stress axis : x y z
#
# Youngs Moduli (GPa) = 31.52607 63.94782 20.35584
#
# Poissons Ratio (x) = 0.12031 0.43462
# Poissons Ratio (y) = 0.05931 0.26871
# Poissons Ratio (z) = 0.67312 0.84414
#
# Static dielectric constant tensor:
#      x y z
#    x 1.608120 0.000000 0.000000 
#    y 0.000000 1.680320 0.000000 
#    z 0.000000 0.000000 1.578710 
# 
# From -- ./inp_files/29259.got.cif
#   From: 2010.05.17/outbox.cif.g08.bks.cpg/sg59_15_cif.got.tgz:29259.got - 2010.06.03 14:40:33.
