data_PCOD9449913
_publ_section_title
;
Structure prediction by ZEFSAII (Michael W. Deem and Ramdas Pophale) SiO2 
 PCOD9449913
Probable space group: P M M N
;
_chemical_formula_sum "Si O2"
_cell_formula_units_Z 56
_cell_length_a 22.216668
_cell_length_b 15.710428
_cell_length_c 7.529541
_cell_angle_alpha 90.000000
_cell_angle_beta 90.000000
_cell_angle_gamma 90.000000
_cell_volume 2628.061017
_symmetry_space_group_name_H-M "P M M N"
_symmetry_group_IT_number 59
_space_group.IT_coordinate_system_code '2'
_symmetry_cell_setting 'orthorhombic'
loop_
_space_group_symop_operation_xyz
x,y,z
1/2-x,1/2-y,z
1/2+x,-y,-z
-x,1/2+y,-z
-x,-y,-z
1/2+x,1/2+y,-z
1/2-x,y,z
x,1/2-y,z
loop_
_atom_site_type_symbol
_atom_site_label
_atom_site_fract_x
_atom_site_fract_y
_atom_site_fract_z
Si Si1 0.313484 0.468066 0.122277
Si Si2 0.422903 0.346927 0.539868
Si Si3 0.181998 0.028629 0.540022
Si Si4 0.177485 0.658035 0.658691
Si Si5 0.848805 0.158063 0.935979
Si Si6 0.058056 0.413581 0.145416
Si Si7 0.977935 0.110032 0.820021
O O1 0.250000 0.437400 0.045251
O O2 0.313895 0.450454 0.332040
O O3 0.315687 0.570313 0.106257
O O4 0.375960 0.428683 0.057933
O O5 0.402469 0.250000 0.559313
O O6 0.371066 0.411308 0.608016
O O7 0.435999 0.365820 0.332226
O O8 0.483056 0.361340 0.653442
O O9 0.250000 0.038732 0.614578
O O10 0.163952 0.929379 0.558813
O O11 0.250000 0.657311 0.689702
O O12 0.163260 0.750000 0.573284
O O13 0.145710 0.655434 0.849909
O O14 0.820644 0.250000 0.892882
O O15 0.912906 0.151498 0.840872
O O16 0.033123 0.508237 0.187940
O O17 0.015147 0.372107 0.000016
#
# Coordination Sequence:
#
# PCOD9449913 Si02
#       7
#     8   8   8   8   8   8   8
#     4   9  18  34  55  81 108 141 184 231 291 351
#     4  11  23  38  60  86 118 158 202 248 294 349
#     4   9  20  37  57  81 113 150 193 244 297 351
#     4   9  18  33  54  81 112 148 188 233 292 359
#     4  10  20  33  51  82 116 145 181 230 290 355
#     4   9  21  39  61  84 112 153 196 247 301 344
#     4  10  21  39  61  83 116 154 198 246 291 355
#
# _framework density 21.308485000000001
#
# number of rings (size 3 to 8) (size 9 to 14) (size 15 to 20)
#    0.000    2.429    0.000    1.286    6.000    2.857 
#    0.000    1.429    0.000    0.000    0.000    2.000 
#    0.000    0.000    0.000    0.000    0.000    0.000 
#
# Total GULP energy -312488.547059 kJ/mol
# GULP energy per Si atom -5580.152626 kJ/mol
# Density = 2.125999 g / cm^3
# Si number density = 21.308485 Si / 1000 Ang^3
#
#
#
# Elastic Constant Matrix: (Units=GPa)
#
#
# Indices 1 2 3 4 5 6 
#
# 1 97.0921 24.1064 13.4426 0.0000 0.0000 0.0000
# 2 24.1064 66.5543 4.1198 0.0000 0.0000 0.0000
# 3 13.4426 4.1198 49.2086 0.0000 0.0000 0.0000
# 4 0.0000 0.0000 0.0000 -2.8231 0.0000 0.0000
# 5 0.0000 0.0000 0.0000 0.0000 25.8319 0.0000
# 6 0.0000 0.0000 0.0000 0.0000 0.0000 10.2653
#
#
#
# Elastic Compliance Matrix: (Units=1/GPa)
#
#
# Indices 1 2 3 4 5 6 
#
# 1 0.011704 -0.004062 -0.002857 0.000000 0.000000 0.000000
# 2 -0.004062 0.016514 -0.000273 0.000000 0.000000 0.000000
# 3 -0.002857 -0.000273 0.021125 0.000000 0.000000 0.000000
# 4 0.000000 0.000000 0.000000 -0.354222 0.000000 0.000000
# 5 0.000000 0.000000 0.000000 0.000000 0.038712 0.000000
# 6 0.000000 0.000000 0.000000 0.000000 0.000000 0.097416
#
#
# Mechanical properties :
#
#
# Convention : Reuss Voigt Hill
#
# Bulk Modulus (GPa) = 28.60585 32.91031 30.75808
# Shear Modulus (GPa) = -35.03481 18.06723 -8.48379
#
# Velocity S-wave (km/s) = -4.05924 2.91501 -1.99751
# Velocity P-wave (km/s) = 2.91824 5.17764 3.02422
#
# Compressibility (1/GPa) = 0.03495788
#
# Stress axis : x y z
#
# Youngs Moduli (GPa) = 85.44337 60.55618 47.33736
#
# Poissons Ratio (x) = 0.24600 0.13525
# Poissons Ratio (y) = 0.34709 0.01291
# Poissons Ratio (z) = 0.24412 0.01652
#
# Static dielectric constant tensor:
#      x y z
#    x 1.797390 0.000000 0.000000 
#    y 0.000000 1.761450 0.000000 
#    z 0.000000 0.000000 1.770720 
# 
# From -- ./inp_files/11462.got.cif
#   From: 2010.05.17/outbox.cif.g08.bks.cpg/sg59_6_cif.got.tgz:11462.got - 2010.06.03 14:40:33.
