data_PCOD9449741
_publ_section_title
;
Structure prediction by ZEFSAII (Michael W. Deem and Ramdas Pophale) SiO2 
 PCOD9449741
Probable space group: P M M N
;
_chemical_formula_sum "Si O2"
_cell_formula_units_Z 64
_cell_length_a 15.667738
_cell_length_b 7.657040
_cell_length_c 24.384149
_cell_angle_alpha 90.000000
_cell_angle_beta 90.000000
_cell_angle_gamma 90.000000
_cell_volume 2925.329696
_symmetry_space_group_name_H-M "P M M N"
_symmetry_group_IT_number 59
_space_group.IT_coordinate_system_code '2'
_symmetry_cell_setting 'orthorhombic'
loop_
_space_group_symop_operation_xyz
x,y,z
1/2-x,1/2-y,z
1/2+x,-y,-z
-x,1/2+y,-z
-x,-y,-z
1/2+x,1/2+y,-z
1/2-x,y,z
x,1/2-y,z
loop_
_atom_site_type_symbol
_atom_site_label
_atom_site_fract_x
_atom_site_fract_y
_atom_site_fract_z
Si Si1 0.609444 0.048540 0.869005
Si Si2 0.480323 0.047518 0.704500
Si Si3 0.010840 0.461685 0.581588
Si Si4 0.156377 0.036667 0.791126
Si Si5 0.350049 0.958758 0.490198
Si Si6 0.922626 0.536172 0.098102
Si Si7 0.658418 0.950687 0.752243
Si Si8 0.653827 0.545681 0.988359
O O1 0.604600 0.250000 0.851764
O O2 0.514342 0.982018 0.879697
O O3 0.652481 0.954310 0.818383
O O4 0.650727 0.038953 0.928843
O O5 0.454973 0.250000 0.698577
O O6 0.478600 0.971972 0.643517
O O7 0.416721 0.971806 0.750174
O O8 0.575689 0.040551 0.727894
O O9 0.005810 0.250000 0.581931
O O10 0.094290 0.508014 0.545442
O O11 0.920198 0.523356 0.555094
O O12 0.250000 0.986035 0.771908
O O13 0.151831 0.250000 0.792432
O O14 0.141823 0.982928 0.854144
O O15 0.250000 0.023108 0.489608
O O16 0.343778 0.750000 0.483412
O O17 0.921627 0.750000 0.094396
O O18 0.904925 0.472479 0.036698
O O19 0.750000 0.027223 0.736044
O O20 0.655344 0.750000 0.734326
O O21 0.750000 0.535409 0.010355
O O22 0.633691 0.750000 0.979409
#
# Coordination Sequence:
#
# PCOD9449741 Si02
#       8
#     8   8   8   8   8   8   8   8
#     4  11  21  35  55  77 102 134 177 227 278 331
#     4  10  20  36  58  86 115 144 183 231 278 322
#     4   9  19  34  55  84 117 150 188 234 280 327
#     4   9  16  29  52  80 108 138 175 220 270 327
#     4   9  18  34  55  80 114 157 197 230 272 326
#     4   9  17  31  51  75 101 133 174 216 265 330
#     4  11  24  40  57  78 107 146 188 228 275 333
#     4  10  20  33  50  74 102 133 171 215 269 335
#
# _framework density 21.877877000000002
#
# number of rings (size 3 to 8) (size 9 to 14) (size 15 to 20)
#    0.000    2.250    1.250    1.875    0.000    6.000 
#    0.000    3.125    0.000    0.375    0.000    0.000 
#    0.000    0.000    0.000    0.000    0.000    0.000 
#
# Total GULP energy -357032.740144 kJ/mol
# GULP energy per Si atom -5578.636565 kJ/mol
# Density = 2.182808 g / cm^3
# Si number density = 21.877877 Si / 1000 Ang^3
#
#
#
# Elastic Constant Matrix: (Units=GPa)
#
#
# Indices 1 2 3 4 5 6 
#
# 1 121.2993 -3.4179 25.9431 0.0000 0.0000 0.0000
# 2 -3.4179 36.4803 -10.7579 0.0000 0.0000 0.0000
# 3 25.9431 -10.7579 100.2464 0.0000 0.0000 0.0000
# 4 0.0000 0.0000 0.0000 5.0500 0.0000 0.0000
# 5 0.0000 0.0000 0.0000 0.0000 20.1910 0.0000
# 6 0.0000 0.0000 0.0000 0.0000 0.0000 6.7948
#
#
#
# Elastic Compliance Matrix: (Units=1/GPa)
#
#
# Indices 1 2 3 4 5 6 
#
# 1 0.008728 0.000157 -0.002242 0.000000 0.000000 0.000000
# 2 0.000157 0.028311 0.002998 0.000000 0.000000 0.000000
# 3 -0.002242 0.002998 0.010877 0.000000 0.000000 0.000000
# 4 0.000000 0.000000 0.000000 0.198020 0.000000 0.000000
# 5 0.000000 0.000000 0.000000 0.000000 0.049527 0.000000
# 6 0.000000 0.000000 0.000000 0.000000 0.000000 0.147172
#
#
# Mechanical properties :
#
#
# Convention : Reuss Voigt Hill
#
# Bulk Modulus (GPa) = 20.10433 31.28453 25.69443
# Shear Modulus (GPa) = 10.93157 22.82439 16.87798
#
# Velocity S-wave (km/s) = 2.23774 3.23346 2.78054
# Velocity P-wave (km/s) = 3.98572 5.31705 4.69877
#
# Compressibility (1/GPa) = 0.04974053
#
# Stress axis : x y z
#
# Youngs Moduli (GPa) = 114.57396 35.32234 91.93450
#
# Poissons Ratio (x) = -0.00553 0.20611
# Poissons Ratio (y) = -0.01794 -0.27558
# Poissons Ratio (z) = 0.25687 -0.10588
#
# Static dielectric constant tensor:
#      x y z
#    x 1.817790 0.000000 0.000000 
#    y 0.000000 1.819600 0.000000 
#    z 0.000000 0.000000 1.791640 
# 
# From -- ./inp_files/32267.got.cif
#   From: 2010.05.17/outbox.cif.g08.bks.cpg/sg59_17_cif.got.tgz:32267.got - 2010.06.03 14:40:33.
