data_PCOD9449007
_publ_section_title
;
Structure prediction by ZEFSAII (Michael W. Deem and Ramdas Pophale) SiO2 
 PCOD9449007
Probable space group: P M M N
;
_chemical_formula_sum "Si O2"
_cell_formula_units_Z 52
_cell_length_a 18.763605
_cell_length_b 17.710835
_cell_length_c 8.718758
_cell_angle_alpha 90.000000
_cell_angle_beta 90.000000
_cell_angle_gamma 90.000000
_cell_volume 2897.409918
_symmetry_space_group_name_H-M "P M M N"
_symmetry_group_IT_number 59
_space_group.IT_coordinate_system_code '2'
_symmetry_cell_setting 'orthorhombic'
loop_
_space_group_symop_operation_xyz
x,y,z
1/2-x,1/2-y,z
1/2+x,-y,-z
-x,1/2+y,-z
-x,-y,-z
1/2+x,1/2+y,-z
1/2-x,y,z
x,1/2-y,z
loop_
_atom_site_type_symbol
_atom_site_label
_atom_site_fract_x
_atom_site_fract_y
_atom_site_fract_z
Si Si1 0.750000 0.915942 0.292060
Si Si2 0.896397 0.665276 0.253224
Si Si3 0.750000 0.412280 0.287496
Si Si4 0.459231 0.162392 0.088368
Si Si5 0.116476 0.492092 0.175904
Si Si6 0.109288 0.919783 0.861242
Si Si7 0.477345 0.465336 0.657737
Si Si8 0.750000 0.497234 0.595005
O O1 0.680677 0.871750 0.240430
O O2 0.750000 0.000624 0.227658
O O3 0.750000 0.932061 0.475939
O O4 0.889207 0.750000 0.305539
O O5 0.942945 0.615432 0.366771
O O6 0.936327 0.662320 0.090071
O O7 0.822776 0.379775 0.217412
O O8 0.750000 0.426862 0.472268
O O9 0.450796 0.250000 0.142367
O O10 0.409313 0.095547 0.159097
O O11 0.540941 0.133876 0.107443
O O12 0.180960 0.500433 0.295742
O O13 0.046742 0.535281 0.237435
O O14 0.130653 0.533224 0.013653
O O15 0.080671 0.982156 0.740754
O O16 0.500000 0.500000 0.500000
#
# Coordination Sequence:
#
# PCOD9449007 Si02
#       8
#     4   8   4   8   8   8   8   4
#     4  10  19  36  49  82 114 159 182 223 287 346
#     4  11  20  35  56  84 119 157 193 230 286 354
#     4  10  19  34  59  79 112 150 189 235 297 339
#     4  10  21  36  56  85 117 150 192 241 292 340
#     4  11  19  35  57  83 111 148 193 239 282 337
#     4  11  19  36  58  86 111 148 199 240 283 342
#     4  11  19  34  55  82 114 152 190 237 280 333
#     4  10  23  36  57  85 118 145 189 246 285 341
#
# _framework density 17.947063
#
# number of rings (size 3 to 8) (size 9 to 14) (size 15 to 20)
#    0.462    0.923    4.615    3.462    0.000    0.615 
#    0.000    9.231    0.000    0.000    0.000    2.692 
#    0.000    0.000    0.000    0.000    0.000    0.000 
#
# Total GULP energy -289774.690259 kJ/mol
# GULP energy per Si atom -5572.590197 kJ/mol
# Density = 1.790622 g / cm^3
# Si number density = 17.947063 Si / 1000 Ang^3
#
#
#
# Elastic Constant Matrix: (Units=GPa)
#
#
# Indices 1 2 3 4 5 6 
#
# 1 99.4862 4.6552 24.9886 0.0000 0.0000 0.0000
# 2 4.6552 55.6514 -4.7450 0.0000 0.0000 0.0000
# 3 24.9886 -4.7450 74.7302 0.0000 0.0000 0.0000
# 4 0.0000 0.0000 0.0000 16.9415 0.0000 0.0000
# 5 0.0000 0.0000 0.0000 0.0000 24.4212 0.0000
# 6 0.0000 0.0000 0.0000 0.0000 0.0000 12.3876
#
#
#
# Elastic Compliance Matrix: (Units=1/GPa)
#
#
# Indices 1 2 3 4 5 6 
#
# 1 0.011059 -0.001247 -0.003777 0.000000 0.000000 0.000000
# 2 -0.001247 0.018207 0.001573 0.000000 0.000000 0.000000
# 3 -0.003777 0.001573 0.014744 0.000000 0.000000 0.000000
# 4 0.000000 0.000000 0.000000 0.059027 0.000000 0.000000
# 5 0.000000 0.000000 0.000000 0.000000 0.040948 0.000000
# 6 0.000000 0.000000 0.000000 0.000000 0.000000 0.080726
#
#
# Mechanical properties :
#
#
# Convention : Reuss Voigt Hill
#
# Bulk Modulus (GPa) = 26.94805 31.07391 29.01098
# Shear Modulus (GPa) = 20.49326 24.41466 22.45396
#
# Velocity S-wave (km/s) = 3.38283 3.69232 3.54096
# Velocity P-wave (km/s) = 5.50508 5.96066 5.73739
#
# Compressibility (1/GPa) = 0.03710844
#
# Stress axis : x y z
#
# Youngs Moduli (GPa) = 90.42649 54.92253 67.82267
#
# Poissons Ratio (x) = 0.06849 0.25617
# Poissons Ratio (y) = 0.11277 -0.10669
# Poissons Ratio (z) = 0.34154 -0.08640
#
# Static dielectric constant tensor:
#      x y z
#    x 1.686000 0.000000 0.000000 
#    y 0.000000 1.617600 0.000000 
#    z 0.000000 0.000000 1.659510 
# 
# From -- ./inp_files/10491.got.cif
#   From: 2010.05.17/outbox.cif.g08.bks.cpg/sg59_6_cif.got.tgz:10491.got - 2010.06.03 14:40:33.
