data_PCOD9449137
_publ_section_title
;
Structure prediction by ZEFSAII (Michael W. Deem and Ramdas Pophale) SiO2 
 PCOD9449137
Probable space group: P M M N
;
_chemical_formula_sum "Si O2"
_cell_formula_units_Z 64
_cell_length_a 17.197658
_cell_length_b 32.185743
_cell_length_c 5.398710
_cell_angle_alpha 90.000000
_cell_angle_beta 90.000000
_cell_angle_gamma 90.000000
_cell_volume 2988.290723
_symmetry_space_group_name_H-M "P M M N"
_symmetry_group_IT_number 59
_space_group.IT_coordinate_system_code '2'
_symmetry_cell_setting 'orthorhombic'
loop_
_space_group_symop_operation_xyz
x,y,z
1/2-x,1/2-y,z
1/2+x,-y,-z
-x,1/2+y,-z
-x,-y,-z
1/2+x,1/2+y,-z
1/2-x,y,z
x,1/2-y,z
loop_
_atom_site_type_symbol
_atom_site_label
_atom_site_fract_x
_atom_site_fract_y
_atom_site_fract_z
Si Si1 0.845730 0.497335 0.162819
Si Si2 0.547106 0.797176 0.705513
Si Si3 0.597739 0.909756 0.132416
Si Si4 0.544220 0.357668 0.954495
Si Si5 0.335537 0.624987 0.651007
Si Si6 0.157469 0.951387 0.333149
Si Si7 0.340423 0.368622 0.376808
Si Si8 0.114394 0.702846 0.409601
O O1 0.750000 0.502490 0.161685
O O2 0.888176 0.541213 0.131430
O O3 0.869582 0.468361 0.930455
O O4 0.868920 0.477114 0.425460
O O5 0.568039 0.750000 0.767408
O O6 0.516386 0.823824 0.936055
O O7 0.616130 0.824554 0.596859
O O8 0.472708 0.796053 0.523567
O O9 0.510885 0.891408 0.177006
O O10 0.624808 0.892814 0.862480
O O11 0.646334 0.892730 0.366294
O O12 0.592865 0.380618 0.166425
O O13 0.605147 0.326611 0.825748
O O14 0.250000 0.612054 0.746654
O O15 0.351992 0.596785 0.409153
O O16 0.335699 0.673886 0.589857
O O17 0.250000 0.957632 0.323383
O O18 0.250000 0.362877 0.330461
O O19 0.140474 0.750000 0.370178
#
# Coordination Sequence:
#
# PCOD9449137 Si02
#       8
#     8   8   8   8   8   8   8   8
#     4  10  19  35  59  87 120 164 213 255 298 361
#     4   9  19  36  56  82 118 161 206 248 299 371
#     4  11  22  38  60  90 128 167 211 263 306 367
#     4  10  21  38  62  87 120 167 206 248 322 385
#     4  10  23  41  62  88 121 156 201 264 320 384
#     4   9  20  37  59  87 121 163 204 247 314 378
#     4  11  21  35  57  89 126 167 211 262 310 350
#     4  10  20  38  63  87 115 157 204 248 309 381
#
# _framework density 21.416924000000002
#
# number of rings (size 3 to 8) (size 9 to 14) (size 15 to 20)
#    0.000    2.000    1.250    2.250    1.750    2.500 
#    0.000    1.250    0.000    1.500    0.000    0.000 
#    0.000    0.000    0.000    0.000    0.000    0.000 
#
# Total GULP energy -357033.735825 kJ/mol
# GULP energy per Si atom -5578.652122 kJ/mol
# Density = 2.136818 g / cm^3
# Si number density = 21.416924 Si / 1000 Ang^3
#
#
#
# Elastic Constant Matrix: (Units=GPa)
#
#
# Indices 1 2 3 4 5 6 
#
# 1 51.8711 24.7845 4.4559 0.0000 0.0000 0.0000
# 2 24.7845 169.8541 40.8008 0.0000 0.0000 0.0000
# 3 4.4559 40.8008 76.9944 0.0000 0.0000 0.0000
# 4 0.0000 0.0000 0.0000 25.8102 0.0000 0.0000
# 5 0.0000 0.0000 0.0000 0.0000 14.5539 0.0000
# 6 0.0000 0.0000 0.0000 0.0000 0.0000 25.3399
#
#
#
# Elastic Compliance Matrix: (Units=1/GPa)
#
#
# Indices 1 2 3 4 5 6 
#
# 1 0.020738 -0.003137 0.000462 0.000000 0.000000 0.000000
# 2 -0.003137 0.007221 -0.003645 0.000000 0.000000 0.000000
# 3 0.000462 -0.003645 0.014893 0.000000 0.000000 0.000000
# 4 0.000000 0.000000 0.000000 0.038744 0.000000 0.000000
# 5 0.000000 0.000000 0.000000 0.000000 0.068710 0.000000
# 6 0.000000 0.000000 0.000000 0.000000 0.000000 0.039464
#
#
# Mechanical properties :
#
#
# Convention : Reuss Voigt Hill
#
# Bulk Modulus (GPa) = 33.09962 48.75577 40.92770
# Shear Modulus (GPa) = 23.53175 28.38603 25.95889
#
# Velocity S-wave (km/s) = 3.31833 3.64456 3.48526
# Velocity P-wave (km/s) = 5.49274 6.36592 5.94538
#
# Compressibility (1/GPa) = 0.03021183
#
# Stress axis : x y z
#
# Youngs Moduli (GPa) = 48.22130 138.49137 67.14717
#
# Poissons Ratio (x) = 0.43445 -0.03104
# Poissons Ratio (y) = 0.15127 0.24474
# Poissons Ratio (z) = -0.02229 0.50478
#
# Static dielectric constant tensor:
#      x y z
#    x 1.777420 0.000000 0.000000 
#    y 0.000000 1.773570 0.000000 
#    z 0.000000 0.000000 1.856310 
# 
# From -- ./inp_files/3056.got.cif
#   From: 2010.05.17/outbox.cif.g08.bks.cpg/sg59_2_cif.got.tgz:3056.got - 2010.06.03 14:40:33.
