data_PCOD9449689
_publ_section_title
;
Structure prediction by ZEFSAII (Michael W. Deem and Ramdas Pophale) SiO2 
 PCOD9449689
Probable space group: P M M N
;
_chemical_formula_sum "Si O2"
_cell_formula_units_Z 56
_cell_length_a 10.696305
_cell_length_b 14.142904
_cell_length_c 18.051787
_cell_angle_alpha 90.000000
_cell_angle_beta 90.000000
_cell_angle_gamma 90.000000
_cell_volume 2730.816838
_symmetry_space_group_name_H-M "P M M N"
_symmetry_group_IT_number 59
_space_group.IT_coordinate_system_code '2'
_symmetry_cell_setting 'orthorhombic'
loop_
_space_group_symop_operation_xyz
x,y,z
1/2-x,1/2-y,z
1/2+x,-y,-z
-x,1/2+y,-z
-x,-y,-z
1/2+x,1/2+y,-z
1/2-x,y,z
x,1/2-y,z
loop_
_atom_site_type_symbol
_atom_site_label
_atom_site_fract_x
_atom_site_fract_y
_atom_site_fract_z
Si Si1 0.108499 0.134937 0.940343
Si Si2 0.980036 0.858332 0.639655
Si Si3 0.609241 0.444976 0.668238
Si Si4 0.397208 0.864146 0.176313
Si Si5 0.615596 0.137499 0.211984
Si Si6 0.110598 0.134774 0.111153
Si Si7 0.106324 0.862242 0.481982
O O1 0.250000 0.105200 0.918052
O O2 0.109617 0.250000 0.939926
O O3 0.993160 0.107065 0.888338
O O4 0.089642 0.106326 0.025992
O O5 0.933327 0.750000 0.645476
O O6 0.089693 0.868812 0.700504
O O7 0.029549 0.875761 0.557108
O O8 0.888974 0.942137 0.662642
O O9 0.750000 0.405595 0.666848
O O10 0.557566 0.408476 0.745834
O O11 0.549501 0.408341 0.591894
O O12 0.250000 0.888343 0.162863
O O13 0.401784 0.750000 0.182765
O O14 0.750000 0.095700 0.192514
O O15 0.620653 0.250000 0.196029
O O16 0.498090 0.101593 0.165458
O O17 0.250000 0.105116 0.134644
O O18 0.110882 0.250000 0.112506
O O19 0.250000 0.896382 0.492686
O O20 0.111318 0.750000 0.469523
#
# Coordination Sequence:
#
# PCOD9449689 Si02
#       7
#     8   8   8   8   8   8   8
#     4   8  14  26  45  71 104 138 170 207 256 315
#     4  10  20  33  50  72 100 135 172 210 253 302
#     4  10  20  33  50  74 103 134 171 213 256 305
#     4   9  17  30  50  76 104 134 171 215 260 306
#     4   9  17  29  46  70 100 133 173 220 261 298
#     4   8  14  25  43  69 100 134 171 209 254 311
#     4   9  17  32  55  78 100 129 166 210 259 307
#
# _framework density 20.506685000000001
#
# number of rings (size 3 to 8) (size 9 to 14) (size 15 to 20)
#    0.000    3.000    0.000    2.143    0.000    4.857 
#    0.000    5.714    0.000    1.714    0.000    2.000 
#    0.000    0.000    0.000    0.000    0.000    0.000 
#
# Total GULP energy -312179.916602 kJ/mol
# GULP energy per Si atom -5574.641368 kJ/mol
# Density = 2.046001 g / cm^3
# Si number density = 20.506685 Si / 1000 Ang^3
#
#
#
# Elastic Constant Matrix: (Units=GPa)
#
#
# Indices 1 2 3 4 5 6 
#
# 1 110.9815 14.7986 85.6048 0.0000 0.0000 0.0000
# 2 14.7986 50.9787 29.7220 0.0000 0.0000 0.0000
# 3 85.6048 29.7220 134.9606 0.0000 0.0000 0.0000
# 4 0.0000 0.0000 0.0000 20.0988 0.0000 0.0000
# 5 0.0000 0.0000 0.0000 0.0000 12.9937 0.0000
# 6 0.0000 0.0000 0.0000 0.0000 0.0000 4.8539
#
#
#
# Elastic Compliance Matrix: (Units=1/GPa)
#
#
# Indices 1 2 3 4 5 6 
#
# 1 0.017758 0.001620 -0.011621 0.000000 0.000000 0.000000
# 2 0.001620 0.022654 -0.006017 0.000000 0.000000 0.000000
# 3 -0.011621 -0.006017 0.016105 0.000000 0.000000 0.000000
# 4 0.000000 0.000000 0.000000 0.049754 0.000000 0.000000
# 5 0.000000 0.000000 0.000000 0.000000 0.076961 0.000000
# 6 0.000000 0.000000 0.000000 0.000000 0.000000 0.206021
#
#
# Mechanical properties :
#
#
# Convention : Reuss Voigt Hill
#
# Bulk Modulus (GPa) = 40.84475 61.90794 51.37635
# Shear Modulus (GPa) = 11.64286 18.70896 15.17591
#
# Velocity S-wave (km/s) = 2.38535 3.02376 2.72333
# Velocity P-wave (km/s) = 5.24858 6.51503 5.91579
#
# Compressibility (1/GPa) = 0.02448295
#
# Stress axis : x y z
#
# Youngs Moduli (GPa) = 56.31299 44.14320 62.09084
#
# Poissons Ratio (x) = -0.07152 0.72153
# Poissons Ratio (y) = -0.09124 0.37358
# Poissons Ratio (z) = 0.65439 0.26559
#
# Static dielectric constant tensor:
#      x y z
#    x 1.726350 0.000000 0.000000 
#    y 0.000000 1.740350 0.000000 
#    z 0.000000 0.000000 1.735320 
# 
# From -- ./inp_files/22502.got.cif
#   From: 2010.05.17/outbox.cif.g08.bks.cpg/sg59_12_cif.got.tgz:22502.got - 2010.06.03 14:40:33.
