data_PCOD9449246
_publ_section_title
;
Structure prediction by ZEFSAII (Michael W. Deem and Ramdas Pophale) SiO2 
 PCOD9449246
Probable space group: P M M N
;
_chemical_formula_sum "Si O2"
_cell_formula_units_Z 56
_cell_length_a 8.749523
_cell_length_b 20.778279
_cell_length_c 16.156389
_cell_angle_alpha 90.000000
_cell_angle_beta 90.000000
_cell_angle_gamma 90.000000
_cell_volume 2937.232005
_symmetry_space_group_name_H-M "P M M N"
_symmetry_group_IT_number 59
_space_group.IT_coordinate_system_code '2'
_symmetry_cell_setting 'orthorhombic'
loop_
_space_group_symop_operation_xyz
x,y,z
1/2-x,1/2-y,z
1/2+x,-y,-z
-x,1/2+y,-z
-x,-y,-z
1/2+x,1/2+y,-z
1/2-x,y,z
x,1/2-y,z
loop_
_atom_site_type_symbol
_atom_site_label
_atom_site_fract_x
_atom_site_fract_y
_atom_site_fract_z
Si Si1 0.583572 0.826171 0.373636
Si Si2 0.925870 0.508469 0.761866
Si Si3 0.432225 0.321416 0.966236
Si Si4 0.564630 0.552292 0.935335
Si Si5 0.077327 0.857906 0.206693
Si Si6 0.928853 0.325910 0.461331
Si Si7 0.566877 0.539601 0.578805
O O1 0.750000 0.855695 0.392997
O O2 0.598336 0.750000 0.380767
O O3 0.531895 0.839379 0.281469
O O4 0.457446 0.842446 0.441723
O O5 0.750000 0.531433 0.753720
O O6 0.995036 0.544536 0.841335
O O7 0.922340 0.435012 0.792144
O O8 0.988825 0.512510 0.668464
O O9 0.250000 0.326186 0.950174
O O10 0.464555 0.250000 0.998208
O O11 0.518066 0.332201 0.880082
O O12 0.473217 0.377856 0.028856
O O13 0.750000 0.544786 0.933580
O O14 0.500000 0.500000 0.000000
O O15 0.250000 0.835175 0.222856
O O16 0.750000 0.330524 0.441706
O O17 0.974678 0.250000 0.446932
O O18 0.020671 0.384578 0.419969
O O19 0.500000 0.500000 0.500000
O O20 0.750000 0.533171 0.573423
#
# Coordination Sequence:
#
# PCOD9449246 Si02
#       7
#     8   8   8   8   8   8   8
#     4  10  20  33  50  75 108 145 188 235 284 347
#     4   9  20  36  55  81 111 143 187 238 288 340
#     4  10  21  35  53  80 113 147 185 233 287 341
#     4  10  19  37  60  81 109 146 189 236 283 336
#     4  11  20  32  52  78 111 148 185 229 285 347
#     4  10  21  38  58  80 111 152 196 245 301 357
#     4  11  22  38  60  87 120 156 197 251 303 354
#
# _framework density 19.065569
#
# number of rings (size 3 to 8) (size 9 to 14) (size 15 to 20)
#    0.000    1.857    1.429    3.000    0.000    4.857 
#    0.000    4.286    0.000    2.571    0.000    0.000 
#    0.000    0.000    0.000    0.000    0.000    0.000 
#
# Total GULP energy -312128.519537 kJ/mol
# GULP energy per Si atom -5573.723563 kJ/mol
# Density = 1.902217 g / cm^3
# Si number density = 19.065569 Si / 1000 Ang^3
#
#
#
# Elastic Constant Matrix: (Units=GPa)
#
#
# Indices 1 2 3 4 5 6 
#
# 1 32.0709 30.6401 9.3511 0.0000 0.0000 0.0000
# 2 30.6401 97.6414 45.1615 0.0000 0.0000 0.0000
# 3 9.3511 45.1615 100.5974 0.0000 0.0000 0.0000
# 4 0.0000 0.0000 0.0000 33.8515 0.0000 0.0000
# 5 0.0000 0.0000 0.0000 0.0000 17.7810 0.0000
# 6 0.0000 0.0000 0.0000 0.0000 0.0000 21.5810
#
#
#
# Elastic Compliance Matrix: (Units=1/GPa)
#
#
# Indices 1 2 3 4 5 6 
#
# 1 0.045117 -0.015420 0.002729 0.000000 0.000000 0.000000
# 2 -0.015420 0.018196 -0.006735 0.000000 0.000000 0.000000
# 3 0.002729 -0.006735 0.012711 0.000000 0.000000 0.000000
# 4 0.000000 0.000000 0.000000 0.029541 0.000000 0.000000
# 5 0.000000 0.000000 0.000000 0.000000 0.056240 0.000000
# 6 0.000000 0.000000 0.000000 0.000000 0.000000 0.046337
#
#
# Mechanical properties :
#
#
# Convention : Reuss Voigt Hill
#
# Bulk Modulus (GPa) = 26.90308 44.51279 35.70793
# Shear Modulus (GPa) = 19.27638 24.31983 21.79811
#
# Velocity S-wave (km/s) = 3.18316 3.57541 3.38497
# Velocity P-wave (km/s) = 5.25847 6.35946 5.83499
#
# Compressibility (1/GPa) = 0.03717047
#
# Stress axis : x y z
#
# Youngs Moduli (GPa) = 22.16437 54.95824 78.67418
#
# Poissons Ratio (x) = 0.84746 -0.21468
# Poissons Ratio (y) = 0.34178 0.52989
# Poissons Ratio (z) = -0.06048 0.37016
#
# Static dielectric constant tensor:
#      x y z
#    x 1.683280 0.000000 0.000000 
#    y 0.000000 1.677050 0.000000 
#    z 0.000000 0.000000 1.670690 
# 
# From -- ./inp_files/20968.got.cif
#   From: 2010.05.17/outbox.cif.g08.bks.cpg/sg59_11_cif.got.tgz:20968.got - 2010.06.03 14:40:33.
