data_PCOD9449136
_publ_section_title
;
Structure prediction by ZEFSAII (Michael W. Deem and Ramdas Pophale) SiO2 
 PCOD9449136
Probable space group: P M M N
;
_chemical_formula_sum "Si O2"
_cell_formula_units_Z 48
_cell_length_a 31.794465
_cell_length_b 8.709858
_cell_length_c 9.189669
_cell_angle_alpha 90.000000
_cell_angle_beta 90.000000
_cell_angle_gamma 90.000000
_cell_volume 2544.851618
_symmetry_space_group_name_H-M "P M M N"
_symmetry_group_IT_number 59
_space_group.IT_coordinate_system_code '2'
_symmetry_cell_setting 'orthorhombic'
loop_
_space_group_symop_operation_xyz
x,y,z
1/2-x,1/2-y,z
1/2+x,-y,-z
-x,1/2+y,-z
-x,-y,-z
1/2+x,1/2+y,-z
1/2-x,y,z
x,1/2-y,z
loop_
_atom_site_type_symbol
_atom_site_label
_atom_site_fract_x
_atom_site_fract_y
_atom_site_fract_z
Si Si1 0.250000 0.926411 0.323328
Si Si2 0.998528 0.565800 0.337496
Si Si3 0.161771 0.433954 0.334306
Si Si4 0.660872 0.934207 0.324852
Si Si5 0.750000 0.428674 0.323013
Si Si6 0.080647 0.566371 0.837372
Si Si7 0.577895 0.935521 0.837950
O O1 0.250000 0.750000 0.279766
O O2 0.250000 0.935727 0.500117
O O3 0.293779 0.002836 0.277654
O O4 0.998244 0.750000 0.340044
O O5 0.956886 0.504160 0.258252
O O6 0.000000 0.500000 0.500000
O O7 0.038896 0.504222 0.250458
O O8 0.164202 0.250000 0.331785
O O9 0.156096 0.478276 0.504155
O O10 0.121486 0.481160 0.240890
O O11 0.657346 0.750000 0.313723
O O12 0.707185 0.988324 0.276332
O O13 0.624596 0.014248 0.233085
O O14 0.750000 0.250000 0.280829
O O15 0.077295 0.750000 0.839913
O O16 0.077282 0.498994 0.999171
O O17 0.575143 0.750000 0.838512
#
# Coordination Sequence:
#
# PCOD9449136 Si02
#       7
#     4   8   8   8   4   8   8
#     4   9  17  29  52  83 116 149 188 236 286 337
#     4  12  25  43  66  92 119 151 192 240 290 347
#     4   9  19  35  58  84 114 150 192 238 288 343
#     4  10  19  35  59  87 116 152 197 246 295 349
#     4   9  17  31  52  83 118 153 192 240 294 349
#     4  12  25  41  60  86 120 158 196 241 294 351
#     4  11  23  41  62  87 119 157 197 241 292 350
#
# _framework density 18.861611
#
# number of rings (size 3 to 8) (size 9 to 14) (size 15 to 20)
#    0.000    1.500    0.000    6.000    0.000    5.333 
#    0.000    0.833    0.000    3.000    0.000    0.000 
#    0.000    0.000    0.000    0.000    0.000    0.000 
#
# Total GULP energy -268328.868109 kJ/mol
# GULP energy per Si atom -5590.184752 kJ/mol
# Density = 1.881868 g / cm^3
# Si number density = 18.861611 Si / 1000 Ang^3
#
#
#
# Elastic Constant Matrix: (Units=GPa)
#
#
# Indices 1 2 3 4 5 6 
#
# 1 198.9075 76.3265 96.5576 0.0000 0.0000 0.0000
# 2 76.3265 122.8596 59.5064 0.0000 0.0000 0.0000
# 3 96.5576 59.5064 126.6350 0.0000 0.0000 0.0000
# 4 0.0000 0.0000 0.0000 29.0462 0.0000 0.0000
# 5 0.0000 0.0000 0.0000 0.0000 -53.7761 0.0000
# 6 0.0000 0.0000 0.0000 0.0000 0.0000 35.9918
#
#
#
# Elastic Compliance Matrix: (Units=1/GPa)
#
#
# Indices 1 2 3 4 5 6 
#
# 1 0.008682 -0.002832 -0.005289 0.000000 0.000000 0.000000
# 2 -0.002832 0.011461 -0.003227 0.000000 0.000000 0.000000
# 3 -0.005289 -0.003227 0.013446 0.000000 0.000000 0.000000
# 4 0.000000 0.000000 0.000000 0.034428 0.000000 0.000000
# 5 0.000000 0.000000 0.000000 0.000000 -0.018596 0.000000
# 6 0.000000 0.000000 0.000000 0.000000 0.000000 0.027784
#
#
# Mechanical properties :
#
#
# Convention : Reuss Voigt Hill
#
# Bulk Modulus (GPa) = 91.79321 101.46480 96.62900
# Shear Modulus (GPa) = 48.29485 16.65316 32.47400
#
# Velocity S-wave (km/s) = 5.06561 2.97461 4.15384
# Velocity P-wave (km/s) = 9.10968 8.10610 8.62250
#
# Compressibility (1/GPa) = 0.01089405
#
# Stress axis : x y z
#
# Youngs Moduli (GPa) = 115.18711 87.24965 74.37364
#
# Poissons Ratio (x) = 0.24707 0.39336
# Poissons Ratio (y) = 0.32618 0.23997
# Poissons Ratio (z) = 0.60921 0.28152
#
# Static dielectric constant tensor:
#      x y z
#    x 1.636050 0.000000 0.000000 
#    y 0.000000 1.631060 0.000000 
#    z 0.000000 0.000000 1.635040 
# 
# From -- ./inp_files/13057.got.cif
#   From: 2010.05.17/outbox.cif.g08.bks.cpg/sg59_7_cif.got.tgz:13057.got - 2010.06.03 14:40:33.
