data_PCOD9449553
_publ_section_title
;
Structure prediction by ZEFSAII (Michael W. Deem and Ramdas Pophale) SiO2 
 PCOD9449553
Probable space group: P M M N
;
_chemical_formula_sum "Si O2"
_cell_formula_units_Z 48
_cell_length_a 13.642042
_cell_length_b 21.138743
_cell_length_c 8.844322
_cell_angle_alpha 90.000000
_cell_angle_beta 90.000000
_cell_angle_gamma 90.000000
_cell_volume 2550.486839
_symmetry_space_group_name_H-M "P M M N"
_symmetry_group_IT_number 59
_space_group.IT_coordinate_system_code '2'
_symmetry_cell_setting 'orthorhombic'
loop_
_space_group_symop_operation_xyz
x,y,z
1/2-x,1/2-y,z
1/2+x,-y,-z
-x,1/2+y,-z
-x,-y,-z
1/2+x,1/2+y,-z
1/2-x,y,z
x,1/2-y,z
loop_
_atom_site_type_symbol
_atom_site_label
_atom_site_fract_x
_atom_site_fract_y
_atom_site_fract_z
Si Si1 0.553014 0.821463 0.360727
Si Si2 0.518855 0.413728 0.389569
Si Si3 0.141377 0.648163 0.190193
Si Si4 0.053637 0.675453 0.873538
Si Si5 0.363630 0.517526 0.349117
Si Si6 0.357080 0.326720 0.950553
O O1 0.582203 0.750000 0.403072
O O2 0.544663 0.868377 0.500192
O O3 0.444778 0.819860 0.285642
O O4 0.619536 0.845998 0.222089
O O5 0.571502 0.369357 0.268058
O O6 0.442187 0.462867 0.317271
O O7 0.596524 0.450646 0.495081
O O8 0.250000 0.667501 0.238632
O O9 0.131506 0.573466 0.225219
O O10 0.124591 0.664034 0.015337
O O11 0.054133 0.750000 0.834310
O O12 0.946061 0.657243 0.939527
O O13 0.250000 0.497406 0.362138
O O14 0.250000 0.349070 0.998750
O O15 0.356846 0.250000 0.945635
#
# Coordination Sequence:
#
# PCOD9449553 Si02
#       6
#     8   8   8   8   8   8
#     4   9  17  30  50  75 102 135 171 206 253 310
#     4  10  20  34  53  76 105 133 166 215 260 298
#     4   9  18  34  54  74 100 136 176 212 247 300
#     4  10  20  32  51  81 110 132 159 205 265 315
#     4   9  20  38  55  71  96 137 182 214 244 291
#     4   8  15  29  46  66  98 136 168 197 235 294
#
# _framework density 18.819938
#
# number of rings (size 3 to 8) (size 9 to 14) (size 15 to 20)
#    0.000    2.833    0.000    2.000    0.000    4.000 
#    0.000    0.000    0.000    8.000    0.000    0.000 
#    0.000    0.000    0.000    0.000    0.000    0.000 
#
# Total GULP energy -267501.079373 kJ/mol
# GULP energy per Si atom -5572.939154 kJ/mol
# Density = 1.877710 g / cm^3
# Si number density = 18.819938 Si / 1000 Ang^3
#
#
#
# Elastic Constant Matrix: (Units=GPa)
#
#
# Indices 1 2 3 4 5 6 
#
# 1 59.8976 5.0232 -12.8448 0.0000 0.0000 0.0000
# 2 5.0232 64.9365 18.0334 0.0000 0.0000 0.0000
# 3 -12.8448 18.0334 24.4398 0.0000 0.0000 0.0000
# 4 0.0000 0.0000 0.0000 25.3533 0.0000 0.0000
# 5 0.0000 0.0000 0.0000 0.0000 4.4599 0.0000
# 6 0.0000 0.0000 0.0000 0.0000 0.0000 15.1062
#
#
#
# Elastic Compliance Matrix: (Units=1/GPa)
#
#
# Indices 1 2 3 4 5 6 
#
# 1 0.020377 -0.005723 0.014933 0.000000 0.000000 0.000000
# 2 -0.005723 0.020976 -0.018485 0.000000 0.000000 0.000000
# 3 0.014933 -0.018485 0.062405 0.000000 0.000000 0.000000
# 4 0.000000 0.000000 0.000000 0.039443 0.000000 0.000000
# 5 0.000000 0.000000 0.000000 0.000000 0.224218 0.000000
# 6 0.000000 0.000000 0.000000 0.000000 0.000000 0.066198
#
#
# Mechanical properties :
#
#
# Convention : Reuss Voigt Hill
#
# Bulk Modulus (GPa) = 11.73623 18.85527 15.29575
# Shear Modulus (GPa) = 10.40429 18.25468 14.32948
#
# Velocity S-wave (km/s) = 2.35379 3.11780 2.76234
# Velocity P-wave (km/s) = 3.69279 4.79598 4.28008
#
# Compressibility (1/GPa) = 0.08520623
#
# Stress axis : x y z
#
# Youngs Moduli (GPa) = 49.07395 47.67364 16.02440
#
# Poissons Ratio (x) = 0.27285 -0.23929
# Poissons Ratio (y) = 0.28086 0.29622
# Poissons Ratio (z) = -0.73281 0.88127
#
# Static dielectric constant tensor:
#      x y z
#    x 1.656140 0.000000 0.000000 
#    y 0.000000 1.665400 0.000000 
#    z 0.000000 0.000000 1.644600 
# 
# From -- ./inp_files/9217.got.cif
#   From: 2010.05.17/outbox.cif.g08.bks.cpg/sg59_5_cif.got.tgz:9217.got - 2010.06.03 14:40:33.
