data_PCOD9449536
_publ_section_title
;
Structure prediction by ZEFSAII (Michael W. Deem and Ramdas Pophale) SiO2 
 PCOD9449536
Probable space group: P M M N
;
_chemical_formula_sum "Si O2"
_cell_formula_units_Z 40
_cell_length_a 7.615814
_cell_length_b 7.787191
_cell_length_c 31.311670
_cell_angle_alpha 90.000000
_cell_angle_beta 90.000000
_cell_angle_gamma 90.000000
_cell_volume 1856.963584
_symmetry_space_group_name_H-M "P M M N"
_symmetry_group_IT_number 59
_space_group.IT_coordinate_system_code '2'
_symmetry_cell_setting 'orthorhombic'
loop_
_space_group_symop_operation_xyz
x,y,z
1/2-x,1/2-y,z
1/2+x,-y,-z
-x,1/2+y,-z
-x,-y,-z
1/2+x,1/2+y,-z
1/2-x,y,z
x,1/2-y,z
loop_
_atom_site_type_symbol
_atom_site_label
_atom_site_fract_x
_atom_site_fract_y
_atom_site_fract_z
Si Si1 0.534705 0.051171 0.267528
Si Si2 0.049093 0.544132 0.548155
Si Si3 0.539337 0.250000 0.893500
Si Si4 0.539155 0.750000 0.206234
Si Si5 0.540454 0.042040 0.361063
Si Si6 0.538810 0.558144 0.951782
O O1 0.750000 0.052300 0.268403
O O2 0.481107 0.250000 0.261169
O O3 0.475091 0.986926 0.314590
O O4 0.476504 0.920241 0.231061
O O5 0.250000 0.489119 0.550960
O O6 0.037904 0.750000 0.550247
O O7 0.965653 0.481234 0.593050
O O8 0.000000 0.500000 0.500000
O O9 0.750000 0.250000 0.898650
O O10 0.503008 0.250000 0.843506
O O11 0.471675 0.418141 0.918213
O O12 0.750000 0.750000 0.210075
O O13 0.750000 0.005436 0.361572
O O14 0.523424 0.250000 0.360202
O O15 0.750000 0.564204 0.947731
O O16 0.470084 0.750000 0.944737
O O17 0.500000 0.500000 0.000000
#
# Coordination Sequence:
#
# PCOD9449536 Si02
#       6
#     8   8   4   4   8   8
#     4   8  14  27  47  70  97 123 154 208 263 294
#     4   9  17  29  44  64  92 123 155 193 241 296
#     4  10  22  38  52  74 112 148 170 202 257 308
#     4  10  20  32  50  78 102 126 170 216 249 294
#     4   7  11  23  43  63  85 117 152 190 242 295
#     4  10  20  35  57  82 107 139 179 217 254 298
#
# _framework density 21.540541999999999
#
# number of rings (size 3 to 8) (size 9 to 14) (size 15 to 20)
#    0.000    3.200    1.000    2.400    0.000    2.000 
#    1.800    0.000    0.000    1.200    0.000    2.800 
#    0.000    0.000    0.000    0.000    0.000    0.000 
#
# Total GULP energy -222828.762570 kJ/mol
# GULP energy per Si atom -5570.719064 kJ/mol
# Density = 2.149151 g / cm^3
# Si number density = 21.540542 Si / 1000 Ang^3
#
#
#
# Elastic Constant Matrix: (Units=GPa)
#
#
# Indices 1 2 3 4 5 6 
#
# 1 32.2755 21.8755 8.0595 0.0000 0.0000 0.0000
# 2 21.8755 88.1800 98.3159 0.0000 0.0000 0.0000
# 3 8.0595 98.3159 252.7255 0.0000 0.0000 0.0000
# 4 0.0000 0.0000 0.0000 36.3891 0.0000 0.0000
# 5 0.0000 0.0000 0.0000 0.0000 17.8198 0.0000
# 6 0.0000 0.0000 0.0000 0.0000 0.0000 3.8897
#
#
#
# Elastic Compliance Matrix: (Units=1/GPa)
#
#
# Indices 1 2 3 4 5 6 
#
# 1 0.040024 -0.015021 0.004567 0.000000 0.000000 0.000000
# 2 -0.015021 0.025664 -0.009505 0.000000 0.000000 0.000000
# 3 0.004567 -0.009505 0.007509 0.000000 0.000000 0.000000
# 4 0.000000 0.000000 0.000000 0.027481 0.000000 0.000000
# 5 0.000000 0.000000 0.000000 0.000000 0.056117 0.000000
# 6 0.000000 0.000000 0.000000 0.000000 0.000000 0.257091
#
#
# Mechanical properties :
#
#
# Convention : Reuss Voigt Hill
#
# Bulk Modulus (GPa) = 30.04892 69.96477 50.00684
# Shear Modulus (GPa) = 10.75506 27.94837 19.35171
#
# Velocity S-wave (km/s) = 2.23691 3.60596 3.00056
# Velocity P-wave (km/s) = 4.54444 7.06316 5.93886
#
# Compressibility (1/GPa) = 0.03327907
#
# Stress axis : x y z
#
# Youngs Moduli (GPa) = 24.98515 38.96435 133.17555
#
# Poissons Ratio (x) = 0.58529 -0.60824
# Poissons Ratio (y) = 0.37531 1.26584
# Poissons Ratio (z) = -0.11411 0.37036
#
# Static dielectric constant tensor:
#      x y z
#    x 1.845920 0.000000 0.000000 
#    y 0.000000 1.784240 0.000000 
#    z 0.000000 0.000000 1.803600 
# 
# From -- ./inp_files/32407.got.cif
#   From: 2010.05.17/outbox.cif.g08.bks.cpg/sg59_17_cif.got.tgz:32407.got - 2010.06.03 14:40:33.
