data_PCOD9449584
_publ_section_title
;
Structure prediction by ZEFSAII (Michael W. Deem and Ramdas Pophale) SiO2 
 PCOD9449584
Probable space group: P M M N
;
_chemical_formula_sum "Si O2"
_cell_formula_units_Z 64
_cell_length_a 8.427710
_cell_length_b 30.717528
_cell_length_c 14.567230
_cell_angle_alpha 90.000000
_cell_angle_beta 90.000000
_cell_angle_gamma 90.000000
_cell_volume 3771.141456
_symmetry_space_group_name_H-M "P M M N"
_symmetry_group_IT_number 59
_space_group.IT_coordinate_system_code '2'
_symmetry_cell_setting 'orthorhombic'
loop_
_space_group_symop_operation_xyz
x,y,z
1/2-x,1/2-y,z
1/2+x,-y,-z
-x,1/2+y,-z
-x,-y,-z
1/2+x,1/2+y,-z
1/2-x,y,z
x,1/2-y,z
loop_
_atom_site_type_symbol
_atom_site_label
_atom_site_fract_x
_atom_site_fract_y
_atom_site_fract_z
Si Si1 0.936296 0.421027 0.207679
Si Si2 0.557619 0.701158 0.495591
Si Si3 0.439344 0.994981 0.308495
Si Si4 0.935977 0.060481 0.528042
Si Si5 0.562204 0.090180 0.819263
Si Si6 0.557125 0.450140 0.009240
Si Si7 0.937260 0.636024 0.344234
Si Si8 0.562111 0.622263 0.622597
O O1 0.750000 0.413604 0.200825
O O2 0.999056 0.428998 0.104915
O O3 0.970299 0.465599 0.262306
O O4 0.006595 0.384091 0.273531
O O5 0.750000 0.702697 0.504475
O O6 0.496616 0.750000 0.508205
O O7 0.526863 0.681552 0.394116
O O8 0.499798 0.665005 0.568981
O O9 0.250000 0.004480 0.313709
O O10 0.496278 0.979830 0.409642
O O11 0.458789 0.953962 0.240255
O O12 0.750000 0.054065 0.510877
O O13 0.961317 0.100694 0.599126
O O14 0.016498 0.079513 0.437306
O O15 0.750000 0.099580 0.822055
O O16 0.476936 0.128071 0.761816
O O17 0.506374 0.078171 0.921221
O O18 0.750000 0.451366 0.009289
O O19 0.500000 0.500000 0.000000
O O20 0.750000 0.626794 0.359806
O O21 0.750000 0.624736 0.621547
#
# Coordination Sequence:
#
# PCOD9449584 Si02
#       8
#     8   8   8   8   8   8   8   8
#     4  11  22  32  45  65  91 123 160 202 241 274
#     4   8  15  30  52  76  98 119 146 183 229 282
#     4   9  17  29  45  63  86 121 160 197 235 271
#     4   9  17  30  46  63  90 124 156 192 231 272
#     4   9  17  30  46  64  93 126 157 197 240 275
#     4  10  20  33  48  67  89 123 167 208 244 273
#     4   9  16  26  45  73  98 121 151 185 227 282
#     4  10  20  33  49  68  92 122 154 190 233 283
#
# _framework density 16.970988999999999
#
# number of rings (size 3 to 8) (size 9 to 14) (size 15 to 20)
#    0.000    2.625    1.250    3.000    0.000    4.000 
#    0.000    0.000    0.000   13.500    0.000    0.875 
#    0.000    7.000    0.000    0.000    0.000    0.000 
#
# Total GULP energy -356593.248537 kJ/mol
# GULP energy per Si atom -5571.769508 kJ/mol
# Density = 1.693236 g / cm^3
# Si number density = 16.970989 Si / 1000 Ang^3
#
#
#
# Elastic Constant Matrix: (Units=GPa)
#
#
# Indices 1 2 3 4 5 6 
#
# 1 18.3960 12.0789 21.1746 0.0000 0.0000 0.0000
# 2 12.0789 72.1981 45.4930 0.0000 0.0000 0.0000
# 3 21.1746 45.4930 153.2957 0.0000 0.0000 0.0000
# 4 0.0000 0.0000 0.0000 14.9220 0.0000 0.0000
# 5 0.0000 0.0000 0.0000 0.0000 20.5116 0.0000
# 6 0.0000 0.0000 0.0000 0.0000 0.0000 11.7376
#
#
#
# Elastic Compliance Matrix: (Units=1/GPa)
#
#
# Indices 1 2 3 4 5 6 
#
# 1 0.067118 -0.006626 -0.007304 0.000000 0.000000 0.000000
# 2 -0.006626 0.017691 -0.004335 0.000000 0.000000 0.000000
# 3 -0.007304 -0.004335 0.008819 0.000000 0.000000 0.000000
# 4 0.000000 0.000000 0.000000 0.067015 0.000000 0.000000
# 5 0.000000 0.000000 0.000000 0.000000 0.048753 0.000000
# 6 0.000000 0.000000 0.000000 0.000000 0.000000 0.085197
#
#
# Mechanical properties :
#
#
# Convention : Reuss Voigt Hill
#
# Bulk Modulus (GPa) = 17.51421 44.59809 31.05615
# Shear Modulus (GPa) = 14.27936 20.44378 17.36157
#
# Velocity S-wave (km/s) = 2.90383 3.47454 3.20193
# Velocity P-wave (km/s) = 4.64602 6.51404 5.65766
#
# Compressibility (1/GPa) = 0.05709649
#
# Stress axis : x y z
#
# Youngs Moduli (GPa) = 14.89909 56.52675 113.39539
#
# Poissons Ratio (x) = 0.37457 0.82829
# Poissons Ratio (y) = 0.09873 0.49154
# Poissons Ratio (z) = 0.10883 0.24503
#
# Static dielectric constant tensor:
#      x y z
#    x 1.589900 0.000000 0.000000 
#    y 0.000000 1.583320 0.000000 
#    z 0.000000 0.000000 1.627660 
# 
# From -- ./inp_files/21832.got.cif
#   From: 2010.05.17/outbox.cif.g08.bks.cpg/sg59_11_cif.got.tgz:21832.got - 2010.06.03 14:40:33.
