data_PCOD9449906
_publ_section_title
;
Structure prediction by ZEFSAII (Michael W. Deem and Ramdas Pophale) SiO2 
 PCOD9449906
Probable space group: P M M N
;
_chemical_formula_sum "Si O2"
_cell_formula_units_Z 40
_cell_length_a 9.952315
_cell_length_b 7.801911
_cell_length_c 24.745322
_cell_angle_alpha 90.000000
_cell_angle_beta 90.000000
_cell_angle_gamma 90.000000
_cell_volume 1921.401895
_symmetry_space_group_name_H-M "P M M N"
_symmetry_group_IT_number 59
_space_group.IT_coordinate_system_code '2'
_symmetry_cell_setting 'orthorhombic'
loop_
_space_group_symop_operation_xyz
x,y,z
1/2-x,1/2-y,z
1/2+x,-y,-z
-x,1/2+y,-z
-x,-y,-z
1/2+x,1/2+y,-z
1/2-x,y,z
x,1/2-y,z
loop_
_atom_site_type_symbol
_atom_site_label
_atom_site_fract_x
_atom_site_fract_y
_atom_site_fract_z
Si Si1 0.750000 0.936691 0.543422
Si Si2 0.095757 0.040755 0.853461
Si Si3 0.024779 0.552735 0.377567
Si Si4 0.095362 0.956595 0.050476
Si Si5 0.250000 0.554584 0.572762
Si Si6 0.595683 0.959284 0.269517
O O1 0.750000 0.750000 0.517937
O O2 0.624297 0.957753 0.582660
O O3 0.750000 0.059069 0.492178
O O4 0.250000 0.988087 0.866619
O O5 0.096196 0.250000 0.854204
O O6 0.064960 0.988414 0.791821
O O7 0.985325 0.981861 0.896388
O O8 0.069792 0.750000 0.374239
O O9 0.879994 0.540231 0.405074
O O10 0.003510 0.483232 0.316879
O O11 0.250000 0.019485 0.045781
O O12 0.102549 0.750000 0.053680
O O13 0.000000 0.000000 0.000000
O O14 0.250000 0.750000 0.592914
O O15 0.750000 0.011075 0.281161
O O16 0.594338 0.750000 0.270965
#
# Coordination Sequence:
#
# PCOD9449906 Si02
#       6
#     4   8   8   8   4   8
#     4  12  26  42  56  80 116 152 187 234 287 340
#     4   8  14  27  49  77 107 138 177 226 276 321
#     4  11  21  38  61  87 114 145 186 234 284 338
#     4  10  20  33  51  79 112 147 187 231 276 325
#     4  12  24  40  62  86 112 148 189 230 281 342
#     4   8  14  28  53  83 109 136 175 225 273 325
#
# _framework density 20.818131000000001
#
# number of rings (size 3 to 8) (size 9 to 14) (size 15 to 20)
#    0.000    2.200    1.000    4.800    0.000    1.200 
#    1.800    0.000    0.000    2.400    0.000    0.000 
#    0.000    0.000    0.000    0.000    0.000    0.000 
#
# Total GULP energy -223282.701015 kJ/mol
# GULP energy per Si atom -5582.067525 kJ/mol
# Density = 2.077075 g / cm^3
# Si number density = 20.818131 Si / 1000 Ang^3
#
#
#
# Elastic Constant Matrix: (Units=GPa)
#
#
# Indices 1 2 3 4 5 6 
#
# 1 121.4705 -3.6251 63.4106 0.0000 0.0000 0.0000
# 2 -3.6251 41.8802 -2.5954 0.0000 0.0000 0.0000
# 3 63.4106 -2.5954 144.2682 0.0000 0.0000 0.0000
# 4 0.0000 0.0000 0.0000 17.1835 0.0000 0.0000
# 5 0.0000 0.0000 0.0000 0.0000 4.4021 0.0000
# 6 0.0000 0.0000 0.0000 0.0000 0.0000 10.3837
#
#
#
# Elastic Compliance Matrix: (Units=1/GPa)
#
#
# Indices 1 2 3 4 5 6 
#
# 1 0.010701 0.000635 -0.004692 0.000000 0.000000 0.000000
# 2 0.000635 0.023942 0.000151 0.000000 0.000000 0.000000
# 3 -0.004692 0.000151 0.008996 0.000000 0.000000 0.000000
# 4 0.000000 0.000000 0.000000 0.058195 0.000000 0.000000
# 5 0.000000 0.000000 0.000000 0.000000 0.227165 0.000000
# 6 0.000000 0.000000 0.000000 0.000000 0.000000 0.096305
#
#
# Mechanical properties :
#
#
# Convention : Reuss Voigt Hill
#
# Bulk Modulus (GPa) = 27.91020 46.88880 37.39950
# Shear Modulus (GPa) = 11.23449 23.08909 17.16179
#
# Velocity S-wave (km/s) = 2.32556 3.33391 2.87429
# Velocity P-wave (km/s) = 4.54387 6.11489 5.38696
#
# Compressibility (1/GPa) = 0.03582919
#
# Stress axis : x y z
#
# Youngs Moduli (GPa) = 93.45190 41.76759 111.15448
#
# Poissons Ratio (x) = -0.02654 0.52152
# Poissons Ratio (y) = -0.05939 -0.01683
# Poissons Ratio (z) = 0.43846 -0.00632
#
# Static dielectric constant tensor:
#      x y z
#    x 1.689940 0.000000 0.000000 
#    y 0.000000 1.756310 0.000000 
#    z 0.000000 0.000000 1.740990 
# 
# From -- ./inp_files/32436.got.cif
#   From: 2010.05.17/outbox.cif.g08.bks.cpg/sg59_17_cif.got.tgz:32436.got - 2010.06.03 14:40:33.
