data_PCOD9449716
_publ_section_title
;
Structure prediction by ZEFSAII (Michael W. Deem and Ramdas Pophale) SiO2 
 PCOD9449716
Probable space group: P M M N
;
_chemical_formula_sum "Si O2"
_cell_formula_units_Z 48
_cell_length_a 9.357713
_cell_length_b 7.572296
_cell_length_c 32.574054
_cell_angle_alpha 90.000000
_cell_angle_beta 90.000000
_cell_angle_gamma 90.000000
_cell_volume 2308.177033
_symmetry_space_group_name_H-M "P M M N"
_symmetry_group_IT_number 59
_space_group.IT_coordinate_system_code '2'
_symmetry_cell_setting 'orthorhombic'
loop_
_space_group_symop_operation_xyz
x,y,z
1/2-x,1/2-y,z
1/2+x,-y,-z
-x,1/2+y,-z
-x,-y,-z
1/2+x,1/2+y,-z
1/2-x,y,z
x,1/2-y,z
loop_
_atom_site_type_symbol
_atom_site_label
_atom_site_fract_x
_atom_site_fract_y
_atom_site_fract_z
Si Si1 0.917901 0.461825 0.129292
Si Si2 0.087269 0.961799 0.959271
Si Si3 0.585263 0.965985 0.378845
Si Si4 0.085843 0.966278 0.297662
Si Si5 0.412705 0.961957 0.458801
Si Si6 0.912793 0.959032 0.219019
O O1 0.750000 0.514180 0.129273
O O2 0.924369 0.250000 0.129815
O O3 0.976158 0.519527 0.173281
O O4 0.974554 0.523998 0.084888
O O5 0.250000 0.028105 0.963395
O O6 0.094888 0.750000 0.956120
O O7 0.000000 0.000000 0.000000
O O8 0.750000 0.022910 0.379746
O O9 0.586003 0.750000 0.379198
O O10 0.505128 0.020287 0.337323
O O11 0.498503 0.026183 0.418887
O O12 0.250000 0.023289 0.300319
O O13 0.087052 0.750000 0.297417
O O14 0.009760 0.027898 0.255859
O O15 0.250000 0.029476 0.460766
O O16 0.404498 0.750000 0.454941
O O17 0.500000 0.000000 0.500000
O O18 0.750000 0.032276 0.219750
O O19 0.900327 0.750000 0.225856
#
# Coordination Sequence:
#
# PCOD9449716 Si02
#       6
#     8   8   8   8   8   8
#     4   8  15  29  47  65  88 119 152 185 223 270
#     4   9  18  32  49  70  95 123 157 196 237 282
#     4   9  16  27  45  68  93 122 157 196 236 279
#     4   9  16  26  41  63  92 121 147 182 230 277
#     4  10  20  33  50  73 100 130 164 201 243 291
#     4   9  16  26  43  67  89 110 143 185 224 264
#
# _framework density 20.795632000000001
#
# number of rings (size 3 to 8) (size 9 to 14) (size 15 to 20)
#    0.000    3.000    0.000    2.500    0.000    6.000 
#    0.000    2.500    0.000    4.500    0.000    2.333 
#    0.000    0.000    0.000    0.000    0.000    0.000 
#
# Total GULP energy -267667.994276 kJ/mol
# GULP energy per Si atom -5576.416547 kJ/mol
# Density = 2.074830 g / cm^3
# Si number density = 20.795632 Si / 1000 Ang^3
#
#
#
# Elastic Constant Matrix: (Units=GPa)
#
#
# Indices 1 2 3 4 5 6 
#
# 1 149.1177 6.0104 123.2834 0.0000 0.0000 0.0000
# 2 6.0104 42.9686 3.8348 0.0000 0.0000 0.0000
# 3 123.2834 3.8348 252.6052 0.0000 0.0000 0.0000
# 4 0.0000 0.0000 0.0000 17.8015 0.0000 0.0000
# 5 0.0000 0.0000 0.0000 0.0000 36.0630 0.0000
# 6 0.0000 0.0000 0.0000 0.0000 0.0000 6.5490
#
#
#
# Elastic Compliance Matrix: (Units=1/GPa)
#
#
# Indices 1 2 3 4 5 6 
#
# 1 0.011293 -0.001089 -0.005495 0.000000 0.000000 0.000000
# 2 -0.001089 0.023409 0.000176 0.000000 0.000000 0.000000
# 3 -0.005495 0.000176 0.006638 0.000000 0.000000 0.000000
# 4 0.000000 0.000000 0.000000 0.056175 0.000000 0.000000
# 5 0.000000 0.000000 0.000000 0.000000 0.027729 0.000000
# 6 0.000000 0.000000 0.000000 0.000000 0.000000 0.152696
#
#
# Mechanical properties :
#
#
# Convention : Reuss Voigt Hill
#
# Bulk Modulus (GPa) = 35.05779 78.99429 57.02604
# Shear Modulus (GPa) = 16.65196 32.85355 24.75276
#
# Velocity S-wave (km/s) = 2.83281 3.97902 3.45380
# Velocity P-wave (km/s) = 5.25306 7.69276 6.58685
#
# Compressibility (1/GPa) = 0.02852433
#
# Stress axis : x y z
#
# Youngs Moduli (GPa) = 88.55037 42.71778 150.65037
#
# Poissons Ratio (x) = 0.04653 0.82782
# Poissons Ratio (y) = 0.09645 -0.02655
# Poissons Ratio (z) = 0.48658 -0.00753
#
# Static dielectric constant tensor:
#      x y z
#    x 1.721420 0.000000 0.000000 
#    y 0.000000 1.801510 0.000000 
#    z 0.000000 0.000000 1.752830 
# 
# From -- ./inp_files/31241.got.cif
#   From: 2010.05.17/outbox.cif.g08.bks.cpg/sg59_16_cif.got.tgz:31241.got - 2010.06.03 14:40:33.
