data_PCOD9449227
_publ_section_title
;
Structure prediction by ZEFSAII (Michael W. Deem and Ramdas Pophale) SiO2 
 PCOD9449227
Probable space group: P M M N
;
_chemical_formula_sum "Si O2"
_cell_formula_units_Z 40
_cell_length_a 26.197581
_cell_length_b 8.516511
_cell_length_c 9.453602
_cell_angle_alpha 90.000000
_cell_angle_beta 90.000000
_cell_angle_gamma 90.000000
_cell_volume 2109.211924
_symmetry_space_group_name_H-M "P M M N"
_symmetry_group_IT_number 59
_space_group.IT_coordinate_system_code '2'
_symmetry_cell_setting 'orthorhombic'
loop_
_space_group_symop_operation_xyz
x,y,z
1/2-x,1/2-y,z
1/2+x,-y,-z
-x,1/2+y,-z
-x,-y,-z
1/2+x,1/2+y,-z
1/2-x,y,z
x,1/2-y,z
loop_
_atom_site_type_symbol
_atom_site_label
_atom_site_fract_x
_atom_site_fract_y
_atom_site_fract_z
Si Si1 0.848245 0.941470 0.843488
Si Si2 0.250000 0.563867 0.655297
Si Si3 0.942859 0.939870 0.654858
Si Si4 0.154401 0.437772 0.832053
Si Si5 0.440249 0.937636 0.660428
Si Si6 0.250000 0.439864 0.336513
O O1 0.847943 0.750000 0.845249
O O2 0.900996 0.989748 0.769194
O O3 0.800396 0.991962 0.748193
O O4 0.843320 0.993456 0.005398
O O5 0.250000 0.750000 0.646941
O O6 0.200123 0.507589 0.739695
O O7 0.250000 0.496227 0.497070
O O8 0.941158 0.750000 0.642314
O O9 0.001043 0.983583 0.692560
O O10 0.930507 0.010646 0.501375
O O11 0.159783 0.250000 0.831222
O O12 0.100772 0.483908 0.762131
O O13 0.435956 0.750000 0.671135
O O14 0.250000 0.250000 0.337630
#
# Coordination Sequence:
#
# PCOD9449227 Si02
#       6
#     8   4   8   8   8   4
#     4   9  19  35  57  83 109 143 189 232 269 322
#     4  12  25  40  58  84 114 142 179 226 276 330
#     4   9  18  35  57  80 111 151 192 233 276 324
#     4  11  22  38  59  82 110 146 185 224 274 333
#     4  10  20  34  54  83 115 147 187 233 278 325
#     4  10  19  36  62  86 108 140 185 232 276 326
#
# _framework density 18.964428000000002
#
# number of rings (size 3 to 8) (size 9 to 14) (size 15 to 20)
#    0.000    2.000    0.000    3.900    0.000    4.800 
#    0.000    5.000    0.000    0.000    0.000    0.000 
#    0.000    0.000    0.000    0.000    0.000    0.000 
#
# Total GULP energy -223464.563488 kJ/mol
# GULP energy per Si atom -5586.614087 kJ/mol
# Density = 1.892126 g / cm^3
# Si number density = 18.964428 Si / 1000 Ang^3
#
#
#
# Elastic Constant Matrix: (Units=GPa)
#
#
# Indices 1 2 3 4 5 6 
#
# 1 132.9885 22.6186 111.8035 0.0000 0.0000 0.0000
# 2 22.6186 29.1459 24.5343 0.0000 0.0000 0.0000
# 3 111.8035 24.5343 175.6580 0.0000 0.0000 0.0000
# 4 0.0000 0.0000 0.0000 11.5638 0.0000 0.0000
# 5 0.0000 0.0000 0.0000 0.0000 -24.6959 0.0000
# 6 0.0000 0.0000 0.0000 0.0000 0.0000 7.4861
#
#
#
# Elastic Compliance Matrix: (Units=1/GPa)
#
#
# Indices 1 2 3 4 5 6 
#
# 1 0.016689 -0.004544 -0.009987 0.000000 0.000000 0.000000
# 2 -0.004544 0.040119 -0.002711 0.000000 0.000000 0.000000
# 3 -0.009987 -0.002711 0.012428 0.000000 0.000000 0.000000
# 4 0.000000 0.000000 0.000000 0.086477 0.000000 0.000000
# 5 0.000000 0.000000 0.000000 0.000000 -0.040493 0.000000
# 6 0.000000 0.000000 0.000000 0.000000 0.000000 0.133581
#
#
# Mechanical properties :
#
#
# Convention : Reuss Voigt Hill
#
# Bulk Modulus (GPa) = 28.77656 72.85611 50.81633
# Shear Modulus (GPa) = 16.95661 10.79320 13.87490
#
# Velocity S-wave (km/s) = 2.99344 2.38823 2.70780
# Velocity P-wave (km/s) = 5.21100 6.79010 6.05227
#
# Compressibility (1/GPa) = 0.03475051
#
# Stress axis : x y z
#
# Youngs Moduli (GPa) = 59.92058 24.92598 80.46091
#
# Poissons Ratio (x) = 0.11327 0.80360
# Poissons Ratio (y) = 0.27229 0.21814
# Poissons Ratio (z) = 0.59845 0.06758
#
# Static dielectric constant tensor:
#      x y z
#    x 1.647980 0.000000 0.000000 
#    y 0.000000 1.642380 0.000000 
#    z 0.000000 0.000000 1.624590 
# 
# From -- ./inp_files/5923.got.cif
#   From: 2010.05.17/outbox.cif.g08.bks.cpg/sg59_3_cif.got.tgz:5923.got - 2010.06.03 14:40:33.
