data_PCOD9449681
_publ_section_title
;
Structure prediction by ZEFSAII (Michael W. Deem and Ramdas Pophale) SiO2 
 PCOD9449681
Probable space group: P M M N
;
_chemical_formula_sum "Si O2"
_cell_formula_units_Z 64
_cell_length_a 8.707801
_cell_length_b 17.748577
_cell_length_c 23.891444
_cell_angle_alpha 90.000000
_cell_angle_beta 90.000000
_cell_angle_gamma 90.000000
_cell_volume 3692.448391
_symmetry_space_group_name_H-M "P M M N"
_symmetry_group_IT_number 59
_space_group.IT_coordinate_system_code '2'
_symmetry_cell_setting 'orthorhombic'
loop_
_space_group_symop_operation_xyz
x,y,z
1/2-x,1/2-y,z
1/2+x,-y,-z
-x,1/2+y,-z
-x,-y,-z
1/2+x,1/2+y,-z
1/2-x,y,z
x,1/2-y,z
loop_
_atom_site_type_symbol
_atom_site_label
_atom_site_fract_x
_atom_site_fract_y
_atom_site_fract_z
Si Si1 0.433359 0.057599 0.866057
Si Si2 0.934928 0.017453 0.363687
Si Si3 0.065046 0.167583 0.178603
Si Si4 0.065989 0.073202 0.531430
Si Si5 0.935150 0.404908 0.071268
Si Si6 0.434561 0.837554 0.045370
Si Si7 0.566140 0.983662 0.759445
Si Si8 0.435248 0.835367 0.564673
O O1 0.250000 0.057219 0.862196
O O2 0.491956 0.130474 0.898383
O O3 0.482229 0.986648 0.905378
O O4 0.502787 0.042531 0.805000
O O5 0.750000 0.020749 0.359641
O O6 0.984799 0.096823 0.393292
O O7 0.005455 0.007191 0.302936
O O8 0.973570 0.947079 0.404498
O O9 0.250000 0.165066 0.175556
O O10 0.018276 0.250000 0.199390
O O11 0.014482 0.098543 0.217501
O O12 0.998988 0.153172 0.116943
O O13 0.250000 0.075337 0.526736
O O14 0.996387 0.142637 0.497092
O O15 0.000000 0.000000 0.500000
O O16 0.750000 0.401396 0.071692
O O17 0.988076 0.384581 0.009034
O O18 0.250000 0.845084 0.049229
O O19 0.470534 0.750000 0.036440
O O20 0.750000 0.986129 0.759907
O O21 0.250000 0.837594 0.563343
O O22 0.482540 0.750000 0.580191
#
# Coordination Sequence:
#
# PCOD9449681 Si02
#       8
#     8   8   8   8   8   8   8   8
#     4  10  20  34  52  72  96 127 164 204 243 289
#     4   9  18  32  49  71  99 130 166 205 242 283
#     4   9  18  31  45  65  96 129 159 196 241 286
#     4   9  17  30  49  72  99 131 165 201 239 281
#     4   9  18  32  50  72  96 125 160 195 237 292
#     4  10  20  33  50  73 100 126 154 195 247 299
#     4  10  20  33  50  70  94 128 168 206 243 284
#     4   9  18  32  50  75 108 139 164 197 242 288
#
# _framework density 17.332671999999999
#
# number of rings (size 3 to 8) (size 9 to 14) (size 15 to 20)
#    0.000    2.625    0.000    2.625    0.000    5.750 
#    0.000    0.000    0.000    0.750    0.000    3.500 
#    0.000    0.000    0.000    0.000    0.000    0.000 
#
# Total GULP energy -356659.628366 kJ/mol
# GULP energy per Si atom -5572.806693 kJ/mol
# Density = 1.729322 g / cm^3
# Si number density = 17.332672 Si / 1000 Ang^3
#
#
#
# Elastic Constant Matrix: (Units=GPa)
#
#
# Indices 1 2 3 4 5 6 
#
# 1 8.4730 12.8255 26.4840 0.0000 0.0000 0.0000
# 2 12.8255 28.6869 30.3260 0.0000 0.0000 0.0000
# 3 26.4840 30.3260 138.2071 0.0000 0.0000 0.0000
# 4 0.0000 0.0000 0.0000 12.6964 0.0000 0.0000
# 5 0.0000 0.0000 0.0000 0.0000 29.6892 0.0000
# 6 0.0000 0.0000 0.0000 0.0000 0.0000 20.7286
#
#
#
# Elastic Compliance Matrix: (Units=1/GPa)
#
#
# Indices 1 2 3 4 5 6 
#
# 1 0.858427 -0.273285 -0.104531 0.000000 0.000000 0.000000
# 2 -0.273285 0.132389 0.023319 0.000000 0.000000 0.000000
# 3 -0.104531 0.023319 0.022150 0.000000 0.000000 0.000000
# 4 0.000000 0.000000 0.000000 0.078763 0.000000 0.000000
# 5 0.000000 0.000000 0.000000 0.000000 0.033682 0.000000
# 6 0.000000 0.000000 0.000000 0.000000 0.000000 0.048243
#
#
# Mechanical properties :
#
#
# Convention : Reuss Voigt Hill
#
# Bulk Modulus (GPa) = 3.28979 34.95976 19.12477
# Shear Modulus (GPa) = 2.52020 19.67161 11.09590
#
# Velocity S-wave (km/s) = 1.20713 3.37255 2.53291
# Velocity P-wave (km/s) = 1.96088 5.94803 4.42855
#
# Compressibility (1/GPa) = 0.30397106
#
# Stress axis : x y z
#
# Youngs Moduli (GPa) = 1.16492 7.55351 45.14740
#
# Poissons Ratio (x) = 2.06426 4.71932
# Poissons Ratio (y) = 0.31836 -1.05280
# Poissons Ratio (z) = 0.12177 -0.17614
#
# Static dielectric constant tensor:
#      x y z
#    x 1.583840 0.000000 0.000000 
#    y 0.000000 1.600380 0.000000 
#    z 0.000000 0.000000 1.583770 
# 
# From -- ./inp_files/29435.got.cif
#   From: 2010.05.17/outbox.cif.g08.bks.cpg/sg59_15_cif.got.tgz:29435.got - 2010.06.03 14:40:33.
