data_PCOD9449792
_publ_section_title
;
Structure prediction by ZEFSAII (Michael W. Deem and Ramdas Pophale) SiO2 
 PCOD9449792
Probable space group: P M M N
;
_chemical_formula_sum "Si O2"
_cell_formula_units_Z 64
_cell_length_a 8.306723
_cell_length_b 19.354086
_cell_length_c 22.760364
_cell_angle_alpha 90.000000
_cell_angle_beta 90.000000
_cell_angle_gamma 90.000000
_cell_volume 3659.161673
_symmetry_space_group_name_H-M "P M M N"
_symmetry_group_IT_number 59
_space_group.IT_coordinate_system_code '2'
_symmetry_cell_setting 'orthorhombic'
loop_
_space_group_symop_operation_xyz
x,y,z
1/2-x,1/2-y,z
1/2+x,-y,-z
-x,1/2+y,-z
-x,-y,-z
1/2+x,1/2+y,-z
1/2-x,y,z
x,1/2-y,z
loop_
_atom_site_type_symbol
_atom_site_label
_atom_site_fract_x
_atom_site_fract_y
_atom_site_fract_z
Si Si1 0.058754 0.538627 0.441617
Si Si2 0.441969 0.826016 0.141387
Si Si3 0.557344 0.328616 0.369831
Si Si4 0.937998 0.610848 0.026360
Si Si5 0.445660 0.531139 0.200020
Si Si6 0.057416 0.328547 0.502354
Si Si7 0.554789 0.967730 0.919196
Si Si8 0.944502 0.968047 0.677869
O O1 0.250000 0.532358 0.440283
O O2 0.995025 0.505537 0.381462
O O3 0.000000 0.500000 0.500000
O O4 0.010554 0.617692 0.451252
O O5 0.250000 0.825002 0.150072
O O6 0.506316 0.750000 0.157740
O O7 0.473221 0.839890 0.072196
O O8 0.503391 0.893302 0.177328
O O9 0.750000 0.329466 0.368829
O O10 0.502198 0.250000 0.356940
O O11 0.501208 0.345331 0.436352
O O12 0.492445 0.388014 0.327516
O O13 0.750000 0.628547 0.027600
O O14 0.967416 0.534471 0.053411
O O15 0.989152 0.598876 0.958493
O O16 0.250000 0.535514 0.202408
O O17 0.482464 0.474374 0.149607
O O18 0.503368 0.506083 0.263367
O O19 0.250000 0.332701 0.502161
O O20 0.007347 0.250000 0.514640
O O21 0.750000 0.976819 0.925769
O O22 0.750000 0.971558 0.678119
#
# Coordination Sequence:
#
# PCOD9449792 Si02
#       8
#     8   8   8   8   8   8   8   8
#     4  11  21  32  49  74 102 130 160 202 254 303
#     4   9  17  30  48  68  94 131 170 205 243 285
#     4  10  20  33  51  74  97 121 151 193 246 302
#     4   9  15  23  41  69  94 116 147 191 239 280
#     4   8  15  30  49  69  93 124 166 208 239 280
#     4  10  20  34  52  73  97 126 160 199 247 301
#     4   8  14  26  44  65  91 120 149 187 235 283
#     4  10  20  33  51  74  98 127 165 205 245 293
#
# _framework density 17.490345999999999
#
# number of rings (size 3 to 8) (size 9 to 14) (size 15 to 20)
#    0.000    2.625    1.250    2.250    0.000    2.750 
#    0.000    3.125    0.000    3.000    0.000    5.250 
#    0.000    0.000    0.000    0.000    0.000    0.000 
#
# Total GULP energy -356346.600768 kJ/mol
# GULP energy per Si atom -5567.915637 kJ/mol
# Density = 1.745054 g / cm^3
# Si number density = 17.490346 Si / 1000 Ang^3
#
#
#
# Elastic Constant Matrix: (Units=GPa)
#
#
# Indices 1 2 3 4 5 6 
#
# 1 8.6759 5.2759 10.9877 0.0000 0.0000 0.0000
# 2 5.2759 98.6372 66.6053 0.0000 0.0000 0.0000
# 3 10.9877 66.6053 129.1345 0.0000 0.0000 0.0000
# 4 0.0000 0.0000 0.0000 18.4172 0.0000 0.0000
# 5 0.0000 0.0000 0.0000 0.0000 16.9917 0.0000
# 6 0.0000 0.0000 0.0000 0.0000 0.0000 21.8330
#
#
#
# Elastic Compliance Matrix: (Units=1/GPa)
#
#
# Indices 1 2 3 4 5 6 
#
# 1 0.129223 0.000787 -0.011401 0.000000 0.000000 0.000000
# 2 0.000787 0.015561 -0.008093 0.000000 0.000000 0.000000
# 3 -0.011401 -0.008093 0.012888 0.000000 0.000000 0.000000
# 4 0.000000 0.000000 0.000000 0.054297 0.000000 0.000000
# 5 0.000000 0.000000 0.000000 0.000000 0.058852 0.000000
# 6 0.000000 0.000000 0.000000 0.000000 0.000000 0.045802
#
#
# Mechanical properties :
#
#
# Convention : Reuss Voigt Hill
#
# Bulk Modulus (GPa) = 8.31549 44.68725 26.50137
# Shear Modulus (GPa) = 12.68637 21.68697 17.18667
#
# Velocity S-wave (km/s) = 2.69613 3.52510 3.13811
# Velocity P-wave (km/s) = 3.80221 6.49412 5.32120
#
# Compressibility (1/GPa) = 0.12025748
#
# Stress axis : x y z
#
# Youngs Moduli (GPa) = 7.73857 64.26359 77.59060
#
# Poissons Ratio (x) = -0.05056 0.88461
# Poissons Ratio (y) = -0.00609 0.62794
# Poissons Ratio (z) = 0.08823 0.52008
#
# Static dielectric constant tensor:
#      x y z
#    x 1.604920 0.000000 0.000000 
#    y 0.000000 1.620360 0.000000 
#    z 0.000000 0.000000 1.615070 
# 
# From -- ./inp_files/29608.got.cif
#   From: 2010.05.17/outbox.cif.g08.bks.cpg/sg59_15_cif.got.tgz:29608.got - 2010.06.03 14:40:33.
