data_PCOD9449521
_publ_section_title
;
Structure prediction by ZEFSAII (Michael W. Deem and Ramdas Pophale) SiO2 
 PCOD9449521
Probable space group: P M M N
;
_chemical_formula_sum "Si O2"
_cell_formula_units_Z 64
_cell_length_a 8.875558
_cell_length_b 14.897941
_cell_length_c 27.030122
_cell_angle_alpha 90.000000
_cell_angle_beta 90.000000
_cell_angle_gamma 90.000000
_cell_volume 3574.126522
_symmetry_space_group_name_H-M "P M M N"
_symmetry_group_IT_number 59
_space_group.IT_coordinate_system_code '2'
_symmetry_cell_setting 'orthorhombic'
loop_
_space_group_symop_operation_xyz
x,y,z
1/2-x,1/2-y,z
1/2+x,-y,-z
-x,1/2+y,-z
-x,-y,-z
1/2+x,1/2+y,-z
1/2-x,y,z
x,1/2-y,z
loop_
_atom_site_type_symbol
_atom_site_label
_atom_site_fract_x
_atom_site_fract_y
_atom_site_fract_z
Si Si1 0.072142 0.856789 0.125908
Si Si2 0.430721 0.144873 0.238389
Si Si3 0.931513 0.499164 0.309965
Si Si4 0.568102 0.645720 0.502807
Si Si5 0.428962 0.499115 0.945724
Si Si6 0.932036 0.003843 0.423502
Si Si7 0.569654 0.645110 0.230818
Si Si8 0.569682 0.643600 0.874049
O O1 0.250000 0.874925 0.122438
O O2 0.047422 0.750000 0.120287
O O3 0.013092 0.882401 0.180416
O O4 0.985832 0.912756 0.084678
O O5 0.250000 0.134821 0.241285
O O6 0.465490 0.250000 0.244587
O O7 0.475815 0.119011 0.182259
O O8 0.507988 0.085639 0.279850
O O9 0.750000 0.496668 0.310709
O O10 0.982665 0.501786 0.366714
O O11 0.976634 0.585305 0.277355
O O12 0.750000 0.644867 0.506541
O O13 0.520137 0.750000 0.500404
O O14 0.526890 0.585517 0.454773
O O15 0.499991 0.590052 0.548584
O O16 0.250000 0.499160 0.949306
O O17 0.485437 0.584186 0.914020
O O18 0.500000 0.500000 0.000000
O O19 0.750000 0.010668 0.424617
O O20 0.750000 0.635277 0.223485
O O21 0.538314 0.750000 0.239613
O O22 0.750000 0.629073 0.878212
O O23 0.542957 0.750000 0.880289
#
# Coordination Sequence:
#
# PCOD9449521 Si02
#       8
#     8   8   8   8   8   8   8   8
#     4  10  21  38  59  81 107 140 178 219 262 311
#     4   9  19  35  54  76 103 138 175 208 249 302
#     4  10  20  32  49  76 108 139 169 207 255 304
#     4   9  18  34  55  74  94 128 174 218 259 307
#     4  12  25  39  57  81 109 140 176 219 267 318
#     4   9  19  34  50  73 104 134 168 211 260 309
#     4   9  18  33  53  78 107 138 172 208 251 307
#     4   9  19  38  61  82 107 140 177 217 262 312
#
# _framework density 17.906473999999999
#
# number of rings (size 3 to 8) (size 9 to 14) (size 15 to 20)
#    0.000    2.375    0.000    3.000    0.000    6.500 
#    0.000    6.250    0.000    0.000    0.000    3.500 
#    0.000    0.000    0.000    0.000    0.000    0.000 
#
# Total GULP energy -357220.111935 kJ/mol
# GULP energy per Si atom -5581.564249 kJ/mol
# Density = 1.786572 g / cm^3
# Si number density = 17.906474 Si / 1000 Ang^3
#
#
#
# Elastic Constant Matrix: (Units=GPa)
#
#
# Indices 1 2 3 4 5 6 
#
# 1 45.3350 45.7118 62.4068 0.0000 0.0000 0.0000
# 2 45.7118 113.5043 92.0985 0.0000 0.0000 0.0000
# 3 62.4068 92.0985 194.6688 0.0000 0.0000 0.0000
# 4 0.0000 0.0000 0.0000 89.3678 0.0000 0.0000
# 5 0.0000 0.0000 0.0000 0.0000 30.8699 0.0000
# 6 0.0000 0.0000 0.0000 0.0000 0.0000 29.8123
#
#
#
# Elastic Compliance Matrix: (Units=1/GPa)
#
#
# Indices 1 2 3 4 5 6 
#
# 1 0.046335 -0.010725 -0.009780 0.000000 0.000000 0.000000
# 2 -0.010725 0.016782 -0.004501 0.000000 0.000000 0.000000
# 3 -0.009780 -0.004501 0.010402 0.000000 0.000000 0.000000
# 4 0.000000 0.000000 0.000000 0.011190 0.000000 0.000000
# 5 0.000000 0.000000 0.000000 0.000000 0.032394 0.000000
# 6 0.000000 0.000000 0.000000 0.000000 0.000000 0.033543
#
#
# Mechanical properties :
#
#
# Convention : Reuss Voigt Hill
#
# Bulk Modulus (GPa) = 42.54232 83.77140 63.15686
# Shear Modulus (GPa) = 23.98150 40.22941 32.10546
#
# Velocity S-wave (km/s) = 3.66357 4.74502 4.23892
# Velocity P-wave (km/s) = 6.45796 8.76952 7.70097
#
# Compressibility (1/GPa) = 0.02350601
#
# Stress axis : x y z
#
# Youngs Moduli (GPa) = 21.58195 59.58744 96.13676
#
# Poissons Ratio (x) = 0.63908 0.94022
# Poissons Ratio (y) = 0.23147 0.43275
# Poissons Ratio (z) = 0.21107 0.26823
#
# Static dielectric constant tensor:
#      x y z
#    x 1.601730 0.000000 0.000000 
#    y 0.000000 1.608720 0.000000 
#    z 0.000000 0.000000 1.589540 
# 
# From -- ./inp_files/31415.got.cif
#   From: 2010.05.17/outbox.cif.g08.bks.cpg/sg59_16_cif.got.tgz:31415.got - 2010.06.03 14:40:33.
