data_PCOD9449092
_publ_section_title
;
Structure prediction by ZEFSAII (Michael W. Deem and Ramdas Pophale) SiO2 
 PCOD9449092
Probable space group: P M M N
;
_chemical_formula_sum "Si O2"
_cell_formula_units_Z 48
_cell_length_a 20.209678
_cell_length_b 14.768172
_cell_length_c 6.937291
_cell_angle_alpha 90.000000
_cell_angle_beta 90.000000
_cell_angle_gamma 90.000000
_cell_volume 2070.503877
_symmetry_space_group_name_H-M "P M M N"
_symmetry_group_IT_number 59
_space_group.IT_coordinate_system_code '2'
_symmetry_cell_setting 'orthorhombic'
loop_
_space_group_symop_operation_xyz
x,y,z
1/2-x,1/2-y,z
1/2+x,-y,-z
-x,1/2+y,-z
-x,-y,-z
1/2+x,1/2+y,-z
1/2-x,y,z
x,1/2-y,z
loop_
_atom_site_type_symbol
_atom_site_label
_atom_site_fract_x
_atom_site_fract_y
_atom_site_fract_z
Si Si1 0.052340 0.750000 0.082227
Si Si2 0.673924 0.450379 0.555289
Si Si3 0.455779 0.050514 0.289639
Si Si4 0.956655 0.905171 0.164170
Si Si5 0.679089 0.750000 0.680693
Si Si6 0.033684 0.250000 0.288858
Si Si7 0.179351 0.384341 0.676348
Si Si8 0.326653 0.750000 0.333074
O O1 0.127846 0.750000 0.143177
O O2 0.017331 0.836697 0.173528
O O3 0.026364 0.750000 0.862801
O O4 0.750000 0.462035 0.637099
O O5 0.611876 0.498575 0.659268
O O6 0.677044 0.507619 0.357939
O O7 0.661191 0.343120 0.550656
O O8 0.467272 0.150135 0.383532
O O9 0.521627 0.988830 0.299219
O O10 0.450323 0.067315 0.058978
O O11 0.887700 0.860447 0.219898
O O12 0.750000 0.750000 0.783717
O O13 0.609928 0.750000 0.792633
O O14 0.678881 0.665309 0.531723
O O15 0.250000 0.360742 0.767517
O O16 0.250000 0.750000 0.278525
#
# Coordination Sequence:
#
# PCOD9449092 Si02
#       8
#     4   8   8   8   4   4   8   4
#     4  10  19  36  57  84 117 148 186 240 278 328
#     4  10  20  36  59  83 108 144 192 235 277 337
#     4  10  20  36  56  81 112 151 183 235 283 334
#     4  10  21  36  56  82 117 145 188 238 281 333
#     4  10  19  35  57  83 116 151 188 226 276 342
#     4  10  20  34  55  84 122 147 179 237 285 327
#     4  10  21  37  56  81 117 151 186 233 283 340
#     4  10  20  37  59  83 111 148 193 235 279 329
#
# _framework density 23.182763999999999
#
# number of rings (size 3 to 8) (size 9 to 14) (size 15 to 20)
#    0.000    2.000    3.333    0.500    0.000    1.333 
#    0.000    3.333    0.000    0.000    0.000    3.500 
#    0.000    0.000    0.000    0.000    0.000    0.000 
#
# Total GULP energy -267600.254392 kJ/mol
# GULP energy per Si atom -5575.005300 kJ/mol
# Density = 2.313000 g / cm^3
# Si number density = 23.182764 Si / 1000 Ang^3
#
#
#
# Elastic Constant Matrix: (Units=GPa)
#
#
# Indices 1 2 3 4 5 6 
#
# 1 109.0769 42.8032 10.8630 0.0000 0.0000 0.0000
# 2 42.8032 165.0402 7.5174 0.0000 0.0000 0.0000
# 3 10.8630 7.5174 30.7534 0.0000 0.0000 0.0000
# 4 0.0000 0.0000 0.0000 16.5805 0.0000 0.0000
# 5 0.0000 0.0000 0.0000 0.0000 19.3346 0.0000
# 6 0.0000 0.0000 0.0000 0.0000 0.0000 30.8863
#
#
#
# Elastic Compliance Matrix: (Units=1/GPa)
#
#
# Indices 1 2 3 4 5 6 
#
# 1 0.010486 -0.002580 -0.003073 0.000000 0.000000 0.000000
# 2 -0.002580 0.006762 -0.000742 0.000000 0.000000 0.000000
# 3 -0.003073 -0.000742 0.033784 0.000000 0.000000 0.000000
# 4 0.000000 0.000000 0.000000 0.060312 0.000000 0.000000
# 5 0.000000 0.000000 0.000000 0.000000 0.051721 0.000000
# 6 0.000000 0.000000 0.000000 0.000000 0.000000 0.032377
#
#
# Mechanical properties :
#
#
# Convention : Reuss Voigt Hill
#
# Bulk Modulus (GPa) = 26.14912 47.47087 36.80999
# Shear Modulus (GPa) = 22.62669 29.60608 26.11638
#
# Velocity S-wave (km/s) = 3.12751 3.57749 3.36004
# Velocity P-wave (km/s) = 4.93415 6.13073 5.56469
#
# Compressibility (1/GPa) = 0.03824221
#
# Stress axis : x y z
#
# Youngs Moduli (GPa) = 95.36338 147.88664 29.60013
#
# Poissons Ratio (x) = 0.38149 0.09098
# Poissons Ratio (y) = 0.24600 0.02195
# Poissons Ratio (z) = 0.29310 0.10969
#
# Static dielectric constant tensor:
#      x y z
#    x 1.866460 0.000000 0.000000 
#    y 0.000000 1.986990 0.000000 
#    z 0.000000 0.000000 1.887690 
# 
# From -- ./inp_files/9092.got.cif
#   From: 2010.05.17/outbox.cif.g08.bks.cpg/sg59_5_cif.got.tgz:9092.got - 2010.06.03 14:40:33.
