data_PCOD9449301
_publ_section_title
;
Structure prediction by ZEFSAII (Michael W. Deem and Ramdas Pophale) SiO2 
 PCOD9449301
Probable space group: P M M N
;
_chemical_formula_sum "Si O2"
_cell_formula_units_Z 56
_cell_length_a 9.131296
_cell_length_b 19.376889
_cell_length_c 17.638475
_cell_angle_alpha 90.000000
_cell_angle_beta 90.000000
_cell_angle_gamma 90.000000
_cell_volume 3120.883136
_symmetry_space_group_name_H-M "P M M N"
_symmetry_group_IT_number 59
_space_group.IT_coordinate_system_code '2'
_symmetry_cell_setting 'orthorhombic'
loop_
_space_group_symop_operation_xyz
x,y,z
1/2-x,1/2-y,z
1/2+x,-y,-z
-x,1/2+y,-z
-x,-y,-z
1/2+x,1/2+y,-z
1/2-x,y,z
x,1/2-y,z
loop_
_atom_site_type_symbol
_atom_site_label
_atom_site_fract_x
_atom_site_fract_y
_atom_site_fract_z
Si Si1 0.417183 0.949308 0.442096
Si Si2 0.415634 0.041590 0.291781
Si Si3 0.426242 0.068598 0.967401
Si Si4 0.579776 0.830956 0.898053
Si Si5 0.574027 0.923817 0.205850
Si Si6 0.575980 0.170754 0.259823
Si Si7 0.926828 0.831335 0.351202
O O1 0.250000 0.935158 0.467325
O O2 0.499066 0.878907 0.416218
O O3 0.500000 0.000000 0.500000
O O4 0.411078 0.994260 0.365597
O O5 0.250000 0.054326 0.266099
O O6 0.495823 0.113203 0.308922
O O7 0.504248 0.996217 0.231293
O O8 0.250000 0.059718 0.966867
O O9 0.469828 0.088068 0.881427
O O10 0.463139 0.127485 0.027770
O O11 0.500000 0.000000 0.000000
O O12 0.750000 0.847103 0.879850
O O13 0.571456 0.750000 0.913916
O O14 0.479386 0.844605 0.825451
O O15 0.750000 0.929260 0.208696
O O16 0.533723 0.866007 0.269170
O O17 0.750000 0.164476 0.264842
O O18 0.534851 0.250000 0.277287
O O19 0.750000 0.836207 0.358566
O O20 0.966426 0.750000 0.354202
#
# Coordination Sequence:
#
# PCOD9449301 Si02
#       7
#     8   8   8   8   8   8   8
#     4  10  21  37  58  83 110 140 172 207 250 303
#     4  10  20  34  53  76 100 128 164 204 247 297
#     4  10  20  31  45  68  97 130 170 215 260 305
#     4   9  18  32  48  66  92 128 167 207 252 299
#     4   9  18  32  50  73 101 135 174 216 260 305
#     4  10  20  33  50  72  97 127 165 208 253 302
#     4   9  18  34  57  83 110 141 177 217 262 313
#
# _framework density 17.943638
#
# number of rings (size 3 to 8) (size 9 to 14) (size 15 to 20)
#    0.000    2.429    0.000    2.143    0.000    6.857 
#    0.000    3.571    0.000    0.857    0.000    4.000 
#    0.000    0.000    0.000    0.000    0.000    0.000 
#
# Total GULP energy -312133.321312 kJ/mol
# GULP energy per Si atom -5573.809309 kJ/mol
# Density = 1.790280 g / cm^3
# Si number density = 17.943638 Si / 1000 Ang^3
#
#
#
# Elastic Constant Matrix: (Units=GPa)
#
#
# Indices 1 2 3 4 5 6 
#
# 1 41.2578 45.5821 11.9282 0.0000 0.0000 0.0000
# 2 45.5821 123.9493 32.9788 0.0000 0.0000 0.0000
# 3 11.9282 32.9788 28.6114 0.0000 0.0000 0.0000
# 4 0.0000 0.0000 0.0000 27.4872 0.0000 0.0000
# 5 0.0000 0.0000 0.0000 0.0000 19.9130 0.0000
# 6 0.0000 0.0000 0.0000 0.0000 0.0000 29.4361
#
#
#
# Elastic Compliance Matrix: (Units=1/GPa)
#
#
# Indices 1 2 3 4 5 6 
#
# 1 0.040828 -0.015124 0.000411 0.000000 0.000000 0.000000
# 2 -0.015124 0.017239 -0.013565 0.000000 0.000000 0.000000
# 3 0.000411 -0.013565 0.050415 0.000000 0.000000 0.000000
# 4 0.000000 0.000000 0.000000 0.036381 0.000000 0.000000
# 5 0.000000 0.000000 0.000000 0.000000 0.050218 0.000000
# 6 0.000000 0.000000 0.000000 0.000000 0.000000 0.033972
#
#
# Mechanical properties :
#
#
# Convention : Reuss Voigt Hill
#
# Bulk Modulus (GPa) = 19.25801 41.64411 30.45106
# Shear Modulus (GPa) = 16.50616 22.25589 19.38103
#
# Velocity S-wave (km/s) = 3.03626 3.52564 3.29006
# Velocity P-wave (km/s) = 4.80079 6.31128 5.60713
#
# Compressibility (1/GPa) = 0.05192643
#
# Stress axis : x y z
#
# Youngs Moduli (GPa) = 24.49303 58.00890 19.83524
#
# Poissons Ratio (x) = 0.87731 -0.00815
# Poissons Ratio (y) = 0.37043 0.26906
# Poissons Ratio (z) = -0.01006 0.78689
#
# Static dielectric constant tensor:
#      x y z
#    x 1.638220 0.000000 0.000000 
#    y 0.000000 1.632930 0.000000 
#    z 0.000000 0.000000 1.642170 
# 
# From -- ./inp_files/29280.got.cif
#   From: 2010.05.17/outbox.cif.g08.bks.cpg/sg59_15_cif.got.tgz:29280.got - 2010.06.03 14:40:33.
