data_PCOD9449625
_publ_section_title
;
Structure prediction by ZEFSAII (Michael W. Deem and Ramdas Pophale) SiO2 
 PCOD9449625
Probable space group: P M M N
;
_chemical_formula_sum "Si O2"
_cell_formula_units_Z 64
_cell_length_a 14.198305
_cell_length_b 9.006427
_cell_length_c 32.490323
_cell_angle_alpha 90.000000
_cell_angle_beta 90.000000
_cell_angle_gamma 90.000000
_cell_volume 4154.732463
_symmetry_space_group_name_H-M "P M M N"
_symmetry_group_IT_number 59
_space_group.IT_coordinate_system_code '2'
_symmetry_cell_setting 'orthorhombic'
loop_
_space_group_symop_operation_xyz
x,y,z
1/2-x,1/2-y,z
1/2+x,-y,-z
-x,1/2+y,-z
-x,-y,-z
1/2+x,1/2+y,-z
1/2-x,y,z
x,1/2-y,z
loop_
_atom_site_type_symbol
_atom_site_label
_atom_site_fract_x
_atom_site_fract_y
_atom_site_fract_z
Si Si1 0.860825 0.073410 0.562391
Si Si2 0.640154 0.071709 0.316098
Si Si3 0.360592 0.571567 0.853608
Si Si4 0.969355 0.428267 0.398860
Si Si5 0.045428 0.570916 0.938535
Si Si6 0.136829 0.076959 0.524890
Si Si7 0.135592 0.421299 0.768706
Si Si8 0.856780 0.928828 0.983186
O O1 0.750000 0.045376 0.569076
O O2 0.876179 0.250000 0.562158
O O3 0.886319 0.005582 0.517743
O O4 0.926670 0.994166 0.595517
O O5 0.750000 0.029265 0.322830
O O6 0.637608 0.250000 0.311961
O O7 0.579103 0.029975 0.355755
O O8 0.606068 0.000154 0.273509
O O9 0.250000 0.532929 0.860032
O O10 0.365538 0.750000 0.849995
O O11 0.420013 0.524681 0.893443
O O12 0.393944 0.500519 0.810860
O O13 0.970069 0.250000 0.402151
O O14 0.910025 0.497321 0.436416
O O15 0.053997 0.750000 0.940828
O O16 0.937844 0.530976 0.950229
O O17 0.110718 0.500367 0.973804
O O18 0.250000 0.071002 0.529421
O O19 0.108524 0.250000 0.522661
O O20 0.250000 0.428553 0.768696
O O21 0.107454 0.250000 0.768737
O O22 0.750000 0.973209 0.972698
O O23 0.858703 0.750000 0.987358
#
# Coordination Sequence:
#
# PCOD9449625 Si02
#       8
#     8   8   8   8   8   8   8   8
#     4  10  21  36  51  66  88 119 154 191 227 262
#     4   9  18  32  48  67  93 122 147 172 210 263
#     4   9  16  26  41  60  83 112 144 177 213 256
#     4  11  21  32  49  71  94 120 150 184 221 264
#     4   9  17  28  42  61  84 114 152 186 217 260
#     4  10  20  33  49  69  94 123 153 185 220 260
#     4   9  17  28  43  64  89 115 141 173 215 260
#     4   9  17  28  41  59  86 117 147 184 227 262
#
# _framework density 15.404121
#
# number of rings (size 3 to 8) (size 9 to 14) (size 15 to 20)
#    0.000    2.500    0.000    2.625    0.000    5.750 
#    0.000    2.500    0.000    0.000    0.000    0.875 
#    0.000    5.000    0.000    0.000    0.000    0.000 
#
# Total GULP energy -356887.034426 kJ/mol
# GULP energy per Si atom -5576.359913 kJ/mol
# Density = 1.536906 g / cm^3
# Si number density = 15.404121 Si / 1000 Ang^3
#
#
#
# Elastic Constant Matrix: (Units=GPa)
#
#
# Indices 1 2 3 4 5 6 
#
# 1 80.5110 33.9957 67.7179 0.0000 0.0000 0.0000
# 2 33.9957 46.2390 53.9142 0.0000 0.0000 0.0000
# 3 67.7179 53.9142 150.1548 0.0000 0.0000 0.0000
# 4 0.0000 0.0000 0.0000 25.1774 0.0000 0.0000
# 5 0.0000 0.0000 0.0000 0.0000 24.2596 0.0000
# 6 0.0000 0.0000 0.0000 0.0000 0.0000 19.9097
#
#
#
# Elastic Compliance Matrix: (Units=1/GPa)
#
#
# Indices 1 2 3 4 5 6 
#
# 1 0.021513 -0.007748 -0.006920 0.000000 0.000000 0.000000
# 2 -0.007748 0.039992 -0.010865 0.000000 0.000000 0.000000
# 3 -0.006920 -0.010865 0.013682 0.000000 0.000000 0.000000
# 4 0.000000 0.000000 0.000000 0.039718 0.000000 0.000000
# 5 0.000000 0.000000 0.000000 0.000000 0.041221 0.000000
# 6 0.000000 0.000000 0.000000 0.000000 0.000000 0.050227
#
#
# Mechanical properties :
#
#
# Convention : Reuss Voigt Hill
#
# Bulk Modulus (GPa) = 41.45888 65.35118 53.40503
# Shear Modulus (GPa) = 18.83535 21.95446 20.39491
#
# Velocity S-wave (km/s) = 3.50057 3.77932 3.64262
# Velocity P-wave (km/s) = 6.58113 7.84608 7.24128
#
# Compressibility (1/GPa) = 0.02412028
#
# Stress axis : x y z
#
# Youngs Moduli (GPa) = 46.48445 25.00508 73.08945
#
# Poissons Ratio (x) = 0.19373 0.50578
# Poissons Ratio (y) = 0.36015 0.79413
# Poissons Ratio (z) = 0.32167 0.27169
#
# Static dielectric constant tensor:
#      x y z
#    x 1.523710 0.000000 0.000000 
#    y 0.000000 1.511160 0.000000 
#    z 0.000000 0.000000 1.489000 
# 
# From -- ./inp_files/33207.got.cif
#   From: 2010.05.17/outbox.cif.g08.bks.cpg/sg59_17_cif.got.tgz:33207.got - 2010.06.03 14:40:33.
