data_PCOD9449159
_publ_section_title
;
Structure prediction by ZEFSAII (Michael W. Deem and Ramdas Pophale) SiO2 
 PCOD9449159
Probable space group: P M M N
;
_chemical_formula_sum "Si O2"
_cell_formula_units_Z 40
_cell_length_a 8.590303
_cell_length_b 19.217491
_cell_length_c 12.839828
_cell_angle_alpha 90.000000
_cell_angle_beta 90.000000
_cell_angle_gamma 90.000000
_cell_volume 2119.651072
_symmetry_space_group_name_H-M "P M M N"
_symmetry_group_IT_number 59
_space_group.IT_coordinate_system_code '2'
_symmetry_cell_setting 'orthorhombic'
loop_
_space_group_symop_operation_xyz
x,y,z
1/2-x,1/2-y,z
1/2+x,-y,-z
-x,1/2+y,-z
-x,-y,-z
1/2+x,1/2+y,-z
1/2-x,y,z
x,1/2-y,z
loop_
_atom_site_type_symbol
_atom_site_label
_atom_site_fract_x
_atom_site_fract_y
_atom_site_fract_z
Si Si1 0.063324 0.432942 0.715531
Si Si2 0.062091 0.169287 0.121780
Si Si3 0.438360 0.415392 0.329350
Si Si4 0.564973 0.429539 0.948003
Si Si5 0.560103 0.829850 0.466092
O O1 0.250000 0.432498 0.720352
O O2 0.011852 0.372779 0.635811
O O3 0.007881 0.507694 0.673476
O O4 0.997779 0.423078 0.831123
O O5 0.250000 0.165583 0.113604
O O6 0.018563 0.250000 0.132488
O O7 0.016766 0.125618 0.224234
O O8 0.989433 0.133629 0.020780
O O9 0.250000 0.420672 0.330328
O O10 0.487406 0.371597 0.430406
O O11 0.750000 0.434044 0.945562
O O12 0.500000 0.500000 0.000000
O O13 0.750000 0.828608 0.466911
O O14 0.506861 0.750000 0.466662
#
# Coordination Sequence:
#
# PCOD9449159 Si02
#       5
#     8   8   8   8   8
#     4  11  22  36  59  88 119 156 198 246 297 353
#     4  10  21  37  60  90 121 155 195 240 297 359
#     4  10  19  35  61  88 117 155 197 243 291 348
#     4  12  24  40  61  85 117 156 200 248 298 353
#     4   9  19  36  58  86 119 156 199 242 288 348
#
# _framework density 18.871030000000001
#
# number of rings (size 3 to 8) (size 9 to 14) (size 15 to 20)
#    0.000    1.600    2.000    3.600    0.000    3.600 
#    0.000    3.000    0.000    6.000    0.000    0.000 
#    0.000    0.000    0.000    0.000    0.000    0.000 
#
# Total GULP energy -223568.986212 kJ/mol
# GULP energy per Si atom -5589.224655 kJ/mol
# Density = 1.882808 g / cm^3
# Si number density = 18.871030 Si / 1000 Ang^3
#
#
#
# Elastic Constant Matrix: (Units=GPa)
#
#
# Indices 1 2 3 4 5 6 
#
# 1 34.0215 31.4590 33.6562 0.0000 0.0000 0.0000
# 2 31.4590 107.6950 83.5717 0.0000 0.0000 0.0000
# 3 33.6562 83.5717 178.4044 0.0000 0.0000 0.0000
# 4 0.0000 0.0000 0.0000 31.3513 0.0000 0.0000
# 5 0.0000 0.0000 0.0000 0.0000 21.6157 0.0000
# 6 0.0000 0.0000 0.0000 0.0000 0.0000 29.8252
#
#
#
# Elastic Compliance Matrix: (Units=1/GPa)
#
#
# Indices 1 2 3 4 5 6 
#
# 1 0.041529 -0.009508 -0.003381 0.000000 0.000000 0.000000
# 2 -0.009508 0.016765 -0.006060 0.000000 0.000000 0.000000
# 3 -0.003381 -0.006060 0.009082 0.000000 0.000000 0.000000
# 4 0.000000 0.000000 0.000000 0.031897 0.000000 0.000000
# 5 0.000000 0.000000 0.000000 0.000000 0.046263 0.000000
# 6 0.000000 0.000000 0.000000 0.000000 0.000000 0.033529
#
#
# Mechanical properties :
#
#
# Convention : Reuss Voigt Hill
#
# Bulk Modulus (GPa) = 33.92182 68.61053 51.26617
# Shear Modulus (GPa) = 22.04708 27.98738 25.01723
#
# Velocity S-wave (km/s) = 3.42175 3.85526 3.64496
# Velocity P-wave (km/s) = 5.79878 7.50026 6.70372
#
# Compressibility (1/GPa) = 0.02947955
#
# Stress axis : x y z
#
# Youngs Moduli (GPa) = 24.07939 59.64704 110.11135
#
# Poissons Ratio (x) = 0.56711 0.37226
# Poissons Ratio (y) = 0.22894 0.66726
# Poissons Ratio (z) = 0.08141 0.36145
#
# Static dielectric constant tensor:
#      x y z
#    x 1.648330 0.000000 0.000000 
#    y 0.000000 1.630310 0.000000 
#    z 0.000000 0.000000 1.632720 
# 
# From -- ./inp_files/13825.got.cif
#   From: 2010.05.17/outbox.cif.g08.bks.cpg/sg59_7_cif.got.tgz:13825.got - 2010.06.03 14:40:33.
