data_PCOD9449827
_publ_section_title
;
Structure prediction by ZEFSAII (Michael W. Deem and Ramdas Pophale) SiO2 
 PCOD9449827
Probable space group: P M M N
;
_chemical_formula_sum "Si O2"
_cell_formula_units_Z 48
_cell_length_a 18.926774
_cell_length_b 9.268665
_cell_length_c 15.811968
_cell_angle_alpha 90.000000
_cell_angle_beta 90.000000
_cell_angle_gamma 90.000000
_cell_volume 2773.829156
_symmetry_space_group_name_H-M "P M M N"
_symmetry_group_IT_number 59
_space_group.IT_coordinate_system_code '2'
_symmetry_cell_setting 'orthorhombic'
loop_
_space_group_symop_operation_xyz
x,y,z
1/2-x,1/2-y,z
1/2+x,-y,-z
-x,1/2+y,-z
-x,-y,-z
1/2+x,1/2+y,-z
1/2-x,y,z
x,1/2-y,z
loop_
_atom_site_type_symbol
_atom_site_label
_atom_site_fract_x
_atom_site_fract_y
_atom_site_fract_z
Si Si1 0.335151 0.582587 0.235858
Si Si2 0.336008 0.583629 0.570632
Si Si3 0.578432 0.921319 0.905597
Si Si4 0.928183 0.921248 0.100796
Si Si5 0.834228 0.077893 0.238478
Si Si6 0.336165 0.084673 0.404945
O O1 0.250000 0.576852 0.232584
O O2 0.356585 0.750000 0.232399
O O3 0.367300 0.494339 0.158356
O O4 0.357757 0.510058 0.324362
O O5 0.250000 0.582271 0.570606
O O6 0.357127 0.750000 0.556418
O O7 0.357066 0.539607 0.665492
O O8 0.359947 0.484329 0.493539
O O9 0.573340 0.750000 0.890601
O O10 0.502764 0.996826 0.892232
O O11 0.597888 0.943358 0.004211
O O12 0.937633 0.750000 0.113265
O O13 0.875305 0.988005 0.168739
O O14 0.750000 0.054124 0.231892
O O15 0.846319 0.250000 0.227869
O O16 0.250000 0.083830 0.406095
O O17 0.359026 0.250000 0.395977
#
# Coordination Sequence:
#
# PCOD9449827 Si02
#       6
#     8   8   8   8   8   8
#     4  10  20  33  51  76 104 133 166 206 250 295
#     4   8  14  26  44  67  97 132 167 201 239 286
#     4  10  21  37  55  73  97 131 169 208 250 300
#     4  10  21  36  54  75  99 130 168 208 251 301
#     4   9  18  32  51  76 105 136 169 206 248 293
#     4   9  16  26  43  69 100 132 165 202 244 290
#
# _framework density 17.304600000000001
#
# number of rings (size 3 to 8) (size 9 to 14) (size 15 to 20)
#    0.000    2.667    0.000    3.000    0.000    6.667 
#    0.000    5.000    0.000    1.000    0.000    0.000 
#    0.000    0.000    0.000    0.000    0.000    0.000 
#
# Total GULP energy -267631.567285 kJ/mol
# GULP energy per Si atom -5575.657652 kJ/mol
# Density = 1.726521 g / cm^3
# Si number density = 17.304600 Si / 1000 Ang^3
#
#
#
# Elastic Constant Matrix: (Units=GPa)
#
#
# Indices 1 2 3 4 5 6 
#
# 1 16.9548 36.2441 42.6566 0.0000 0.0000 0.0000
# 2 36.2441 128.4411 103.1917 0.0000 0.0000 0.0000
# 3 42.6566 103.1917 144.8526 0.0000 0.0000 0.0000
# 4 0.0000 0.0000 0.0000 38.3897 0.0000 0.0000
# 5 0.0000 0.0000 0.0000 0.0000 -24.0379 0.0000
# 6 0.0000 0.0000 0.0000 0.0000 0.0000 25.8133
#
#
#
# Elastic Compliance Matrix: (Units=1/GPa)
#
#
# Indices 1 2 3 4 5 6 
#
# 1 0.265333 -0.028287 -0.057985 0.000000 0.000000 0.000000
# 2 -0.028287 0.021221 -0.006788 0.000000 0.000000 0.000000
# 3 -0.057985 -0.006788 0.028815 0.000000 0.000000 0.000000
# 4 0.000000 0.000000 0.000000 0.026049 0.000000 0.000000
# 5 0.000000 0.000000 0.000000 0.000000 -0.041601 0.000000
# 6 0.000000 0.000000 0.000000 0.000000 0.000000 0.038740
#
#
# Mechanical properties :
#
#
# Convention : Reuss Voigt Hill
#
# Bulk Modulus (GPa) = 7.73696 72.71480 40.22588
# Shear Modulus (GPa) = 8.80658 15.24343 12.02500
#
# Velocity S-wave (km/s) = 2.25836 2.97120 2.63896
# Velocity P-wave (km/s) = 3.35872 7.34046 5.70804
#
# Compressibility (1/GPa) = 0.12924978
#
# Stress axis : x y z
#
# Youngs Moduli (GPa) = 3.76886 47.12269 34.70462
#
# Poissons Ratio (x) = 1.33295 2.01233
# Poissons Ratio (y) = 0.10661 0.23557
# Poissons Ratio (z) = 0.21854 0.31986
#
# Static dielectric constant tensor:
#      x y z
#    x 1.565580 0.000000 0.000000 
#    y 0.000000 1.576050 0.000000 
#    z 0.000000 0.000000 1.582730 
# 
# From -- ./inp_files/20387.got.cif
#   From: 2010.05.17/outbox.cif.g08.bks.cpg/sg59_11_cif.got.tgz:20387.got - 2010.06.03 14:40:33.
