data_PCOD9449779
_publ_section_title
;
Structure prediction by ZEFSAII (Michael W. Deem and Ramdas Pophale) SiO2 
 PCOD9449779
Probable space group: P M M N
;
_chemical_formula_sum "Si O2"
_cell_formula_units_Z 64
_cell_length_a 7.627429
_cell_length_b 19.950417
_cell_length_c 19.355140
_cell_angle_alpha 90.000000
_cell_angle_beta 90.000000
_cell_angle_gamma 90.000000
_cell_volume 2945.279187
_symmetry_space_group_name_H-M "P M M N"
_symmetry_group_IT_number 59
_space_group.IT_coordinate_system_code '2'
_symmetry_cell_setting 'orthorhombic'
loop_
_space_group_symop_operation_xyz
x,y,z
1/2-x,1/2-y,z
1/2+x,-y,-z
-x,1/2+y,-z
-x,-y,-z
1/2+x,1/2+y,-z
1/2-x,y,z
x,1/2-y,z
loop_
_atom_site_type_symbol
_atom_site_label
_atom_site_fract_x
_atom_site_fract_y
_atom_site_fract_z
Si Si1 0.041312 0.539855 0.122345
Si Si2 0.037762 0.455641 0.717785
Si Si3 0.540294 0.410775 0.352014
Si Si4 0.539934 0.675155 0.517106
Si Si5 0.535755 0.674737 0.359452
Si Si6 0.455498 0.101530 0.078363
Si Si7 0.546114 0.324970 0.942640
Si Si8 0.037236 0.826760 0.779171
O O1 0.250000 0.540921 0.108779
O O2 0.971304 0.474357 0.082323
O O3 0.967919 0.612017 0.099333
O O4 0.015125 0.530177 0.203826
O O5 0.250000 0.454817 0.716538
O O6 0.976415 0.515017 0.667107
O O7 0.975052 0.383771 0.690833
O O8 0.750000 0.412957 0.345960
O O9 0.502764 0.380451 0.426641
O O10 0.476054 0.361201 0.291621
O O11 0.750000 0.678631 0.513939
O O12 0.475785 0.750000 0.537679
O O13 0.480095 0.661629 0.438761
O O14 0.750000 0.674292 0.358942
O O15 0.480692 0.750000 0.340332
O O16 0.250000 0.098458 0.061308
O O17 0.476321 0.132525 0.154258
O O18 0.539529 0.149913 0.021770
O O19 0.750000 0.320097 0.922049
O O20 0.469890 0.250000 0.935177
O O21 0.250000 0.827723 0.779611
O O22 0.979492 0.750000 0.783037
#
# Coordination Sequence:
#
# PCOD9449779 Si02
#       8
#     8   8   8   8   8   8   8   8
#     4  10  22  39  57  80 111 144 176 216 268 318
#     4  10  20  35  57  81 106 141 182 221 263 316
#     4  10  20  33  50  76 109 141 178 222 265 315
#     4   9  18  33  53  76 105 143 182 220 267 321
#     4   8  16  33  55  79 107 139 178 223 270 318
#     4  11  22  36  56  82 110 139 174 221 266 308
#     4  10  22  40  60  81 108 143 179 215 262 320
#     4  10  20  34  52  74 105 146 182 213 259 317
#
# _framework density 21.729687999999999
#
# number of rings (size 3 to 8) (size 9 to 14) (size 15 to 20)
#    0.000    2.250    1.250    2.250    0.000    5.750 
#    0.000    0.625    0.000    0.750    0.000    0.000 
#    0.000    0.000    0.000    0.000    0.000    0.000 
#
# Total GULP energy -357412.700381 kJ/mol
# GULP energy per Si atom -5584.573443 kJ/mol
# Density = 2.168023 g / cm^3
# Si number density = 21.729688 Si / 1000 Ang^3
#
#
#
# Elastic Constant Matrix: (Units=GPa)
#
#
# Indices 1 2 3 4 5 6 
#
# 1 43.4719 8.8109 -8.9146 0.0000 0.0000 0.0000
# 2 8.8109 143.7976 9.4503 0.0000 0.0000 0.0000
# 3 -8.9146 9.4503 15.3912 0.0000 0.0000 0.0000
# 4 0.0000 0.0000 0.0000 52.0888 0.0000 0.0000
# 5 0.0000 0.0000 0.0000 0.0000 19.3127 0.0000
# 6 0.0000 0.0000 0.0000 0.0000 0.0000 9.3822
#
#
#
# Elastic Compliance Matrix: (Units=1/GPa)
#
#
# Indices 1 2 3 4 5 6 
#
# 1 0.027152 -0.002811 0.017452 0.000000 0.000000 0.000000
# 2 -0.002811 0.007538 -0.006256 0.000000 0.000000 0.000000
# 3 0.017452 -0.006256 0.078922 0.000000 0.000000 0.000000
# 4 0.000000 0.000000 0.000000 0.019198 0.000000 0.000000
# 5 0.000000 0.000000 0.000000 0.000000 0.051779 0.000000
# 6 0.000000 0.000000 0.000000 0.000000 0.000000 0.106585
#
#
# Mechanical properties :
#
#
# Convention : Reuss Voigt Hill
#
# Bulk Modulus (GPa) = 7.66978 24.59490 16.13234
# Shear Modulus (GPa) = 15.73003 29.04433 22.38718
#
# Velocity S-wave (km/s) = 2.69345 3.65995 3.21325
# Velocity P-wave (km/s) = 3.63458 5.40402 4.60509
#
# Compressibility (1/GPa) = 0.13038175
#
# Stress axis : x y z
#
# Youngs Moduli (GPa) = 36.82997 132.66859 12.67079
#
# Poissons Ratio (x) = 0.37288 -0.22113
# Poissons Ratio (y) = 0.10351 0.07927
# Poissons Ratio (z) = -0.64276 0.82998
#
# Static dielectric constant tensor:
#      x y z
#    x 1.832110 0.000000 0.000000 
#    y 0.000000 1.812310 0.000000 
#    z 0.000000 0.000000 1.743130 
# 
# From -- ./inp_files/28215.got.cif
#   From: 2010.05.17/outbox.cif.g08.bks.cpg/sg59_15_cif.got.tgz:28215.got - 2010.06.03 14:40:33.
