data_PCOD9449709
_publ_section_title
;
Structure prediction by ZEFSAII (Michael W. Deem and Ramdas Pophale) SiO2 
 PCOD9449709
Probable space group: P M M N
;
_chemical_formula_sum "Si O2"
_cell_formula_units_Z 64
_cell_length_a 15.698526
_cell_length_b 8.925092
_cell_length_c 23.757799
_cell_angle_alpha 90.000000
_cell_angle_beta 90.000000
_cell_angle_gamma 90.000000
_cell_volume 3328.723958
_symmetry_space_group_name_H-M "P M M N"
_symmetry_group_IT_number 59
_space_group.IT_coordinate_system_code '2'
_symmetry_cell_setting 'orthorhombic'
loop_
_space_group_symop_operation_xyz
x,y,z
1/2-x,1/2-y,z
1/2+x,-y,-z
-x,1/2+y,-z
-x,-y,-z
1/2+x,1/2+y,-z
1/2-x,y,z
x,1/2-y,z
loop_
_atom_site_type_symbol
_atom_site_label
_atom_site_fract_x
_atom_site_fract_y
_atom_site_fract_z
Si Si1 0.517877 0.069840 0.372100
Si Si2 0.658139 0.569800 0.800928
Si Si3 0.652484 0.070140 0.582865
Si Si4 0.593492 0.579578 0.137037
Si Si5 0.651490 0.928506 0.458824
Si Si6 0.024468 0.929854 0.755795
Si Si7 0.097728 0.575955 0.088318
Si Si8 0.151902 0.919515 0.970808
O O1 0.517109 0.250000 0.378623
O O2 0.545329 0.032532 0.308346
O O3 0.422778 0.007098 0.382270
O O4 0.583111 0.996684 0.416099
O O5 0.750000 0.518471 0.778093
O O6 0.657076 0.750000 0.799607
O O7 0.572792 0.518036 0.769083
O O8 0.649411 0.515034 0.865174
O O9 0.750000 0.034117 0.600916
O O10 0.642808 0.250000 0.583621
O O11 0.642895 0.008939 0.519161
O O12 0.619927 0.750000 0.145517
O O13 0.585409 0.497788 0.196722
O O14 0.498537 0.575609 0.110420
O O15 0.646923 0.502668 0.088183
O O16 0.750000 0.951203 0.440099
O O17 0.637771 0.750000 0.465392
O O18 0.025833 0.750000 0.761447
O O19 0.126729 0.750000 0.086734
O O20 0.103677 0.514393 0.024943
O O21 0.250000 0.914364 0.988691
O O22 0.119757 0.750000 0.961477
#
# Coordination Sequence:
#
# PCOD9449709 Si02
#       8
#     8   8   8   8   8   8   8   8
#     4  11  22  36  58  85 113 148 188 232 277 323
#     4   9  17  30  49  73 101 133 169 211 257 305
#     4  10  21  37  58  86 121 156 187 222 266 320
#     4  10  20  34  53  74  97 128 166 211 257 300
#     4  10  21  38  60  85 114 148 186 230 279 329
#     4   9  20  37  54  73 101 140 181 216 255 309
#     4   9  18  32  50  73  99 128 162 200 250 312
#     4  10  20  33  50  72  99 130 162 200 251 312
#
# _framework density 19.226586999999999
#
# number of rings (size 3 to 8) (size 9 to 14) (size 15 to 20)
#    0.000    2.250    0.000    2.625    0.000    5.000 
#    0.000    1.875    0.000    0.750    0.000    0.000 
#    0.000    0.000    0.000    0.000    0.000    0.000 
#
# Total GULP energy -357024.078544 kJ/mol
# GULP energy per Si atom -5578.501227 kJ/mol
# Density = 1.918283 g / cm^3
# Si number density = 19.226587 Si / 1000 Ang^3
#
#
#
# Elastic Constant Matrix: (Units=GPa)
#
#
# Indices 1 2 3 4 5 6 
#
# 1 25.6029 10.3429 6.4288 0.0000 0.0000 0.0000
# 2 10.3429 38.6976 18.1618 0.0000 0.0000 0.0000
# 3 6.4288 18.1618 75.4237 0.0000 0.0000 0.0000
# 4 0.0000 0.0000 0.0000 28.0669 0.0000 0.0000
# 5 0.0000 0.0000 0.0000 0.0000 11.3930 0.0000
# 6 0.0000 0.0000 0.0000 0.0000 0.0000 21.0620
#
#
#
# Elastic Compliance Matrix: (Units=1/GPa)
#
#
# Indices 1 2 3 4 5 6 
#
# 1 0.043857 -0.011237 -0.001032 0.000000 0.000000 0.000000
# 2 -0.011237 0.032013 -0.006751 0.000000 0.000000 0.000000
# 3 -0.001032 -0.006751 0.014972 0.000000 0.000000 0.000000
# 4 0.000000 0.000000 0.000000 0.035629 0.000000 0.000000
# 5 0.000000 0.000000 0.000000 0.000000 0.087773 0.000000
# 6 0.000000 0.000000 0.000000 0.000000 0.000000 0.047479
#
#
# Mechanical properties :
#
#
# Convention : Reuss Voigt Hill
#
# Bulk Modulus (GPa) = 18.93900 23.28791 21.11346
# Shear Modulus (GPa) = 15.75474 19.09043 17.42258
#
# Velocity S-wave (km/s) = 2.86567 3.15448 3.01353
# Velocity P-wave (km/s) = 4.56302 5.04047 4.80768
#
# Compressibility (1/GPa) = 0.05280111
#
# Stress axis : x y z
#
# Youngs Moduli (GPa) = 22.80146 31.23715 66.79134
#
# Poissons Ratio (x) = 0.35102 0.06895
# Poissons Ratio (y) = 0.25623 0.45090
# Poissons Ratio (z) = 0.02354 0.21088
#
# Static dielectric constant tensor:
#      x y z
#    x 1.694140 0.000000 0.000000 
#    y 0.000000 1.659960 0.000000 
#    z 0.000000 0.000000 1.656820 
# 
# From -- ./inp_files/30663.got.cif
#   From: 2010.05.17/outbox.cif.g08.bks.cpg/sg59_16_cif.got.tgz:30663.got - 2010.06.03 14:40:33.
