data_PCOD9449946
_publ_section_title
;
Structure prediction by ZEFSAII (Michael W. Deem and Ramdas Pophale) SiO2 
 PCOD9449946
Probable space group: P M M N
;
_chemical_formula_sum "Si O2"
_cell_formula_units_Z 48
_cell_length_a 14.458022
_cell_length_b 7.709323
_cell_length_c 21.272033
_cell_angle_alpha 90.000000
_cell_angle_beta 90.000000
_cell_angle_gamma 90.000000
_cell_volume 2371.014015
_symmetry_space_group_name_H-M "P M M N"
_symmetry_group_IT_number 59
_space_group.IT_coordinate_system_code '2'
_symmetry_cell_setting 'orthorhombic'
loop_
_space_group_symop_operation_xyz
x,y,z
1/2-x,1/2-y,z
1/2+x,-y,-z
-x,1/2+y,-z
-x,-y,-z
1/2+x,1/2+y,-z
1/2-x,y,z
x,1/2-y,z
loop_
_atom_site_type_symbol
_atom_site_label
_atom_site_fract_x
_atom_site_fract_y
_atom_site_fract_z
Si Si1 0.545026 0.956711 0.089337
Si Si2 0.146745 0.545661 0.036220
Si Si3 0.644698 0.040472 0.218063
Si Si4 0.848306 0.962533 0.614090
Si Si5 0.603659 0.544752 0.478794
Si Si6 0.550118 0.455411 0.344679
O O1 0.542962 0.750000 0.080070
O O2 0.441023 0.025140 0.075554
O O3 0.583018 0.995320 0.158048
O O4 0.614147 0.028357 0.036121
O O5 0.250000 0.471579 0.045383
O O6 0.152596 0.750000 0.050818
O O7 0.750000 0.977421 0.210511
O O8 0.648629 0.250000 0.221756
O O9 0.599396 0.974164 0.282771
O O10 0.750000 0.012470 0.644318
O O11 0.852325 0.750000 0.613950
O O12 0.844711 0.018613 0.540946
O O13 0.945699 0.024543 0.643005
O O14 0.500000 0.500000 0.500000
O O15 0.618119 0.750000 0.474894
O O16 0.610975 0.477279 0.407990
O O17 0.539200 0.250000 0.335584
#
# Coordination Sequence:
#
# PCOD9449946 Si02
#       6
#     8   8   8   8   8   8
#     4  10  20  33  52  79 105 129 165 209 242 279
#     4   9  18  34  55  77 104 137 165 194 243 297
#     4  10  21  36  51  68  97 136 169 199 246 303
#     4   8  14  26  45  67  89 114 147 190 239 285
#     4   9  16  27  45  67  91 119 151 191 239 287
#     4   9  18  32  48  66  90 122 160 198 235 283
#
# _framework density 20.244502000000001
#
# number of rings (size 3 to 8) (size 9 to 14) (size 15 to 20)
#    0.000    2.833    0.000    2.500    0.000    4.667 
#    0.000    0.833    0.000   13.000    0.000    0.000 
#    0.000    0.000    0.000    0.000    0.000    0.000 
#
# Total GULP energy -267357.593223 kJ/mol
# GULP energy per Si atom -5569.949859 kJ/mol
# Density = 2.019842 g / cm^3
# Si number density = 20.244502 Si / 1000 Ang^3
#
#
#
# Elastic Constant Matrix: (Units=GPa)
#
#
# Indices 1 2 3 4 5 6 
#
# 1 149.6522 9.0616 61.9746 0.0000 0.0000 0.0000
# 2 9.0616 27.7916 -4.7449 0.0000 0.0000 0.0000
# 3 61.9746 -4.7449 131.1521 0.0000 0.0000 0.0000
# 4 0.0000 0.0000 0.0000 22.0433 0.0000 0.0000
# 5 0.0000 0.0000 0.0000 0.0000 16.5372 0.0000
# 6 0.0000 0.0000 0.0000 0.0000 0.0000 7.4171
#
#
#
# Elastic Compliance Matrix: (Units=1/GPa)
#
#
# Indices 1 2 3 4 5 6 
#
# 1 0.008640 -0.003536 -0.004211 0.000000 0.000000 0.000000
# 2 -0.003536 0.037653 0.003033 0.000000 0.000000 0.000000
# 3 -0.004211 0.003033 0.009724 0.000000 0.000000 0.000000
# 4 0.000000 0.000000 0.000000 0.045365 0.000000 0.000000
# 5 0.000000 0.000000 0.000000 0.000000 0.060470 0.000000
# 6 0.000000 0.000000 0.000000 0.000000 0.000000 0.134824
#
#
# Mechanical properties :
#
#
# Convention : Reuss Voigt Hill
#
# Bulk Modulus (GPa) = 21.46385 49.01984 35.24185
# Shear Modulus (GPa) = 15.54566 25.35316 20.44941
#
# Velocity S-wave (km/s) = 2.77410 3.54269 3.18169
# Velocity P-wave (km/s) = 4.57014 6.40318 5.56268
#
# Compressibility (1/GPa) = 0.04658996
#
# Stress axis : x y z
#
# Youngs Moduli (GPa) = 115.74051 26.55838 102.83644
#
# Poissons Ratio (x) = 0.09391 0.43301
# Poissons Ratio (y) = 0.40926 -0.31192
# Poissons Ratio (z) = 0.48735 -0.08056
#
# Static dielectric constant tensor:
#      x y z
#    x 1.775130 0.000000 0.000000 
#    y 0.000000 1.756460 0.000000 
#    z 0.000000 0.000000 1.691180 
# 
# From -- ./inp_files/28841.got.cif
#   From: 2010.05.17/outbox.cif.g08.bks.cpg/sg59_15_cif.got.tgz:28841.got - 2010.06.03 14:40:33.
