data_PCOD9449048
_publ_section_title
;
Structure prediction by ZEFSAII (Michael W. Deem and Ramdas Pophale) SiO2 
 PCOD9449048
Probable space group: P M M N
;
_chemical_formula_sum "Si O2"
_cell_formula_units_Z 56
_cell_length_a 8.812833
_cell_length_b 19.503129
_cell_length_c 18.337427
_cell_angle_alpha 90.000000
_cell_angle_beta 90.000000
_cell_angle_gamma 90.000000
_cell_volume 3151.796956
_symmetry_space_group_name_H-M "P M M N"
_symmetry_group_IT_number 59
_space_group.IT_coordinate_system_code '2'
_symmetry_cell_setting 'orthorhombic'
loop_
_space_group_symop_operation_xyz
x,y,z
1/2-x,1/2-y,z
1/2+x,-y,-z
-x,1/2+y,-z
-x,-y,-z
1/2+x,1/2+y,-z
1/2-x,y,z
x,1/2-y,z
loop_
_atom_site_type_symbol
_atom_site_label
_atom_site_fract_x
_atom_site_fract_y
_atom_site_fract_z
Si Si1 0.931329 0.169312 0.368938
Si Si2 0.933181 0.430519 0.966464
Si Si3 0.433193 0.829828 0.324807
Si Si4 0.432103 0.090154 0.232312
Si Si5 0.933079 0.329521 0.094821
Si Si6 0.075310 0.333267 0.522070
Si Si7 0.434675 0.565765 0.200203
O O1 0.750000 0.164938 0.365843
O O2 0.973196 0.250000 0.359337
O O3 0.003771 0.124985 0.304910
O O4 0.989147 0.146273 0.448466
O O5 0.750000 0.436203 0.965999
O O6 0.984242 0.421401 0.882971
O O7 0.974122 0.368345 0.020116
O O8 0.000000 0.500000 0.000000
O O9 0.250000 0.832111 0.328728
O O10 0.476614 0.750000 0.313855
O O11 0.498564 0.854621 0.402211
O O12 0.485034 0.877494 0.258301
O O13 0.250000 0.092737 0.233307
O O14 0.492836 0.131400 0.162496
O O15 0.479581 0.010773 0.224090
O O16 0.750000 0.332909 0.102647
O O17 0.977310 0.250000 0.093857
O O18 0.250000 0.355073 0.519071
O O19 0.071285 0.250000 0.522807
O O20 0.250000 0.567605 0.199918
#
# Coordination Sequence:
#
# PCOD9449048 Si02
#       7
#     8   8   8   8   8   8   8
#     4  10  20  34  53  77 105 137 177 221 261 308
#     4  10  19  35  56  76 103 139 178 218 263 314
#     4   9  17  32  55  79 103 134 173 217 264 312
#     4  11  21  34  52  75 107 143 177 215 262 315
#     4  10  21  35  53  79 108 138 176 222 267 312
#     4   9  17  31  52  78 107 137 171 213 263 315
#     4   9  19  34  53  78 106 136 174 217 261 313
#
# _framework density 17.767644000000001
#
# number of rings (size 3 to 8) (size 9 to 14) (size 15 to 20)
#    0.000    2.286    1.429    1.714    0.000    5.143 
#    0.000    5.714    0.000    0.000    0.000    2.000 
#    0.000    0.000    0.000    0.000    0.000    0.000 
#
# Total GULP energy -312449.627844 kJ/mol
# GULP energy per Si atom -5579.457640 kJ/mol
# Density = 1.772720 g / cm^3
# Si number density = 17.767644 Si / 1000 Ang^3
#
#
#
# Elastic Constant Matrix: (Units=GPa)
#
#
# Indices 1 2 3 4 5 6 
#
# 1 25.7143 34.3512 43.8217 0.0000 0.0000 0.0000
# 2 34.3512 114.4199 96.7170 0.0000 0.0000 0.0000
# 3 43.8217 96.7170 208.6734 0.0000 0.0000 0.0000
# 4 0.0000 0.0000 0.0000 25.5372 0.0000 0.0000
# 5 0.0000 0.0000 0.0000 0.0000 24.1237 0.0000
# 6 0.0000 0.0000 0.0000 0.0000 0.0000 17.2760
#
#
#
# Elastic Compliance Matrix: (Units=1/GPa)
#
#
# Indices 1 2 3 4 5 6 
#
# 1 0.073105 -0.014749 -0.008516 0.000000 0.000000 0.000000
# 2 -0.014749 0.017345 -0.004942 0.000000 0.000000 0.000000
# 3 -0.008516 -0.004942 0.008871 0.000000 0.000000 0.000000
# 4 0.000000 0.000000 0.000000 0.039159 0.000000 0.000000
# 5 0.000000 0.000000 0.000000 0.000000 0.041453 0.000000
# 6 0.000000 0.000000 0.000000 0.000000 0.000000 0.057884
#
#
# Mechanical properties :
#
#
# Convention : Reuss Voigt Hill
#
# Bulk Modulus (GPa) = 23.30638 77.62083 50.46361
# Shear Modulus (GPa) = 16.20579 24.98189 20.59384
#
# Velocity S-wave (km/s) = 3.02337 3.75378 3.40820
# Velocity P-wave (km/s) = 5.03324 7.91007 6.62958
#
# Compressibility (1/GPa) = 0.04290670
#
# Stress axis : x y z
#
# Youngs Moduli (GPa) = 13.67904 57.65394 112.72644
#
# Poissons Ratio (x) = 0.85033 0.96000
# Poissons Ratio (y) = 0.20175 0.55707
# Poissons Ratio (z) = 0.11649 0.28491
#
# Static dielectric constant tensor:
#      x y z
#    x 1.601400 0.000000 0.000000 
#    y 0.000000 1.591260 0.000000 
#    z 0.000000 0.000000 1.590130 
# 
# From -- ./inp_files/21080.got.cif
#   From: 2010.05.17/outbox.cif.g08.bks.cpg/sg59_11_cif.got.tgz:21080.got - 2010.06.03 14:40:33.
