data_PCOD9449326
_publ_section_title
;
Structure prediction by ZEFSAII (Michael W. Deem and Ramdas Pophale) SiO2 
 PCOD9449326
Probable space group: P M M N
;
_chemical_formula_sum "Si O2"
_cell_formula_units_Z 40
_cell_length_a 15.553387
_cell_length_b 7.638643
_cell_length_c 15.735357
_cell_angle_alpha 90.000000
_cell_angle_beta 90.000000
_cell_angle_gamma 90.000000
_cell_volume 1869.466952
_symmetry_space_group_name_H-M "P M M N"
_symmetry_group_IT_number 59
_space_group.IT_coordinate_system_code '2'
_symmetry_cell_setting 'orthorhombic'
loop_
_space_group_symop_operation_xyz
x,y,z
1/2-x,1/2-y,z
1/2+x,-y,-z
-x,1/2+y,-z
-x,-y,-z
1/2+x,1/2+y,-z
1/2-x,y,z
x,1/2-y,z
loop_
_atom_site_type_symbol
_atom_site_label
_atom_site_fract_x
_atom_site_fract_y
_atom_site_fract_z
Si Si1 0.570000 0.960343 0.071348
Si Si2 0.250000 0.035133 0.661068
Si Si3 0.750000 0.957413 0.001727
Si Si4 0.250000 0.042888 0.467979
Si Si5 0.250000 0.962216 0.196023
Si Si6 0.109748 0.959433 0.329771
Si Si7 0.432426 0.035778 0.736428
O O1 0.575126 0.750000 0.076039
O O2 0.549470 0.020236 0.166689
O O3 0.662583 0.029894 0.041510
O O4 0.500000 0.000000 0.000000
O O5 0.250000 0.250000 0.662259
O O6 0.250000 0.973174 0.563472
O O7 0.338140 0.979131 0.706409
O O8 0.750000 0.750000 0.019928
O O9 0.750000 0.979689 0.900580
O O10 0.250000 0.250000 0.475237
O O11 0.165620 0.995534 0.413423
O O12 0.250000 0.750000 0.196012
O O13 0.167117 0.022395 0.249863
O O14 0.106277 0.750000 0.322207
O O15 0.012098 0.023248 0.322233
O O16 0.431069 0.250000 0.734663
#
# Coordination Sequence:
#
# PCOD9449326 Si02
#       7
#     8   4   4   4   4   8   8
#     4  10  20  34  52  75 102 132 168 208 247 289
#     4   9  18  32  52  78 103 128 166 209 245 291
#     4  10  20  31  47  73 102 130 162 205 254 294
#     4  10  20  33  51  78 105 126 155 204 258 298
#     4   9  17  30  48  71  98 130 169 206 241 289
#     4   9  18  33  53  74  97 129 168 204 242 295
#     4   9  17  32  53  73  97 133 171 204 241 291
#
# _framework density 21.396474000000001
#
# number of rings (size 3 to 8) (size 9 to 14) (size 15 to 20)
#    0.000    2.600    0.000    2.700    0.000    7.200 
#    0.000    1.000    0.000    3.600    0.000    0.000 
#    0.000    0.000    0.000    0.000    0.000    0.000 
#
# Total GULP energy -223303.708154 kJ/mol
# GULP energy per Si atom -5582.592704 kJ/mol
# Density = 2.134777 g / cm^3
# Si number density = 21.396474 Si / 1000 Ang^3
#
#
#
# Elastic Constant Matrix: (Units=GPa)
#
#
# Indices 1 2 3 4 5 6 
#
# 1 199.2966 9.8003 78.2422 0.0000 0.0000 0.0000
# 2 9.8003 36.6481 -2.4052 0.0000 0.0000 0.0000
# 3 78.2422 -2.4052 132.2666 0.0000 0.0000 0.0000
# 4 0.0000 0.0000 0.0000 17.7888 0.0000 0.0000
# 5 0.0000 0.0000 0.0000 0.0000 10.4329 0.0000
# 6 0.0000 0.0000 0.0000 0.0000 0.0000 5.2608
#
#
#
# Elastic Compliance Matrix: (Units=1/GPa)
#
#
# Indices 1 2 3 4 5 6 
#
# 1 0.006686 -0.002050 -0.003992 0.000000 0.000000 0.000000
# 2 -0.002050 0.027948 0.001721 0.000000 0.000000 0.000000
# 3 -0.003992 0.001721 0.009953 0.000000 0.000000 0.000000
# 4 0.000000 0.000000 0.000000 0.056215 0.000000 0.000000
# 5 0.000000 0.000000 0.000000 0.000000 0.095851 0.000000
# 6 0.000000 0.000000 0.000000 0.000000 0.000000 0.190084
#
#
# Mechanical properties :
#
#
# Convention : Reuss Voigt Hill
#
# Bulk Modulus (GPa) = 27.82087 59.94288 43.88188
# Shear Modulus (GPa) = 12.27411 25.53476 18.90444
#
# Velocity S-wave (km/s) = 2.39770 3.45832 2.97565
# Velocity P-wave (km/s) = 4.54929 6.63497 5.68854
#
# Compressibility (1/GPa) = 0.03594423
#
# Stress axis : x y z
#
# Youngs Moduli (GPa) = 149.57145 35.78114 100.46838
#
# Poissons Ratio (x) = 0.07335 0.40109
# Poissons Ratio (y) = 0.30661 -0.17289
# Poissons Ratio (z) = 0.59712 -0.06157
#
# Static dielectric constant tensor:
#      x y z
#    x 1.727500 0.000000 0.000000 
#    y 0.000000 1.806110 0.000000 
#    z 0.000000 0.000000 1.741510 
# 
# From -- ./inp_files/20066.got.cif
#   From: 2010.05.17/outbox.cif.g08.bks.cpg/sg59_11_cif.got.tgz:20066.got - 2010.06.03 14:40:33.
