data_PCOD9449605
_publ_section_title
;
Structure prediction by ZEFSAII (Michael W. Deem and Ramdas Pophale) SiO2 
 PCOD9449605
Probable space group: P M M N
;
_chemical_formula_sum "Si O2"
_cell_formula_units_Z 56
_cell_length_a 16.751224
_cell_length_b 7.379943
_cell_length_c 20.088654
_cell_angle_alpha 90.000000
_cell_angle_beta 90.000000
_cell_angle_gamma 90.000000
_cell_volume 2483.421246
_symmetry_space_group_name_H-M "P M M N"
_symmetry_group_IT_number 59
_space_group.IT_coordinate_system_code '2'
_symmetry_cell_setting 'orthorhombic'
loop_
_space_group_symop_operation_xyz
x,y,z
1/2-x,1/2-y,z
1/2+x,-y,-z
-x,1/2+y,-z
-x,-y,-z
1/2+x,1/2+y,-z
1/2-x,y,z
x,1/2-y,z
loop_
_atom_site_type_symbol
_atom_site_label
_atom_site_fract_x
_atom_site_fract_y
_atom_site_fract_z
Si Si1 0.410581 0.466531 0.974401
Si Si2 0.656858 0.970591 0.430209
Si Si3 0.250000 0.031977 0.050317
Si Si4 0.250000 0.965400 0.207420
Si Si5 0.580509 0.527698 0.293271
Si Si6 0.655835 0.968021 0.576574
Si Si7 0.160611 0.470401 0.840292
Si Si8 0.594745 0.456581 0.719689
O O1 0.402377 0.250000 0.973803
O O2 0.398586 0.530649 0.898464
O O3 0.500000 0.500000 0.000000
O O4 0.333518 0.533168 0.016972
O O5 0.750000 0.022501 0.423454
O O6 0.655783 0.750000 0.430699
O O7 0.607917 0.032129 0.366251
O O8 0.627460 0.028078 0.503401
O O9 0.250000 0.250000 0.043151
O O10 0.250000 0.990103 0.128647
O O11 0.250000 0.750000 0.222640
O O12 0.330204 0.039694 0.241834
O O13 0.579476 0.750000 0.295631
O O14 0.638849 0.472412 0.233968
O O15 0.492616 0.462510 0.273779
O O16 0.750000 0.012073 0.580761
O O17 0.648850 0.750000 0.580033
O O18 0.613539 0.044898 0.641123
O O19 0.250000 0.524826 0.858676
O O20 0.158884 0.250000 0.839160
O O21 0.587784 0.250000 0.744471
#
# Coordination Sequence:
#
# PCOD9449605 Si02
#       8
#     8   8   4   4   8   8   8   8
#     4  10  21  37  58  85 115 144 180 224 269 322
#     4   8  14  26  44  69  98 126 162 208 251 298
#     4  10  22  40  58  82 113 146 184 226 271 322
#     4  10  22  36  52  74 103 138 176 216 263 314
#     4   9  17  27  45  73 101 128 163 209 258 300
#     4   9  17  30  49  69  94 131 170 205 248 303
#     4   9  16  30  53  76 101 135 171 209 255 308
#     4  10  20  33  48  72 102 130 166 212 256 305
#
# _framework density 22.549537999999998
#
# number of rings (size 3 to 8) (size 9 to 14) (size 15 to 20)
#    0.000    2.714    1.429    1.286    2.000    3.429 
#    0.000    0.000    0.000    0.000    0.000    0.000 
#    0.000    3.429    0.000    0.000    0.000    0.000 
#
# Total GULP energy -312628.187779 kJ/mol
# GULP energy per Si atom -5582.646210 kJ/mol
# Density = 2.249821 g / cm^3
# Si number density = 22.549538 Si / 1000 Ang^3
#
#
#
# Elastic Constant Matrix: (Units=GPa)
#
#
# Indices 1 2 3 4 5 6 
#
# 1 87.7874 -2.9766 30.9121 0.0000 0.0000 0.0000
# 2 -2.9766 75.1350 -11.3525 0.0000 0.0000 0.0000
# 3 30.9121 -11.3525 106.4596 0.0000 0.0000 0.0000
# 4 0.0000 0.0000 0.0000 -27.8567 0.0000 0.0000
# 5 0.0000 0.0000 0.0000 0.0000 -245.6934 0.0000
# 6 0.0000 0.0000 0.0000 0.0000 0.0000 -14.7862
#
#
#
# Elastic Compliance Matrix: (Units=1/GPa)
#
#
# Indices 1 2 3 4 5 6 
#
# 1 0.012689 -0.000055 -0.003690 0.000000 0.000000 0.000000
# 2 -0.000055 0.013528 0.001458 0.000000 0.000000 0.000000
# 3 -0.003690 0.001458 0.010620 0.000000 0.000000 0.000000
# 4 0.000000 0.000000 0.000000 -0.035898 0.000000 0.000000
# 5 0.000000 0.000000 0.000000 0.000000 -0.004070 0.000000
# 6 0.000000 0.000000 0.000000 0.000000 0.000000 -0.067631
#
#
# Mechanical properties :
#
#
# Convention : Reuss Voigt Hill
#
# Bulk Modulus (GPa) = 30.99495 33.61644 32.30570
# Shear Modulus (GPa) = -90.19640 -40.81398 -65.50519
#
# Velocity S-wave (km/s) = -6.33136 -4.25899 -5.39560
# Velocity P-wave (km/s) = 6.29865 3.04058 4.94561
#
# Compressibility (1/GPa) = 0.03226332
#
# Stress axis : x y z
#
# Youngs Moduli (GPa) = 78.81028 73.92308 94.15958
#
# Poissons Ratio (x) = 0.00406 0.34747
# Poissons Ratio (y) = 0.00433 -0.13733
# Poissons Ratio (z) = 0.29083 -0.10782
#
# Static dielectric constant tensor:
#      x y z
#    x 1.816150 0.000000 0.000000 
#    y 0.000000 1.874490 0.000000 
#    z 0.000000 0.000000 1.793830 
# 
# From -- ./inp_files/30505.got.cif
#   From: 2010.05.17/outbox.cif.g08.bks.cpg/sg59_16_cif.got.tgz:30505.got - 2010.06.03 14:40:33.
