data_PCOD9449050
_publ_section_title
;
Structure prediction by ZEFSAII (Michael W. Deem and Ramdas Pophale) SiO2 
 PCOD9449050
Probable space group: P M M N
;
_chemical_formula_sum "Si O2"
_cell_formula_units_Z 64
_cell_length_a 7.543235
_cell_length_b 19.078519
_cell_length_c 20.413629
_cell_angle_alpha 90.000000
_cell_angle_beta 90.000000
_cell_angle_gamma 90.000000
_cell_volume 2937.801947
_symmetry_space_group_name_H-M "P M M N"
_symmetry_group_IT_number 59
_space_group.IT_coordinate_system_code '2'
_symmetry_cell_setting 'orthorhombic'
loop_
_space_group_symop_operation_xyz
x,y,z
1/2-x,1/2-y,z
1/2+x,-y,-z
-x,1/2+y,-z
-x,-y,-z
1/2+x,1/2+y,-z
1/2-x,y,z
x,1/2-y,z
loop_
_atom_site_type_symbol
_atom_site_label
_atom_site_fract_x
_atom_site_fract_y
_atom_site_fract_z
Si Si1 0.039213 0.672139 0.022600
Si Si2 0.953396 0.064638 0.082145
Si Si3 0.963098 0.169742 0.456544
Si Si4 0.035975 0.079531 0.860683
Si Si5 0.958866 0.828901 0.806839
Si Si6 0.038392 0.170358 0.603744
Si Si7 0.035737 0.904484 0.673936
Si Si8 0.032697 0.439304 0.711917
O O1 0.250000 0.675287 0.009507
O O2 0.967154 0.750000 0.010701
O O3 0.012900 0.646649 0.096608
O O4 0.963844 0.612017 0.974920
O O5 0.750000 0.050139 0.062752
O O6 0.954136 0.113520 0.146492
O O7 0.033125 0.990019 0.101893
O O8 0.750000 0.172047 0.451912
O O9 0.028738 0.250000 0.450323
O O10 0.027828 0.122733 0.396485
O O11 0.006707 0.144764 0.529639
O O12 0.250000 0.074804 0.858766
O O13 0.975571 0.078637 0.785655
O O14 0.750000 0.829780 0.821556
O O15 0.026221 0.750000 0.818195
O O16 0.984200 0.851602 0.731821
O O17 0.250000 0.174454 0.612336
O O18 0.967536 0.250000 0.608860
O O19 0.971558 0.117399 0.658778
O O20 0.250000 0.906251 0.672404
O O21 0.975130 0.982486 0.692386
O O22 0.250000 0.439475 0.711520
#
# Coordination Sequence:
#
# PCOD9449050 Si02
#       8
#     8   8   8   8   8   8   8   8
#     4  10  22  38  56  82 114 146 183 226 273 329
#     4  10  20  38  61  82 107 146 187 222 268 329
#     4   9  18  32  51  76 104 137 179 223 268 321
#     4  10  20  36  59  84 109 142 185 231 275 322
#     4  11  23  35  51  81 116 145 178 223 270 318
#     4   9  18  33  53  75 103 141 178 219 274 324
#     4  10  19  35  56  76 105 144 183 223 266 322
#     4   9  18  34  55  80 106 135 181 228 265 321
#
# _framework density 21.784994000000001
#
# number of rings (size 3 to 8) (size 9 to 14) (size 15 to 20)
#    0.000    2.250    1.250    1.500    0.000    4.750 
#    0.000    3.750    0.000    1.500    0.000    0.000 
#    0.000    0.000    0.000    0.000    0.000    0.000 
#
# Total GULP energy -357571.402773 kJ/mol
# GULP energy per Si atom -5587.053168 kJ/mol
# Density = 2.173541 g / cm^3
# Si number density = 21.784994 Si / 1000 Ang^3
#
#
#
# Elastic Constant Matrix: (Units=GPa)
#
#
# Indices 1 2 3 4 5 6 
#
# 1 55.9342 -4.1997 -5.3939 0.0000 0.0000 0.0000
# 2 -4.1997 42.3405 31.6972 0.0000 0.0000 0.0000
# 3 -5.3939 31.6972 124.4614 0.0000 0.0000 0.0000
# 4 0.0000 0.0000 0.0000 44.2863 0.0000 0.0000
# 5 0.0000 0.0000 0.0000 0.0000 26.5074 0.0000
# 6 0.0000 0.0000 0.0000 0.0000 0.0000 8.8120
#
#
#
# Elastic Compliance Matrix: (Units=1/GPa)
#
#
# Indices 1 2 3 4 5 6 
#
# 1 0.018029 0.001487 0.000403 0.000000 0.000000 0.000000
# 2 0.001487 0.029304 -0.007399 0.000000 0.000000 0.000000
# 3 0.000403 -0.007399 0.009936 0.000000 0.000000 0.000000
# 4 0.000000 0.000000 0.000000 0.022580 0.000000 0.000000
# 5 0.000000 0.000000 0.000000 0.000000 0.037725 0.000000
# 6 0.000000 0.000000 0.000000 0.000000 0.000000 0.113481
#
#
# Mechanical properties :
#
#
# Convention : Reuss Voigt Hill
#
# Bulk Modulus (GPa) = 21.62118 29.66035 25.64076
# Shear Modulus (GPa) = 19.41810 29.29663 24.35737
#
# Velocity S-wave (km/s) = 2.98879 3.67114 3.34740
# Velocity P-wave (km/s) = 4.67513 5.62266 5.17064
#
# Compressibility (1/GPa) = 0.04625095
#
# Stress axis : x y z
#
# Youngs Moduli (GPa) = 55.46733 34.12464 100.64081
#
# Poissons Ratio (x) = -0.05074 -0.04053
# Poissons Ratio (y) = -0.08247 0.74461
# Poissons Ratio (z) = -0.02234 0.25248
#
# Static dielectric constant tensor:
#      x y z
#    x 1.835940 0.000000 0.000000 
#    y 0.000000 1.777570 0.000000 
#    z 0.000000 0.000000 1.767100 
# 
# From -- ./inp_files/29439.got.cif
#   From: 2010.05.17/outbox.cif.g08.bks.cpg/sg59_15_cif.got.tgz:29439.got - 2010.06.03 14:40:33.
