data_PCOD9449973
_publ_section_title
;
Structure prediction by ZEFSAII (Michael W. Deem and Ramdas Pophale) SiO2 
 PCOD9449973
Probable space group: P M M N
;
_chemical_formula_sum "Si O2"
_cell_formula_units_Z 64
_cell_length_a 14.223116
_cell_length_b 8.985272
_cell_length_c 26.594374
_cell_angle_alpha 90.000000
_cell_angle_beta 90.000000
_cell_angle_gamma 90.000000
_cell_volume 3398.722859
_symmetry_space_group_name_H-M "P M M N"
_symmetry_group_IT_number 59
_space_group.IT_coordinate_system_code '2'
_symmetry_cell_setting 'orthorhombic'
loop_
_space_group_symop_operation_xyz
x,y,z
1/2-x,1/2-y,z
1/2+x,-y,-z
-x,1/2+y,-z
-x,-y,-z
1/2+x,1/2+y,-z
1/2-x,y,z
x,1/2-y,z
loop_
_atom_site_type_symbol
_atom_site_label
_atom_site_fract_x
_atom_site_fract_y
_atom_site_fract_z
Si Si1 0.859843 0.070549 0.721687
Si Si2 0.635366 0.079191 0.020103
Si Si3 0.858792 0.429662 0.133483
Si Si4 0.358333 0.069301 0.470137
Si Si5 0.861402 0.572500 0.416689
Si Si6 0.363768 0.078671 0.081532
Si Si7 0.469575 0.071653 0.371038
Si Si8 0.036397 0.572420 0.175010
O O1 0.750000 0.027828 0.721541
O O2 0.864722 0.250000 0.716863
O O3 0.908601 0.029246 0.774384
O O4 0.914819 0.995936 0.675908
O O5 0.750000 0.081422 0.019589
O O6 0.604229 0.250000 0.013427
O O7 0.605084 0.980575 0.973092
O O8 0.611752 0.026794 0.076348
O O9 0.750000 0.473549 0.141676
O O10 0.862471 0.250000 0.135261
O O11 0.933400 0.500239 0.170962
O O12 0.250000 0.025491 0.462126
O O13 0.360912 0.250000 0.471357
O O14 0.385976 0.020181 0.526277
O O15 0.418807 0.020372 0.422783
O O16 0.750000 0.549449 0.410327
O O17 0.878729 0.750000 0.413565
O O18 0.924793 0.487629 0.376782
O O19 0.250000 0.070446 0.083076
O O20 0.392209 0.250000 0.087873
O O21 0.405785 0.983619 0.126713
O O22 0.467060 0.250000 0.368782
O O23 0.028726 0.750000 0.173695
#
# Coordination Sequence:
#
# PCOD9449973 Si02
#       8
#     8   8   8   8   8   8   8   8
#     4  10  23  43  62  80 106 141 182 225 268 321
#     4   8  15  30  52  77 107 143 178 213 259 317
#     4   9  19  37  59  82 110 142 176 219 270 321
#     4   8  15  29  50  79 114 149 184 222 268 323
#     4   9  18  34  55  78 111 155 193 224 263 316
#     4  10  20  33  52  80 112 144 179 221 269 322
#     4  11  21  33  55  85 114 144 181 229 281 327
#     4  11  23  38  58  81 105 139 182 226 272 322
#
# _framework density 18.830604000000001
#
# number of rings (size 3 to 8) (size 9 to 14) (size 15 to 20)
#    0.000    2.500    0.000    3.750    0.000    4.500 
#    0.000    2.500    0.000    2.250    0.000    0.000 
#    0.000    0.000    0.000    0.000    0.000    0.000 
#
# Total GULP energy -357299.131345 kJ/mol
# GULP energy per Si atom -5582.798927 kJ/mol
# Density = 1.878774 g / cm^3
# Si number density = 18.830604 Si / 1000 Ang^3
#
#
#
# Elastic Constant Matrix: (Units=GPa)
#
#
# Indices 1 2 3 4 5 6 
#
# 1 93.9794 40.1533 79.0755 0.0000 0.0000 0.0000
# 2 40.1533 32.1623 46.1171 0.0000 0.0000 0.0000
# 3 79.0755 46.1171 117.6036 0.0000 0.0000 0.0000
# 4 0.0000 0.0000 0.0000 29.0778 0.0000 0.0000
# 5 0.0000 0.0000 0.0000 0.0000 35.7271 0.0000
# 6 0.0000 0.0000 0.0000 0.0000 0.0000 27.8884
#
#
#
# Elastic Compliance Matrix: (Units=1/GPa)
#
#
# Indices 1 2 3 4 5 6 
#
# 1 0.028678 -0.018628 -0.011978 0.000000 0.000000 0.000000
# 2 -0.018628 0.083133 -0.020074 0.000000 0.000000 0.000000
# 3 -0.011978 -0.020074 0.024429 0.000000 0.000000 0.000000
# 4 0.000000 0.000000 0.000000 0.034391 0.000000 0.000000
# 5 0.000000 0.000000 0.000000 0.000000 0.027990 0.000000
# 6 0.000000 0.000000 0.000000 0.000000 0.000000 0.035857
#
#
# Mechanical properties :
#
#
# Convention : Reuss Voigt Hill
#
# Bulk Modulus (GPa) = 28.67051 63.82634 46.24843
# Shear Modulus (GPa) = 14.38989 23.76529 19.07759
#
# Velocity S-wave (km/s) = 2.76737 3.55640 3.18640
# Velocity P-wave (km/s) = 5.04675 7.12969 6.17666
#
# Compressibility (1/GPa) = 0.03487904
#
# Stress axis : x y z
#
# Youngs Moduli (GPa) = 34.86972 12.02885 40.93501
#
# Poissons Ratio (x) = 0.22408 0.49032
# Poissons Ratio (y) = 0.64957 0.82174
# Poissons Ratio (z) = 0.41767 0.24147
#
# Static dielectric constant tensor:
#      x y z
#    x 1.680040 0.000000 0.000000 
#    y 0.000000 1.625590 0.000000 
#    z 0.000000 0.000000 1.631940 
# 
# From -- ./inp_files/32132.got.cif
#   From: 2010.05.17/outbox.cif.g08.bks.cpg/sg59_17_cif.got.tgz:32132.got - 2010.06.03 14:40:33.
