data_PCOD9449530
_publ_section_title
;
Structure prediction by ZEFSAII (Michael W. Deem and Ramdas Pophale) SiO2 
 PCOD9449530
Probable space group: P M M N
;
_chemical_formula_sum "Si O2"
_cell_formula_units_Z 56
_cell_length_a 19.442118
_cell_length_b 8.528373
_cell_length_c 15.987508
_cell_angle_alpha 90.000000
_cell_angle_beta 90.000000
_cell_angle_gamma 90.000000
_cell_volume 2650.882853
_symmetry_space_group_name_H-M "P M M N"
_symmetry_group_IT_number 59
_space_group.IT_coordinate_system_code '2'
_symmetry_cell_setting 'orthorhombic'
loop_
_space_group_symop_operation_xyz
x,y,z
1/2-x,1/2-y,z
1/2+x,-y,-z
-x,1/2+y,-z
-x,-y,-z
1/2+x,1/2+y,-z
1/2-x,y,z
x,1/2-y,z
loop_
_atom_site_type_symbol
_atom_site_label
_atom_site_fract_x
_atom_site_fract_y
_atom_site_fract_z
Si Si1 0.990409 0.935317 0.143311
Si Si2 0.670173 0.924989 0.873421
Si Si3 0.669868 0.939817 0.408413
Si Si4 0.667431 0.425348 0.704442
Si Si5 0.458267 0.562157 0.676453
Si Si6 0.596586 0.063846 0.006005
Si Si7 0.917859 0.931830 0.566180
O O1 0.996397 0.750000 0.155072
O O2 0.045944 0.984519 0.071969
O O3 0.988790 0.015747 0.233342
O O4 0.921777 0.979979 0.091733
O O5 0.750000 0.907240 0.853199
O O6 0.639224 0.750000 0.871125
O O7 0.645557 0.038624 0.799271
O O8 0.665462 0.003636 0.963837
O O9 0.750000 0.992450 0.405353
O O10 0.671826 0.750000 0.411115
O O11 0.627748 0.999710 0.490405
O O12 0.618210 0.993336 0.335199
O O13 0.750000 0.429800 0.696414
O O14 0.644369 0.250000 0.680883
O O15 0.632511 0.551427 0.645410
O O16 0.455917 0.750000 0.670774
O O17 0.509786 0.502107 0.602072
O O18 0.592039 0.250000 0.016106
O O19 0.930525 0.750000 0.546063
#
# Coordination Sequence:
#
# PCOD9449530 Si02
#       7
#     8   8   8   8   8   8   8
#     4  10  21  37  58  83 113 148 184 226 278 335
#     4  10  20  33  50  74 108 150 190 228 275 333
#     4  10  22  41  63  85 113 152 194 234 281 339
#     4  10  20  32  49  78 115 153 193 238 288 340
#     4  11  23  38  59  88 118 148 187 236 285 334
#     4  10  20  35  57  84 112 144 184 232 282 330
#     4  10  21  37  59  86 115 149 188 231 283 344
#
# _framework density 21.125039000000001
#
# number of rings (size 3 to 8) (size 9 to 14) (size 15 to 20)
#    0.000    1.857    0.000    3.857    0.000    8.286 
#    0.000    0.714    0.000    4.286    0.000    0.000 
#    0.000    0.000    0.000    0.000    0.000    0.000 
#
# Total GULP energy -312216.977253 kJ/mol
# GULP energy per Si atom -5575.303165 kJ/mol
# Density = 2.107696 g / cm^3
# Si number density = 21.125039 Si / 1000 Ang^3
#
#
#
# Elastic Constant Matrix: (Units=GPa)
#
#
# Indices 1 2 3 4 5 6 
#
# 1 103.4388 23.2988 30.2135 0.0000 0.0000 0.0000
# 2 23.2988 36.1861 9.2766 0.0000 0.0000 0.0000
# 3 30.2135 9.2766 63.1655 0.0000 0.0000 0.0000
# 4 0.0000 0.0000 0.0000 27.1672 0.0000 0.0000
# 5 0.0000 0.0000 0.0000 0.0000 23.5990 0.0000
# 6 0.0000 0.0000 0.0000 0.0000 0.0000 24.4589
#
#
#
# Elastic Compliance Matrix: (Units=1/GPa)
#
#
# Indices 1 2 3 4 5 6 
#
# 1 0.012695 -0.006876 -0.005063 0.000000 0.000000 0.000000
# 2 -0.006876 0.032440 -0.001475 0.000000 0.000000 0.000000
# 3 -0.005063 -0.001475 0.018470 0.000000 0.000000 0.000000
# 4 0.000000 0.000000 0.000000 0.036809 0.000000 0.000000
# 5 0.000000 0.000000 0.000000 0.000000 0.042375 0.000000
# 6 0.000000 0.000000 0.000000 0.000000 0.000000 0.040885
#
#
# Mechanical properties :
#
#
# Convention : Reuss Voigt Hill
#
# Bulk Modulus (GPa) = 27.19068 36.48537 31.83803
# Shear Modulus (GPa) = 22.44566 24.37847 23.41207
#
# Velocity S-wave (km/s) = 3.26316 3.40076 3.33267
# Velocity P-wave (km/s) = 5.20546 5.72091 5.46926
#
# Compressibility (1/GPa) = 0.03677731
#
# Stress axis : x y z
#
# Youngs Moduli (GPa) = 78.77092 30.82587 54.14298
#
# Poissons Ratio (x) = 0.21196 0.27410
# Poissons Ratio (y) = 0.54163 0.07988
# Poissons Ratio (z) = 0.39878 0.04548
#
# Static dielectric constant tensor:
#      x y z
#    x 1.962710 0.000000 0.000000 
#    y 0.000000 1.759350 0.000000 
#    z 0.000000 0.000000 1.775270 
# 
# From -- ./inp_files/24185.got.cif
#   From: 2010.05.17/outbox.cif.g08.bks.cpg/sg59_13_cif.got.tgz:24185.got - 2010.06.03 14:40:33.
