data_PCOD9449445
_publ_section_title
;
Structure prediction by ZEFSAII (Michael W. Deem and Ramdas Pophale) SiO2 
 PCOD9449445
Probable space group: P M M N
;
_chemical_formula_sum "Si O2"
_cell_formula_units_Z 48
_cell_length_a 7.850850
_cell_length_b 31.706170
_cell_length_c 11.360427
_cell_angle_alpha 90.000000
_cell_angle_beta 90.000000
_cell_angle_gamma 90.000000
_cell_volume 2827.841860
_symmetry_space_group_name_H-M "P M M N"
_symmetry_group_IT_number 59
_space_group.IT_coordinate_system_code '2'
_symmetry_cell_setting 'orthorhombic'
loop_
_space_group_symop_operation_xyz
x,y,z
1/2-x,1/2-y,z
1/2+x,-y,-z
-x,1/2+y,-z
-x,-y,-z
1/2+x,1/2+y,-z
1/2-x,y,z
x,1/2-y,z
loop_
_atom_site_type_symbol
_atom_site_label
_atom_site_fract_x
_atom_site_fract_y
_atom_site_fract_z
Si Si1 0.056347 0.955696 0.442707
Si Si2 0.550683 0.526144 0.183706
Si Si3 0.554614 0.356749 0.197414
Si Si4 0.951595 0.364097 0.480033
Si Si5 0.750000 0.702712 0.797270
Si Si6 0.545163 0.058939 0.057461
Si Si7 0.750000 0.700684 0.511349
O O1 0.250000 0.951244 0.481792
O O2 0.980591 0.910232 0.479155
O O3 0.040385 0.960519 0.302565
O O4 0.000000 0.000000 0.500000
O O5 0.750000 0.521425 0.212870
O O6 0.484931 0.481663 0.131711
O O7 0.529189 0.557325 0.073412
O O8 0.750000 0.345670 0.169102
O O9 0.545689 0.364292 0.337744
O O10 0.419371 0.321439 0.165412
O O11 0.507863 0.399257 0.129242
O O12 0.750000 0.358013 0.514818
O O13 0.080814 0.326858 0.520249
O O14 0.750000 0.750000 0.840307
O O15 0.750000 0.702765 0.654240
O O16 0.750000 0.054967 0.046627
O O17 0.750000 0.750000 0.470889
#
# Coordination Sequence:
#
# PCOD9449445 Si02
#       7
#     8   8   8   8   4   8   4
#     4  11  22  34  49  71 102 139 172 207 253 301
#     4  10  20  32  48  71  98 130 168 207 245 288
#     4   9  17  31  50  70  98 133 163 200 249 296
#     4   9  19  33  49  74 105 134 169 210 253 309
#     4   9  18  30  46  75 103 125 165 204 247 310
#     4   9  18  33  48  68  98 129 168 205 240 292
#     4   9  18  32  52  75 101 135 171 214 260 304
#
# _framework density 16.974074000000002
#
# number of rings (size 3 to 8) (size 9 to 14) (size 15 to 20)
#    0.000    2.500    0.000    2.000    3.500    4.000 
#    3.000    3.333    0.000    0.000    0.000    2.333 
#    0.000    5.333    0.000    0.000    0.000    0.000 
#
# Total GULP energy -267388.393446 kJ/mol
# GULP energy per Si atom -5570.591530 kJ/mol
# Density = 1.693544 g / cm^3
# Si number density = 16.974074 Si / 1000 Ang^3
#
#
#
# Elastic Constant Matrix: (Units=GPa)
#
#
# Indices 1 2 3 4 5 6 
#
# 1 60.6006 61.5663 15.3919 0.0000 0.0000 0.0000
# 2 61.5663 135.9075 34.6846 0.0000 0.0000 0.0000
# 3 15.3919 34.6846 35.6865 0.0000 0.0000 0.0000
# 4 0.0000 0.0000 0.0000 19.0585 0.0000 0.0000
# 5 0.0000 0.0000 0.0000 0.0000 16.5626 0.0000
# 6 0.0000 0.0000 0.0000 0.0000 0.0000 26.0932
#
#
#
# Elastic Compliance Matrix: (Units=1/GPa)
#
#
# Indices 1 2 3 4 5 6 
#
# 1 0.030574 -0.013943 0.000365 0.000000 0.000000 0.000000
# 2 -0.013943 0.016144 -0.009677 0.000000 0.000000 0.000000
# 3 0.000365 -0.009677 0.037270 0.000000 0.000000 0.000000
# 4 0.000000 0.000000 0.000000 0.052470 0.000000 0.000000
# 5 0.000000 0.000000 0.000000 0.000000 0.060377 0.000000
# 6 0.000000 0.000000 0.000000 0.000000 0.000000 0.038324
#
#
# Mechanical properties :
#
#
# Convention : Reuss Voigt Hill
#
# Bulk Modulus (GPa) = 26.68280 50.60893 38.64586
# Shear Modulus (GPa) = 16.99744 20.37964 18.68854
#
# Velocity S-wave (km/s) = 3.16789 3.46878 3.32174
# Velocity P-wave (km/s) = 5.39764 6.77668 6.12609
#
# Compressibility (1/GPa) = 0.03747733
#
# Stress axis : x y z
#
# Youngs Moduli (GPa) = 32.70711 61.94291 26.83158
#
# Poissons Ratio (x) = 0.86369 -0.00979
# Poissons Ratio (y) = 0.45605 0.25964
# Poissons Ratio (z) = -0.01193 0.59941
#
# Static dielectric constant tensor:
#      x y z
#    x 1.632880 0.000000 0.000000 
#    y 0.000000 1.590120 0.000000 
#    z 0.000000 0.000000 1.544040 
# 
# From -- ./inp_files/6418.got.cif
#   From: 2010.05.17/outbox.cif.g08.bks.cpg/sg59_4_cif.got.tgz:6418.got - 2010.06.03 14:40:33.
