data_PCOD9449430
_publ_section_title
;
Structure prediction by ZEFSAII (Michael W. Deem and Ramdas Pophale) SiO2 
 PCOD9449430
Probable space group: P M M N
;
_chemical_formula_sum "Si O2"
_cell_formula_units_Z 56
_cell_length_a 7.704212
_cell_length_b 22.057280
_cell_length_c 13.700884
_cell_angle_alpha 90.000000
_cell_angle_beta 90.000000
_cell_angle_gamma 90.000000
_cell_volume 2328.245491
_symmetry_space_group_name_H-M "P M M N"
_symmetry_group_IT_number 59
_space_group.IT_coordinate_system_code '2'
_symmetry_cell_setting 'orthorhombic'
loop_
_space_group_symop_operation_xyz
x,y,z
1/2-x,1/2-y,z
1/2+x,-y,-z
-x,1/2+y,-z
-x,-y,-z
1/2+x,1/2+y,-z
1/2-x,y,z
x,1/2-y,z
loop_
_atom_site_type_symbol
_atom_site_label
_atom_site_fract_x
_atom_site_fract_y
_atom_site_fract_z
Si Si1 0.043313 0.504680 0.387597
Si Si2 0.952558 0.057398 0.211170
Si Si3 0.540738 0.548315 0.085802
Si Si4 0.953032 0.817656 0.138035
Si Si5 0.046751 0.634994 0.344087
Si Si6 0.444123 0.321122 0.444712
Si Si7 0.454290 0.684417 0.779198
O O1 0.250000 0.504691 0.376964
O O2 0.969408 0.567660 0.346627
O O3 0.000000 0.500000 0.500000
O O4 0.966404 0.449536 0.327000
O O5 0.750000 0.058252 0.183448
O O6 0.029813 0.121759 0.178491
O O7 0.030036 0.994759 0.172400
O O8 0.750000 0.554174 0.091686
O O9 0.475409 0.618276 0.092036
O O10 0.500000 0.500000 0.000000
O O11 0.750000 0.815523 0.111376
O O12 0.026581 0.750000 0.113958
O O13 0.964950 0.826987 0.255880
O O14 0.250000 0.633577 0.320433
O O15 0.030319 0.654578 0.456962
O O16 0.250000 0.348087 0.435538
O O17 0.427944 0.250000 0.465342
O O18 0.531032 0.322048 0.338225
O O19 0.250000 0.685822 0.803449
O O20 0.530898 0.750000 0.806367
#
# Coordination Sequence:
#
# PCOD9449430 Si02
#       7
#     8   8   8   8   8   8   8
#     4  11  23  35  51  79 116 157 199 243 289 342
#     4  10  20  37  59  82 110 147 191 237 289 343
#     4  10  22  41  65  91 119 152 192 240 295 358
#     4  10  21  39  63  89 118 153 192 238 295 356
#     4  11  22  34  50  78 114 152 196 244 294 344
#     4  10  20  32  47  71 107 152 197 236 280 338
#     4   9  18  33  53  77 107 144 188 239 289 338
#
# _framework density 24.052447000000001
#
# number of rings (size 3 to 8) (size 9 to 14) (size 15 to 20)
#    0.000    1.857    1.429    2.571    0.000    9.714 
#    0.000    0.714    0.000    0.857    0.000    0.000 
#    0.000    0.000    0.000    0.000    0.000    0.000 
#
# Total GULP energy -312128.070447 kJ/mol
# GULP energy per Si atom -5573.715544 kJ/mol
# Density = 2.399770 g / cm^3
# Si number density = 24.052447 Si / 1000 Ang^3
#
#
#
# Elastic Constant Matrix: (Units=GPa)
#
#
# Indices 1 2 3 4 5 6 
#
# 1 59.3247 11.2632 -12.4259 0.0000 0.0000 0.0000
# 2 11.2632 241.2383 20.4139 0.0000 0.0000 0.0000
# 3 -12.4259 20.4139 26.7293 0.0000 0.0000 0.0000
# 4 0.0000 0.0000 0.0000 18.7684 0.0000 0.0000
# 5 0.0000 0.0000 0.0000 0.0000 12.6803 0.0000
# 6 0.0000 0.0000 0.0000 0.0000 0.0000 10.2334
#
#
#
# Elastic Compliance Matrix: (Units=1/GPa)
#
#
# Indices 1 2 3 4 5 6 
#
# 1 0.019365 -0.001781 0.010363 0.000000 0.000000 0.000000
# 2 -0.001781 0.004595 -0.004338 0.000000 0.000000 0.000000
# 3 0.010363 -0.004338 0.045542 0.000000 0.000000 0.000000
# 4 0.000000 0.000000 0.000000 0.053281 0.000000 0.000000
# 5 0.000000 0.000000 0.000000 0.000000 0.078863 0.000000
# 6 0.000000 0.000000 0.000000 0.000000 0.000000 0.097719
#
#
# Mechanical properties :
#
#
# Convention : Reuss Voigt Hill
#
# Bulk Modulus (GPa) = 12.82206 40.64386 26.73296
# Shear Modulus (GPa) = 15.77909 28.87248 22.32579
#
# Velocity S-wave (km/s) = 2.56408 3.46843 3.04996
# Velocity P-wave (km/s) = 3.75613 5.74236 4.85197
#
# Compressibility (1/GPa) = 0.07799061
#
# Stress axis : x y z
#
# Youngs Moduli (GPa) = 51.63947 217.60454 21.95764
#
# Poissons Ratio (x) = 0.38756 -0.22754
# Poissons Ratio (y) = 0.09197 0.09524
# Poissons Ratio (z) = -0.53512 0.94390
#
# Static dielectric constant tensor:
#      x y z
#    x 1.901510 0.000000 0.000000 
#    y 0.000000 2.014100 0.000000 
#    z 0.000000 0.000000 2.041410 
# 
# From -- ./inp_files/20961.got.cif
#   From: 2010.05.17/outbox.cif.g08.bks.cpg/sg59_11_cif.got.tgz:20961.got - 2010.06.03 14:40:33.
