data_PCOD9449573
_publ_section_title
;
Structure prediction by ZEFSAII (Michael W. Deem and Ramdas Pophale) SiO2 
 PCOD9449573
Probable space group: P M M N
;
_chemical_formula_sum "Si O2"
_cell_formula_units_Z 44
_cell_length_a 14.231007
_cell_length_b 13.435796
_cell_length_c 12.468336
_cell_angle_alpha 90.000000
_cell_angle_beta 90.000000
_cell_angle_gamma 90.000000
_cell_volume 2384.007024
_symmetry_space_group_name_H-M "P M M N"
_symmetry_group_IT_number 59
_space_group.IT_coordinate_system_code '2'
_symmetry_cell_setting 'orthorhombic'
loop_
_space_group_symop_operation_xyz
x,y,z
1/2-x,1/2-y,z
1/2+x,-y,-z
-x,1/2+y,-z
-x,-y,-z
1/2+x,1/2+y,-z
1/2-x,y,z
x,1/2-y,z
loop_
_atom_site_type_symbol
_atom_site_label
_atom_site_fract_x
_atom_site_fract_y
_atom_site_fract_z
Si Si1 0.898751 0.365416 0.758676
Si Si2 0.431240 0.627938 0.001931
Si Si3 0.750000 0.128851 0.588273
Si Si4 0.146635 0.131758 0.979897
Si Si5 0.617288 0.637541 0.274832
Si Si6 0.250000 0.521227 0.637926
Si Si7 0.750000 0.369713 0.137572
O O1 0.869077 0.250000 0.769652
O O2 0.896573 0.405230 0.879749
O O3 0.836598 0.405446 0.662624
O O4 0.005958 0.368668 0.723805
O O5 0.433888 0.750000 0.003350
O O6 0.541218 0.597845 0.983789
O O7 0.348113 0.597948 0.920154
O O8 0.750000 0.250000 0.575476
O O9 0.750000 0.079752 0.472385
O O10 0.250000 0.093198 0.017028
O O11 0.147407 0.250000 0.004140
O O12 0.145164 0.123754 0.850086
O O13 0.644407 0.750000 0.305521
O O14 0.662808 0.553404 0.346736
O O15 0.250000 0.593052 0.741007
O O16 0.750000 0.250000 0.133022
#
# Coordination Sequence:
#
# PCOD9449573 Si02
#       7
#     8   8   4   8   8   4   4
#     4   8  15  30  53  75  93 119 159 212 257 280
#     4   8  14  26  48  71  92 124 163 207 246 279
#     4  10  20  33  48  71 102 131 165 195 233 296
#     4   8  12  22  44  70  92 112 143 200 260 290
#     4   9  17  31  51  73  95 117 157 214 258 288
#     4  12  22  30  46  70 102 142 160 190 242 294
#     4  10  20  33  44  65 104 143 175 191 225 296
#
# _framework density 18.456320999999999
#
# number of rings (size 3 to 8) (size 9 to 14) (size 15 to 20)
#    0.000    3.091    0.909    3.273    0.000    2.909 
#    0.000    3.636    0.000    0.000    0.000    0.000 
#    0.000   11.636    5.455    0.364    0.000    0.000 
#
# Total GULP energy -245050.847464 kJ/mol
# GULP energy per Si atom -5569.337442 kJ/mol
# Density = 1.841431 g / cm^3
# Si number density = 18.456321 Si / 1000 Ang^3
#
#
#
# Elastic Constant Matrix: (Units=GPa)
#
#
# Indices 1 2 3 4 5 6 
#
# 1 161.9648 35.3034 68.8908 0.0000 0.0000 0.0000
# 2 35.3034 65.2988 35.9799 0.0000 0.0000 0.0000
# 3 68.8908 35.9799 112.6234 0.0000 0.0000 0.0000
# 4 0.0000 0.0000 0.0000 15.8793 0.0000 0.0000
# 5 0.0000 0.0000 0.0000 0.0000 -12.9453 0.0000
# 6 0.0000 0.0000 0.0000 0.0000 0.0000-3105.7777
#
#
#
# Elastic Compliance Matrix: (Units=1/GPa)
#
#
# Indices 1 2 3 4 5 6 
#
# 1 0.008581 -0.002120 -0.004571 0.000000 0.000000 0.000000
# 2 -0.002120 0.019110 -0.004808 0.000000 0.000000 0.000000
# 3 -0.004571 -0.004808 0.013211 0.000000 0.000000 0.000000
# 4 0.000000 0.000000 0.000000 0.062975 0.000000 0.000000
# 5 0.000000 0.000000 0.000000 0.000000 -0.077248 0.000000
# 6 0.000000 0.000000 0.000000 0.000000 0.000000 -0.000322
#
#
# Mechanical properties :
#
#
# Convention : Reuss Voigt Hill
#
# Bulk Modulus (GPa) = 55.85804 68.91501 62.38653
# Shear Modulus (GPa) = 90.45852 -607.25454 -258.39801
#
# Velocity S-wave (km/s) = 7.00847 -18.15866 -11.84521
# Velocity P-wave (km/s) = 9.78888 20.05563 12.37753
#
# Compressibility (1/GPa) = 0.01790253
#
# Stress axis : x y z
#
# Youngs Moduli (GPa) = 116.53986 52.32919 75.69170
#
# Poissons Ratio (x) = 0.11095 0.34602
# Poissons Ratio (y) = 0.24710 0.36393
# Poissons Ratio (z) = 0.53275 0.25160
#
# Static dielectric constant tensor:
#      x y z
#    x 1.706550 0.000000 0.000000 
#    y 0.000000 1.692630 0.000000 
#    z 0.000000 0.000000 1.586720 
# 
# From -- ./inp_files/16777.got.cif
#   From: 2010.05.17/outbox.cif.g08.bks.cpg/sg59_9_cif.got.tgz:16777.got - 2010.06.03 14:40:33.
