data_PCOD9449437
_publ_section_title
;
Structure prediction by ZEFSAII (Michael W. Deem and Ramdas Pophale) SiO2 
 PCOD9449437
Probable space group: P M M N
;
_chemical_formula_sum "Si O2"
_cell_formula_units_Z 64
_cell_length_a 8.060584
_cell_length_b 19.246286
_cell_length_c 21.859839
_cell_angle_alpha 90.000000
_cell_angle_beta 90.000000
_cell_angle_gamma 90.000000
_cell_volume 3391.254650
_symmetry_space_group_name_H-M "P M M N"
_symmetry_group_IT_number 59
_space_group.IT_coordinate_system_code '2'
_symmetry_cell_setting 'orthorhombic'
loop_
_space_group_symop_operation_xyz
x,y,z
1/2-x,1/2-y,z
1/2+x,-y,-z
-x,1/2+y,-z
-x,-y,-z
1/2+x,1/2+y,-z
1/2-x,y,z
x,1/2-y,z
loop_
_atom_site_type_symbol
_atom_site_label
_atom_site_fract_x
_atom_site_fract_y
_atom_site_fract_z
Si Si1 0.449768 0.533602 0.688733
Si Si2 0.449819 0.171828 0.247987
Si Si3 0.447588 0.033956 0.563430
Si Si4 0.450372 0.079906 0.996604
Si Si5 0.449358 0.396141 0.751753
Si Si6 0.047817 0.329385 0.109525
Si Si7 0.953212 0.669492 0.120547
Si Si8 0.448235 0.827777 0.375653
O O1 0.250000 0.530134 0.688057
O O2 0.498503 0.610461 0.707678
O O3 0.511349 0.509910 0.621965
O O4 0.508937 0.474459 0.736719
O O5 0.250000 0.173833 0.246616
O O6 0.507444 0.250000 0.263721
O O7 0.507496 0.155312 0.178678
O O8 0.250000 0.032752 0.565958
O O9 0.500887 0.113179 0.576066
O O10 0.500000 0.000000 0.500000
O O11 0.250000 0.083497 0.996361
O O12 0.506907 0.121177 0.935994
O O13 0.511798 0.119137 0.057365
O O14 0.500000 0.000000 0.000000
O O15 0.250000 0.398749 0.756576
O O16 0.510777 0.362282 0.814611
O O17 0.490371 0.351539 0.691418
O O18 0.250000 0.331800 0.109878
O O19 0.001820 0.250000 0.094923
O O20 0.750000 0.669483 0.120889
O O21 0.004133 0.750000 0.113757
O O22 0.250000 0.826469 0.373613
O O23 0.509501 0.750000 0.389525
#
# Coordination Sequence:
#
# PCOD9449437 Si02
#       8
#     8   8   8   8   8   8   8   8
#     4   9  19  33  51  77 107 135 163 203 256 307
#     4   9  18  32  51  74  98 129 173 219 258 302
#     4  10  21  38  59  82 110 144 181 216 256 307
#     4  10  20  32  48  70  96 128 167 212 260 310
#     4   9  18  32  51  76 104 135 172 215 261 314
#     4   8  15  30  50  69  91 124 169 215 254 299
#     4   9  17  30  50  73  96 129 172 213 255 309
#     4  10  20  34  54  82 113 143 178 218 260 308
#
# _framework density 18.872071999999999
#
# number of rings (size 3 to 8) (size 9 to 14) (size 15 to 20)
#    0.000    2.750    0.000    3.000    1.750    5.750 
#    0.000    1.250    0.000    3.750    0.000    0.000 
#    0.000    0.000    0.000    0.000    0.000    0.000 
#
# Total GULP energy -356926.255751 kJ/mol
# GULP energy per Si atom -5576.972746 kJ/mol
# Density = 1.882912 g / cm^3
# Si number density = 18.872072 Si / 1000 Ang^3
#
#
#
# Elastic Constant Matrix: (Units=GPa)
#
#
# Indices 1 2 3 4 5 6 
#
# 1 8.3912 6.7452 5.8645 0.0000 0.0000 0.0000
# 2 6.7452 180.6681 107.4342 0.0000 0.0000 0.0000
# 3 5.8645 107.4342 107.7992 0.0000 0.0000 0.0000
# 4 0.0000 0.0000 0.0000 28.4017 0.0000 0.0000
# 5 0.0000 0.0000 0.0000 0.0000 11.9315 0.0000
# 6 0.0000 0.0000 0.0000 0.0000 0.0000 27.2689
#
#
#
# Elastic Compliance Matrix: (Units=1/GPa)
#
#
# Indices 1 2 3 4 5 6 
#
# 1 0.124052 -0.001518 -0.005236 0.000000 0.000000 0.000000
# 2 -0.001518 0.013606 -0.013477 0.000000 0.000000 0.000000
# 3 -0.005236 -0.013477 0.022993 0.000000 0.000000 0.000000
# 4 0.000000 0.000000 0.000000 0.035209 0.000000 0.000000
# 5 0.000000 0.000000 0.000000 0.000000 0.083812 0.000000
# 6 0.000000 0.000000 0.000000 0.000000 0.000000 0.036672
#
#
# Mechanical properties :
#
#
# Convention : Reuss Voigt Hill
#
# Bulk Modulus (GPa) = 8.32028 59.66070 33.99049
# Shear Modulus (GPa) = 12.59865 25.30807 18.95336
#
# Velocity S-wave (km/s) = 2.58656 3.66598 3.17252
# Velocity P-wave (km/s) = 3.65223 7.04281 5.60981
#
# Compressibility (1/GPa) = 0.12018829
#
# Stress axis : x y z
#
# Youngs Moduli (GPa) = 8.06117 73.49720 43.49144
#
# Poissons Ratio (x) = 0.11156 0.22772
# Poissons Ratio (y) = 0.01224 0.58615
# Poissons Ratio (z) = 0.04221 0.99054
#
# Static dielectric constant tensor:
#      x y z
#    x 1.679360 0.000000 0.000000 
#    y 0.000000 1.646760 0.000000 
#    z 0.000000 0.000000 2.045990 
# 
# From -- ./inp_files/29485.got.cif
#   From: 2010.05.17/outbox.cif.g08.bks.cpg/sg59_15_cif.got.tgz:29485.got - 2010.06.03 14:40:33.
