data_PCOD9449877
_publ_section_title
;
Structure prediction by ZEFSAII (Michael W. Deem and Ramdas Pophale) SiO2 
 PCOD9449877
Probable space group: P M M N
;
_chemical_formula_sum "Si O2"
_cell_formula_units_Z 64
_cell_length_a 9.123030
_cell_length_b 14.540903
_cell_length_c 26.076295
_cell_angle_alpha 90.000000
_cell_angle_beta 90.000000
_cell_angle_gamma 90.000000
_cell_volume 3459.205525
_symmetry_space_group_name_H-M "P M M N"
_symmetry_group_IT_number 59
_space_group.IT_coordinate_system_code '2'
_symmetry_cell_setting 'orthorhombic'
loop_
_space_group_symop_operation_xyz
x,y,z
1/2-x,1/2-y,z
1/2+x,-y,-z
-x,1/2+y,-z
-x,-y,-z
1/2+x,1/2+y,-z
1/2-x,y,z
x,1/2-y,z
loop_
_atom_site_type_symbol
_atom_site_label
_atom_site_fract_x
_atom_site_fract_y
_atom_site_fract_z
Si Si1 0.573307 0.962492 0.869189
Si Si2 0.916067 0.618438 0.460954
Si Si3 0.921851 0.859567 0.973725
Si Si4 0.426925 0.958383 0.670058
Si Si5 0.416405 0.600452 0.559809
Si Si6 0.575088 0.148625 0.643885
Si Si7 0.426560 0.643076 0.775595
Si Si8 0.926317 0.354736 0.919585
O O1 0.750000 0.956148 0.863957
O O2 0.498206 0.913719 0.821562
O O3 0.531842 0.069101 0.877833
O O4 0.532345 0.911321 0.922229
O O5 0.750000 0.650565 0.453864
O O6 0.909583 0.507770 0.454859
O O7 0.980197 0.642320 0.516508
O O8 0.020750 0.649102 0.415023
O O9 0.750000 0.879830 0.982652
O O10 0.936745 0.750000 0.965371
O O11 0.011167 0.882473 0.024853
O O12 0.250000 0.969106 0.666920
O O13 0.469504 0.901925 0.618601
O O14 0.464589 0.903297 0.721241
O O15 0.498327 0.059620 0.668603
O O16 0.250000 0.636808 0.557352
O O17 0.750000 0.137433 0.645852
O O18 0.537943 0.250000 0.665869
O O19 0.250000 0.639963 0.780345
O O20 0.471583 0.750000 0.777311
O O21 0.750000 0.355141 0.922867
O O22 0.974738 0.250000 0.908702
#
# Coordination Sequence:
#
# PCOD9449877 Si02
#       8
#     8   8   8   8   8   8   8   8
#     4  10  20  34  53  77 107 143 178 214 260 310
#     4   9  16  26  44  71 102 136 170 205 248 299
#     4   9  17  29  47  74 107 141 178 219 261 306
#     4   9  19  36  56  76 101 136 174 214 263 313
#     4   8  14  26  45  69  97 129 166 206 249 300
#     4  10  20  33  51  77 107 138 174 214 255 304
#     4  10  22  40  60  81 103 128 166 217 266 312
#     4   9  18  32  50  75 108 144 180 216 255 302
#
# _framework density 18.501358
#
# number of rings (size 3 to 8) (size 9 to 14) (size 15 to 20)
#    0.000    2.750    0.000    2.250    0.000    6.250 
#    0.000    2.500    0.000    4.500    0.000    0.000 
#    0.000    0.000    0.000    0.000    0.000    0.000 
#
# Total GULP energy -356874.502066 kJ/mol
# GULP energy per Si atom -5576.164095 kJ/mol
# Density = 1.845925 g / cm^3
# Si number density = 18.501358 Si / 1000 Ang^3
#
#
#
# Elastic Constant Matrix: (Units=GPa)
#
#
# Indices 1 2 3 4 5 6 
#
# 1 22.9266 29.7751 34.4631 0.0000 0.0000 0.0000
# 2 29.7751 105.0114 83.0875 0.0000 0.0000 0.0000
# 3 34.4631 83.0875 133.2966 0.0000 0.0000 0.0000
# 4 0.0000 0.0000 0.0000 -9.8419 0.0000 0.0000
# 5 0.0000 0.0000 0.0000 0.0000 30.3519 0.0000
# 6 0.0000 0.0000 0.0000 0.0000 0.0000 13.1216
#
#
#
# Elastic Compliance Matrix: (Units=1/GPa)
#
#
# Indices 1 2 3 4 5 6 
#
# 1 0.078591 -0.012247 -0.012686 0.000000 0.000000 0.000000
# 2 -0.012247 0.020698 -0.009735 0.000000 0.000000 0.000000
# 3 -0.012686 -0.009735 0.016850 0.000000 0.000000 0.000000
# 4 0.000000 0.000000 0.000000 -0.101607 0.000000 0.000000
# 5 0.000000 0.000000 0.000000 0.000000 0.032947 0.000000
# 6 0.000000 0.000000 0.000000 0.000000 0.000000 0.076210
#
#
# Mechanical properties :
#
#
# Convention : Reuss Voigt Hill
#
# Bulk Modulus (GPa) = 21.36564 61.76513 41.56538
# Shear Modulus (GPa) = 23.96615 14.32022 19.14319
#
# Velocity S-wave (km/s) = 3.60303 2.78512 3.22015
# Velocity P-wave (km/s) = 5.37423 6.61809 6.02833
#
# Compressibility (1/GPa) = 0.04680412
#
# Stress axis : x y z
#
# Youngs Moduli (GPa) = 12.72404 48.31354 59.34641
#
# Poissons Ratio (x) = 0.59169 0.75285
# Poissons Ratio (y) = 0.15583 0.57776
# Poissons Ratio (z) = 0.16141 0.47035
#
# Static dielectric constant tensor:
#      x y z
#    x 1.625700 0.000000 0.000000 
#    y 0.000000 1.686900 0.000000 
#    z 0.000000 0.000000 1.610530 
# 
# From -- ./inp_files/31556.got.cif
#   From: 2010.05.17/outbox.cif.g08.bks.cpg/sg59_16_cif.got.tgz:31556.got - 2010.06.03 14:40:33.
