data_PCOD9449107
_publ_section_title
;
Structure prediction by ZEFSAII (Michael W. Deem and Ramdas Pophale) SiO2 
 PCOD9449107
Probable space group: P M M N
;
_chemical_formula_sum "Si O2"
_cell_formula_units_Z 64
_cell_length_a 18.424997
_cell_length_b 8.610070
_cell_length_c 22.286243
_cell_angle_alpha 90.000000
_cell_angle_beta 90.000000
_cell_angle_gamma 90.000000
_cell_volume 3535.501043
_symmetry_space_group_name_H-M "P M M N"
_symmetry_group_IT_number 59
_space_group.IT_coordinate_system_code '2'
_symmetry_cell_setting 'orthorhombic'
loop_
_space_group_symop_operation_xyz
x,y,z
1/2-x,1/2-y,z
1/2+x,-y,-z
-x,1/2+y,-z
-x,-y,-z
1/2+x,1/2+y,-z
1/2-x,y,z
x,1/2-y,z
loop_
_atom_site_type_symbol
_atom_site_label
_atom_site_fract_x
_atom_site_fract_y
_atom_site_fract_z
Si Si1 0.585007 0.060737 0.623469
Si Si2 0.833960 0.063821 0.270968
Si Si3 0.329864 0.436829 0.124844
Si Si4 0.334213 0.938092 0.497176
Si Si5 0.896698 0.436292 0.756924
Si Si6 0.550663 0.564821 0.181706
Si Si7 0.917092 0.563560 0.387217
Si Si8 0.521333 0.563539 0.935354
O O1 0.585570 0.250000 0.624418
O O2 0.632116 0.011671 0.566495
O O3 0.613697 0.010423 0.688634
O O4 0.501167 0.012653 0.616152
O O5 0.750000 0.013857 0.269094
O O6 0.836060 0.250000 0.272660
O O7 0.879518 0.004608 0.214154
O O8 0.872826 0.999780 0.330474
O O9 0.250000 0.492814 0.106330
O O10 0.329951 0.250000 0.122366
O O11 0.346573 0.487318 0.192908
O O12 0.397914 0.490951 0.084854
O O13 0.250000 0.983257 0.502209
O O14 0.337830 0.750000 0.499885
O O15 0.380224 0.005527 0.551877
O O16 0.886818 0.250000 0.759605
O O17 0.979895 0.468808 0.776826
O O18 0.557344 0.750000 0.177364
O O19 0.532402 0.495267 0.116795
O O20 0.916006 0.750000 0.385106
O O21 0.520773 0.750000 0.936177
O O22 0.500000 0.500000 0.000000
#
# Coordination Sequence:
#
# PCOD9449107 Si02
#       8
#     8   8   8   8   8   8   8   8
#     4   9  18  34  54  77 103 135 177 223 270 327
#     4  11  23  37  55  81 111 142 180 226 277 334
#     4   9  19  35  54  80 114 147 181 223 271 321
#     4  10  21  36  52  72 102 139 178 223 276 332
#     4   9  17  32  54  80 107 136 176 221 266 321
#     4  10  19  35  58  83 112 143 179 225 271 325
#     4  11  21  36  56  76 102 137 180 229 276 328
#     4  10  20  36  59  85 114 153 194 232 273 321
#
# _framework density 18.102101000000001
#
# number of rings (size 3 to 8) (size 9 to 14) (size 15 to 20)
#    0.000    2.125    1.250    2.250    0.000    4.500 
#    0.000    3.125    0.000    2.250    0.000    0.000 
#    0.000    0.000    0.000    0.000    0.000    0.000 
#
# Total GULP energy -357278.707599 kJ/mol
# GULP energy per Si atom -5582.479806 kJ/mol
# Density = 1.806090 g / cm^3
# Si number density = 18.102101 Si / 1000 Ang^3
#
#
#
# Elastic Constant Matrix: (Units=GPa)
#
#
# Indices 1 2 3 4 5 6 
#
# 1 70.9157 9.5142 43.1609 0.0000 0.0000 0.0000
# 2 9.5142 17.7950 16.8062 0.0000 0.0000 0.0000
# 3 43.1609 16.8062 148.3993 0.0000 0.0000 0.0000
# 4 0.0000 0.0000 0.0000 30.0368 0.0000 0.0000
# 5 0.0000 0.0000 0.0000 0.0000 14.7697 0.0000
# 6 0.0000 0.0000 0.0000 0.0000 0.0000 20.5992
#
#
#
# Elastic Compliance Matrix: (Units=1/GPa)
#
#
# Indices 1 2 3 4 5 6 
#
# 1 0.017539 -0.005106 -0.004523 0.000000 0.000000 0.000000
# 2 -0.005106 0.064412 -0.005810 0.000000 0.000000 0.000000
# 3 -0.004523 -0.005810 0.008712 0.000000 0.000000 0.000000
# 4 0.000000 0.000000 0.000000 0.033292 0.000000 0.000000
# 5 0.000000 0.000000 0.000000 0.000000 0.067706 0.000000
# 6 0.000000 0.000000 0.000000 0.000000 0.000000 0.048546
#
#
# Mechanical properties :
#
#
# Convention : Reuss Voigt Hill
#
# Bulk Modulus (GPa) = 16.72615 41.78584 29.25600
# Shear Modulus (GPa) = 17.18134 24.25638 20.71886
#
# Velocity S-wave (km/s) = 3.08415 3.66454 3.38680
# Velocity P-wave (km/s) = 4.68429 6.40614 5.61165
#
# Compressibility (1/GPa) = 0.05978661
#
# Stress axis : x y z
#
# Youngs Moduli (GPa) = 57.01593 15.52495 114.78466
#
# Poissons Ratio (x) = 0.07927 0.51915
# Poissons Ratio (y) = 0.29111 0.66687
# Poissons Ratio (z) = 0.25787 0.09020
#
# Static dielectric constant tensor:
#      x y z
#    x 1.621370 0.000000 0.000000 
#    y 0.000000 1.614340 0.000000 
#    z 0.000000 0.000000 1.591990 
# 
# From -- ./inp_files/30677.got.cif
#   From: 2010.05.17/outbox.cif.g08.bks.cpg/sg59_16_cif.got.tgz:30677.got - 2010.06.03 14:40:33.
