data_PCOD9449388
_publ_section_title
;
Structure prediction by ZEFSAII (Michael W. Deem and Ramdas Pophale) SiO2 
 PCOD9449388
Probable space group: P M M N
;
_chemical_formula_sum "Si O2"
_cell_formula_units_Z 40
_cell_length_a 9.803337
_cell_length_b 7.393511
_cell_length_c 26.723215
_cell_angle_alpha 90.000000
_cell_angle_beta 90.000000
_cell_angle_gamma 90.000000
_cell_volume 1936.927483
_symmetry_space_group_name_H-M "P M M N"
_symmetry_group_IT_number 59
_space_group.IT_coordinate_system_code '2'
_symmetry_cell_setting 'orthorhombic'
loop_
_space_group_symop_operation_xyz
x,y,z
1/2-x,1/2-y,z
1/2+x,-y,-z
-x,1/2+y,-z
-x,-y,-z
1/2+x,1/2+y,-z
1/2-x,y,z
x,1/2-y,z
loop_
_atom_site_type_symbol
_atom_site_label
_atom_site_fract_x
_atom_site_fract_y
_atom_site_fract_z
Si Si1 0.095859 0.034092 0.953130
Si Si2 0.594537 0.533653 0.451980
Si Si3 0.591505 0.529738 0.157248
Si Si4 0.593283 0.470350 0.751576
Si Si5 0.092696 0.529409 0.361417
O O1 0.250000 0.965296 0.961371
O O2 0.105260 0.250000 0.948777
O O3 0.046159 0.970316 0.898393
O O4 0.000000 0.000000 0.000000
O O5 0.500000 0.500000 0.500000
O O6 0.750000 0.464990 0.457146
O O7 0.604264 0.750000 0.446715
O O8 0.513002 0.466122 0.403219
O O9 0.750000 0.479793 0.162713
O O10 0.585694 0.750000 0.158231
O O11 0.502196 0.465646 0.203671
O O12 0.750000 0.522932 0.760201
O O13 0.589477 0.250000 0.751615
O O14 0.555618 0.526101 0.695139
O O15 0.250000 0.474824 0.371676
O O16 0.092754 0.750000 0.362199
#
# Coordination Sequence:
#
# PCOD9449388 Si02
#       5
#     8   8   8   8   8
#     4   9  18  31  45  64  90 118 150 186 222 263
#     4  10  20  32  47  68  92 120 154 187 221 264
#     4   8  14  24  37  55  82 112 139 173 217 260
#     4   8  13  21  35  57  83 110 140 173 212 258
#     4   8  14  25  40  59  86 116 143 177 220 261
#
# _framework density 20.651263
#
# number of rings (size 3 to 8) (size 9 to 14) (size 15 to 20)
#    0.000    3.400    0.000    3.000    0.000    3.200 
#    0.000    6.000    0.000    0.000    0.000    1.400 
#    0.000    8.000    0.000    0.000    0.000    0.000 
#
# Total GULP energy -223075.427450 kJ/mol
# GULP energy per Si atom -5576.885686 kJ/mol
# Density = 2.060426 g / cm^3
# Si number density = 20.651263 Si / 1000 Ang^3
#
#
#
# Elastic Constant Matrix: (Units=GPa)
#
#
# Indices 1 2 3 4 5 6 
#
# 1 146.8709 4.8612 153.8524 0.0000 0.0000 0.0000
# 2 4.8612 69.1362 4.6827 0.0000 0.0000 0.0000
# 3 153.8524 4.6827 241.8985 0.0000 0.0000 0.0000
# 4 0.0000 0.0000 0.0000 11.8177 0.0000 0.0000
# 5 0.0000 0.0000 0.0000 0.0000 47.3420 0.0000
# 6 0.0000 0.0000 0.0000 0.0000 0.0000 3.8149
#
#
#
# Elastic Compliance Matrix: (Units=1/GPa)
#
#
# Indices 1 2 3 4 5 6 
#
# 1 0.020422 -0.000557 -0.012978 0.000000 0.000000 0.000000
# 2 -0.000557 0.014498 0.000074 0.000000 0.000000 0.000000
# 3 -0.012978 0.000074 0.012387 0.000000 0.000000 0.000000
# 4 0.000000 0.000000 0.000000 0.084619 0.000000 0.000000
# 5 0.000000 0.000000 0.000000 0.000000 0.021123 0.000000
# 6 0.000000 0.000000 0.000000 0.000000 0.000000 0.262127
#
#
# Mechanical properties :
#
#
# Convention : Reuss Voigt Hill
#
# Bulk Modulus (GPa) = 49.05701 87.18867 68.12284
# Shear Modulus (GPa) = 11.13849 32.22888 21.68368
#
# Velocity S-wave (km/s) = 2.32493 3.95476 3.24388
# Velocity P-wave (km/s) = 5.56899 7.94762 6.86215
#
# Compressibility (1/GPa) = 0.02038445
#
# Stress axis : x y z
#
# Youngs Moduli (GPa) = 48.96622 68.97321 80.73022
#
# Poissons Ratio (x) = 0.03841 1.04773
# Poissons Ratio (y) = 0.02727 -0.00594
# Poissons Ratio (z) = 0.63549 -0.00507
#
# Static dielectric constant tensor:
#      x y z
#    x 1.711960 0.000000 0.000000 
#    y 0.000000 1.856230 0.000000 
#    z 0.000000 0.000000 1.726400 
# 
# From -- ./inp_files/32372.got.cif
#   From: 2010.05.17/outbox.cif.g08.bks.cpg/sg59_17_cif.got.tgz:32372.got - 2010.06.03 14:40:33.
