data_PCOD9449399
_publ_section_title
;
Structure prediction by ZEFSAII (Michael W. Deem and Ramdas Pophale) SiO2 
 PCOD9449399
Probable space group: P M M N
;
_chemical_formula_sum "Si O2"
_cell_formula_units_Z 48
_cell_length_a 9.595267
_cell_length_b 29.569929
_cell_length_c 8.962846
_cell_angle_alpha 90.000000
_cell_angle_beta 90.000000
_cell_angle_gamma 90.000000
_cell_volume 2543.040520
_symmetry_space_group_name_H-M "P M M N"
_symmetry_group_IT_number 59
_space_group.IT_coordinate_system_code '2'
_symmetry_cell_setting 'orthorhombic'
loop_
_space_group_symop_operation_xyz
x,y,z
1/2-x,1/2-y,z
1/2+x,-y,-z
-x,1/2+y,-z
-x,-y,-z
1/2+x,1/2+y,-z
1/2-x,y,z
x,1/2-y,z
loop_
_atom_site_type_symbol
_atom_site_label
_atom_site_fract_x
_atom_site_fract_y
_atom_site_fract_z
Si Si1 0.090074 0.844252 0.702086
Si Si2 0.917418 0.108527 0.829668
Si Si3 0.094066 0.477361 0.373166
Si Si4 0.093850 0.382831 0.538881
Si Si5 0.908693 0.441904 0.128192
Si Si6 0.580725 0.200161 0.997240
O O1 0.250000 0.833552 0.660675
O O2 0.094073 0.893727 0.782622
O O3 0.992533 0.846936 0.558604
O O4 0.039690 0.810922 0.832445
O O5 0.750000 0.108182 0.804322
O O6 0.958665 0.158003 0.894045
O O7 0.003708 0.101809 0.680396
O O8 0.946679 0.072324 0.960267
O O9 0.250000 0.497280 0.361858
O O10 0.107599 0.426177 0.431826
O O11 0.000000 0.500000 0.500000
O O12 0.014089 0.474101 0.216097
O O13 0.250000 0.368193 0.580540
O O14 0.750000 0.459635 0.131790
O O15 0.750000 0.199781 0.998506
O O16 0.533631 0.250000 0.950609
#
# Coordination Sequence:
#
# PCOD9449399 Si02
#       6
#     8   8   8   8   8   8
#     4   8  14  27  48  69  89 118 154 190 229 270
#     4   9  17  30  50  73  96 126 160 193 234 281
#     4  10  20  33  50  71  93 120 155 195 238 280
#     4  10  20  32  47  69  96 124 155 191 230 277
#     4   8  15  29  48  69  92 119 154 192 228 273
#     4   8  14  27  49  75  97 118 154 201 237 269
#
# _framework density 18.875043999999999
#
# number of rings (size 3 to 8) (size 9 to 14) (size 15 to 20)
#    0.000    3.167    0.000    3.000    0.000    2.667 
#    0.000    4.167    0.000    7.000    0.000    0.000 
#    0.000    0.000    0.000    0.000    0.000    0.000 
#
# Total GULP energy -267421.256830 kJ/mol
# GULP energy per Si atom -5571.276184 kJ/mol
# Density = 1.883208 g / cm^3
# Si number density = 18.875044 Si / 1000 Ang^3
#
#
#
# Elastic Constant Matrix: (Units=GPa)
#
#
# Indices 1 2 3 4 5 6 
#
# 1 74.1064 13.3998 49.5621 0.0000 0.0000 0.0000
# 2 13.3998 38.4283 3.5615 0.0000 0.0000 0.0000
# 3 49.5621 3.5615 92.5450 0.0000 0.0000 0.0000
# 4 0.0000 0.0000 0.0000 21.4047 0.0000 0.0000
# 5 0.0000 0.0000 0.0000 0.0000 24.3174 0.0000
# 6 0.0000 0.0000 0.0000 0.0000 0.0000 9.1507
#
#
#
# Elastic Compliance Matrix: (Units=1/GPa)
#
#
# Indices 1 2 3 4 5 6 
#
# 1 0.022668 -0.006803 -0.011878 0.000000 0.000000 0.000000
# 2 -0.006803 0.028158 0.002560 0.000000 0.000000 0.000000
# 3 -0.011878 0.002560 0.017068 0.000000 0.000000 0.000000
# 4 0.000000 0.000000 0.000000 0.046719 0.000000 0.000000
# 5 0.000000 0.000000 0.000000 0.000000 0.041123 0.000000
# 6 0.000000 0.000000 0.000000 0.000000 0.000000 0.109282
#
#
# Mechanical properties :
#
#
# Convention : Reuss Voigt Hill
#
# Bulk Modulus (GPa) = 28.04975 37.56962 32.80968
# Shear Modulus (GPa) = 16.17366 20.21162 18.19264
#
# Velocity S-wave (km/s) = 2.93043 3.27588 3.10796
# Velocity P-wave (km/s) = 5.13253 5.85287 5.50450
#
# Compressibility (1/GPa) = 0.03565095
#
# Stress axis : x y z
#
# Youngs Moduli (GPa) = 44.11436 35.51441 58.58808
#
# Poissons Ratio (x) = 0.24162 0.69592
# Poissons Ratio (y) = 0.30013 -0.14998
# Poissons Ratio (z) = 0.52400 -0.09091
#
# Static dielectric constant tensor:
#      x y z
#    x 1.664720 0.000000 0.000000 
#    y 0.000000 1.690900 0.000000 
#    z 0.000000 0.000000 1.651580 
# 
# From -- ./inp_files/6300.got.cif
#   From: 2010.05.17/outbox.cif.g08.bks.cpg/sg59_4_cif.got.tgz:6300.got - 2010.06.03 14:40:33.
