data_PCOD9449930
_publ_section_title
;
Structure prediction by ZEFSAII (Michael W. Deem and Ramdas Pophale) SiO2 
 PCOD9449930
Probable space group: P M M N
;
_chemical_formula_sum "Si O2"
_cell_formula_units_Z 56
_cell_length_a 21.800515
_cell_length_b 9.872841
_cell_length_c 14.627904
_cell_angle_alpha 90.000000
_cell_angle_beta 90.000000
_cell_angle_gamma 90.000000
_cell_volume 3148.407930
_symmetry_space_group_name_H-M "P M M N"
_symmetry_group_IT_number 59
_space_group.IT_coordinate_system_code '2'
_symmetry_cell_setting 'orthorhombic'
loop_
_space_group_symop_operation_xyz
x,y,z
1/2-x,1/2-y,z
1/2+x,-y,-z
-x,1/2+y,-z
-x,-y,-z
1/2+x,1/2+y,-z
1/2-x,y,z
x,1/2-y,z
loop_
_atom_site_type_symbol
_atom_site_label
_atom_site_fract_x
_atom_site_fract_y
_atom_site_fract_z
Si Si1 0.507569 0.400120 0.583453
Si Si2 0.678387 0.600203 0.732774
Si Si3 0.916922 0.910949 0.254089
Si Si4 0.650922 0.402080 0.571866
Si Si5 0.443802 0.413573 0.957316
Si Si6 0.322881 0.909560 0.638961
Si Si7 0.821323 0.914667 0.931452
O O1 0.500000 0.500000 0.500000
O O2 0.485141 0.250000 0.557157
O O3 0.471314 0.440570 0.673964
O O4 0.579773 0.393394 0.597794
O O5 0.750000 0.617278 0.752375
O O6 0.651018 0.750000 0.716220
O O7 0.675583 0.507581 0.644436
O O8 0.656408 0.541057 0.829727
O O9 0.902690 0.750000 0.258945
O O10 0.937875 0.939535 0.151147
O O11 0.860108 0.998996 0.290281
O O12 0.677404 0.250000 0.579567
O O13 0.659287 0.444533 0.466220
O O14 0.453131 0.250000 0.970964
O O15 0.500000 0.500000 0.000000
O O16 0.376854 0.450095 0.000351
O O17 0.250000 0.926236 0.648716
O O18 0.337924 0.750000 0.650885
O O19 0.750000 0.959143 0.951099
O O20 0.819007 0.750000 0.929192
#
# Coordination Sequence:
#
# PCOD9449930 Si02
#       7
#     8   8   8   8   8   8   8
#     4  10  20  35  54  77 106 140 178 220 264 317
#     4   9  18  32  51  77 106 136 176 222 261 309
#     4  10  22  38  56  82 112 141 182 230 275 326
#     4  10  20  33  52  77 109 147 179 214 267 325
#     4  10  22  39  60  86 114 145 183 232 286 337
#     4  10  21  37  56  79 109 146 187 226 268 327
#     4   8  16  34  57  79 106 143 187 229 273 332
#
# _framework density 17.786769
#
# number of rings (size 3 to 8) (size 9 to 14) (size 15 to 20)
#    0.000    2.429    1.429    1.286    2.000    3.429 
#    0.000    1.429    0.000    1.286    0.000    0.000 
#    0.000    0.000    0.000    0.000    0.000    0.000 
#
# Total GULP energy -311768.221283 kJ/mol
# GULP energy per Si atom -5567.289666 kJ/mol
# Density = 1.774629 g / cm^3
# Si number density = 17.786769 Si / 1000 Ang^3
#
#
#
# Elastic Constant Matrix: (Units=GPa)
#
#
# Indices 1 2 3 4 5 6 
#
# 1 97.4095 37.7717 57.8660 0.0000 0.0000 0.0000
# 2 37.7717 49.1446 68.2251 0.0000 0.0000 0.0000
# 3 57.8660 68.2251 149.1809 0.0000 0.0000 0.0000
# 4 0.0000 0.0000 0.0000 9.0379 0.0000 0.0000
# 5 0.0000 0.0000 0.0000 0.0000 31.5043 0.0000
# 6 0.0000 0.0000 0.0000 0.0000 0.0000 27.4998
#
#
#
# Elastic Compliance Matrix: (Units=1/GPa)
#
#
# Indices 1 2 3 4 5 6 
#
# 1 0.014741 -0.009290 -0.001469 0.000000 0.000000 0.000000
# 2 -0.009290 0.061586 -0.024562 0.000000 0.000000 0.000000
# 3 -0.001469 -0.024562 0.018506 0.000000 0.000000 0.000000
# 4 0.000000 0.000000 0.000000 0.110645 0.000000 0.000000
# 5 0.000000 0.000000 0.000000 0.000000 0.031742 0.000000
# 6 0.000000 0.000000 0.000000 0.000000 0.000000 0.036364
#
#
# Mechanical properties :
#
#
# Convention : Reuss Voigt Hill
#
# Bulk Modulus (GPa) = 41.33727 69.27340 55.30533
# Shear Modulus (GPa) = 14.19285 22.39988 18.29636
#
# Velocity S-wave (km/s) = 2.82785 3.55259 3.21074
# Velocity P-wave (km/s) = 5.82694 7.47389 6.70120
#
# Compressibility (1/GPa) = 0.02419125
#
# Stress axis : x y z
#
# Youngs Moduli (GPa) = 67.83753 16.23735 54.03598
#
# Poissons Ratio (x) = 0.15084 0.07940
# Poissons Ratio (y) = 0.63020 1.32723
# Poissons Ratio (z) = 0.09968 0.39882
#
# Static dielectric constant tensor:
#      x y z
#    x 1.608750 0.000000 0.000000 
#    y 0.000000 1.634790 0.000000 
#    z 0.000000 0.000000 1.628240 
# 
# From -- ./inp_files/21014.got.cif
#   From: 2010.05.17/outbox.cif.g08.bks.cpg/sg59_11_cif.got.tgz:21014.got - 2010.06.03 14:40:33.
