data_PCOD9449126
_publ_section_title
;
Structure prediction by ZEFSAII (Michael W. Deem and Ramdas Pophale) SiO2 
 PCOD9449126
Probable space group: P M M N
;
_chemical_formula_sum "Si O2"
_cell_formula_units_Z 64
_cell_length_a 9.210269
_cell_length_b 30.752629
_cell_length_c 12.300053
_cell_angle_alpha 90.000000
_cell_angle_beta 90.000000
_cell_angle_gamma 90.000000
_cell_volume 3483.866834
_symmetry_space_group_name_H-M "P M M N"
_symmetry_group_IT_number 59
_space_group.IT_coordinate_system_code '2'
_symmetry_cell_setting 'orthorhombic'
loop_
_space_group_symop_operation_xyz
x,y,z
1/2-x,1/2-y,z
1/2+x,-y,-z
-x,1/2+y,-z
-x,-y,-z
1/2+x,1/2+y,-z
1/2-x,y,z
x,1/2-y,z
loop_
_atom_site_type_symbol
_atom_site_label
_atom_site_fract_x
_atom_site_fract_y
_atom_site_fract_z
Si Si1 0.075873 0.625553 0.354234
Si Si2 0.577302 0.858995 0.124822
Si Si3 0.424224 0.973258 0.404910
Si Si4 0.917347 0.066904 0.005129
Si Si5 0.082347 0.011665 0.169720
Si Si6 0.416297 0.302890 0.244787
Si Si7 0.084263 0.801930 0.969443
Si Si8 0.576701 0.300750 0.468139
O O1 0.250000 0.625312 0.332486
O O2 0.038387 0.578069 0.402590
O O3 0.044402 0.665102 0.436483
O O4 0.991361 0.632146 0.242200
O O5 0.750000 0.858365 0.129375
O O6 0.518472 0.895799 0.042861
O O7 0.510821 0.815705 0.072190
O O8 0.250000 0.976147 0.416588
O O9 0.500000 0.000000 0.500000
O O10 0.461881 0.994035 0.287618
O O11 0.750000 0.080361 0.016029
O O12 0.921065 0.028577 0.914753
O O13 0.979988 0.047830 0.116960
O O14 0.250000 0.026754 0.175152
O O15 0.250000 0.318073 0.239129
O O16 0.413943 0.250000 0.240212
O O17 0.508895 0.318250 0.141433
O O18 0.491809 0.313518 0.358876
O O19 0.250000 0.817394 0.979705
O O20 0.088470 0.750000 0.962272
O O21 0.750000 0.302508 0.447228
O O22 0.541903 0.250000 0.494856
#
# Coordination Sequence:
#
# PCOD9449126 Si02
#       8
#     8   8   8   8   8   8   8   8
#     4  10  21  40  60  81 115 155 197 242 291 348
#     4  12  24  37  57  85 118 152 189 239 295 350
#     4  10  21  39  60  82 113 153 193 240 294 348
#     4  10  19  35  59  84 111 144 185 232 281 343
#     4   9  18  35  58  83 111 144 184 232 284 335
#     4   9  17  32  55  81 112 147 184 233 289 338
#     4  10  21  38  60  84 113 153 197 236 282 344
#     4   9  18  34  59  87 114 151 198 242 285 342
#
# _framework density 18.370391000000001
#
# number of rings (size 3 to 8) (size 9 to 14) (size 15 to 20)
#    0.000    2.125    1.250    2.250    0.000    4.750 
#    2.250    1.250    0.000    0.000    0.000    0.000 
#    0.000    0.000    0.000    0.000    0.000    0.000 
#
# Total GULP energy -357163.830250 kJ/mol
# GULP energy per Si atom -5580.684848 kJ/mol
# Density = 1.832858 g / cm^3
# Si number density = 18.370391 Si / 1000 Ang^3
#
#
#
# Elastic Constant Matrix: (Units=GPa)
#
#
# Indices 1 2 3 4 5 6 
#
# 1 97.1501 52.2626 64.6147 0.0000 0.0000 0.0000
# 2 52.2626 71.6350 66.9400 0.0000 0.0000 0.0000
# 3 64.6147 66.9400 115.5181 0.0000 0.0000 0.0000
# 4 0.0000 0.0000 0.0000 26.7748 0.0000 0.0000
# 5 0.0000 0.0000 0.0000 0.0000 32.5882 0.0000
# 6 0.0000 0.0000 0.0000 0.0000 0.0000 23.0516
#
#
#
# Elastic Compliance Matrix: (Units=1/GPa)
#
#
# Indices 1 2 3 4 5 6 
#
# 1 0.018409 -0.008306 -0.005484 0.000000 0.000000 0.000000
# 2 -0.008306 0.034194 -0.015169 0.000000 0.000000 0.000000
# 3 -0.005484 -0.015169 0.020514 0.000000 0.000000 0.000000
# 4 0.000000 0.000000 0.000000 0.037349 0.000000 0.000000
# 5 0.000000 0.000000 0.000000 0.000000 0.030686 0.000000
# 6 0.000000 0.000000 0.000000 0.000000 0.000000 0.043381
#
#
# Mechanical properties :
#
#
# Convention : Reuss Voigt Hill
#
# Bulk Modulus (GPa) = 65.79078 72.43754 69.11416
# Shear Modulus (GPa) = 20.20071 23.18197 21.69134
#
# Velocity S-wave (km/s) = 3.31967 3.55621 3.43997
# Velocity P-wave (km/s) = 7.11230 7.50862 7.31315
#
# Compressibility (1/GPa) = 0.01519970
#
# Stress axis : x y z
#
# Youngs Moduli (GPa) = 54.32122 29.24484 48.74783
#
# Poissons Ratio (x) = 0.24292 0.26732
# Poissons Ratio (y) = 0.45121 0.73943
# Poissons Ratio (z) = 0.29788 0.44360
#
# Static dielectric constant tensor:
#      x y z
#    x 1.623390 0.000000 0.000000 
#    y 0.000000 1.666010 0.000000 
#    z 0.000000 0.000000 1.599190 
# 
# From -- ./inp_files/15075.got.cif
#   From: 2010.05.17/outbox.cif.g08.bks.cpg/sg59_8_cif.got.tgz:15075.got - 2010.06.03 14:40:33.
