data_PCOD9449110
_publ_section_title
;
Structure prediction by ZEFSAII (Michael W. Deem and Ramdas Pophale) SiO2 
 PCOD9449110
Probable space group: P M M N
;
_chemical_formula_sum "Si O2"
_cell_formula_units_Z 48
_cell_length_a 8.554051
_cell_length_b 15.148387
_cell_length_c 20.494905
_cell_angle_alpha 90.000000
_cell_angle_beta 90.000000
_cell_angle_gamma 90.000000
_cell_volume 2655.731326
_symmetry_space_group_name_H-M "P M M N"
_symmetry_group_IT_number 59
_space_group.IT_coordinate_system_code '2'
_symmetry_cell_setting 'orthorhombic'
loop_
_space_group_symop_operation_xyz
x,y,z
1/2-x,1/2-y,z
1/2+x,-y,-z
-x,1/2+y,-z
-x,-y,-z
1/2+x,1/2+y,-z
1/2-x,y,z
x,1/2-y,z
loop_
_atom_site_type_symbol
_atom_site_label
_atom_site_fract_x
_atom_site_fract_y
_atom_site_fract_z
Si Si1 0.926831 0.250000 0.785809
Si Si2 0.061011 0.750000 0.481378
Si Si3 0.439147 0.250000 0.370171
Si Si4 0.927687 0.250000 0.943696
Si Si5 0.438995 0.938477 0.056590
Si Si6 0.060929 0.440884 0.315360
Si Si7 0.561183 0.057170 0.560465
Si Si8 0.435618 0.059820 0.797481
O O1 0.750000 0.250000 0.759570
O O2 0.919412 0.250000 0.864898
O O3 0.005958 0.344126 0.770823
O O4 0.250000 0.750000 0.481382
O O5 0.008801 0.841144 0.447168
O O6 0.004159 0.750000 0.556241
O O7 0.250000 0.250000 0.374412
O O8 0.486098 0.159257 0.333876
O O9 0.750000 0.250000 0.969064
O O10 0.002757 0.158633 0.961981
O O11 0.250000 0.936794 0.058088
O O12 0.495761 0.956013 0.130099
O O13 0.500000 0.000000 0.000000
O O14 0.250000 0.442208 0.310855
O O15 0.012837 0.506609 0.374023
O O16 0.991263 0.482207 0.250070
O O17 0.750000 0.056724 0.558813
O O18 0.500000 0.000000 0.500000
O O19 0.250000 0.062814 0.801684
#
# Coordination Sequence:
#
# PCOD9449110 Si02
#       8
#     4   4   4   4   8   8   8   8
#     4   9  17  34  58  80 109 147 180 221 280 337
#     4  10  20  33  53  83 112 140 177 228 286 342
#     4  10  20  36  58  80 104 145 194 232 274 338
#     4   7  14  29  51  77 105 140 177 213 266 329
#     4  10  19  35  58  84 114 150 190 233 284 338
#     4  10  21  37  56  79 109 147 190 234 286 340
#     4  10  20  34  54  79 108 140 182 228 278 335
#     4  11  22  36  56  85 116 148 190 235 283 341
#
# _framework density 18.074117000000001
#
# number of rings (size 3 to 8) (size 9 to 14) (size 15 to 20)
#    0.000    2.167    1.667    3.250    0.000    2.000 
#    0.000    3.750    0.000    0.000    0.000    0.000 
#    0.000    0.000    0.000    0.000    0.000    0.000 
#
# Total GULP energy -267629.124757 kJ/mol
# GULP energy per Si atom -5575.606766 kJ/mol
# Density = 1.803298 g / cm^3
# Si number density = 18.074117 Si / 1000 Ang^3
#
#
#
# Elastic Constant Matrix: (Units=GPa)
#
#
# Indices 1 2 3 4 5 6 
#
# 1 51.4551 39.3542 32.5871 0.0000 0.0000 0.0000
# 2 39.3542 193.0895 86.7507 0.0000 0.0000 0.0000
# 3 32.5871 86.7507 102.9219 0.0000 0.0000 0.0000
# 4 0.0000 0.0000 0.0000 33.8248 0.0000 0.0000
# 5 0.0000 0.0000 0.0000 0.0000 27.3129 0.0000
# 6 0.0000 0.0000 0.0000 0.0000 0.0000 23.3539
#
#
#
# Elastic Compliance Matrix: (Units=1/GPa)
#
#
# Indices 1 2 3 4 5 6 
#
# 1 0.025025 -0.002480 -0.005833 0.000000 0.000000 0.000000
# 2 -0.002480 0.008581 -0.006448 0.000000 0.000000 0.000000
# 3 -0.005833 -0.006448 0.016998 0.000000 0.000000 0.000000
# 4 0.000000 0.000000 0.000000 0.029564 0.000000 0.000000
# 5 0.000000 0.000000 0.000000 0.000000 0.036613 0.000000
# 6 0.000000 0.000000 0.000000 0.000000 0.000000 0.042819
#
#
# Mechanical properties :
#
#
# Convention : Reuss Voigt Hill
#
# Bulk Modulus (GPa) = 47.43272 73.87225 60.65248
# Shear Modulus (GPa) = 25.49074 29.48330 27.48702
#
# Velocity S-wave (km/s) = 3.75953 4.04325 3.90397
# Velocity P-wave (km/s) = 6.71907 7.92198 7.34519
#
# Compressibility (1/GPa) = 0.02108250
#
# Stress axis : x y z
#
# Youngs Moduli (GPa) = 39.95957 116.53427 58.83126
#
# Poissons Ratio (x) = 0.28896 0.34319
# Poissons Ratio (y) = 0.09909 0.37933
# Poissons Ratio (z) = 0.23310 0.75139
#
# Static dielectric constant tensor:
#      x y z
#    x 1.659220 0.000000 0.000000 
#    y 0.000000 1.651440 0.000000 
#    z 0.000000 0.000000 1.587120 
# 
# From -- ./inp_files/25638.got.cif
#   From: 2010.05.17/outbox.cif.g08.bks.cpg/sg59_13_cif.got.tgz:25638.got - 2010.06.03 14:40:33.
