data_PCOD9449078
_publ_section_title
;
Structure prediction by ZEFSAII (Michael W. Deem and Ramdas Pophale) SiO2 
 PCOD9449078
Probable space group: P M M N
;
_chemical_formula_sum "Si O2"
_cell_formula_units_Z 64
_cell_length_a 7.528596
_cell_length_b 31.495943
_cell_length_c 12.359359
_cell_angle_alpha 90.000000
_cell_angle_beta 90.000000
_cell_angle_gamma 90.000000
_cell_volume 2930.654055
_symmetry_space_group_name_H-M "P M M N"
_symmetry_group_IT_number 59
_space_group.IT_coordinate_system_code '2'
_symmetry_cell_setting 'orthorhombic'
loop_
_space_group_symop_operation_xyz
x,y,z
1/2-x,1/2-y,z
1/2+x,-y,-z
-x,1/2+y,-z
-x,-y,-z
1/2+x,1/2+y,-z
1/2-x,y,z
x,1/2-y,z
loop_
_atom_site_type_symbol
_atom_site_label
_atom_site_fract_x
_atom_site_fract_y
_atom_site_fract_z
Si Si1 0.038301 0.872782 0.894198
Si Si2 0.964350 0.459683 0.732796
Si Si3 0.463784 0.298235 0.266574
Si Si4 0.040245 0.159744 0.489632
Si Si5 0.539194 0.446901 0.260965
Si Si6 0.532212 0.375678 0.859585
Si Si7 0.964091 0.297200 0.712788
Si Si8 0.546390 0.063609 0.500495
O O1 0.250000 0.879230 0.902280
O O2 0.966730 0.910596 0.817873
O O3 0.008434 0.828483 0.833334
O O4 0.970948 0.873624 0.016593
O O5 0.750000 0.457263 0.728285
O O6 0.024599 0.419143 0.801283
O O7 0.033661 0.456061 0.609228
O O8 0.013539 0.505357 0.779944
O O9 0.250000 0.296395 0.274516
O O10 0.529146 0.250000 0.256349
O O11 0.527715 0.320304 0.377614
O O12 0.250000 0.151772 0.477820
O O13 0.011958 0.190935 0.589977
O O14 0.953928 0.114462 0.514906
O O15 0.750000 0.438512 0.271202
O O16 0.463455 0.444659 0.383011
O O17 0.750000 0.375337 0.858704
O O18 0.472904 0.334836 0.790939
O O19 0.750000 0.296853 0.719375
O O20 0.028260 0.250000 0.740577
O O21 0.750000 0.048358 0.495964
#
# Coordination Sequence:
#
# PCOD9449078 Si02
#       8
#     8   8   8   8   8   8   8   8
#     4  10  21  38  60  83 109 145 190 237 275 315
#     4  10  20  35  57  80 110 149 183 222 277 337
#     4  10  22  39  57  81 115 149 180 223 279 334
#     4  11  21  34  57  85 115 146 179 225 279 334
#     4  10  21  35  54  83 116 142 179 233 277 323
#     4   9  19  37  58  82 111 144 189 236 274 318
#     4  10  20  36  59  83 111 148 185 224 274 331
#     4  10  19  35  57  81 111 146 183 227 278 332
#
# _framework density 21.838128999999999
#
# number of rings (size 3 to 8) (size 9 to 14) (size 15 to 20)
#    0.000    2.000    2.500    1.125    0.000    4.000 
#    0.000    2.500    0.000    0.000    0.000    0.000 
#    0.000    0.000    0.000    0.000    0.000    0.000 
#
# Total GULP energy -357682.305472 kJ/mol
# GULP energy per Si atom -5588.786023 kJ/mol
# Density = 2.178842 g / cm^3
# Si number density = 21.838129 Si / 1000 Ang^3
#
#
#
# Elastic Constant Matrix: (Units=GPa)
#
#
# Indices 1 2 3 4 5 6 
#
# 1 57.3522 -9.3435 3.0482 0.0000 0.0000 0.0000
# 2 -9.3435 117.1314 29.7173 0.0000 0.0000 0.0000
# 3 3.0482 29.7173 117.9960 0.0000 0.0000 0.0000
# 4 0.0000 0.0000 0.0000 4.2593 0.0000 0.0000
# 5 0.0000 0.0000 0.0000 0.0000 -2.8848 0.0000
# 6 0.0000 0.0000 0.0000 0.0000 0.0000 16.8735
#
#
#
# Elastic Compliance Matrix: (Units=1/GPa)
#
#
# Indices 1 2 3 4 5 6 
#
# 1 0.017749 0.001637 -0.000871 0.000000 0.000000 0.000000
# 2 0.001637 0.009271 -0.002377 0.000000 0.000000 0.000000
# 3 -0.000871 -0.002377 0.009096 0.000000 0.000000 0.000000
# 4 0.000000 0.000000 0.000000 0.234780 0.000000 0.000000
# 5 0.000000 0.000000 0.000000 0.000000 -0.346644 0.000000
# 6 0.000000 0.000000 0.000000 0.000000 0.000000 0.059264
#
#
# Mechanical properties :
#
#
# Convention : Reuss Voigt Hill
#
# Bulk Modulus (GPa) = 30.40085 37.70262 34.05174
# Shear Modulus (GPa) = -2176.73226 21.58678 -1077.57274
#
# Velocity S-wave (km/s) = -31.60572 3.14744 -22.23753
# Velocity P-wave (km/s) = 36.30350 5.52364 25.37158
#
# Compressibility (1/GPa) = 0.03289382
#
# Stress axis : x y z
#
# Youngs Moduli (GPa) = 56.34104 107.86203 109.93769
#
# Poissons Ratio (x) = -0.17654 0.09573
# Poissons Ratio (y) = -0.09222 0.26135
# Poissons Ratio (z) = 0.04906 0.25641
#
# Static dielectric constant tensor:
#      x y z
#    x 1.825700 0.000000 0.000000 
#    y 0.000000 1.772150 0.000000 
#    z 0.000000 0.000000 1.776520 
# 
# From -- ./inp_files/14969.got.cif
#   From: 2010.05.17/outbox.cif.g08.bks.cpg/sg59_8_cif.got.tgz:14969.got - 2010.06.03 14:40:33.
