data_PCOD9449745
_publ_section_title
;
Structure prediction by ZEFSAII (Michael W. Deem and Ramdas Pophale) SiO2 
 PCOD9449745
Probable space group: P M M N
;
_chemical_formula_sum "Si O2"
_cell_formula_units_Z 48
_cell_length_a 9.260376
_cell_length_b 9.172296
_cell_length_c 32.013695
_cell_angle_alpha 90.000000
_cell_angle_beta 90.000000
_cell_angle_gamma 90.000000
_cell_volume 2719.208350
_symmetry_space_group_name_H-M "P M M N"
_symmetry_group_IT_number 59
_space_group.IT_coordinate_system_code '2'
_symmetry_cell_setting 'orthorhombic'
loop_
_space_group_symop_operation_xyz
x,y,z
1/2-x,1/2-y,z
1/2+x,-y,-z
-x,1/2+y,-z
-x,-y,-z
1/2+x,1/2+y,-z
1/2-x,y,z
x,1/2-y,z
loop_
_atom_site_type_symbol
_atom_site_label
_atom_site_fract_x
_atom_site_fract_y
_atom_site_fract_z
Si Si1 0.425712 0.582238 0.876234
Si Si2 0.576806 0.921732 0.208660
Si Si3 0.916285 0.572647 0.621563
Si Si4 0.580855 0.425532 0.461626
Si Si5 0.075997 0.078301 0.285088
Si Si6 0.923828 0.578243 0.038630
O O1 0.250000 0.581693 0.876037
O O2 0.473533 0.750000 0.877554
O O3 0.471166 0.503879 0.833541
O O4 0.469728 0.495808 0.917754
O O5 0.750000 0.941393 0.212715
O O6 0.548257 0.750000 0.204824
O O7 0.499343 0.988443 0.248832
O O8 0.750000 0.526422 0.615308
O O9 0.915946 0.750000 0.622382
O O10 0.965321 0.528353 0.667983
O O11 0.012693 0.526734 0.582602
O O12 0.500000 0.500000 0.500000
O O13 0.750000 0.459527 0.462981
O O14 0.564043 0.250000 0.464497
O O15 0.250000 0.066680 0.282504
O O16 0.039367 0.250000 0.280671
O O17 0.750000 0.562044 0.035011
O O18 0.956632 0.750000 0.039035
O O19 0.000000 0.500000 0.000000
#
# Coordination Sequence:
#
# PCOD9449745 Si02
#       6
#     8   8   8   8   8   8
#     4   9  17  31  52  75  99 131 170 210 253 300
#     4  10  20  33  50  74 103 133 166 204 246 295
#     4   8  15  30  51  72  96 128 165 205 249 296
#     4  10  20  33  51  76 103 132 168 208 251 300
#     4   9  18  33  53  76 100 128 164 205 250 300
#     4  10  20  34  53  77 105 136 170 210 256 305
#
# _framework density 17.652197000000001
#
# number of rings (size 3 to 8) (size 9 to 14) (size 15 to 20)
#    0.000    2.667    0.000    3.000    0.000    6.000 
#    0.000    3.333    0.000    6.000    0.000    0.000 
#    0.000    0.000    0.000    0.000    0.000    0.000 
#
# Total GULP energy -267717.958789 kJ/mol
# GULP energy per Si atom -5577.457475 kJ/mol
# Density = 1.761202 g / cm^3
# Si number density = 17.652197 Si / 1000 Ang^3
#
#
#
# Elastic Constant Matrix: (Units=GPa)
#
#
# Indices 1 2 3 4 5 6 
#
# 1 44.7679 47.9859 73.4939 0.0000 0.0000 0.0000
# 2 47.9859 96.0028 93.6379 0.0000 0.0000 0.0000
# 3 73.4939 93.6379 219.3467 0.0000 0.0000 0.0000
# 4 0.0000 0.0000 0.0000 34.5600 0.0000 0.0000
# 5 0.0000 0.0000 0.0000 0.0000 36.8255 0.0000
# 6 0.0000 0.0000 0.0000 0.0000 0.0000 23.4024
#
#
#
# Elastic Compliance Matrix: (Units=1/GPa)
#
#
# Indices 1 2 3 4 5 6 
#
# 1 0.065711 -0.019482 -0.013700 0.000000 0.000000 0.000000
# 2 -0.019482 0.023624 -0.003557 0.000000 0.000000 0.000000
# 3 -0.013700 -0.003557 0.010668 0.000000 0.000000 0.000000
# 4 0.000000 0.000000 0.000000 0.028935 0.000000 0.000000
# 5 0.000000 0.000000 0.000000 0.000000 0.027155 0.000000
# 6 0.000000 0.000000 0.000000 0.000000 0.000000 0.042731
#
#
# Mechanical properties :
#
#
# Convention : Reuss Voigt Hill
#
# Bulk Modulus (GPa) = 37.70215 87.81696 62.75955
# Shear Modulus (GPa) = 17.78442 28.62422 23.20432
#
# Velocity S-wave (km/s) = 3.17754 4.03124 3.62958
# Velocity P-wave (km/s) = 5.90483 8.45720 7.29354
#
# Compressibility (1/GPa) = 0.02652369
#
# Stress axis : x y z
#
# Youngs Moduli (GPa) = 15.21809 42.32984 93.73891
#
# Poissons Ratio (x) = 0.82468 1.28424
# Poissons Ratio (y) = 0.29648 0.33345
# Poissons Ratio (z) = 0.20849 0.15058
#
# Static dielectric constant tensor:
#      x y z
#    x 1.589610 0.000000 0.000000 
#    y 0.000000 1.591490 0.000000 
#    z 0.000000 0.000000 1.585680 
# 
# From -- ./inp_files/31866.got.cif
#   From: 2010.05.17/outbox.cif.g08.bks.cpg/sg59_16_cif.got.tgz:31866.got - 2010.06.03 14:40:33.
