data_PCOD9449081
_publ_section_title
;
Structure prediction by ZEFSAII (Michael W. Deem and Ramdas Pophale) SiO2 
 PCOD9449081
Probable space group: P M M N
;
_chemical_formula_sum "Si O2"
_cell_formula_units_Z 64
_cell_length_a 24.496032
_cell_length_b 7.569996
_cell_length_c 15.838510
_cell_angle_alpha 90.000000
_cell_angle_beta 90.000000
_cell_angle_gamma 90.000000
_cell_volume 2937.011952
_symmetry_space_group_name_H-M "P M M N"
_symmetry_group_IT_number 59
_space_group.IT_coordinate_system_code '2'
_symmetry_cell_setting 'orthorhombic'
loop_
_space_group_symop_operation_xyz
x,y,z
1/2-x,1/2-y,z
1/2+x,-y,-z
-x,1/2+y,-z
-x,-y,-z
1/2+x,1/2+y,-z
1/2-x,y,z
x,1/2-y,z
loop_
_atom_site_type_symbol
_atom_site_label
_atom_site_fract_x
_atom_site_fract_y
_atom_site_fract_z
Si Si1 0.510976 0.540599 0.848268
Si Si2 0.310828 0.542600 0.761180
Si Si3 0.629132 0.047309 0.911012
Si Si4 0.877537 0.541519 0.400313
Si Si5 0.107437 0.532681 0.905396
Si Si6 0.187280 0.966565 0.255852
Si Si7 0.503186 0.962799 0.349805
Si Si8 0.112257 0.962460 0.410903
O O1 0.516192 0.750000 0.862388
O O2 0.565937 0.454661 0.882612
O O3 0.455193 0.476950 0.891797
O O4 0.504985 0.507518 0.748392
O O5 0.250000 0.466167 0.767489
O O6 0.306749 0.750000 0.781134
O O7 0.334786 0.529275 0.667266
O O8 0.355036 0.471673 0.827806
O O9 0.647832 0.250000 0.919230
O O10 0.663401 0.969586 0.833628
O O11 0.630698 0.970831 0.004902
O O12 0.879379 0.750000 0.385888
O O13 0.864642 0.508736 0.497763
O O14 0.938407 0.468663 0.381242
O O15 0.106045 0.750000 0.905599
O O16 0.250000 0.017445 0.267276
O O17 0.185003 0.750000 0.255147
O O18 0.149022 0.025554 0.332938
O O19 0.504067 0.750000 0.357446
O O20 0.450029 0.028104 0.400223
O O21 0.110583 0.750000 0.405331
#
# Coordination Sequence:
#
# PCOD9449081 Si02
#       8
#     8   8   8   8   8   8   8   8
#     4  11  20  32  54  83 115 146 181 224 273 332
#     4  10  21  39  60  81 110 149 192 234 276 325
#     4  10  19  35  57  81 114 146 181 228 277 331
#     4  11  23  37  57  85 114 143 182 230 282 336
#     4   9  19  34  55  84 112 143 183 229 276 323
#     4   9  18  33  55  81 106 139 184 228 268 315
#     4  10  20  36  57  82 110 147 184 222 278 335
#     4  10  20  36  57  81 112 146 184 225 272 334
#
# _framework density 21.790854
#
# number of rings (size 3 to 8) (size 9 to 14) (size 15 to 20)
#    0.000    2.000    2.500    1.500    0.000    2.250 
#    0.000    5.000    0.000    1.125    0.000    0.000 
#    0.000    0.000    0.000    0.000    0.000    0.000 
#
# Total GULP energy -357639.595625 kJ/mol
# GULP energy per Si atom -5588.118682 kJ/mol
# Density = 2.174126 g / cm^3
# Si number density = 21.790854 Si / 1000 Ang^3
#
#
#
# Elastic Constant Matrix: (Units=GPa)
#
#
# Indices 1 2 3 4 5 6 
#
# 1 82.4039 0.5577 0.8698 0.0000 0.0000 0.0000
# 2 0.5577 49.6963 -16.6258 0.0000 0.0000 0.0000
# 3 0.8698 -16.6258 94.2246 0.0000 0.0000 0.0000
# 4 0.0000 0.0000 0.0000 4.8211 0.0000 0.0000
# 5 0.0000 0.0000 0.0000 0.0000 -0.4226 0.0000
# 6 0.0000 0.0000 0.0000 0.0000 0.0000 6.2894
#
#
#
# Elastic Compliance Matrix: (Units=1/GPa)
#
#
# Indices 1 2 3 4 5 6 
#
# 1 0.012138 -0.000185 -0.000145 0.000000 0.000000 0.000000
# 2 -0.000185 0.021387 0.003775 0.000000 0.000000 0.000000
# 3 -0.000145 0.003775 0.011280 0.000000 0.000000 0.000000
# 4 0.000000 0.000000 0.000000 0.207421 0.000000 0.000000
# 5 0.000000 0.000000 0.000000 0.000000 -2.366446 0.000000
# 6 0.000000 0.000000 0.000000 0.000000 0.000000 0.158998
#
#
# Mechanical properties :
#
#
# Convention : Reuss Voigt Hill
#
# Bulk Modulus (GPa) = 19.34294 21.76980 20.55637
# Shear Modulus (GPa) = -2.57085 18.23913 7.83414
#
# Velocity S-wave (km/s) = -1.08736 2.89625 1.89815
# Velocity P-wave (km/s) = 2.70545 4.60395 3.77596
#
# Compressibility (1/GPa) = 0.05169846
#
# Stress axis : x y z
#
# Youngs Moduli (GPa) = 82.38508 46.75658 88.64894
#
# Poissons Ratio (x) = 0.00863 0.01282
# Poissons Ratio (y) = 0.01521 -0.33469
# Poissons Ratio (z) = 0.01191 -0.17653
#
# Static dielectric constant tensor:
#      x y z
#    x 1.776660 0.000000 0.000000 
#    y 0.000000 1.820600 0.000000 
#    z 0.000000 0.000000 1.767100 
# 
# From -- ./inp_files/24685.got.cif
#   From: 2010.05.17/outbox.cif.g08.bks.cpg/sg59_13_cif.got.tgz:24685.got - 2010.06.03 14:40:33.
