data_PCOD9449697
_publ_section_title
;
Structure prediction by ZEFSAII (Michael W. Deem and Ramdas Pophale) SiO2 
 PCOD9449697
Probable space group: P M M N
;
_chemical_formula_sum "Si O2"
_cell_formula_units_Z 40
_cell_length_a 9.857434
_cell_length_b 20.567238
_cell_length_c 11.872013
_cell_angle_alpha 90.000000
_cell_angle_beta 90.000000
_cell_angle_gamma 90.000000
_cell_volume 2406.934185
_symmetry_space_group_name_H-M "P M M N"
_symmetry_group_IT_number 59
_space_group.IT_coordinate_system_code '2'
_symmetry_cell_setting 'orthorhombic'
loop_
_space_group_symop_operation_xyz
x,y,z
1/2-x,1/2-y,z
1/2+x,-y,-z
-x,1/2+y,-z
-x,-y,-z
1/2+x,1/2+y,-z
1/2-x,y,z
x,1/2-y,z
loop_
_atom_site_type_symbol
_atom_site_label
_atom_site_fract_x
_atom_site_fract_y
_atom_site_fract_z
Si Si1 0.088488 0.455072 0.417527
Si Si2 0.590106 0.825454 0.452615
Si Si3 0.093739 0.456828 0.156859
Si Si4 0.906586 0.094972 0.972675
Si Si5 0.594972 0.172281 0.758500
O O1 0.250000 0.469428 0.430376
O O2 0.067830 0.379559 0.452137
O O3 0.051792 0.464610 0.286639
O O4 0.000000 0.500000 0.500000
O O5 0.750000 0.826991 0.423808
O O6 0.557044 0.750000 0.482260
O O7 0.501141 0.845823 0.344835
O O8 0.250000 0.434137 0.156257
O O9 0.089543 0.526335 0.094089
O O10 0.998465 0.410797 0.082600
O O11 0.750000 0.108303 0.002650
O O12 0.953051 0.146191 0.878808
O O13 0.750000 0.147783 0.741538
O O14 0.598965 0.250000 0.761131
#
# Coordination Sequence:
#
# PCOD9449697 Si02
#       5
#     8   8   8   8   8
#     4  10  20  33  50  72  97 125 159 199 239 282
#     4   9  18  32  49  70  97 127 157 191 234 283
#     4   9  18  31  46  66  92 120 150 186 229 273
#     4   9  17  30  47  66  90 119 150 186 227 271
#     4   9  17  30  49  71  94 121 153 190 232 276
#
# _framework density 16.618651
#
# number of rings (size 3 to 8) (size 9 to 14) (size 15 to 20)
#    0.000    2.800    0.000    1.200    0.000    4.000 
#    0.000    5.000    0.000    1.200    0.000    0.000 
#    0.000    0.000    0.000    0.000    0.000    0.000 
#
# Total GULP energy -222817.078130 kJ/mol
# GULP energy per Si atom -5570.426953 kJ/mol
# Density = 1.658083 g / cm^3
# Si number density = 16.618651 Si / 1000 Ang^3
#
#
#
# Elastic Constant Matrix: (Units=GPa)
#
#
# Indices 1 2 3 4 5 6 
#
# 1 42.1754 19.2737 52.3093 0.0000 0.0000 0.0000
# 2 19.2737 27.3646 19.8347 0.0000 0.0000 0.0000
# 3 52.3093 19.8347 117.7293 0.0000 0.0000 0.0000
# 4 0.0000 0.0000 0.0000 26.0234 0.0000 0.0000
# 5 0.0000 0.0000 0.0000 0.0000 31.6630 0.0000
# 6 0.0000 0.0000 0.0000 0.0000 0.0000 18.1738
#
#
#
# Elastic Compliance Matrix: (Units=1/GPa)
#
#
# Indices 1 2 3 4 5 6 
#
# 1 0.069549 -0.030285 -0.025800 0.000000 0.000000 0.000000
# 2 -0.030285 0.054815 0.004221 0.000000 0.000000 0.000000
# 3 -0.025800 0.004221 0.019246 0.000000 0.000000 0.000000
# 4 0.000000 0.000000 0.000000 0.038427 0.000000 0.000000
# 5 0.000000 0.000000 0.000000 0.000000 0.031583 0.000000
# 6 0.000000 0.000000 0.000000 0.000000 0.000000 0.055024
#
#
# Mechanical properties :
#
#
# Convention : Reuss Voigt Hill
#
# Bulk Modulus (GPa) = 25.07348 41.12275 33.09811
# Shear Modulus (GPa) = 12.96463 21.56214 17.26338
#
# Velocity S-wave (km/s) = 2.79610 3.60594 3.22653
# Velocity P-wave (km/s) = 5.05416 6.49121 5.81723
#
# Compressibility (1/GPa) = 0.03988278
#
# Stress axis : x y z
#
# Youngs Moduli (GPa) = 14.37833 18.24334 51.95860
#
# Poissons Ratio (x) = 0.55250 1.34051
# Poissons Ratio (y) = 0.43545 -0.21933
# Poissons Ratio (z) = 0.37095 -0.07701
#
# Static dielectric constant tensor:
#      x y z
#    x 1.569030 0.000000 0.000000 
#    y 0.000000 1.577170 0.000000 
#    z 0.000000 0.000000 1.537710 
# 
# From -- ./inp_files/7347.got.cif
#   From: 2010.05.17/outbox.cif.g08.bks.cpg/sg59_4_cif.got.tgz:7347.got - 2010.06.03 14:40:33.
