data_PCOD9449505
_publ_section_title
;
Structure prediction by ZEFSAII (Michael W. Deem and Ramdas Pophale) SiO2 
 PCOD9449505
Probable space group: P M M N
;
_chemical_formula_sum "Si O2"
_cell_formula_units_Z 56
_cell_length_a 8.094210
_cell_length_b 15.729482
_cell_length_c 21.025411
_cell_angle_alpha 90.000000
_cell_angle_beta 90.000000
_cell_angle_gamma 90.000000
_cell_volume 2676.907611
_symmetry_space_group_name_H-M "P M M N"
_symmetry_group_IT_number 59
_space_group.IT_coordinate_system_code '2'
_symmetry_cell_setting 'orthorhombic'
loop_
_space_group_symop_operation_xyz
x,y,z
1/2-x,1/2-y,z
1/2+x,-y,-z
-x,1/2+y,-z
-x,-y,-z
1/2+x,1/2+y,-z
1/2-x,y,z
x,1/2-y,z
loop_
_atom_site_type_symbol
_atom_site_label
_atom_site_fract_x
_atom_site_fract_y
_atom_site_fract_z
Si Si1 0.553307 0.153018 0.158409
Si Si2 0.439591 0.392990 0.431815
Si Si3 0.054775 0.418085 0.565330
Si Si4 0.550510 0.152252 0.836225
Si Si5 0.562560 0.648470 0.703842
Si Si6 0.438544 0.648091 0.302569
Si Si7 0.447564 0.498845 0.926963
O O1 0.750000 0.158421 0.149311
O O2 0.487230 0.250000 0.150637
O O3 0.522549 0.122501 0.230744
O O4 0.486539 0.082478 0.110061
O O5 0.250000 0.362380 0.427012
O O6 0.452661 0.494852 0.433971
O O7 0.500230 0.366300 0.502037
O O8 0.519879 0.370521 0.364261
O O9 0.250000 0.436593 0.556298
O O10 0.032148 0.375873 0.633525
O O11 0.750000 0.154999 0.831889
O O12 0.494500 0.250000 0.847597
O O13 0.491568 0.121234 0.766186
O O14 0.503062 0.085998 0.890262
O O15 0.750000 0.613039 0.704340
O O16 0.572001 0.750000 0.706749
O O17 0.250000 0.615982 0.309035
O O18 0.432188 0.750000 0.298508
O O19 0.250000 0.501537 0.924072
O O20 0.500000 0.500000 0.000000
#
# Coordination Sequence:
#
# PCOD9449505 Si02
#       7
#     8   8   8   8   8   8   8
#     4   9  20  39  59  82 116 152 185 228 281 334
#     4   9  19  34  49  70 104 145 183 225 279 334
#     4  10  20  32  49  74 105 141 184 232 279 327
#     4   9  20  40  63  86 116 155 194 236 290 346
#     4   9  18  33  54  78 102 135 182 229 273 325
#     4   9  19  36  56  78 106 143 185 226 278 342
#     4  11  24  40  61  91 121 152 192 232 279 341
#
# _framework density 20.919661999999999
#
# number of rings (size 3 to 8) (size 9 to 14) (size 15 to 20)
#    0.000    2.571    0.000    1.714    2.000    4.571 
#    0.000    4.286    0.000    1.714    0.000    0.000 
#    0.000    0.000    0.000    0.000    0.000    0.000 
#
# Total GULP energy -312112.009693 kJ/mol
# GULP energy per Si atom -5573.428745 kJ/mol
# Density = 2.087205 g / cm^3
# Si number density = 20.919662 Si / 1000 Ang^3
#
#
#
# Elastic Constant Matrix: (Units=GPa)
#
#
# Indices 1 2 3 4 5 6 
#
# 1 25.3203 10.7846 15.0167 0.0000 0.0000 0.0000
# 2 10.7846 75.8748 80.1463 0.0000 0.0000 0.0000
# 3 15.0167 80.1463 224.0480 0.0000 0.0000 0.0000
# 4 0.0000 0.0000 0.0000 55.8983 0.0000 0.0000
# 5 0.0000 0.0000 0.0000 0.0000 29.2340 0.0000
# 6 0.0000 0.0000 0.0000 0.0000 0.0000 18.6171
#
#
#
# Elastic Compliance Matrix: (Units=1/GPa)
#
#
# Indices 1 2 3 4 5 6 
#
# 1 0.042206 -0.004840 -0.001098 0.000000 0.000000 0.000000
# 2 -0.004840 0.021739 -0.007452 0.000000 0.000000 0.000000
# 3 -0.001098 -0.007452 0.007203 0.000000 0.000000 0.000000
# 4 0.000000 0.000000 0.000000 0.017890 0.000000 0.000000
# 5 0.000000 0.000000 0.000000 0.000000 0.034207 0.000000
# 6 0.000000 0.000000 0.000000 0.000000 0.000000 0.053714
#
#
# Mechanical properties :
#
#
# Convention : Reuss Voigt Hill
#
# Bulk Modulus (GPa) = 22.53810 59.68204 41.11007
# Shear Modulus (GPa) = 22.88046 35.36960 29.12503
#
# Velocity S-wave (km/s) = 3.31075 4.11632 3.73531
# Velocity P-wave (km/s) = 5.04101 7.15424 6.18849
#
# Compressibility (1/GPa) = 0.04436932
#
# Stress axis : x y z
#
# Youngs Moduli (GPa) = 23.69312 45.99997 138.83746
#
# Poissons Ratio (x) = 0.22262 0.15239
# Poissons Ratio (y) = 0.11467 1.03463
# Poissons Ratio (z) = 0.02601 0.34280
#
# Static dielectric constant tensor:
#      x y z
#    x 1.774550 0.000000 0.000000 
#    y 0.000000 1.754340 0.000000 
#    z 0.000000 0.000000 1.798360 
# 
# From -- ./inp_files/29111.got.cif
#   From: 2010.05.17/outbox.cif.g08.bks.cpg/sg59_15_cif.got.tgz:29111.got - 2010.06.03 14:40:33.
