data_PCOD9449251
_publ_section_title
;
Structure prediction by ZEFSAII (Michael W. Deem and Ramdas Pophale) SiO2 
 PCOD9449251
Probable space group: P M M N
;
_chemical_formula_sum "Si O2"
_cell_formula_units_Z 40
_cell_length_a 19.584761
_cell_length_b 17.422538
_cell_length_c 5.604886
_cell_angle_alpha 90.000000
_cell_angle_beta 90.000000
_cell_angle_gamma 90.000000
_cell_volume 1912.478142
_symmetry_space_group_name_H-M "P M M N"
_symmetry_group_IT_number 59
_space_group.IT_coordinate_system_code '2'
_symmetry_cell_setting 'orthorhombic'
loop_
_space_group_symop_operation_xyz
x,y,z
1/2-x,1/2-y,z
1/2+x,-y,-z
-x,1/2+y,-z
-x,-y,-z
1/2+x,1/2+y,-z
1/2-x,y,z
x,1/2-y,z
loop_
_atom_site_type_symbol
_atom_site_label
_atom_site_fract_x
_atom_site_fract_y
_atom_site_fract_z
Si Si1 0.512256 0.750000 0.554751
Si Si2 0.453943 0.907313 0.713511
Si Si3 0.173655 0.119453 0.702225
Si Si4 0.092436 0.462387 0.344350
Si Si5 0.674945 0.457820 0.034122
Si Si6 0.595563 0.750000 0.054298
O O1 0.467145 0.826621 0.587851
O O2 0.545366 0.750000 0.288651
O O3 0.559678 0.750000 0.796925
O O4 0.527934 0.934992 0.814975
O O5 0.390105 0.906827 0.892515
O O6 0.434994 0.972083 0.520815
O O7 0.250000 0.144268 0.633580
O O8 0.120620 0.111253 0.485918
O O9 0.142945 0.175518 0.900578
O O10 0.177415 0.032201 0.794578
O O11 0.155039 0.501965 0.212224
O O12 0.750000 0.421482 0.032860
#
# Coordination Sequence:
#
# PCOD9449251 Si02
#       6
#     4   8   8   8   8   4
#     4  12  26  42  66  90 130 165 216 264 317 376
#     4  10  22  37  61  90 120 165 210 269 316 381
#     4  10  21  37  58  90 130 168 211 255 315 384
#     4  10  19  37  62  90 119 162 214 265 320 375
#     4  10  21  37  61  89 122 163 211 270 324 383
#     4  12  25  42  60  94 131 173 208 256 312 382
#
# _framework density 20.915272000000002
#
# number of rings (size 3 to 8) (size 9 to 14) (size 15 to 20)
#    0.000    1.600    2.000    2.700    2.800    0.800 
#    0.000    1.500    0.000    0.000    0.000    0.000 
#    0.000    0.000    0.000    0.000    0.000    0.000 
#
# Total GULP energy -223011.462279 kJ/mol
# GULP energy per Si atom -5575.286557 kJ/mol
# Density = 2.086767 g / cm^3
# Si number density = 20.915272 Si / 1000 Ang^3
#
#
#
# Elastic Constant Matrix: (Units=GPa)
#
#
# Indices 1 2 3 4 5 6 
#
# 1 131.9301 23.9864 29.3092 0.0000 0.0000 0.0000
# 2 23.9864 44.3282 3.3879 0.0000 0.0000 0.0000
# 3 29.3092 3.3879 59.0653 0.0000 0.0000 0.0000
# 4 0.0000 0.0000 0.0000 20.4490 0.0000 0.0000
# 5 0.0000 0.0000 0.0000 0.0000 19.5775 0.0000
# 6 0.0000 0.0000 0.0000 0.0000 0.0000 -44.4149
#
#
#
# Elastic Compliance Matrix: (Units=1/GPa)
#
#
# Indices 1 2 3 4 5 6 
#
# 1 0.009424 -0.004763 -0.004403 0.000000 0.000000 0.000000
# 2 -0.004763 0.025065 0.000926 0.000000 0.000000 0.000000
# 3 -0.004403 0.000926 0.019062 0.000000 0.000000 0.000000
# 4 0.000000 0.000000 0.000000 0.048902 0.000000 0.000000
# 5 0.000000 0.000000 0.000000 0.000000 0.051079 0.000000
# 6 0.000000 0.000000 0.000000 0.000000 0.000000 -0.022515
#
#
# Mechanical properties :
#
#
# Convention : Reuss Voigt Hill
#
# Bulk Modulus (GPa) = 26.97520 38.74338 32.85929
# Shear Modulus (GPa) = 31.27831 11.03168 21.15499
#
# Velocity S-wave (km/s) = 3.87134 2.29911 3.18380
# Velocity P-wave (km/s) = 5.73658 5.06084 5.40927
#
# Compressibility (1/GPa) = 0.03707109
#
# Stress axis : x y z
#
# Youngs Moduli (GPa) = 106.11334 39.89550 52.45978
#
# Poissons Ratio (x) = 0.19002 0.23099
# Poissons Ratio (y) = 0.50540 -0.04856
# Poissons Ratio (z) = 0.46723 -0.03693
#
# Static dielectric constant tensor:
#      x y z
#    x 1.810100 0.000000 0.000000 
#    y 0.000000 1.743450 0.000000 
#    z 0.000000 0.000000 1.796720 
# 
# From -- ./inp_files/2771.got.cif
#   From: 2010.05.17/outbox.cif.g08.bks.cpg/sg59_2_cif.got.tgz:2771.got - 2010.06.03 14:40:33.
