data_PCOD9449417
_publ_section_title
;
Structure prediction by ZEFSAII (Michael W. Deem and Ramdas Pophale) SiO2 
 PCOD9449417
Probable space group: P M M N
;
_chemical_formula_sum "Si O2"
_cell_formula_units_Z 64
_cell_length_a 22.753908
_cell_length_b 8.358575
_cell_length_c 18.243414
_cell_angle_alpha 90.000000
_cell_angle_beta 90.000000
_cell_angle_gamma 90.000000
_cell_volume 3469.719407
_symmetry_space_group_name_H-M "P M M N"
_symmetry_group_IT_number 59
_space_group.IT_coordinate_system_code '2'
_symmetry_cell_setting 'orthorhombic'
loop_
_space_group_symop_operation_xyz
x,y,z
1/2-x,1/2-y,z
1/2+x,-y,-z
-x,1/2+y,-z
-x,-y,-z
1/2+x,1/2+y,-z
1/2-x,y,z
x,1/2-y,z
loop_
_atom_site_type_symbol
_atom_site_label
_atom_site_fract_x
_atom_site_fract_y
_atom_site_fract_z
Si Si1 0.921207 0.438294 0.531484
Si Si2 0.182075 0.442383 0.381924
Si Si3 0.683430 0.934434 0.049264
Si Si4 0.970359 0.060483 0.377948
Si Si5 0.620498 0.565773 0.767401
Si Si6 0.686070 0.429429 0.895573
Si Si7 0.547657 0.942583 0.063027
Si Si8 0.004732 0.438418 0.771518
O O1 0.935131 0.250000 0.535044
O O2 0.855849 0.472935 0.556574
O O3 0.931988 0.492594 0.448206
O O4 0.964524 0.524527 0.589248
O O5 0.250000 0.480704 0.385957
O O6 0.174580 0.250000 0.387703
O O7 0.155830 0.490468 0.303322
O O8 0.750000 0.999202 0.071541
O O9 0.682607 0.750000 0.074271
O O10 0.616644 0.001378 0.062689
O O11 0.684786 0.947293 0.961403
O O12 0.963702 0.250000 0.367262
O O13 0.956889 0.974012 0.301119
O O14 0.636368 0.750000 0.781821
O O15 0.636638 0.462069 0.837446
O O16 0.551924 0.545917 0.755616
O O17 0.750000 0.442212 0.858409
O O18 0.681190 0.250000 0.926615
O O19 0.550100 0.750000 0.053539
O O20 0.526365 0.976881 0.146299
O O21 0.500000 0.000000 0.000000
O O22 0.989921 0.250000 0.770831
#
# Coordination Sequence:
#
# PCOD9449417 Si02
#       8
#     8   8   8   8   8   8   8   8
#     4  10  20  34  55  80 106 137 177 222 265 312
#     4  10  21  35  51  74 107 145 182 219 261 318
#     4   9  18  35  57  76  98 135 182 227 275 333
#     4  10  20  35  55  80 106 137 176 219 269 322
#     4  11  21  33  49  71 102 141 181 217 259 317
#     4  10  20  32  47  70 100 134 174 220 265 315
#     4  10  22  37  54  81 113 145 183 230 282 333
#     4  11  22  35  53  79 109 139 177 225 276 325
#
# _framework density 18.445295999999999
#
# number of rings (size 3 to 8) (size 9 to 14) (size 15 to 20)
#    0.000    1.875    1.250    3.000    0.000    7.000 
#    0.000    0.000    0.000    0.750    0.000    1.750 
#    0.000    0.000    0.000    0.000    0.000    0.000 
#
# Total GULP energy -356346.244156 kJ/mol
# GULP energy per Si atom -5567.910065 kJ/mol
# Density = 1.840331 g / cm^3
# Si number density = 18.445296 Si / 1000 Ang^3
#
#
#
# Elastic Constant Matrix: (Units=GPa)
#
#
# Indices 1 2 3 4 5 6 
#
# 1 83.1255 9.9708 35.7250 0.0000 0.0000 0.0000
# 2 9.9708 19.4367 17.0671 0.0000 0.0000 0.0000
# 3 35.7250 17.0671 106.3074 0.0000 0.0000 0.0000
# 4 0.0000 0.0000 0.0000 15.0684 0.0000 0.0000
# 5 0.0000 0.0000 0.0000 0.0000 28.5575 0.0000
# 6 0.0000 0.0000 0.0000 0.0000 0.0000 21.6095
#
#
#
# Elastic Compliance Matrix: (Units=1/GPa)
#
#
# Indices 1 2 3 4 5 6 
#
# 1 0.014276 -0.003621 -0.004216 0.000000 0.000000 0.000000
# 2 -0.003621 0.060811 -0.008546 0.000000 0.000000 0.000000
# 3 -0.004216 -0.008546 0.012196 0.000000 0.000000 0.000000
# 4 0.000000 0.000000 0.000000 0.066364 0.000000 0.000000
# 5 0.000000 0.000000 0.000000 0.000000 0.035017 0.000000
# 6 0.000000 0.000000 0.000000 0.000000 0.000000 0.046276
#
#
# Mechanical properties :
#
#
# Convention : Reuss Voigt Hill
#
# Bulk Modulus (GPa) = 18.34336 37.15507 27.74921
# Shear Modulus (GPa) = 17.48993 22.78753 20.13873
#
# Velocity S-wave (km/s) = 3.08264 3.51865 3.30784
# Velocity P-wave (km/s) = 4.75778 6.05764 5.44663
#
# Compressibility (1/GPa) = 0.05451564
#
# Stress axis : x y z
#
# Youngs Moduli (GPa) = 70.04562 16.44447 81.99701
#
# Poissons Ratio (x) = 0.05955 0.34572
# Poissons Ratio (y) = 0.25366 0.70074
# Poissons Ratio (z) = 0.29533 0.14053
#
# Static dielectric constant tensor:
#      x y z
#    x 1.737200 0.000000 0.000000 
#    y 0.000000 1.660410 0.000000 
#    z 0.000000 0.000000 1.622090 
# 
# From -- ./inp_files/28286.got.cif
#   From: 2010.05.17/outbox.cif.g08.bks.cpg/sg59_15_cif.got.tgz:28286.got - 2010.06.03 14:40:33.
