data_PCOD9449550
_publ_section_title
;
Structure prediction by ZEFSAII (Michael W. Deem and Ramdas Pophale) SiO2 
 PCOD9449550
Probable space group: P M M N
;
_chemical_formula_sum "Si O2"
_cell_formula_units_Z 48
_cell_length_a 16.583494
_cell_length_b 7.599633
_cell_length_c 18.765585
_cell_angle_alpha 90.000000
_cell_angle_beta 90.000000
_cell_angle_gamma 90.000000
_cell_volume 2364.997934
_symmetry_space_group_name_H-M "P M M N"
_symmetry_group_IT_number 59
_space_group.IT_coordinate_system_code '2'
_symmetry_cell_setting 'orthorhombic'
loop_
_space_group_symop_operation_xyz
x,y,z
1/2-x,1/2-y,z
1/2+x,-y,-z
-x,1/2+y,-z
-x,-y,-z
1/2+x,1/2+y,-z
1/2-x,y,z
x,1/2-y,z
loop_
_atom_site_type_symbol
_atom_site_label
_atom_site_fract_x
_atom_site_fract_y
_atom_site_fract_z
Si Si1 0.093939 0.453897 0.788401
Si Si2 0.938849 0.958355 0.697701
Si Si3 0.085485 0.461382 0.462363
Si Si4 0.250000 0.465514 0.540760
Si Si5 0.750000 0.533364 0.294125
Si Si6 0.492920 0.961520 0.082857
Si Si7 0.661180 0.462322 0.831776
O O1 0.114048 0.250000 0.801970
O O2 0.171010 0.529050 0.748182
O O3 0.062701 0.529747 0.863721
O O4 0.017603 0.461140 0.735183
O O5 0.953864 0.750000 0.692986
O O6 0.920635 0.026793 0.618939
O O7 0.865922 0.989975 0.752121
O O8 0.093018 0.250000 0.459696
O O9 0.166670 0.523878 0.502556
O O10 0.000000 0.500000 0.500000
O O11 0.250000 0.250000 0.539496
O O12 0.250000 0.520728 0.623381
O O13 0.750000 0.750000 0.295889
O O14 0.493159 0.750000 0.090681
O O15 0.408441 0.026968 0.115331
O O16 0.500000 0.000000 0.000000
O O17 0.750000 0.528488 0.848470
O O18 0.662177 0.250000 0.836077
#
# Coordination Sequence:
#
# PCOD9449550 Si02
#       7
#     8   8   8   4   4   8   8
#     4   9  18  34  55  77 100 136 178 216 254 307
#     4  10  20  32  51  77 106 138 172 216 266 313
#     4  10  21  35  52  75 106 140 177 218 267 318
#     4   9  18  32  51  75 102 137 172 212 263 313
#     4   9  16  30  55  77  94 127 180 220 247 295
#     4   9  18  33  52  75 105 134 164 206 253 304
#     4   9  19  36  56  77 101 136 178 214 251 305
#
# _framework density 20.295999999999999
#
# number of rings (size 3 to 8) (size 9 to 14) (size 15 to 20)
#    0.000    2.667    0.000    2.500    1.167    5.667 
#    1.500    0.833    0.000    3.000    0.000    0.000 
#    0.000    0.000    0.000    0.000    0.000    0.000 
#
# Total GULP energy -267766.785228 kJ/mol
# GULP energy per Si atom -5578.474692 kJ/mol
# Density = 2.024981 g / cm^3
# Si number density = 20.296000 Si / 1000 Ang^3
#
#
#
# Elastic Constant Matrix: (Units=GPa)
#
#
# Indices 1 2 3 4 5 6 
#
# 1 135.6080 -6.8856 100.1791 0.0000 0.0000 0.0000
# 2 -6.8856 39.2854 -2.9421 0.0000 0.0000 0.0000
# 3 100.1791 -2.9421 211.4459 0.0000 0.0000 0.0000
# 4 0.0000 0.0000 0.0000 15.9513 0.0000 0.0000
# 5 0.0000 0.0000 0.0000 0.0000 13.9562 0.0000
# 6 0.0000 0.0000 0.0000 0.0000 0.0000 9.8607
#
#
#
# Elastic Compliance Matrix: (Units=1/GPa)
#
#
# Indices 1 2 3 4 5 6 
#
# 1 0.011445 0.001602 -0.005400 0.000000 0.000000 0.000000
# 2 0.001602 0.025705 -0.000401 0.000000 0.000000 0.000000
# 3 -0.005400 -0.000401 0.007282 0.000000 0.000000 0.000000
# 4 0.000000 0.000000 0.000000 0.062691 0.000000 0.000000
# 5 0.000000 0.000000 0.000000 0.000000 0.071653 0.000000
# 6 0.000000 0.000000 0.000000 0.000000 0.000000 0.101412
#
#
# Mechanical properties :
#
#
# Convention : Reuss Voigt Hill
#
# Bulk Modulus (GPa) = 27.75224 63.00467 45.37846
# Shear Modulus (GPa) = 16.63348 27.68616 22.15982
#
# Velocity S-wave (km/s) = 2.86587 3.69741 3.30787
# Velocity P-wave (km/s) = 4.96532 7.02410 6.08245
#
# Compressibility (1/GPa) = 0.03603313
#
# Stress axis : x y z
#
# Youngs Moduli (GPa) = 87.37654 38.90231 137.32143
#
# Poissons Ratio (x) = -0.06230 0.74154
# Poissons Ratio (y) = -0.13993 0.05508
# Poissons Ratio (z) = 0.47183 0.01560
#
# Static dielectric constant tensor:
#      x y z
#    x 1.712400 0.000000 0.000000 
#    y 0.000000 1.751050 0.000000 
#    z 0.000000 0.000000 1.700830 
# 
# From -- ./inp_files/27423.got.cif
#   From: 2010.05.17/outbox.cif.g08.bks.cpg/sg59_14_cif.got.tgz:27423.got - 2010.06.03 14:40:33.
