data_PCOD9449342
_publ_section_title
;
Structure prediction by ZEFSAII (Michael W. Deem and Ramdas Pophale) SiO2 
 PCOD9449342
Probable space group: P M M N
;
_chemical_formula_sum "Si O2"
_cell_formula_units_Z 64
_cell_length_a 27.705021
_cell_length_b 8.737023
_cell_length_c 17.677392
_cell_angle_alpha 90.000000
_cell_angle_beta 90.000000
_cell_angle_gamma 90.000000
_cell_volume 4278.979002
_symmetry_space_group_name_H-M "P M M N"
_symmetry_group_IT_number 59
_space_group.IT_coordinate_system_code '2'
_symmetry_cell_setting 'orthorhombic'
loop_
_space_group_symop_operation_xyz
x,y,z
1/2-x,1/2-y,z
1/2+x,-y,-z
-x,1/2+y,-z
-x,-y,-z
1/2+x,1/2+y,-z
1/2-x,y,z
x,1/2-y,z
loop_
_atom_site_type_symbol
_atom_site_label
_atom_site_fract_x
_atom_site_fract_y
_atom_site_fract_z
Si Si1 0.194324 0.564768 0.916157
Si Si2 0.384406 0.433045 0.027541
Si Si3 0.376467 0.565663 0.785326
Si Si4 0.060517 0.933029 0.158686
Si Si5 0.577305 0.434330 0.364568
Si Si6 0.053030 0.067124 0.483657
Si Si7 0.533091 0.565980 0.681080
Si Si8 0.955833 0.934264 0.104643
O O1 0.250000 0.517577 0.919509
O O2 0.192252 0.750000 0.919768
O O3 0.168818 0.516833 0.836908
O O4 0.162253 0.498543 0.984395
O O5 0.381628 0.250000 0.029661
O O6 0.395856 0.497561 0.110221
O O7 0.429557 0.478514 0.973152
O O8 0.376949 0.750000 0.785356
O O9 0.383827 0.516974 0.698568
O O10 0.423149 0.506607 0.830099
O O11 0.063404 0.750000 0.156778
O O12 0.010651 0.982733 0.117247
O O13 0.054526 0.989078 0.244540
O O14 0.577245 0.250000 0.370785
O O15 0.584716 0.503040 0.447746
O O16 0.523313 0.477390 0.334173
O O17 0.051157 0.250000 0.488413
O O18 0.062109 0.026874 0.395963
O O19 0.000000 0.000000 0.500000
O O20 0.533727 0.750000 0.690678
O O21 0.953917 0.750000 0.110387
#
# Coordination Sequence:
#
# PCOD9449342 Si02
#       8
#     8   8   8   8   8   8   8   8
#     4   9  18  33  51  68  87 111 141 180 223 263
#     4  10  20  32  45  61  84 113 144 178 217 263
#     4   9  16  27  44  64  86 114 145 178 217 260
#     4  11  20  28  41  61  85 113 147 183 217 254
#     4   9  16  26  40  59  83 112 147 180 212 253
#     4   9  17  27  39  55  79 112 148 181 212 247
#     4   9  17  28  39  55  81 115 148 178 215 253
#     4   9  18  29  40  59  84 112 146 180 214 252
#
# _framework density 14.956839
#
# number of rings (size 3 to 8) (size 9 to 14) (size 15 to 20)
#    0.000    2.625    1.250    2.250    0.000    4.250 
#    0.000    0.000    0.000    0.000    0.000    0.000 
#    0.000    1.000    0.000    9.250    0.000    2.500 
#
# Total GULP energy -356386.912073 kJ/mol
# GULP energy per Si atom -5568.545501 kJ/mol
# Density = 1.492280 g / cm^3
# Si number density = 14.956839 Si / 1000 Ang^3
#
#
#
# Elastic Constant Matrix: (Units=GPa)
#
#
# Indices 1 2 3 4 5 6 
#
# 1 69.8338 19.6452 58.4499 0.0000 0.0000 0.0000
# 2 19.6452 13.5000 33.8860 0.0000 0.0000 0.0000
# 3 58.4499 33.8860 125.5216 0.0000 0.0000 0.0000
# 4 0.0000 0.0000 0.0000 25.9829 0.0000 0.0000
# 5 0.0000 0.0000 0.0000 0.0000 10.6955 0.0000
# 6 0.0000 0.0000 0.0000 0.0000 0.0000 13.5877
#
#
#
# Elastic Compliance Matrix: (Units=1/GPa)
#
#
# Indices 1 2 3 4 5 6 
#
# 1 0.025522 -0.022671 -0.005764 0.000000 0.000000 0.000000
# 2 -0.022671 0.249913 -0.056910 0.000000 0.000000 0.000000
# 3 -0.005764 -0.056910 0.026014 0.000000 0.000000 0.000000
# 4 0.000000 0.000000 0.000000 0.038487 0.000000 0.000000
# 5 0.000000 0.000000 0.000000 0.000000 0.093498 0.000000
# 6 0.000000 0.000000 0.000000 0.000000 0.000000 0.073596
#
#
# Mechanical properties :
#
#
# Convention : Reuss Voigt Hill
#
# Bulk Modulus (GPa) = 7.64766 48.09085 27.86925
# Shear Modulus (GPa) = 6.93186 16.51150 11.72168
#
# Velocity S-wave (km/s) = 2.15514 3.32617 2.80250
# Velocity P-wave (km/s) = 3.36409 6.85376 5.39867
#
# Compressibility (1/GPa) = 0.13075903
#
# Stress axis : x y z
#
# Youngs Moduli (GPa) = 39.18205 4.00139 38.44036
#
# Poissons Ratio (x) = 0.09072 0.22157
# Poissons Ratio (y) = 0.88831 2.18764
# Poissons Ratio (z) = 0.22585 0.22772
#
# Static dielectric constant tensor:
#      x y z
#    x 1.462480 0.000000 0.000000 
#    y 0.000000 1.499140 0.000000 
#    z 0.000000 0.000000 1.505490 
# 
# From -- ./inp_files/28454.got.cif
#   From: 2010.05.17/outbox.cif.g08.bks.cpg/sg59_15_cif.got.tgz:28454.got - 2010.06.03 14:40:33.
