data_PCOD9449161
_publ_section_title
;
Structure prediction by ZEFSAII (Michael W. Deem and Ramdas Pophale) SiO2 
 PCOD9449161
Probable space group: P M M N
;
_chemical_formula_sum "Si O2"
_cell_formula_units_Z 48
_cell_length_a 15.014439
_cell_length_b 17.337696
_cell_length_c 9.744501
_cell_angle_alpha 90.000000
_cell_angle_beta 90.000000
_cell_angle_gamma 90.000000
_cell_volume 2536.647369
_symmetry_space_group_name_H-M "P M M N"
_symmetry_group_IT_number 59
_space_group.IT_coordinate_system_code '2'
_symmetry_cell_setting 'orthorhombic'
loop_
_space_group_symop_operation_xyz
x,y,z
1/2-x,1/2-y,z
1/2+x,-y,-z
-x,1/2+y,-z
-x,-y,-z
1/2+x,1/2+y,-z
1/2-x,y,z
x,1/2-y,z
loop_
_atom_site_type_symbol
_atom_site_label
_atom_site_fract_x
_atom_site_fract_y
_atom_site_fract_z
Si Si1 0.849197 0.548537 0.015429
Si Si2 0.354311 0.595874 0.800655
Si Si3 0.512734 0.335918 0.979739
Si Si4 0.000229 0.084056 0.428976
Si Si5 0.575117 0.335869 0.664345
Si Si6 0.348563 0.499079 0.287649
O O1 0.750000 0.584399 0.018518
O O2 0.857960 0.492312 0.145236
O O3 0.931509 0.605402 0.006719
O O4 0.852588 0.497066 0.877444
O O5 0.250000 0.617089 0.785333
O O6 0.413581 0.600512 0.663926
O O7 0.405733 0.642863 0.919532
O O8 0.482705 0.250000 0.015693
O O9 0.540883 0.336487 0.820303
O O10 0.000423 0.146952 0.549717
O O11 0.084347 0.069023 0.331171
O O12 0.000000 0.000000 0.500000
O O13 0.614081 0.250000 0.639638
O O14 0.632768 0.414629 0.655976
O O15 0.250000 0.476735 0.331205
#
# Coordination Sequence:
#
# PCOD9449161 Si02
#       6
#     8   8   8   8   8   8
#     4  10  19  35  62  90 115 148 196 249 295 347
#     4  11  22  38  62  89 117 152 197 244 293 350
#     4  11  22  38  60  86 120 156 196 248 302 352
#     4  10  21  37  58  86 119 158 196 241 286 352
#     4  10  22  38  58  85 121 162 195 238 304 357
#     4  10  19  35  61  89 116 152 199 246 291 348
#
# _framework density 18.922615
#
# number of rings (size 3 to 8) (size 9 to 14) (size 15 to 20)
#    0.000    1.667    3.333    2.500    0.000    4.333 
#    0.000    2.500    0.000    1.500    0.000    0.000 
#    0.000    0.000    0.000    0.000    0.000    0.000 
#
# Total GULP energy -267317.219956 kJ/mol
# GULP energy per Si atom -5569.108749 kJ/mol
# Density = 1.887955 g / cm^3
# Si number density = 18.922615 Si / 1000 Ang^3
#
#
#
# Elastic Constant Matrix: (Units=GPa)
#
#
# Indices 1 2 3 4 5 6 
#
# 1 88.3824 34.9523 23.1966 0.0000 0.0000 0.0000
# 2 34.9523 64.9493 20.6093 0.0000 0.0000 0.0000
# 3 23.1966 20.6093 90.6636 0.0000 0.0000 0.0000
# 4 0.0000 0.0000 0.0000 17.1213 0.0000 0.0000
# 5 0.0000 0.0000 0.0000 0.0000 5.5504 0.0000
# 6 0.0000 0.0000 0.0000 0.0000 0.0000 3.9824
#
#
#
# Elastic Compliance Matrix: (Units=1/GPa)
#
#
# Indices 1 2 3 4 5 6 
#
# 1 0.014743 -0.007260 -0.002122 0.000000 0.000000 0.000000
# 2 -0.007260 0.020169 -0.002727 0.000000 0.000000 0.000000
# 3 -0.002122 -0.002727 0.012193 0.000000 0.000000 0.000000
# 4 0.000000 0.000000 0.000000 0.058407 0.000000 0.000000
# 5 0.000000 0.000000 0.000000 0.000000 0.180168 0.000000
# 6 0.000000 0.000000 0.000000 0.000000 0.000000 0.251104
#
#
# Mechanical properties :
#
#
# Convention : Reuss Voigt Hill
#
# Bulk Modulus (GPa) = 43.69492 44.61240 44.15366
# Shear Modulus (GPa) = 8.79306 16.34663 12.56985
#
# Velocity S-wave (km/s) = 2.15800 2.94235 2.58015
# Velocity P-wave (km/s) = 5.41763 5.93049 5.67985
#
# Compressibility (1/GPa) = 0.02288596
#
# Stress axis : x y z
#
# Youngs Moduli (GPa) = 67.83082 49.58053 82.01763
#
# Poissons Ratio (x) = 0.35998 0.17400
# Poissons Ratio (y) = 0.49248 0.22368
# Poissons Ratio (z) = 0.14390 0.13521
#
# Static dielectric constant tensor:
#      x y z
#    x 1.694940 0.000000 0.000000 
#    y 0.000000 1.643850 0.000000 
#    z 0.000000 0.000000 1.712520 
# 
# From -- ./inp_files/9059.got.cif
#   From: 2010.05.17/outbox.cif.g08.bks.cpg/sg59_5_cif.got.tgz:9059.got - 2010.06.03 14:40:33.
