data_PCOD9449115
_publ_section_title
;
Structure prediction by ZEFSAII (Michael W. Deem and Ramdas Pophale) SiO2 
 PCOD9449115
Probable space group: P M M N
;
_chemical_formula_sum "Si O2"
_cell_formula_units_Z 48
_cell_length_a 27.540596
_cell_length_b 13.887289
_cell_length_c 6.643887
_cell_angle_alpha 90.000000
_cell_angle_beta 90.000000
_cell_angle_gamma 90.000000
_cell_volume 2541.049032
_symmetry_space_group_name_H-M "P M M N"
_symmetry_group_IT_number 59
_space_group.IT_coordinate_system_code '2'
_symmetry_cell_setting 'orthorhombic'
loop_
_space_group_symop_operation_xyz
x,y,z
1/2-x,1/2-y,z
1/2+x,-y,-z
-x,1/2+y,-z
-x,-y,-z
1/2+x,1/2+y,-z
1/2-x,y,z
x,1/2-y,z
loop_
_atom_site_type_symbol
_atom_site_label
_atom_site_fract_x
_atom_site_fract_y
_atom_site_fract_z
Si Si1 0.116284 0.363044 0.583088
Si Si2 0.455146 0.021582 0.275950
Si Si3 0.968680 0.141573 0.429361
Si Si4 0.646947 0.139623 0.361838
Si Si5 0.692410 0.524859 0.639952
Si Si6 0.130144 0.490840 0.970402
O O1 0.106169 0.250000 0.584369
O O2 0.078224 0.421998 0.442573
O O3 0.168374 0.388154 0.485031
O O4 0.118932 0.409775 0.803880
O O5 0.501039 0.091777 0.250000
O O6 0.419835 0.996872 0.093823
O O7 0.475689 0.924791 0.375565
O O8 0.985361 0.250000 0.457239
O O9 0.910994 0.141308 0.398832
O O10 0.664437 0.250000 0.360270
O O11 0.672179 0.072508 0.530276
O O12 0.649739 0.083543 0.150564
O O13 0.750000 0.525026 0.637433
O O14 0.670313 0.533164 0.862795
#
# Coordination Sequence:
#
# PCOD9449115 Si02
#       6
#     8   8   8   8   8   8
#     4  10  21  39  59  85 115 148 187 235 286 338
#     4  10  20  37  58  83 122 156 189 229 283 333
#     4  10  19  35  58  85 118 156 193 230 275 334
#     4  10  21  39  59  85 116 150 189 235 284 334
#     4  10  22  41  60  81 112 149 187 237 293 343
#     4  10  20  37  58  87 112 151 185 237 279 339
#
# _framework density 18.889835000000001
#
# number of rings (size 3 to 8) (size 9 to 14) (size 15 to 20)
#    0.000    2.000    5.000    0.500    0.000    8.667 
#    0.000    0.000    0.000    0.000    0.000    0.000 
#    0.000    0.000    0.000    0.000    0.000    0.000 
#
# Total GULP energy -267625.839400 kJ/mol
# GULP energy per Si atom -5575.538321 kJ/mol
# Density = 1.884684 g / cm^3
# Si number density = 18.889835 Si / 1000 Ang^3
#
#
#
# Elastic Constant Matrix: (Units=GPa)
#
#
# Indices 1 2 3 4 5 6 
#
# 1 73.7487 -69.6430 -8.3798 0.0000 0.0000 0.0000
# 2 -69.6430 -259.0356 -103.2816 0.0000 0.0000 0.0000
# 3 -8.3798 -103.2816 46.9879 0.0000 0.0000 0.0000
# 4 0.0000 0.0000 0.0000 7.3012 0.0000 0.0000
# 5 0.0000 0.0000 0.0000 0.0000 0.7066 0.0000
# 6 0.0000 0.0000 0.0000 0.0000 0.0000 17.1694
#
#
#
# Elastic Compliance Matrix: (Units=1/GPa)
#
#
# Indices 1 2 3 4 5 6 
#
# 1 0.011337 -0.002054 -0.002493 0.000000 0.000000 0.000000
# 2 -0.002054 -0.001685 -0.004071 0.000000 0.000000 0.000000
# 3 -0.002493 -0.004071 0.011890 0.000000 0.000000 0.000000
# 4 0.000000 0.000000 0.000000 0.136963 0.000000 0.000000
# 5 0.000000 0.000000 0.000000 0.000000 1.415268 0.000000
# 6 0.000000 0.000000 0.000000 0.000000 0.000000 0.058243
#
#
# Mechanical properties :
#
#
# Convention : Reuss Voigt Hill
#
# Bulk Modulus (GPa) = 232.19530 -55.65641 88.26945
# Shear Modulus (GPa) = 3.02904 7.90247 5.46576
#
# Velocity S-wave (km/s) = 1.26768 2.04757 1.70287
# Velocity P-wave (km/s) = 11.19510 4.89261 7.12014
#
# Compressibility (1/GPa) = 0.00430672
#
# Stress axis : x y z
#
# Youngs Moduli (GPa) = 88.20921 -593.38165 84.10301
#
# Poissons Ratio (x) = -1.21878 0.20966
# Poissons Ratio (y) = 0.18118 0.34235
# Poissons Ratio (z) = 0.21990 -2.41540
#
# Static dielectric constant tensor:
#      x y z
#    x 1.681060 0.000000 0.000000 
#    y 0.000000 1.660960 0.000000 
#    z 0.000000 0.000000 1.668750 
# 
# From -- ./inp_files/4539.got.cif
#   From: 2010.05.17/outbox.cif.g08.bks.cpg/sg59_3_cif.got.tgz:4539.got - 2010.06.03 14:40:33.
