data_PCOD9449608
_publ_section_title
;
Structure prediction by ZEFSAII (Michael W. Deem and Ramdas Pophale) SiO2 
 PCOD9449608
Probable space group: P M M N
;
_chemical_formula_sum "Si O2"
_cell_formula_units_Z 58
_cell_length_a 14.640718
_cell_length_b 9.757323
_cell_length_c 18.470573
_cell_angle_alpha 90.000000
_cell_angle_beta 90.000000
_cell_angle_gamma 90.000000
_cell_volume 2638.599197
_symmetry_space_group_name_H-M "P M M N"
_symmetry_group_IT_number 59
_space_group.IT_coordinate_system_code '2'
_symmetry_cell_setting 'orthorhombic'
loop_
_space_group_symop_operation_xyz
x,y,z
1/2-x,1/2-y,z
1/2+x,-y,-z
-x,1/2+y,-z
-x,-y,-z
1/2+x,1/2+y,-z
1/2-x,y,z
x,1/2-y,z
loop_
_atom_site_type_symbol
_atom_site_label
_atom_site_fract_x
_atom_site_fract_y
_atom_site_fract_z
Si Si1 0.750000 0.750000 0.163559
Si Si2 0.882681 0.908955 0.702365
Si Si3 0.396009 0.602780 0.695396
Si Si4 0.409971 0.908293 0.003309
Si Si5 0.386262 0.908856 0.434177
Si Si6 0.387398 0.000131 0.848473
Si Si7 0.101608 0.912827 0.160988
Si Si8 0.109012 0.092895 0.570709
O O1 0.828440 0.867098 0.161170
O O2 0.852499 0.750000 0.700824
O O3 0.993411 0.902762 0.696351
O O4 0.854481 0.002579 0.634616
O O5 0.859974 0.989972 0.776168
O O6 0.368810 0.750000 0.663788
O O7 0.368604 0.592151 0.778631
O O8 0.363792 0.476881 0.646435
O O9 0.437407 0.750000 0.007805
O O10 0.360747 0.937782 0.079659
O O11 0.500000 0.000000 0.000000
O O12 0.364458 0.934030 0.925989
O O13 0.356954 0.750000 0.433715
O O14 0.497757 0.905265 0.431645
O O15 0.361164 0.993536 0.505898
O O16 0.494295 0.045369 0.844829
O O17 0.110429 0.750000 0.178216
O O18 0.139400 0.250000 0.563337
#
# Coordination Sequence:
#
# PCOD9449608 Si02
#       8
#     2   8   8   8   8   8   8   8
#     4  12  24  36  50  72  96 136 168 222 256 316
#     4   9  16  24  37  60  89 120 152 190 235 285
#     4   9  17  28  43  59  82 114 158 203 240 286
#     4   9  18  31  51  74  97 122 159 209 255 305
#     4   9  15  23  34  52  83 119 154 185 226 275
#     4  10  20  33  49  67  94 124 166 205 255 300
#     4   9  16  29  47  68  92 120 159 202 246 296
#     4   9  16  23  36  55  79 113 154 196 228 266
#
# _framework density 21.981359999999999
#
# number of rings (size 3 to 8) (size 9 to 14) (size 15 to 20)
#    0.000    2.759    0.690    1.655    1.931    8.276 
#    0.000    1.379    0.000    0.000    0.000    0.000 
#    0.000    0.000    0.000    2.483    0.000   14.966 
#
# Total GULP energy -323152.560414 kJ/mol
# GULP energy per Si atom -5571.595869 kJ/mol
# Density = 2.193133 g / cm^3
# Si number density = 21.981360 Si / 1000 Ang^3
#
#
#
# Elastic Constant Matrix: (Units=GPa)
#
#
# Indices 1 2 3 4 5 6 
#
# 1 74.1830 10.4723 13.2596 0.0000 0.0000 0.0000
# 2 10.4723 205.7909 103.3973 0.0000 0.0000 0.0000
# 3 13.2596 103.3973 173.9174 0.0000 0.0000 0.0000
# 4 0.0000 0.0000 0.0000 109.4801 0.0000 0.0000
# 5 0.0000 0.0000 0.0000 0.0000 -24.0498 0.0000
# 6 0.0000 0.0000 0.0000 0.0000 0.0000 7.8927
#
#
#
# Elastic Compliance Matrix: (Units=1/GPa)
#
#
# Indices 1 2 3 4 5 6 
#
# 1 0.013675 -0.000245 -0.000897 0.000000 0.000000 0.000000
# 2 -0.000245 0.006933 -0.004103 0.000000 0.000000 0.000000
# 3 -0.000897 -0.004103 0.008258 0.000000 0.000000 0.000000
# 4 0.000000 0.000000 0.000000 0.009134 0.000000 0.000000
# 5 0.000000 0.000000 0.000000 0.000000 -0.041580 0.000000
# 6 0.000000 0.000000 0.000000 0.000000 0.000000 0.126700
#
#
# Mechanical properties :
#
#
# Convention : Reuss Voigt Hill
#
# Bulk Modulus (GPa) = 54.42053 78.68329 66.55191
# Shear Modulus (GPa) = 35.78175 40.44874 38.11524
#
# Velocity S-wave (km/s) = 4.03901 4.29434 4.16863
# Velocity P-wave (km/s) = 6.82369 7.77571 7.31520
#
# Compressibility (1/GPa) = 0.01837542
#
# Stress axis : x y z
#
# Youngs Moduli (GPa) = 73.12561 144.22760 121.09816
#
# Poissons Ratio (x) = 0.03539 0.10859
# Poissons Ratio (y) = 0.01794 0.49691
# Poissons Ratio (z) = 0.06557 0.59182
#
# Static dielectric constant tensor:
#      x y z
#    x 1.790490 0.000000 0.000000 
#    y 0.000000 1.748240 0.000000 
#    z 0.000000 0.000000 1.811910 
# 
# From -- ./inp_files/27884.got.cif
#   From: 2010.05.17/outbox.cif.g08.bks.cpg/sg59_14_cif.got.tgz:27884.got - 2010.06.03 14:40:33.
