data_PCOD9449756
_publ_section_title
;
Structure prediction by ZEFSAII (Michael W. Deem and Ramdas Pophale) SiO2 
 PCOD9449756
Probable space group: P M M N
;
_chemical_formula_sum "Si O2"
_cell_formula_units_Z 56
_cell_length_a 16.320555
_cell_length_b 7.615917
_cell_length_c 21.547346
_cell_angle_alpha 90.000000
_cell_angle_beta 90.000000
_cell_angle_gamma 90.000000
_cell_volume 2678.248752
_symmetry_space_group_name_H-M "P M M N"
_symmetry_group_IT_number 59
_space_group.IT_coordinate_system_code '2'
_symmetry_cell_setting 'orthorhombic'
loop_
_space_group_symop_operation_xyz
x,y,z
1/2-x,1/2-y,z
1/2+x,-y,-z
-x,1/2+y,-z
-x,-y,-z
1/2+x,1/2+y,-z
1/2-x,y,z
x,1/2-y,z
loop_
_atom_site_type_symbol
_atom_site_label
_atom_site_fract_x
_atom_site_fract_y
_atom_site_fract_z
Si Si1 0.585672 0.539938 0.465860
Si Si2 0.839316 0.536800 0.589369
Si Si3 0.403291 0.040890 0.001575
Si Si4 0.158554 0.464937 0.136902
Si Si5 0.160068 0.955459 0.868079
Si Si6 0.996465 0.046116 0.202650
Si Si7 0.009148 0.044024 0.656405
O O1 0.500000 0.500000 0.500000
O O2 0.595475 0.750000 0.460545
O O3 0.650190 0.478504 0.517336
O O4 0.571935 0.472142 0.396097
O O5 0.750000 0.482274 0.612953
O O6 0.842438 0.750000 0.589995
O O7 0.917549 0.475569 0.628329
O O8 0.393403 0.250000 0.998518
O O9 0.360272 0.964802 0.940934
O O10 0.364534 0.982271 0.066661
O O11 0.500000 0.000000 0.000000
O O12 0.250000 0.524471 0.153625
O O13 0.160491 0.250000 0.138549
O O14 0.084171 0.526576 0.180614
O O15 0.250000 0.033020 0.856020
O O16 0.164420 0.750000 0.850467
O O17 0.082516 0.034014 0.831521
O O18 0.998719 0.250000 0.182621
O O19 0.986658 0.038754 0.276221
O O20 0.025596 0.250000 0.664151
#
# Coordination Sequence:
#
# PCOD9449756 Si02
#       7
#     8   8   8   8   8   8   8
#     4   8  15  29  48  70  96 125 160 202 248 295
#     4   9  17  31  53  78 101 131 172 211 253 314
#     4  11  20  34  57  83 110 138 176 224 278 331
#     4   9  18  33  53  76 102 134 175 220 265 316
#     4  10  21  38  58  80 107 140 181 229 278 324
#     4  10  20  36  54  74 104 145 186 221 261 317
#     4  10  20  33  50  74 105 138 171 214 264 309
#
# _framework density 20.909185000000001
#
# number of rings (size 3 to 8) (size 9 to 14) (size 15 to 20)
#    0.000    2.429    1.429    1.286    0.000    2.857 
#    0.000    2.143    0.000    2.571    0.000    0.000 
#    0.000    0.000    0.000    0.000    0.000    0.000 
#
# Total GULP energy -312286.525566 kJ/mol
# GULP energy per Si atom -5576.545099 kJ/mol
# Density = 2.086159 g / cm^3
# Si number density = 20.909185 Si / 1000 Ang^3
#
#
#
# Elastic Constant Matrix: (Units=GPa)
#
#
# Indices 1 2 3 4 5 6 
#
# 1 113.5720 6.2981 34.5284 0.0000 0.0000 0.0000
# 2 6.2981 42.9586 -7.8947 0.0000 0.0000 0.0000
# 3 34.5284 -7.8947 100.4095 0.0000 0.0000 0.0000
# 4 0.0000 0.0000 0.0000 11.3016 0.0000 0.0000
# 5 0.0000 0.0000 0.0000 0.0000 10.5275 0.0000
# 6 0.0000 0.0000 0.0000 0.0000 0.0000 0.8300
#
#
#
# Elastic Compliance Matrix: (Units=1/GPa)
#
#
# Indices 1 2 3 4 5 6 
#
# 1 0.010022 -0.002134 -0.003614 0.000000 0.000000 0.000000
# 2 -0.002134 0.024074 0.002626 0.000000 0.000000 0.000000
# 3 -0.003614 0.002626 0.011409 0.000000 0.000000 0.000000
# 4 0.000000 0.000000 0.000000 0.088483 0.000000 0.000000
# 5 0.000000 0.000000 0.000000 0.000000 0.094989 0.000000
# 6 0.000000 0.000000 0.000000 0.000000 0.000000 1.204831
#
#
# Mechanical properties :
#
#
# Convention : Reuss Voigt Hill
#
# Bulk Modulus (GPa) = 25.46992 35.86709 30.66850
# Shear Modulus (GPa) = 3.44083 19.46569 11.45326
#
# Velocity S-wave (km/s) = 1.28420 3.05448 2.34297
# Velocity P-wave (km/s) = 3.79560 5.44342 4.69241
#
# Compressibility (1/GPa) = 0.03926200
#
# Stress axis : x y z
#
# Youngs Moduli (GPa) = 99.77981 41.53910 87.65373
#
# Poissons Ratio (x) = 0.08862 0.31679
# Poissons Ratio (y) = 0.21288 -0.23022
# Poissons Ratio (z) = 0.36061 -0.10910
#
# Static dielectric constant tensor:
#      x y z
#    x 1.769730 0.000000 0.000000 
#    y 0.000000 1.791030 0.000000 
#    z 0.000000 0.000000 1.726900 
# 
# From -- ./inp_files/30585.got.cif
#   From: 2010.05.17/outbox.cif.g08.bks.cpg/sg59_16_cif.got.tgz:30585.got - 2010.06.03 14:40:33.
