data_PCOD9449212
_publ_section_title
;
Structure prediction by ZEFSAII (Michael W. Deem and Ramdas Pophale) SiO2 
 PCOD9449212
Probable space group: P M M N
;
_chemical_formula_sum "Si O2"
_cell_formula_units_Z 64
_cell_length_a 31.833885
_cell_length_b 7.559804
_cell_length_c 12.369397
_cell_angle_alpha 90.000000
_cell_angle_beta 90.000000
_cell_angle_gamma 90.000000
_cell_volume 2976.793492
_symmetry_space_group_name_H-M "P M M N"
_symmetry_group_IT_number 59
_space_group.IT_coordinate_system_code '2'
_symmetry_cell_setting 'orthorhombic'
loop_
_space_group_symop_operation_xyz
x,y,z
1/2-x,1/2-y,z
1/2+x,-y,-z
-x,1/2+y,-z
-x,-y,-z
1/2+x,1/2+y,-z
1/2-x,y,z
x,1/2-y,z
loop_
_atom_site_type_symbol
_atom_site_label
_atom_site_fract_x
_atom_site_fract_y
_atom_site_fract_z
Si Si1 0.296265 0.466419 0.015828
Si Si2 0.081467 0.035814 0.241758
Si Si3 0.548659 0.050564 0.992766
Si Si4 0.179433 0.464940 0.253572
Si Si5 0.121996 0.032871 0.625923
Si Si6 0.796049 0.534075 0.508059
Si Si7 0.452386 0.461803 0.469877
Si Si8 0.372967 0.046329 0.869919
O O1 0.250000 0.515826 0.974514
O O2 0.298103 0.250000 0.018347
O O3 0.335603 0.530060 0.944358
O O4 0.300926 0.524719 0.140553
O O5 0.079012 0.250000 0.235806
O O6 0.130336 0.989233 0.250779
O O7 0.058460 0.972921 0.349823
O O8 0.062210 0.965657 0.131549
O O9 0.552304 0.250000 0.030966
O O10 0.500000 0.000000 0.000000
O O11 0.583253 0.952380 0.065024
O O12 0.182616 0.250000 0.254367
O O13 0.198367 0.524354 0.367402
O O14 0.120876 0.250000 0.625788
O O15 0.164469 0.978589 0.563973
O O16 0.081493 0.973188 0.557423
O O17 0.121855 0.970667 0.749840
O O18 0.750000 0.480044 0.468002
O O19 0.797019 0.750000 0.508781
O O20 0.500000 0.500000 0.500000
O O21 0.447197 0.250000 0.465788
O O22 0.360437 0.250000 0.852530
#
# Coordination Sequence:
#
# PCOD9449212 Si02
#       8
#     8   8   8   8   8   8   8   8
#     4   9  16  26  46  78 111 145 186 230 273 318
#     4  10  19  36  60  83 112 149 185 229 283 333
#     4  12  26  42  61  84 111 142 185 234 288 346
#     4   9  14  25  46  74 111 146 180 224 274 321
#     4   9  18  32  49  74 111 150 182 223 274 322
#     4   9  15  24  43  75 113 149 183 223 275 328
#     4  10  21  36  55  80 111 145 186 228 275 327
#     4  10  20  36  56  80 115 153 190 232 278 328
#
# _framework density 21.499645000000001
#
# number of rings (size 3 to 8) (size 9 to 14) (size 15 to 20)
#    0.000    2.250    2.500    1.500    1.750    2.500 
#    0.000    2.500    0.000    0.375    0.000    0.000 
#    0.000    3.500    0.000    0.000    0.000    0.000 
#
# Total GULP energy -357405.620550 kJ/mol
# GULP energy per Si atom -5584.462821 kJ/mol
# Density = 2.145071 g / cm^3
# Si number density = 21.499645 Si / 1000 Ang^3
#
#
#
# Elastic Constant Matrix: (Units=GPa)
#
#
# Indices 1 2 3 4 5 6 
#
# 1 180.8545 -5.0343 89.6887 0.0000 0.0000 0.0000
# 2 -5.0343 46.7382 -3.3005 0.0000 0.0000 0.0000
# 3 89.6887 -3.3005 170.8104 0.0000 0.0000 0.0000
# 4 0.0000 0.0000 0.0000 -6.8448 0.0000 0.0000
# 5 0.0000 0.0000 0.0000 0.0000 85.1374 0.0000
# 6 0.0000 0.0000 0.0000 0.0000 0.0000 10.5988
#
#
#
# Elastic Compliance Matrix: (Units=1/GPa)
#
#
# Indices 1 2 3 4 5 6 
#
# 1 0.007489 0.000530 -0.003922 0.000000 0.000000 0.000000
# 2 0.000530 0.021462 0.000137 0.000000 0.000000 0.000000
# 3 -0.003922 0.000137 0.007916 0.000000 0.000000 0.000000
# 4 0.000000 0.000000 0.000000 -0.146096 0.000000 0.000000
# 5 0.000000 0.000000 0.000000 0.000000 0.011746 0.000000
# 6 0.000000 0.000000 0.000000 0.000000 0.000000 0.094350
#
#
# Mechanical properties :
#
#
# Convention : Reuss Voigt Hill
#
# Bulk Modulus (GPa) = 32.94201 62.34567 47.64384
# Shear Modulus (GPa) = 370.41810 38.91489 204.66649
#
# Velocity S-wave (km/s) = 13.14018 4.25905 9.76739
# Velocity P-wave (km/s) = 15.67082 7.29709 12.22338
#
# Compressibility (1/GPa) = 0.03035637
#
# Stress axis : x y z
#
# Youngs Moduli (GPa) = 133.52757 46.59296 126.31850
#
# Poissons Ratio (x) = -0.02468 0.49544
# Poissons Ratio (y) = -0.07073 -0.01725
# Poissons Ratio (z) = 0.52371 -0.00636
#
# Static dielectric constant tensor:
#      x y z
#    x 1.638030 0.000000 0.000000 
#    y 0.000000 1.877610 0.000000 
#    z 0.000000 0.000000 1.736070 
# 
# From -- ./inp_files/19368.got.cif
#   From: 2010.05.17/outbox.cif.g08.bks.cpg/sg59_10_cif.got.tgz:19368.got - 2010.06.03 14:40:33.
