data_PCOD9449192
_publ_section_title
;
Structure prediction by ZEFSAII (Michael W. Deem and Ramdas Pophale) SiO2 
 PCOD9449192
Probable space group: P M M N
;
_chemical_formula_sum "Si O2"
_cell_formula_units_Z 48
_cell_length_a 7.896195
_cell_length_b 17.601458
_cell_length_c 16.898549
_cell_angle_alpha 90.000000
_cell_angle_beta 90.000000
_cell_angle_gamma 90.000000
_cell_volume 2348.637138
_symmetry_space_group_name_H-M "P M M N"
_symmetry_group_IT_number 59
_space_group.IT_coordinate_system_code '2'
_symmetry_cell_setting 'orthorhombic'
loop_
_space_group_symop_operation_xyz
x,y,z
1/2-x,1/2-y,z
1/2+x,-y,-z
-x,1/2+y,-z
-x,-y,-z
1/2+x,1/2+y,-z
1/2-x,y,z
x,1/2-y,z
loop_
_atom_site_type_symbol
_atom_site_label
_atom_site_fract_x
_atom_site_fract_y
_atom_site_fract_z
Si Si1 0.952140 0.250000 0.478754
Si Si2 0.957796 0.553462 0.276196
Si Si3 0.047747 0.419871 0.544695
Si Si4 0.452506 0.604216 0.797066
Si Si5 0.542846 0.835471 0.136454
Si Si6 0.958386 0.250000 0.297536
Si Si7 0.951797 0.585607 0.977740
O O1 0.750000 0.250000 0.479299
O O2 0.014402 0.250000 0.388034
O O3 0.999928 0.334204 0.514031
O O4 0.750000 0.553719 0.277520
O O5 0.015003 0.571979 0.364666
O O6 0.016287 0.471861 0.244835
O O7 0.011900 0.612406 0.208962
O O8 0.250000 0.420129 0.545022
O O9 0.000000 0.500000 0.500000
O O10 0.250000 0.603271 0.788121
O O11 0.517293 0.676747 0.750357
O O12 0.486399 0.605502 0.890384
O O13 0.750000 0.838300 0.135044
O O14 0.489902 0.750000 0.150154
O O15 0.483819 0.863807 0.050634
O O16 0.750000 0.250000 0.298193
O O17 0.750000 0.591913 0.976189
O O18 0.000000 0.500000 0.000000
#
# Coordination Sequence:
#
# PCOD9449192 Si02
#       7
#     4   8   8   8   8   4   8
#     4  11  23  43  67  92 125 164 206 256 312 373
#     4   9  18  34  58  82 109 150 197 237 283 357
#     4  11  23  40  65  95 125 162 208 257 313 374
#     4  10  19  36  58  83 111 148 197 239 282 342
#     4   9  18  32  53  79 107 143 189 232 271 333
#     4   9  20  37  61  84 113 158 198 234 286 359
#     4  11  21  35  55  80 111 148 189 236 287 339
#
# _framework density 20.437383000000001
#
# number of rings (size 3 to 8) (size 9 to 14) (size 15 to 20)
#    0.000    2.000    1.667    2.250    2.333    2.667 
#    0.000    5.000    0.000    0.000    0.000    0.000 
#    0.000    0.000    0.000    0.000    0.000    0.000 
#
# Total GULP energy -267747.028155 kJ/mol
# GULP energy per Si atom -5578.063087 kJ/mol
# Density = 2.039087 g / cm^3
# Si number density = 20.437383 Si / 1000 Ang^3
#
#
#
# Elastic Constant Matrix: (Units=GPa)
#
#
# Indices 1 2 3 4 5 6 
#
# 1 28.9433 16.5211 6.7431 0.0000 0.0000 0.0000
# 2 16.5211 238.2801 145.8083 0.0000 0.0000 0.0000
# 3 6.7431 145.8083 226.8539 0.0000 0.0000 0.0000
# 4 0.0000 0.0000 0.0000 10.7281 0.0000 0.0000
# 5 0.0000 0.0000 0.0000 0.0000 26.8674 0.0000
# 6 0.0000 0.0000 0.0000 0.0000 0.0000 15.0852
#
#
#
# Elastic Compliance Matrix: (Units=1/GPa)
#
#
# Indices 1 2 3 4 5 6 
#
# 1 0.036081 -0.003042 0.000883 0.000000 0.000000 0.000000
# 2 -0.003042 0.007174 -0.004520 0.000000 0.000000 0.000000
# 3 0.000883 -0.004520 0.007287 0.000000 0.000000 0.000000
# 4 0.000000 0.000000 0.000000 0.093213 0.000000 0.000000
# 5 0.000000 0.000000 0.000000 0.000000 0.037220 0.000000
# 6 0.000000 0.000000 0.000000 0.000000 0.000000 0.066290
#
#
# Mechanical properties :
#
#
# Convention : Reuss Voigt Hill
#
# Bulk Modulus (GPa) = 26.89409 92.46913 59.68161
# Shear Modulus (GPa) = 18.31375 32.20313 25.25844
#
# Velocity S-wave (km/s) = 2.99672 3.97381 3.51934
# Velocity P-wave (km/s) = 5.01614 8.14851 6.76609
#
# Compressibility (1/GPa) = 0.03718289
#
# Stress axis : x y z
#
# Youngs Moduli (GPa) = 27.71543 139.39580 137.22324
#
# Poissons Ratio (x) = 0.42400 -0.12111
# Poissons Ratio (y) = 0.08430 0.62032
# Poissons Ratio (z) = -0.02446 0.63014
#
# Static dielectric constant tensor:
#      x y z
#    x 1.840010 0.000000 0.000000 
#    y 0.000000 1.705580 0.000000 
#    z 0.000000 0.000000 1.717500 
# 
# From -- ./inp_files/20545.got.cif
#   From: 2010.05.17/outbox.cif.g08.bks.cpg/sg59_11_cif.got.tgz:20545.got - 2010.06.03 14:40:33.
