data_PCOD9449012
_publ_section_title
;
Structure prediction by ZEFSAII (Michael W. Deem and Ramdas Pophale) SiO2 
 PCOD9449012
Probable space group: P M M N
;
_chemical_formula_sum "Si O2"
_cell_formula_units_Z 48
_cell_length_a 20.943534
_cell_length_b 8.655855
_cell_length_c 14.798703
_cell_angle_alpha 90.000000
_cell_angle_beta 90.000000
_cell_angle_gamma 90.000000
_cell_volume 2682.770938
_symmetry_space_group_name_H-M "P M M N"
_symmetry_group_IT_number 59
_space_group.IT_coordinate_system_code '2'
_symmetry_cell_setting 'orthorhombic'
loop_
_space_group_symop_operation_xyz
x,y,z
1/2-x,1/2-y,z
1/2+x,-y,-z
-x,1/2+y,-z
-x,-y,-z
1/2+x,1/2+y,-z
1/2-x,y,z
x,1/2-y,z
loop_
_atom_site_type_symbol
_atom_site_label
_atom_site_fract_x
_atom_site_fract_y
_atom_site_fract_z
Si Si1 0.821706 0.438131 0.058827
Si Si2 0.977131 0.565061 0.747027
Si Si3 0.939896 0.065980 0.556042
Si Si4 0.371625 0.936001 0.743813
Si Si5 0.941648 0.064013 0.940320
Si Si6 0.322815 0.065381 0.556462
O O1 0.750000 0.490730 0.038189
O O2 0.821610 0.250000 0.058426
O O3 0.841977 0.483775 0.160246
O O4 0.875803 0.486508 0.988144
O O5 0.971071 0.750000 0.747348
O O6 0.945216 0.496576 0.657647
O O7 0.948799 0.497086 0.839007
O O8 0.052910 0.528565 0.743822
O O9 0.943821 0.250000 0.555248
O O10 0.875230 0.012062 0.507594
O O11 0.000000 0.000000 0.500000
O O12 0.364742 0.750000 0.735152
O O13 0.338502 0.014857 0.658770
O O14 0.944286 0.250000 0.941019
O O15 0.000000 0.000000 0.000000
O O16 0.250000 0.020919 0.534408
O O17 0.328627 0.250000 0.549207
#
# Coordination Sequence:
#
# PCOD9449012 Si02
#       6
#     8   8   8   8   8   8
#     4   9  18  34  56  83 115 151 194 240 287 342
#     4  11  22  38  60  90 119 151 197 247 295 352
#     4  12  24  40  63  89 118 157 200 246 297 355
#     4  10  19  34  59  87 117 154 194 242 297 355
#     4  11  21  36  58  85 117 155 197 244 296 351
#     4  11  24  40  59  88 125 160 195 243 300 356
#
# _framework density 17.891950000000001
#
# number of rings (size 3 to 8) (size 9 to 14) (size 15 to 20)
#    0.000    1.333    3.333    3.500    0.000    2.667 
#    0.000    0.833    0.000    6.000    0.000    0.000 
#    0.000    0.000    0.000    0.000    0.000    0.000 
#
# Total GULP energy -268286.785525 kJ/mol
# GULP energy per Si atom -5589.308032 kJ/mol
# Density = 1.785123 g / cm^3
# Si number density = 17.891950 Si / 1000 Ang^3
#
#
#
# Elastic Constant Matrix: (Units=GPa)
#
#
# Indices 1 2 3 4 5 6 
#
# 1 167.2995 57.8765 94.2265 0.0000 0.0000 0.0000
# 2 57.8765 62.2960 49.1365 0.0000 0.0000 0.0000
# 3 94.2265 49.1365 166.2827 0.0000 0.0000 0.0000
# 4 0.0000 0.0000 0.0000 35.2690 0.0000 0.0000
# 5 0.0000 0.0000 0.0000 0.0000 17.1470 0.0000
# 6 0.0000 0.0000 0.0000 0.0000 0.0000 20.4575
#
#
#
# Elastic Compliance Matrix: (Units=1/GPa)
#
#
# Indices 1 2 3 4 5 6 
#
# 1 0.010523 -0.006615 -0.004008 0.000000 0.000000 0.000000
# 2 -0.006615 0.025089 -0.003665 0.000000 0.000000 0.000000
# 3 -0.004008 -0.003665 0.009368 0.000000 0.000000 0.000000
# 4 0.000000 0.000000 0.000000 0.028353 0.000000 0.000000
# 5 0.000000 0.000000 0.000000 0.000000 0.058319 0.000000
# 6 0.000000 0.000000 0.000000 0.000000 0.000000 0.048882
#
#
# Mechanical properties :
#
#
# Convention : Reuss Voigt Hill
#
# Bulk Modulus (GPa) = 60.96351 88.70637 74.83494
# Shear Modulus (GPa) = 23.30118 27.55062 25.42590
#
# Velocity S-wave (km/s) = 3.61269 3.92833 3.77381
# Velocity P-wave (km/s) = 7.17978 8.38226 7.80421
#
# Compressibility (1/GPa) = 0.01640325
#
# Stress axis : x y z
#
# Youngs Moduli (GPa) = 95.02599 39.85767 106.74162
#
# Poissons Ratio (x) = 0.26366 0.42787
# Poissons Ratio (y) = 0.62861 0.39124
# Poissons Ratio (z) = 0.38091 0.14609
#
# Static dielectric constant tensor:
#      x y z
#    x 1.604980 0.000000 0.000000 
#    y 0.000000 1.599980 0.000000 
#    z 0.000000 0.000000 1.579650 
# 
# From -- ./inp_files/20433.got.cif
#   From: 2010.05.17/outbox.cif.g08.bks.cpg/sg59_11_cif.got.tgz:20433.got - 2010.06.03 14:40:33.
