data_PCOD9449875
_publ_section_title
;
Structure prediction by ZEFSAII (Michael W. Deem and Ramdas Pophale) SiO2 
 PCOD9449875
Probable space group: P M M N
;
_chemical_formula_sum "Si O2"
_cell_formula_units_Z 48
_cell_length_a 8.093290
_cell_length_b 9.430516
_cell_length_c 31.787057
_cell_angle_alpha 90.000000
_cell_angle_beta 90.000000
_cell_angle_gamma 90.000000
_cell_volume 2426.112186
_symmetry_space_group_name_H-M "P M M N"
_symmetry_group_IT_number 59
_space_group.IT_coordinate_system_code '2'
_symmetry_cell_setting 'orthorhombic'
loop_
_space_group_symop_operation_xyz
x,y,z
1/2-x,1/2-y,z
1/2+x,-y,-z
-x,1/2+y,-z
-x,-y,-z
1/2+x,1/2+y,-z
1/2-x,y,z
x,1/2-y,z
loop_
_atom_site_type_symbol
_atom_site_label
_atom_site_fract_x
_atom_site_fract_y
_atom_site_fract_z
Si Si1 0.047740 0.913628 0.123474
Si Si2 0.550478 0.586835 0.285026
Si Si3 0.949533 0.912990 0.958846
Si Si4 0.448574 0.088846 0.204625
Si Si5 0.053379 0.409367 0.459854
Si Si6 0.050634 0.412338 0.620256
O O1 0.250000 0.912681 0.123555
O O2 0.994053 0.750000 0.121624
O O3 0.994451 0.003255 0.082810
O O4 0.991806 0.991762 0.165986
O O5 0.750000 0.585627 0.284726
O O6 0.497696 0.750000 0.277020
O O7 0.489877 0.483783 0.248792
O O8 0.496249 0.547709 0.332443
O O9 0.750000 0.908619 0.957395
O O10 0.009023 0.750000 0.959944
O O11 0.000000 0.000000 0.000000
O O12 0.250000 0.094846 0.200963
O O13 0.511751 0.250000 0.202046
O O14 0.250000 0.400679 0.461166
O O15 0.983899 0.250000 0.461866
O O16 0.000000 0.500000 0.500000
O O17 0.005132 0.485688 0.416646
O O18 0.250000 0.411229 0.620477
O O19 0.995874 0.250000 0.612225
#
# Coordination Sequence:
#
# PCOD9449875 Si02
#       6
#     8   8   8   8   8   8
#     4   9  17  31  52  75 100 134 174 214 259 311
#     4   9  19  36  56  78 106 140 176 215 260 309
#     4  10  20  34  53  77 105 136 171 213 261 312
#     4  10  20  33  51  77 107 137 172 215 259 306
#     4  11  24  39  56  81 111 141 176 218 262 310
#     4   9  19  37  59  81 106 138 177 218 260 309
#
# _framework density 19.784742000000001
#
# number of rings (size 3 to 8) (size 9 to 14) (size 15 to 20)
#    0.000    2.333    0.000    3.500    0.000    9.333 
#    0.000    5.833    0.000    5.000    0.000    0.000 
#    0.000    0.000    0.000    0.000    0.000    0.000 
#
# Total GULP energy -268035.124647 kJ/mol
# GULP energy per Si atom -5584.065097 kJ/mol
# Density = 1.973971 g / cm^3
# Si number density = 19.784742 Si / 1000 Ang^3
#
#
#
# Elastic Constant Matrix: (Units=GPa)
#
#
# Indices 1 2 3 4 5 6 
#
# 1 11.7429 15.8337 11.9098 0.0000 0.0000 0.0000
# 2 15.8337 208.0195 143.2453 0.0000 0.0000 0.0000
# 3 11.9098 143.2453 193.8116 0.0000 0.0000 0.0000
# 4 0.0000 0.0000 0.0000 41.8693 0.0000 0.0000
# 5 0.0000 0.0000 0.0000 0.0000 31.8650 0.0000
# 6 0.0000 0.0000 0.0000 0.0000 0.0000 22.8689
#
#
#
# Elastic Compliance Matrix: (Units=1/GPa)
#
#
# Indices 1 2 3 4 5 6 
#
# 1 0.094993 -0.006539 -0.001005 0.000000 0.000000 0.000000
# 2 -0.006539 0.010240 -0.007166 0.000000 0.000000 0.000000
# 3 -0.001005 -0.007166 0.010518 0.000000 0.000000 0.000000
# 4 0.000000 0.000000 0.000000 0.023884 0.000000 0.000000
# 5 0.000000 0.000000 0.000000 0.000000 0.031382 0.000000
# 6 0.000000 0.000000 0.000000 0.000000 0.000000 0.043728
#
#
# Mechanical properties :
#
#
# Convention : Reuss Voigt Hill
#
# Bulk Modulus (GPa) = 11.58325 83.95019 47.76672
# Shear Modulus (GPa) = 18.31893 35.49297 26.90595
#
# Velocity S-wave (km/s) = 3.04618 4.24011 3.69173
# Velocity P-wave (km/s) = 4.27079 8.15446 6.50903
#
# Compressibility (1/GPa) = 0.08633152
#
# Stress axis : x y z
#
# Youngs Moduli (GPa) = 10.52707 97.65765 95.07466
#
# Poissons Ratio (x) = 0.63856 0.09551
# Poissons Ratio (y) = 0.06883 0.68134
# Poissons Ratio (z) = 0.01058 0.69986
#
# Static dielectric constant tensor:
#      x y z
#    x 1.712310 0.000000 0.000000 
#    y 0.000000 1.688130 0.000000 
#    z 0.000000 0.000000 1.668040 
# 
# From -- ./inp_files/32799.got.cif
#   From: 2010.05.17/outbox.cif.g08.bks.cpg/sg59_17_cif.got.tgz:32799.got - 2010.06.03 14:40:33.
