data_PCOD9449101
_publ_section_title
;
Structure prediction by ZEFSAII (Michael W. Deem and Ramdas Pophale) SiO2 
 PCOD9449101
Probable space group: P M M N
;
_chemical_formula_sum "Si O2"
_cell_formula_units_Z 48
_cell_length_a 15.546791
_cell_length_b 18.890468
_cell_length_c 8.576515
_cell_angle_alpha 90.000000
_cell_angle_beta 90.000000
_cell_angle_gamma 90.000000
_cell_volume 2518.803738
_symmetry_space_group_name_H-M "P M M N"
_symmetry_group_IT_number 59
_space_group.IT_coordinate_system_code '2'
_symmetry_cell_setting 'orthorhombic'
loop_
_space_group_symop_operation_xyz
x,y,z
1/2-x,1/2-y,z
1/2+x,-y,-z
-x,1/2+y,-z
-x,-y,-z
1/2+x,1/2+y,-z
1/2-x,y,z
x,1/2-y,z
loop_
_atom_site_type_symbol
_atom_site_label
_atom_site_fract_x
_atom_site_fract_y
_atom_site_fract_z
Si Si1 0.015628 0.826639 0.196698
Si Si2 0.581414 0.471821 0.107669
Si Si3 0.152179 0.101798 0.327131
Si Si4 0.153391 0.943373 0.211274
Si Si5 0.991219 0.329195 0.179685
Si Si6 0.651277 0.605302 0.300033
O O1 0.050009 0.750000 0.241909
O O2 0.919192 0.836858 0.255409
O O3 0.079681 0.887625 0.255245
O O4 0.009122 0.829848 0.008865
O O5 0.559680 0.402563 0.210859
O O6 0.617204 0.534832 0.213126
O O7 0.500000 0.500000 0.000000
O O8 0.649174 0.449001 0.976157
O O9 0.250000 0.118709 0.279180
O O10 0.084692 0.155293 0.251296
O O11 0.148380 0.099961 0.513567
O O12 0.133200 0.021889 0.271654
O O13 0.250000 0.924023 0.261809
O O14 0.961538 0.250000 0.227778
O O15 0.750000 0.619407 0.253355
#
# Coordination Sequence:
#
# PCOD9449101 Si02
#       6
#     8   8   8   8   8   8
#     4  10  21  37  55  81 113 145 186 233 282 335
#     4  11  18  36  58  85 107 144 188 238 280 328
#     4  10  21  35  53  81 112 146 190 233 279 336
#     4  10  19  35  58  82 109 145 187 232 280 335
#     4  10  20  35  54  78 111 147 183 228 282 337
#     4  11  22  36  57  82 112 148 188 236 283 332
#
# _framework density 19.056664999999999
#
# number of rings (size 3 to 8) (size 9 to 14) (size 15 to 20)
#    0.000    1.667    5.000    0.500    0.000    6.333 
#    0.000    3.333    0.000    1.500    0.000    2.333 
#    0.000    2.667    0.000    0.000    0.000    0.000 
#
# Total GULP energy -267525.408065 kJ/mol
# GULP energy per Si atom -5573.446001 kJ/mol
# Density = 1.901329 g / cm^3
# Si number density = 19.056665 Si / 1000 Ang^3
#
#
#
# Elastic Constant Matrix: (Units=GPa)
#
#
# Indices 1 2 3 4 5 6 
#
# 1 74.9210 19.8781 3.7231 0.0000 0.0000 0.0000
# 2 19.8781 74.9609 -4.4384 0.0000 0.0000 0.0000
# 3 3.7231 -4.4384 5.9857 0.0000 0.0000 0.0000
# 4 0.0000 0.0000 0.0000 5.1759 0.0000 0.0000
# 5 0.0000 0.0000 0.0000 0.0000 23.8320 0.0000
# 6 0.0000 0.0000 0.0000 0.0000 0.0000 15.2570
#
#
#
# Elastic Compliance Matrix: (Units=1/GPa)
#
#
# Indices 1 2 3 4 5 6 
#
# 1 0.015278 -0.004826 -0.013081 0.000000 0.000000 0.000000
# 2 -0.004826 0.015477 0.014478 0.000000 0.000000 0.000000
# 3 -0.013081 0.014478 0.185935 0.000000 0.000000 0.000000
# 4 0.000000 0.000000 0.000000 0.193202 0.000000 0.000000
# 5 0.000000 0.000000 0.000000 0.000000 0.041960 0.000000
# 6 0.000000 0.000000 0.000000 0.000000 0.000000 0.065544
#
#
# Mechanical properties :
#
#
# Convention : Reuss Voigt Hill
#
# Bulk Modulus (GPa) = 4.76571 21.57702 13.17136
# Shear Modulus (GPa) = 8.41469 17.96664 13.19067
#
# Velocity S-wave (km/s) = 2.10362 3.07384 2.63379
# Velocity P-wave (km/s) = 2.89940 4.89337 4.02192
#
# Compressibility (1/GPa) = 0.20983237
#
# Stress axis : x y z
#
# Youngs Moduli (GPa) = 65.45427 64.61093 5.37822
#
# Poissons Ratio (x) = 0.31181 0.07035
# Poissons Ratio (y) = 0.31588 -0.07787
# Poissons Ratio (z) = 0.85621 -0.93543
#
# Static dielectric constant tensor:
#      x y z
#    x 1.692660 0.000000 0.000000 
#    y 0.000000 1.696150 0.000000 
#    z 0.000000 0.000000 1.654970 
# 
# From -- ./inp_files/9060.got.cif
#   From: 2010.05.17/outbox.cif.g08.bks.cpg/sg59_5_cif.got.tgz:9060.got - 2010.06.03 14:40:33.
