data_PCOD9449008
_publ_section_title
;
Structure prediction by ZEFSAII (Michael W. Deem and Ramdas Pophale) SiO2 
 PCOD9449008
Probable space group: P M M N
;
_chemical_formula_sum "Si O2"
_cell_formula_units_Z 40
_cell_length_a 7.827480
_cell_length_b 21.044286
_cell_length_c 11.922938
_cell_angle_alpha 90.000000
_cell_angle_beta 90.000000
_cell_angle_gamma 90.000000
_cell_volume 1963.990793
_symmetry_space_group_name_H-M "P M M N"
_symmetry_group_IT_number 59
_space_group.IT_coordinate_system_code '2'
_symmetry_cell_setting 'orthorhombic'
loop_
_space_group_symop_operation_xyz
x,y,z
1/2-x,1/2-y,z
1/2+x,-y,-z
-x,1/2+y,-z
-x,-y,-z
1/2+x,1/2+y,-z
1/2-x,y,z
x,1/2-y,z
loop_
_atom_site_type_symbol
_atom_site_label
_atom_site_fract_x
_atom_site_fract_y
_atom_site_fract_z
Si Si1 0.955595 0.250000 0.366708
Si Si2 0.953417 0.176891 0.995366
Si Si3 0.541766 0.250000 0.622324
Si Si4 0.548855 0.876129 0.766622
Si Si5 0.543662 0.501208 0.631783
Si Si6 0.540880 0.125682 0.758865
O O1 0.750000 0.250000 0.364499
O O2 0.015592 0.250000 0.494542
O O3 0.016723 0.187280 0.304225
O O4 0.750000 0.183005 0.980457
O O5 0.020661 0.250000 0.002961
O O6 0.981224 0.138301 0.109310
O O7 0.017679 0.139458 0.885807
O O8 0.750000 0.250000 0.622263
O O9 0.488252 0.186749 0.686540
O O10 0.750000 0.886187 0.778958
O O11 0.478826 0.936240 0.697228
O O12 0.500000 0.500000 0.500000
O O13 0.750000 0.501724 0.636778
O O14 0.483102 0.438557 0.698176
O O15 0.750000 0.123629 0.759522
#
# Coordination Sequence:
#
# PCOD9449008 Si02
#       6
#     4   8   4   8   8   8
#     4  11  21  34  57  84 106 143 198 241 276 333
#     4  10  19  34  59  86 110 142 190 238 280 334
#     4   9  16  28  53  84 106 131 180 241 284 315
#     4  11  23  37  54  80 117 154 184 229 293 344
#     4  10  22  39  58  82 117 156 191 233 287 340
#     4   9  17  33  56  83 112 143 184 236 283 326
#
# _framework density 20.366695
#
# number of rings (size 3 to 8) (size 9 to 14) (size 15 to 20)
#    0.000    2.000    2.000    2.100    0.000    4.000 
#    0.000    1.000    0.000    2.400    0.000    0.000 
#    0.000    0.000    0.000    0.000    0.000    0.000 
#
# Total GULP energy -223370.718553 kJ/mol
# GULP energy per Si atom -5584.267964 kJ/mol
# Density = 2.032034 g / cm^3
# Si number density = 20.366695 Si / 1000 Ang^3
#
#
#
# Elastic Constant Matrix: (Units=GPa)
#
#
# Indices 1 2 3 4 5 6 
#
# 1 22.2243 1.2418 -0.4960 0.0000 0.0000 0.0000
# 2 1.2418 206.6765 124.6465 0.0000 0.0000 0.0000
# 3 -0.4960 124.6465 234.8081 0.0000 0.0000 0.0000
# 4 0.0000 0.0000 0.0000 35.4762 0.0000 0.0000
# 5 0.0000 0.0000 0.0000 0.0000 5.1870 0.0000
# 6 0.0000 0.0000 0.0000 0.0000 0.0000 -3.8704
#
#
#
# Elastic Compliance Matrix: (Units=1/GPa)
#
#
# Indices 1 2 3 4 5 6 
#
# 1 0.045031 -0.000482 0.000351 0.000000 0.000000 0.000000
# 2 -0.000482 0.007122 -0.003782 0.000000 0.000000 0.000000
# 3 0.000351 -0.003782 0.006267 0.000000 0.000000 0.000000
# 4 0.000000 0.000000 0.000000 0.028188 0.000000 0.000000
# 5 0.000000 0.000000 0.000000 0.000000 0.192789 0.000000
# 6 0.000000 0.000000 0.000000 0.000000 0.000000 -0.258373
#
#
# Mechanical properties :
#
#
# Convention : Reuss Voigt Hill
#
# Bulk Modulus (GPa) = 19.76519 79.38814 49.57666
# Shear Modulus (GPa) = 109.37345 29.91302 69.64324
#
# Velocity S-wave (km/s) = 7.33612 3.83655 5.85396
# Velocity P-wave (km/s) = 9.02685 7.66091 8.37178
#
# Compressibility (1/GPa) = 0.05059401
#
# Stress axis : x y z
#
# Youngs Moduli (GPa) = 22.20709 140.40675 159.56409
#
# Poissons Ratio (x) = 0.06773 -0.05604
# Poissons Ratio (y) = 0.01071 0.60344
# Poissons Ratio (z) = -0.00780 0.53099
#
# Static dielectric constant tensor:
#      x y z
#    x 1.761760 0.000000 0.000000 
#    y 0.000000 1.704020 0.000000 
#    z 0.000000 0.000000 1.700060 
# 
# From -- ./inp_files/14097.got.cif
#   From: 2010.05.17/outbox.cif.g08.bks.cpg/sg59_8_cif.got.tgz:14097.got - 2010.06.03 14:40:33.
