data_PCOD9449172
_publ_section_title
;
Structure prediction by ZEFSAII (Michael W. Deem and Ramdas Pophale) SiO2 
 PCOD9449172
Probable space group: P M M N
;
_chemical_formula_sum "Si O2"
_cell_formula_units_Z 64
_cell_length_a 8.367190
_cell_length_b 27.208542
_cell_length_c 13.637962
_cell_angle_alpha 90.000000
_cell_angle_beta 90.000000
_cell_angle_gamma 90.000000
_cell_volume 3104.805344
_symmetry_space_group_name_H-M "P M M N"
_symmetry_group_IT_number 59
_space_group.IT_coordinate_system_code '2'
_symmetry_cell_setting 'orthorhombic'
loop_
_space_group_symop_operation_xyz
x,y,z
1/2-x,1/2-y,z
1/2+x,-y,-z
-x,1/2+y,-z
-x,-y,-z
1/2+x,1/2+y,-z
1/2-x,y,z
x,1/2-y,z
loop_
_atom_site_type_symbol
_atom_site_label
_atom_site_fract_x
_atom_site_fract_y
_atom_site_fract_z
Si Si1 0.566546 0.861262 0.611890
Si Si2 0.569111 0.463975 0.419480
Si Si3 0.060130 0.140924 0.600998
Si Si4 0.057513 0.192853 0.996037
Si Si5 0.946127 0.620987 0.827712
Si Si6 0.069651 0.808585 0.214336
Si Si7 0.938567 0.988428 0.892182
Si Si8 0.569079 0.949421 0.271826
O O1 0.750000 0.843759 0.617649
O O2 0.552532 0.919787 0.595107
O O3 0.495646 0.843587 0.506626
O O4 0.496592 0.857617 0.721974
O O5 0.500000 0.500000 0.500000
O O6 0.750000 0.446435 0.441679
O O7 0.578110 0.498492 0.325670
O O8 0.250000 0.134328 0.585349
O O9 0.000001 0.089816 0.650334
O O10 0.028530 0.178077 0.689064
O O11 0.250000 0.193200 0.994817
O O12 0.005148 0.250000 0.009908
O O13 0.000393 0.174201 0.889544
O O14 0.006332 0.157180 0.083989
O O15 0.750000 0.620453 0.822337
O O16 0.999183 0.564851 0.851118
O O17 0.250000 0.827369 0.226600
O O18 0.073468 0.750000 0.207040
O O19 0.750000 0.982774 0.895150
O O20 0.978185 0.035947 0.825714
O O21 0.000000 0.000000 0.000000
O O22 0.750000 0.932772 0.247834
#
# Coordination Sequence:
#
# PCOD9449172 Si02
#       8
#     8   8   8   8   8   8   8   8
#     4  10  19  36  55  79 114 150 188 228 273 327
#     4  11  20  32  51  75 106 144 186 228 267 312
#     4  10  21  36  57  83 113 147 185 231 276 329
#     4   9  18  36  62  87 109 140 184 229 280 338
#     4   9  19  35  57  82 112 148 183 228 279 326
#     4  10  22  40  60  84 113 141 177 230 284 337
#     4  11  23  37  53  76 112 153 191 232 281 335
#     4  10  21  36  52  76 110 146 189 233 270 319
#
# _framework density 20.613209999999999
#
# number of rings (size 3 to 8) (size 9 to 14) (size 15 to 20)
#    0.000    2.000    2.500    1.125    1.750    2.250 
#    0.000    1.875    0.000    2.250    0.000    1.750 
#    0.000    0.000    0.000    0.000    0.000    0.000 
#
# Total GULP energy -356456.373718 kJ/mol
# GULP energy per Si atom -5569.630839 kJ/mol
# Density = 2.056629 g / cm^3
# Si number density = 20.613210 Si / 1000 Ang^3
#
#
#
# Elastic Constant Matrix: (Units=GPa)
#
#
# Indices 1 2 3 4 5 6 
#
# 1 17.3049 4.7731 17.3968 0.0000 0.0000 0.0000
# 2 4.7731 34.1360 31.7255 0.0000 0.0000 0.0000
# 3 17.3968 31.7255 191.8195 0.0000 0.0000 0.0000
# 4 0.0000 0.0000 0.0000 33.8200 0.0000 0.0000
# 5 0.0000 0.0000 0.0000 0.0000 17.9492 0.0000
# 6 0.0000 0.0000 0.0000 0.0000 0.0000 18.3975
#
#
#
# Elastic Compliance Matrix: (Units=1/GPa)
#
#
# Indices 1 2 3 4 5 6 
#
# 1 0.064092 -0.004206 -0.005117 0.000000 0.000000 0.000000
# 2 -0.004206 0.034891 -0.005389 0.000000 0.000000 0.000000
# 3 -0.005117 -0.005389 0.006569 0.000000 0.000000 0.000000
# 4 0.000000 0.000000 0.000000 0.029568 0.000000 0.000000
# 5 0.000000 0.000000 0.000000 0.000000 0.055713 0.000000
# 6 0.000000 0.000000 0.000000 0.000000 0.000000 0.054355
#
#
# Mechanical properties :
#
#
# Convention : Reuss Voigt Hill
#
# Bulk Modulus (GPa) = 13.13595 39.00568 26.07082
# Shear Modulus (GPa) = 16.66732 26.65769 21.66250
#
# Velocity S-wave (km/s) = 2.84663 3.60006 3.24528
# Velocity P-wave (km/s) = 4.14618 6.02032 5.16890
#
# Compressibility (1/GPa) = 0.07612696
#
# Stress axis : x y z
#
# Youngs Moduli (GPa) = 15.60267 28.66033 152.23780
#
# Poissons Ratio (x) = 0.12055 0.77901
# Poissons Ratio (y) = 0.06562 0.82046
# Poissons Ratio (z) = 0.07984 0.15446
#
# Static dielectric constant tensor:
#      x y z
#    x 1.775420 0.000000 0.000000 
#    y 0.000000 1.734640 0.000000 
#    z 0.000000 0.000000 1.794690 
# 
# From -- ./inp_files/14906.got.cif
#   From: 2010.05.17/outbox.cif.g08.bks.cpg/sg59_8_cif.got.tgz:14906.got - 2010.06.03 14:40:33.
