data_PCOD9449511
_publ_section_title
;
Structure prediction by ZEFSAII (Michael W. Deem and Ramdas Pophale) SiO2 
 PCOD9449511
Probable space group: P M M N
;
_chemical_formula_sum "Si O2"
_cell_formula_units_Z 64
_cell_length_a 31.146188
_cell_length_b 8.657597
_cell_length_c 14.796300
_cell_angle_alpha 90.000000
_cell_angle_beta 90.000000
_cell_angle_gamma 90.000000
_cell_volume 3989.839219
_symmetry_space_group_name_H-M "P M M N"
_symmetry_group_IT_number 59
_space_group.IT_coordinate_system_code '2'
_symmetry_cell_setting 'orthorhombic'
loop_
_space_group_symop_operation_xyz
x,y,z
1/2-x,1/2-y,z
1/2+x,-y,-z
-x,1/2+y,-z
-x,-y,-z
1/2+x,1/2+y,-z
1/2-x,y,z
x,1/2-y,z
loop_
_atom_site_type_symbol
_atom_site_label
_atom_site_fract_x
_atom_site_fract_y
_atom_site_fract_z
Si Si1 0.041540 0.933518 0.946660
Si Si2 0.382876 0.432559 0.416215
Si Si3 0.574396 0.070059 0.758344
Si Si4 0.519467 0.065201 0.257019
Si Si5 0.200386 0.565625 0.358304
Si Si6 0.958739 0.565544 0.445105
Si Si7 0.299027 0.063565 0.156152
Si Si8 0.884469 0.932014 0.934318
O O1 0.038511 0.750000 0.954955
O O2 0.039636 0.973149 0.840412
O O3 0.085833 0.988833 0.991139
O O4 0.000000 0.000000 0.000000
O O5 0.385527 0.250000 0.395306
O O6 0.400015 0.530389 0.331787
O O7 0.333485 0.482630 0.423567
O O8 0.415290 0.462931 0.498351
O O9 0.578316 0.250000 0.782074
O O10 0.525655 0.023041 0.740549
O O11 0.591811 0.966921 0.839851
O O12 0.512390 0.250000 0.260742
O O13 0.543784 0.011634 0.346797
O O14 0.250000 0.528580 0.379228
O O15 0.194865 0.750000 0.361871
O O16 0.192842 0.509337 0.254842
O O17 0.964412 0.750000 0.436330
O O18 0.000000 0.500000 0.500000
O O19 0.250000 0.025521 0.129992
O O20 0.302145 0.250000 0.165841
O O21 0.335607 0.014731 0.085067
O O22 0.883922 0.750000 0.952275
#
# Coordination Sequence:
#
# PCOD9449511 Si02
#       8
#     8   8   8   8   8   8   8   8
#     4  11  23  36  53  74 101 137 175 214 257 306
#     4  11  22  35  51  74 104 139 176 211 255 310
#     4  12  22  31  50  74 103 140 176 214 255 301
#     4  11  23  38  53  72 102 136 176 219 258 304
#     4  10  20  32  49  75 104 135 172 212 255 305
#     4  11  23  36  54  76 102 136 175 215 257 306
#     4   9  18  32  50  72 101 137 171 206 253 305
#     4  11  21  33  51  75 105 138 175 215 254 305
#
# _framework density 16.040745000000001
#
# number of rings (size 3 to 8) (size 9 to 14) (size 15 to 20)
#    0.000    1.250    3.750    3.375    0.000    4.250 
#    0.000    0.000    0.000    0.000    0.000    0.875 
#    0.000    3.000    0.000    0.000    0.000    0.000 
#
# Total GULP energy -357281.042529 kJ/mol
# GULP energy per Si atom -5582.516290 kJ/mol
# Density = 1.600424 g / cm^3
# Si number density = 16.040745 Si / 1000 Ang^3
#
#
#
# Elastic Constant Matrix: (Units=GPa)
#
#
# Indices 1 2 3 4 5 6 
#
# 1 119.4353 31.3437 44.6134 0.0000 0.0000 0.0000
# 2 31.3437 36.5241 25.8260 0.0000 0.0000 0.0000
# 3 44.6134 25.8260 84.6685 0.0000 0.0000 0.0000
# 4 0.0000 0.0000 0.0000 25.4241 0.0000 0.0000
# 5 0.0000 0.0000 0.0000 0.0000 15.8278 0.0000
# 6 0.0000 0.0000 0.0000 0.0000 0.0000 24.3082
#
#
#
# Elastic Compliance Matrix: (Units=1/GPa)
#
#
# Indices 1 2 3 4 5 6 
#
# 1 0.011772 -0.007288 -0.003980 0.000000 0.000000 0.000000
# 2 -0.007288 0.039420 -0.008184 0.000000 0.000000 0.000000
# 3 -0.003980 -0.008184 0.016404 0.000000 0.000000 0.000000
# 4 0.000000 0.000000 0.000000 0.039333 0.000000 0.000000
# 5 0.000000 0.000000 0.000000 0.000000 0.063180 0.000000
# 6 0.000000 0.000000 0.000000 0.000000 0.000000 0.041138
#
#
# Mechanical properties :
#
#
# Convention : Reuss Voigt Hill
#
# Bulk Modulus (GPa) = 34.85208 49.35490 42.10349
# Shear Modulus (GPa) = 19.25182 22.36833 20.81007
#
# Velocity S-wave (km/s) = 3.46812 3.73831 3.60575
# Velocity P-wave (km/s) = 6.14911 7.03339 6.60606
#
# Compressibility (1/GPa) = 0.02869269
#
# Stress axis : x y z
#
# Youngs Moduli (GPa) = 84.94725 25.36754 60.96039
#
# Poissons Ratio (x) = 0.18488 0.24261
# Poissons Ratio (y) = 0.61912 0.49889
# Poissons Ratio (z) = 0.33807 0.20761
#
# Static dielectric constant tensor:
#      x y z
#    x 1.576530 0.000000 0.000000 
#    y 0.000000 1.539210 0.000000 
#    z 0.000000 0.000000 1.533800 
# 
# From -- ./inp_files/21955.got.cif
#   From: 2010.05.17/outbox.cif.g08.bks.cpg/sg59_11_cif.got.tgz:21955.got - 2010.06.03 14:40:33.
