data_PCOD9449533
_publ_section_title
;
Structure prediction by ZEFSAII (Michael W. Deem and Ramdas Pophale) SiO2 
 PCOD9449533
Probable space group: P M M N
;
_chemical_formula_sum "Si O2"
_cell_formula_units_Z 64
_cell_length_a 9.955512
_cell_length_b 17.360807
_cell_length_c 20.946481
_cell_angle_alpha 90.000000
_cell_angle_beta 90.000000
_cell_angle_gamma 90.000000
_cell_volume 3620.300176
_symmetry_space_group_name_H-M "P M M N"
_symmetry_group_IT_number 59
_space_group.IT_coordinate_system_code '2'
_symmetry_cell_setting 'orthorhombic'
loop_
_space_group_symop_operation_xyz
x,y,z
1/2-x,1/2-y,z
1/2+x,-y,-z
-x,1/2+y,-z
-x,-y,-z
1/2+x,1/2+y,-z
1/2-x,y,z
x,1/2-y,z
loop_
_atom_site_type_symbol
_atom_site_label
_atom_site_fract_x
_atom_site_fract_y
_atom_site_fract_z
Si Si1 0.603454 0.157980 0.588867
Si Si2 0.092683 0.936561 0.534680
Si Si3 0.086265 0.339636 0.949178
Si Si4 0.588231 0.921568 0.178160
Si Si5 0.403003 0.342209 0.089669
Si Si6 0.096506 0.157225 0.694755
Si Si7 0.412989 0.661044 0.656044
Si Si8 0.410406 0.601104 0.797554
O O1 0.750000 0.131030 0.611392
O O2 0.600186 0.250000 0.592263
O O3 0.589805 0.132929 0.516226
O O4 0.489162 0.127468 0.635449
O O5 0.250000 0.961784 0.540740
O O6 0.044517 0.900496 0.601864
O O7 0.000000 0.000000 0.500000
O O8 0.250000 0.339970 0.950170
O O9 0.046272 0.250000 0.939798
O O10 0.038173 0.391366 0.890136
O O11 0.046635 0.368613 0.019663
O O12 0.750000 0.911279 0.175591
O O13 0.540285 0.870782 0.237691
O O14 0.564108 0.010055 0.194933
O O15 0.250000 0.370753 0.101045
O O16 0.394629 0.250000 0.083822
O O17 0.502536 0.361031 0.146790
O O18 0.250000 0.130154 0.688539
O O19 0.097438 0.250000 0.694293
O O20 0.250000 0.662121 0.652221
O O21 0.457991 0.750000 0.645710
O O22 0.447627 0.632663 0.727390
O O23 0.250000 0.614680 0.805921
#
# Coordination Sequence:
#
# PCOD9449533 Si02
#       8
#     8   8   8   8   8   8   8   8
#     4   9  18  33  51  71  97 131 168 201 240 297
#     4  10  21  35  54  77 101 130 163 206 252 296
#     4   8  14  27  48  71  97 133 172 205 243 299
#     4   9  17  28  45  72 105 133 164 207 250 294
#     4   9  18  33  52  72  95 128 170 211 251 299
#     4   9  17  29  49  75 100 129 165 205 245 287
#     4   9  18  34  55  75  97 133 177 208 237 291
#     4  10  20  32  50  77 103 130 164 209 256 294
#
# _framework density 17.678091999999999
#
# number of rings (size 3 to 8) (size 9 to 14) (size 15 to 20)
#    0.000    2.875    0.000    1.875    1.750    4.750 
#    0.000    1.250    0.000    2.625    0.000    1.750 
#    0.000    0.000    0.000    0.000    0.000    0.000 
#
# Total GULP energy -356296.309422 kJ/mol
# GULP energy per Si atom -5567.129835 kJ/mol
# Density = 1.763786 g / cm^3
# Si number density = 17.678092 Si / 1000 Ang^3
#
#
#
# Elastic Constant Matrix: (Units=GPa)
#
#
# Indices 1 2 3 4 5 6 
#
# 1 36.0466 17.0307 39.9306 0.0000 0.0000 0.0000
# 2 17.0307 33.4232 35.2435 0.0000 0.0000 0.0000
# 3 39.9306 35.2435 130.9053 0.0000 0.0000 0.0000
# 4 0.0000 0.0000 0.0000 -759.6068 0.0000 0.0000
# 5 0.0000 0.0000 0.0000 0.0000 9.4604 0.0000
# 6 0.0000 0.0000 0.0000 0.0000 0.0000 9.0790
#
#
#
# Elastic Compliance Matrix: (Units=1/GPa)
#
#
# Indices 1 2 3 4 5 6 
#
# 1 0.045007 -0.011810 -0.010549 0.000000 0.000000 0.000000
# 2 -0.011810 0.044879 -0.008480 0.000000 0.000000 0.000000
# 3 -0.010549 -0.008480 0.013140 0.000000 0.000000 0.000000
# 4 0.000000 0.000000 0.000000 -0.001316 0.000000 0.000000
# 5 0.000000 0.000000 0.000000 0.000000 0.105704 0.000000
# 6 0.000000 0.000000 0.000000 0.000000 0.000000 0.110144
#
#
# Mechanical properties :
#
#
# Convention : Reuss Voigt Hill
#
# Bulk Modulus (GPa) = 24.18488 42.75384 33.46936
# Shear Modulus (GPa) = 12.72200 -141.00212 -64.14006
#
# Velocity S-wave (km/s) = 2.68554 -8.94059 -6.03001
# Velocity P-wave (km/s) = 4.82976 9.07423 5.43209
#
# Compressibility (1/GPa) = 0.04134815
#
# Stress axis : x y z
#
# Youngs Moduli (GPa) = 22.21857 22.28202 76.10241
#
# Poissons Ratio (x) = 0.26314 0.80283
# Poissons Ratio (y) = 0.26239 0.64538
# Poissons Ratio (z) = 0.23439 0.18896
#
# Static dielectric constant tensor:
#      x y z
#    x 1.595640 0.000000 0.000000 
#    y 0.000000 1.634530 0.000000 
#    z 0.000000 0.000000 1.619660 
# 
# From -- ./inp_files/27078.got.cif
#   From: 2010.05.17/outbox.cif.g08.bks.cpg/sg59_14_cif.got.tgz:27078.got - 2010.06.03 14:40:33.
