data_PCOD9449044
_publ_section_title
;
Structure prediction by ZEFSAII (Michael W. Deem and Ramdas Pophale) SiO2 
 PCOD9449044
Probable space group: P M M N
;
_chemical_formula_sum "Si O2"
_cell_formula_units_Z 32
_cell_length_a 7.899841
_cell_length_b 13.485955
_cell_length_c 14.932281
_cell_angle_alpha 90.000000
_cell_angle_beta 90.000000
_cell_angle_gamma 90.000000
_cell_volume 1590.838931
_symmetry_space_group_name_H-M "P M M N"
_symmetry_group_IT_number 59
_space_group.IT_coordinate_system_code '2'
_symmetry_cell_setting 'orthorhombic'
loop_
_space_group_symop_operation_xyz
x,y,z
1/2-x,1/2-y,z
1/2+x,-y,-z
-x,1/2+y,-z
-x,-y,-z
1/2+x,1/2+y,-z
1/2-x,y,z
x,1/2-y,z
loop_
_atom_site_type_symbol
_atom_site_label
_atom_site_fract_x
_atom_site_fract_y
_atom_site_fract_z
Si Si1 0.453809 0.143434 0.444803
Si Si2 0.250000 0.635070 0.066293
Si Si3 0.047159 0.564271 0.365844
Si Si4 0.935217 0.552126 0.171405
Si Si5 0.250000 0.864056 0.850904
O O1 0.250000 0.141946 0.438588
O O2 0.516083 0.250000 0.411697
O O3 0.500669 0.130569 0.549045
O O4 0.515844 0.046104 0.393362
O O5 0.250000 0.750000 0.095361
O O6 0.415244 0.582438 0.106330
O O7 0.250000 0.633279 0.959073
O O8 0.250000 0.562798 0.356226
O O9 0.970448 0.592392 0.270696
O O10 0.750000 0.587282 0.139291
O O11 0.909125 0.432595 0.178268
O O12 0.250000 0.750000 0.821734
#
# Coordination Sequence:
#
# PCOD9449044 Si02
#       5
#     8   4   8   8   4
#     4   9  19  34  54  78 111 155 197 239 292 349
#     4  11  22  42  65  92 123 158 203 250 300 369
#     4  10  19  35  55  81 117 152 197 243 292 348
#     4  10  22  38  65  88 125 160 198 250 306 352
#     4   9  22  42  65  92 123 156 203 250 302 367
#
# _framework density 20.115174
#
# number of rings (size 3 to 8) (size 9 to 14) (size 15 to 20)
#    0.750    1.500    1.250    1.500    0.000    4.000 
#    0.000    0.625    0.000    0.000    0.000    0.000 
#    0.000    0.000    0.000    0.000    0.000    0.000 
#
# Total GULP energy -178415.466476 kJ/mol
# GULP energy per Si atom -5575.483327 kJ/mol
# Density = 2.006939 g / cm^3
# Si number density = 20.115174 Si / 1000 Ang^3
#
#
#
# Elastic Constant Matrix: (Units=GPa)
#
#
# Indices 1 2 3 4 5 6 
#
# 1 63.6939 6.7757 0.4778 0.0000 0.0000 0.0000
# 2 6.7757 68.0279 -18.9446 0.0000 0.0000 0.0000
# 3 0.4778 -18.9446 46.9891 0.0000 0.0000 0.0000
# 4 0.0000 0.0000 0.0000 0.0078 0.0000 0.0000
# 5 0.0000 0.0000 0.0000 0.0000 -0.4465 0.0000
# 6 0.0000 0.0000 0.0000 0.0000 0.0000 20.9441
#
#
#
# Elastic Compliance Matrix: (Units=1/GPa)
#
#
# Indices 1 2 3 4 5 6 
#
# 1 0.015902 -0.001835 -0.000901 0.000000 0.000000 0.000000
# 2 -0.001835 0.016771 0.006780 0.000000 0.000000 0.000000
# 3 -0.000901 0.006780 0.024024 0.000000 0.000000 0.000000
# 4 0.000000 0.000000 0.000000128.277524 0.000000 0.000000
# 5 0.000000 0.000000 0.000000 0.000000 -2.239765 0.000000
# 6 0.000000 0.000000 0.000000 0.000000 0.000000 0.047746
#
#
# Mechanical properties :
#
#
# Convention : Reuss Voigt Hill
#
# Bulk Modulus (GPa) = 15.43578 17.25873 16.34726
# Shear Modulus (GPa) = 0.03963 16.79455 8.41709
#
# Velocity S-wave (km/s) = 0.14052 2.89263 2.04781
# Velocity P-wave (km/s) = 2.77789 4.44466 3.70619
#
# Compressibility (1/GPa) = 0.06478454
#
# Stress axis : x y z
#
# Youngs Moduli (GPa) = 62.88495 59.62761 41.62463
#
# Poissons Ratio (x) = 0.10941 0.03752
# Poissons Ratio (y) = 0.11539 -0.28222
# Poissons Ratio (z) = 0.05669 -0.40428
#
# Static dielectric constant tensor:
#      x y z
#    x 1.694560 0.000000 0.000000 
#    y 0.000000 1.759930 0.000000 
#    z 0.000000 0.000000 1.671120 
# 
# From -- ./inp_files/19726.got.cif
#   From: 2010.05.17/outbox.cif.g08.bks.cpg/sg59_10_cif.got.tgz:19726.got - 2010.06.03 14:40:33.
