data_PCOD9449440
_publ_section_title
;
Structure prediction by ZEFSAII (Michael W. Deem and Ramdas Pophale) SiO2 
 PCOD9449440
Probable space group: P M M N
;
_chemical_formula_sum "Si O2"
_cell_formula_units_Z 48
_cell_length_a 9.703717
_cell_length_b 7.580336
_cell_length_c 32.524044
_cell_angle_alpha 90.000000
_cell_angle_beta 90.000000
_cell_angle_gamma 90.000000
_cell_volume 2392.385263
_symmetry_space_group_name_H-M "P M M N"
_symmetry_group_IT_number 59
_space_group.IT_coordinate_system_code '2'
_symmetry_cell_setting 'orthorhombic'
loop_
_space_group_symop_operation_xyz
x,y,z
1/2-x,1/2-y,z
1/2+x,-y,-z
-x,1/2+y,-z
-x,-y,-z
1/2+x,1/2+y,-z
1/2-x,y,z
x,1/2-y,z
loop_
_atom_site_type_symbol
_atom_site_label
_atom_site_fract_x
_atom_site_fract_y
_atom_site_fract_z
Si Si1 0.591650 0.965494 0.792171
Si Si2 0.407303 0.038433 0.539149
Si Si3 0.588790 0.961690 0.371714
Si Si4 0.093105 0.961900 0.960391
Si Si5 0.590930 0.965306 0.884795
Si Si6 0.906180 0.459465 0.282264
O O1 0.750000 0.018183 0.785614
O O2 0.589294 0.750000 0.791819
O O3 0.551447 0.019189 0.838450
O O4 0.495644 0.029926 0.755380
O O5 0.250000 0.972836 0.533925
O O6 0.399023 0.250000 0.542083
O O7 0.464366 0.976340 0.583705
O O8 0.500000 0.000000 0.500000
O O9 0.750000 0.016855 0.371323
O O10 0.584433 0.750000 0.371502
O O11 0.530032 0.017346 0.327760
O O12 0.250000 0.028688 0.964227
O O13 0.101245 0.750000 0.956778
O O14 0.012719 0.027405 0.919929
O O15 0.000000 0.000000 0.000000
O O16 0.750000 0.018844 0.892571
O O17 0.590677 0.750000 0.885412
O O18 0.750000 0.532541 0.282408
O O19 0.895542 0.250000 0.276057
#
# Coordination Sequence:
#
# PCOD9449440 Si02
#       6
#     8   8   8   8   8   8
#     4   8  14  25  41  62  89 118 144 175 221 268
#     4   9  18  32  49  69  92 119 153 191 231 275
#     4   8  15  29  46  62  85 118 149 176 213 265
#     4  10  20  32  48  71  96 123 156 193 234 278
#     4   8  14  26  44  64  87 117 151 185 223 269
#     4   9  16  25  41  66  88 106 138 183 220 251
#
# _framework density 20.063658
#
# number of rings (size 3 to 8) (size 9 to 14) (size 15 to 20)
#    0.000    3.333    0.000    2.500    0.000    2.667 
#    0.000    5.833    0.000    4.500    0.000    4.667 
#    0.000    0.000    0.000    0.000    0.000    0.000 
#
# Total GULP energy -267408.385116 kJ/mol
# GULP energy per Si atom -5571.008023 kJ/mol
# Density = 2.001799 g / cm^3
# Si number density = 20.063658 Si / 1000 Ang^3
#
#
#
# Elastic Constant Matrix: (Units=GPa)
#
#
# Indices 1 2 3 4 5 6 
#
# 1 100.7021 5.1801 118.1631 0.0000 0.0000 0.0000
# 2 5.1801 41.6184 4.7094 0.0000 0.0000 0.0000
# 3 118.1631 4.7094 237.5136 0.0000 0.0000 0.0000
# 4 0.0000 0.0000 0.0000 17.1524 0.0000 0.0000
# 5 0.0000 0.0000 0.0000 0.0000 38.2077 0.0000
# 6 0.0000 0.0000 0.0000 0.0000 0.0000 7.4170
#
#
#
# Elastic Compliance Matrix: (Units=1/GPa)
#
#
# Indices 1 2 3 4 5 6 
#
# 1 0.023968 -0.001638 -0.011892 0.000000 0.000000 0.000000
# 2 -0.001638 0.024194 0.000335 0.000000 0.000000 0.000000
# 3 -0.011892 0.000335 0.010120 0.000000 0.000000 0.000000
# 4 0.000000 0.000000 0.000000 0.058301 0.000000 0.000000
# 5 0.000000 0.000000 0.000000 0.000000 0.026173 0.000000
# 6 0.000000 0.000000 0.000000 0.000000 0.000000 0.134826
#
#
# Mechanical properties :
#
#
# Convention : Reuss Voigt Hill
#
# Bulk Modulus (GPa) = 31.35476 70.65990 51.00733
# Shear Modulus (GPa) = 15.89315 29.34086 22.61700
#
# Velocity S-wave (km/s) = 2.81754 3.82827 3.36111
# Velocity P-wave (km/s) = 5.12312 7.40508 6.36716
#
# Compressibility (1/GPa) = 0.03189308
#
# Stress axis : x y z
#
# Youngs Moduli (GPa) = 41.72211 41.33296 98.81663
#
# Poissons Ratio (x) = 0.06769 1.17509
# Poissons Ratio (y) = 0.06832 -0.03310
# Poissons Ratio (z) = 0.49615 -0.01385
#
# Static dielectric constant tensor:
#      x y z
#    x 1.694180 0.000000 0.000000 
#    y 0.000000 1.773670 0.000000 
#    z 0.000000 0.000000 1.732450 
# 
# From -- ./inp_files/32471.got.cif
#   From: 2010.05.17/outbox.cif.g08.bks.cpg/sg59_17_cif.got.tgz:32471.got - 2010.06.03 14:40:33.
