data_PCOD9449797
_publ_section_title
;
Structure prediction by ZEFSAII (Michael W. Deem and Ramdas Pophale) SiO2 
 PCOD9449797
Probable space group: P M M N
;
_chemical_formula_sum "Si O2"
_cell_formula_units_Z 48
_cell_length_a 10.239138
_cell_length_b 7.451001
_cell_length_c 29.064234
_cell_angle_alpha 90.000000
_cell_angle_beta 90.000000
_cell_angle_gamma 90.000000
_cell_volume 2217.363526
_symmetry_space_group_name_H-M "P M M N"
_symmetry_group_IT_number 59
_space_group.IT_coordinate_system_code '2'
_symmetry_cell_setting 'orthorhombic'
loop_
_space_group_symop_operation_xyz
x,y,z
1/2-x,1/2-y,z
1/2+x,-y,-z
-x,1/2+y,-z
-x,-y,-z
1/2+x,1/2+y,-z
1/2-x,y,z
x,1/2-y,z
loop_
_atom_site_type_symbol
_atom_site_label
_atom_site_fract_x
_atom_site_fract_y
_atom_site_fract_z
Si Si1 0.100397 0.031285 0.143184
Si Si2 0.104762 0.464346 0.039108
Si Si3 0.468491 0.533846 0.399531
Si Si4 0.099599 0.530474 0.777886
Si Si5 0.750000 0.958247 0.422636
Si Si6 0.750000 0.032231 0.529721
Si Si7 0.607224 0.536862 0.704478
O O1 0.250000 0.977579 0.154922
O O2 0.100347 0.250000 0.144192
O O3 0.072566 0.972001 0.090785
O O4 0.989191 0.974272 0.178709
O O5 0.250000 0.531431 0.026890
O O6 0.112762 0.250000 0.042920
O O7 0.000000 0.500000 0.000000
O O8 0.471933 0.750000 0.403322
O O9 0.614876 0.462245 0.404704
O O10 0.375508 0.472236 0.440886
O O11 0.411678 0.490782 0.349706
O O12 0.250000 0.470120 0.778746
O O13 0.103924 0.750000 0.777925
O O14 0.016475 0.470194 0.733382
O O15 0.750000 0.750000 0.408159
O O16 0.750000 0.965931 0.477854
O O17 0.750000 0.250000 0.527976
O O18 0.750000 0.464339 0.718322
O O19 0.611493 0.750000 0.713030
#
# Coordination Sequence:
#
# PCOD9449797 Si02
#       7
#     8   8   8   8   4   4   8
#     4   8  14  27  46  67  96 133 169 206 252 305
#     4   9  18  31  48  73 103 137 177 218 261 310
#     4  10  21  37  54  75 103 134 165 198 241 293
#     4   9  17  28  45  72 102 127 158 206 256 298
#     4  10  22  36  54  78 104 132 162 200 245 288
#     4  10  20  36  56  76 100 132 168 202 237 284
#     4  10  20  33  51  75 100 129 165 203 244 290
#
# _framework density 21.64733
#
# number of rings (size 3 to 8) (size 9 to 14) (size 15 to 20)
#    0.000    2.667    0.833    2.000    1.167    4.333 
#    0.000    1.667    0.000    1.000    0.000    2.333 
#    0.000    0.000    0.000    0.000    0.000    0.000 
#
# Total GULP energy -267995.680054 kJ/mol
# GULP energy per Si atom -5583.243334 kJ/mol
# Density = 2.159806 g / cm^3
# Si number density = 21.647330 Si / 1000 Ang^3
#
#
#
# Elastic Constant Matrix: (Units=GPa)
#
#
# Indices 1 2 3 4 5 6 
#
# 1 186.2847 2.0554 68.7722 0.0000 0.0000 0.0000
# 2 2.0554 62.9708 -13.1779 0.0000 0.0000 0.0000
# 3 68.7722 -13.1779 93.2152 0.0000 0.0000 0.0000
# 4 0.0000 0.0000 0.0000 10.5685 0.0000 0.0000
# 5 0.0000 0.0000 0.0000 0.0000 41.0622 0.0000
# 6 0.0000 0.0000 0.0000 0.0000 0.0000 -13.8132
#
#
#
# Elastic Compliance Matrix: (Units=1/GPa)
#
#
# Indices 1 2 3 4 5 6 
#
# 1 0.007503 -0.001446 -0.005740 0.000000 0.000000 0.000000
# 2 -0.001446 0.016643 0.003420 0.000000 0.000000 0.000000
# 3 -0.005740 0.003420 0.015446 0.000000 0.000000 0.000000
# 4 0.000000 0.000000 0.000000 0.094621 0.000000 0.000000
# 5 0.000000 0.000000 0.000000 0.000000 0.024353 0.000000
# 6 0.000000 0.000000 0.000000 0.000000 0.000000 -0.072395
#
#
# Mechanical properties :
#
#
# Convention : Reuss Voigt Hill
#
# Bulk Modulus (GPa) = 31.19178 50.86333 41.02756
# Shear Modulus (GPa) = 47.89638 26.55157 37.22398
#
# Velocity S-wave (km/s) = 4.70891 3.50602 4.15126
# Velocity P-wave (km/s) = 6.63366 6.31956 6.47851
#
# Compressibility (1/GPa) = 0.03205973
#
# Stress axis : x y z
#
# Youngs Moduli (GPa) = 133.27613 60.08447 64.74050
#
# Poissons Ratio (x) = 0.08689 0.37162
# Poissons Ratio (y) = 0.19274 -0.22140
# Poissons Ratio (z) = 0.76503 -0.20548
#
# Static dielectric constant tensor:
#      x y z
#    x 1.802570 0.000000 0.000000 
#    y 0.000000 1.849940 0.000000 
#    z 0.000000 0.000000 1.742260 
# 
# From -- ./inp_files/33100.got.cif
#   From: 2010.05.17/outbox.cif.g08.bks.cpg/sg59_17_cif.got.tgz:33100.got - 2010.06.03 14:40:33.
