data_PCOD9449247
_publ_section_title
;
Structure prediction by ZEFSAII (Michael W. Deem and Ramdas Pophale) SiO2 
 PCOD9449247
Probable space group: P M M N
;
_chemical_formula_sum "Si O2"
_cell_formula_units_Z 64
_cell_length_a 29.136219
_cell_length_b 7.805357
_cell_length_c 13.413469
_cell_angle_alpha 90.000000
_cell_angle_beta 90.000000
_cell_angle_gamma 90.000000
_cell_volume 3050.472219
_symmetry_space_group_name_H-M "P M M N"
_symmetry_group_IT_number 59
_space_group.IT_coordinate_system_code '2'
_symmetry_cell_setting 'orthorhombic'
loop_
_space_group_symop_operation_xyz
x,y,z
1/2-x,1/2-y,z
1/2+x,-y,-z
-x,1/2+y,-z
-x,-y,-z
1/2+x,1/2+y,-z
1/2-x,y,z
x,1/2-y,z
loop_
_atom_site_type_symbol
_atom_site_label
_atom_site_fract_x
_atom_site_fract_y
_atom_site_fract_z
Si Si1 0.363516 0.960133 0.922011
Si Si2 0.197636 0.453662 0.340098
Si Si3 0.549898 0.456582 0.539758
Si Si4 0.468020 0.952294 0.906556
Si Si5 0.643891 0.047490 0.460824
Si Si6 0.358888 0.543075 0.143377
Si Si7 0.197196 0.539826 0.733878
Si Si8 0.546618 0.455967 0.764738
O O1 0.363732 0.750000 0.920844
O O2 0.416233 0.021480 0.909721
O O3 0.331741 0.014421 0.830513
O O4 0.346301 0.013358 0.031853
O O5 0.250000 0.518633 0.339818
O O6 0.198565 0.250000 0.353844
O O7 0.169680 0.527175 0.433721
O O8 0.173213 0.490135 0.234822
O O9 0.500000 0.500000 0.500000
O O10 0.553764 0.250000 0.542905
O O11 0.592474 0.523136 0.474759
O O12 0.553988 0.520461 0.653057
O O13 0.462869 0.750000 0.910502
O O14 0.497555 0.997664 0.809602
O O15 0.500000 0.000000 0.000000
O O16 0.639319 0.250000 0.441479
O O17 0.672779 0.978830 0.367824
O O18 0.359198 0.750000 0.142871
O O19 0.410905 0.484144 0.167526
O O20 0.250000 0.484661 0.737873
O O21 0.197515 0.750000 0.733083
O O22 0.548964 0.250000 0.763274
#
# Coordination Sequence:
#
# PCOD9449247 Si02
#       8
#     8   8   8   8   8   8   8   8
#     4   9  19  34  54  83 117 148 184 235 285 329
#     4  11  24  39  57  85 117 145 184 241 295 346
#     4  10  22  37  55  82 118 151 186 234 283 341
#     4  11  21  34  55  82 113 151 189 231 280 338
#     4  10  20  38  62  85 112 150 192 233 280 339
#     4  10  19  37  60  82 113 150 189 234 284 343
#     4   9  18  33  56  85 112 140 184 239 284 328
#     4  10  20  37  55  79 115 149 188 237 280 331
#
# _framework density 20.980357999999999
#
# number of rings (size 3 to 8) (size 9 to 14) (size 15 to 20)
#    0.000    2.000    2.500    1.125    1.750    3.500 
#    0.000    1.250    0.000    0.750    0.000    1.750 
#    0.000    0.000    0.000    0.000    0.000    0.000 
#
# Total GULP energy -357421.080354 kJ/mol
# GULP energy per Si atom -5584.704381 kJ/mol
# Density = 2.093261 g / cm^3
# Si number density = 20.980358 Si / 1000 Ang^3
#
#
#
# Elastic Constant Matrix: (Units=GPa)
#
#
# Indices 1 2 3 4 5 6 
#
# 1 173.3087 -1.3334 97.2159 0.0000 0.0000 0.0000
# 2 -1.3334 20.8632 -0.3936 0.0000 0.0000 0.0000
# 3 97.2159 -0.3936 161.5585 0.0000 0.0000 0.0000
# 4 0.0000 0.0000 0.0000 11.2227 0.0000 0.0000
# 5 0.0000 0.0000 0.0000 0.0000 28.6603 0.0000
# 6 0.0000 0.0000 0.0000 0.0000 0.0000 20.7204
#
#
#
# Elastic Compliance Matrix: (Units=1/GPa)
#
#
# Indices 1 2 3 4 5 6 
#
# 1 0.008714 0.000458 -0.005243 0.000000 0.000000 0.000000
# 2 0.000458 0.047958 -0.000159 0.000000 0.000000 0.000000
# 3 -0.005243 -0.000159 0.009344 0.000000 0.000000 0.000000
# 4 0.000000 0.000000 0.000000 0.089105 0.000000 0.000000
# 5 0.000000 0.000000 0.000000 0.000000 0.034891 0.000000
# 6 0.000000 0.000000 0.000000 0.000000 0.000000 0.048262
#
#
# Mechanical properties :
#
#
# Convention : Reuss Voigt Hill
#
# Bulk Modulus (GPa) = 17.81602 60.74535 39.28068
# Shear Modulus (GPa) = 18.73566 29.47012 24.10289
#
# Velocity S-wave (km/s) = 2.99157 3.75194 3.39312
# Velocity P-wave (km/s) = 4.52138 6.91272 5.84074
#
# Compressibility (1/GPa) = 0.05612927
#
# Stress axis : x y z
#
# Youngs Moduli (GPa) = 114.75258 20.85173 107.02012
#
# Poissons Ratio (x) = -0.00955 0.56107
# Poissons Ratio (y) = -0.05256 0.01699
# Poissons Ratio (z) = 0.60161 0.00331
#
# Static dielectric constant tensor:
#      x y z
#    x 1.744730 0.000000 0.000000 
#    y 0.000000 1.775330 0.000000 
#    z 0.000000 0.000000 1.739680 
# 
# From -- ./inp_files/19353.got.cif
#   From: 2010.05.17/outbox.cif.g08.bks.cpg/sg59_10_cif.got.tgz:19353.got - 2010.06.03 14:40:33.
