data_PCOD9449379
_publ_section_title
;
Structure prediction by ZEFSAII (Michael W. Deem and Ramdas Pophale) SiO2 
 PCOD9449379
Probable space group: P M M N
;
_chemical_formula_sum "Si O2"
_cell_formula_units_Z 48
_cell_length_a 9.755865
_cell_length_b 7.357292
_cell_length_c 31.814459
_cell_angle_alpha 90.000000
_cell_angle_beta 90.000000
_cell_angle_gamma 90.000000
_cell_volume 2283.538391
_symmetry_space_group_name_H-M "P M M N"
_symmetry_group_IT_number 59
_space_group.IT_coordinate_system_code '2'
_symmetry_cell_setting 'orthorhombic'
loop_
_space_group_symop_operation_xyz
x,y,z
1/2-x,1/2-y,z
1/2+x,-y,-z
-x,1/2+y,-z
-x,-y,-z
1/2+x,1/2+y,-z
1/2-x,y,z
x,1/2-y,z
loop_
_atom_site_type_symbol
_atom_site_label
_atom_site_fract_x
_atom_site_fract_y
_atom_site_fract_z
Si Si1 0.905497 0.467218 0.540415
Si Si2 0.907558 0.472245 0.789137
Si Si3 0.093102 0.471538 0.616284
Si Si4 0.091037 0.471327 0.867226
Si Si5 0.093412 0.028798 0.711866
Si Si6 0.095933 0.466738 0.960533
O O1 0.750000 0.536767 0.535758
O O2 0.895758 0.250000 0.545000
O O3 0.000000 0.500000 0.500000
O O4 0.985642 0.535351 0.581623
O O5 0.750000 0.529822 0.789780
O O6 0.908093 0.250000 0.789150
O O7 0.991664 0.531886 0.830194
O O8 0.987797 0.530840 0.747285
O O9 0.250000 0.525943 0.606333
O O10 0.092197 0.250000 0.615896
O O11 0.061408 0.527538 0.664106
O O12 0.250000 0.524024 0.860463
O O13 0.088935 0.250000 0.866331
O O14 0.049445 0.530897 0.914302
O O15 0.250000 0.974254 0.721654
O O16 0.092404 0.250000 0.711984
O O17 0.250000 0.536205 0.968061
O O18 0.104968 0.250000 0.956666
O O19 0.000000 0.500000 0.000000
#
# Coordination Sequence:
#
# PCOD9449379 Si02
#       6
#     8   8   8   8   8   8
#     4  10  20  32  47  67  90 118 151 186 225 266
#     4   9  15  20  29  49  75 102 134 171 208 247
#     4   8  14  25  40  57  79 109 143 177 214 257
#     4   8  14  25  38  51  73 106 139 170 207 253
#     4   8  13  21  33  49  72 105 139 167 203 253
#     4   9  18  31  46  65  88 115 148 184 222 264
#
# _framework density 21.020009999999999
#
# number of rings (size 3 to 8) (size 9 to 14) (size 15 to 20)
#    0.000    3.333    0.000    3.000    0.000    4.667 
#    0.000    5.000    0.000    0.000    0.000    0.000 
#    0.000    1.333    0.000    7.333    0.000   12.167 
#
# Total GULP energy -267853.182099 kJ/mol
# GULP energy per Si atom -5580.274627 kJ/mol
# Density = 2.097217 g / cm^3
# Si number density = 21.020010 Si / 1000 Ang^3
#
#
#
# Elastic Constant Matrix: (Units=GPa)
#
#
# Indices 1 2 3 4 5 6 
#
# 1 191.3151 5.9173 167.8493 0.0000 0.0000 0.0000
# 2 5.9173 76.5071 4.4634 0.0000 0.0000 0.0000
# 3 167.8493 4.4634 217.0026 0.0000 0.0000 0.0000
# 4 0.0000 0.0000 0.0000 6.7146 0.0000 0.0000
# 5 0.0000 0.0000 0.0000 0.0000 43.2322 0.0000
# 6 0.0000 0.0000 0.0000 0.0000 0.0000 -0.7935
#
#
#
# Elastic Compliance Matrix: (Units=1/GPa)
#
#
# Indices 1 2 3 4 5 6 
#
# 1 0.016285 -0.000525 -0.012586 0.000000 0.000000 0.000000
# 2 -0.000525 0.013103 0.000137 0.000000 0.000000 0.000000
# 3 -0.012586 0.000137 0.014340 0.000000 0.000000 0.000000
# 4 0.000000 0.000000 0.000000 0.148930 0.000000 0.000000
# 5 0.000000 0.000000 0.000000 0.000000 0.023131 0.000000
# 6 0.000000 0.000000 0.000000 0.000000 0.000000 -1.260310
#
#
# Mechanical properties :
#
#
# Convention : Reuss Voigt Hill
#
# Bulk Modulus (GPa) = 56.24123 93.47608 74.85865
# Shear Modulus (GPa) = -4.93756 30.27031 12.66637
#
# Velocity S-wave (km/s) = -1.53430 3.79894 2.45743
# Velocity P-wave (km/s) = 4.86573 7.98807 6.61379
#
# Compressibility (1/GPa) = 0.01778055
#
# Stress axis : x y z
#
# Youngs Moduli (GPa) = 61.40584 76.31645 69.73391
#
# Poissons Ratio (x) = 0.04009 0.87764
# Poissons Ratio (y) = 0.03226 -0.00954
# Poissons Ratio (z) = 0.77283 -0.01044
#
# Static dielectric constant tensor:
#      x y z
#    x 1.731920 0.000000 0.000000 
#    y 0.000000 1.942140 0.000000 
#    z 0.000000 0.000000 1.730500 
# 
# From -- ./inp_files/33133.got.cif
#   From: 2010.05.17/outbox.cif.g08.bks.cpg/sg59_17_cif.got.tgz:33133.got - 2010.06.03 14:40:33.
