data_PCOD9449508
_publ_section_title
;
Structure prediction by ZEFSAII (Michael W. Deem and Ramdas Pophale) SiO2 
 PCOD9449508
Probable space group: P M M N
;
_chemical_formula_sum "Si O2"
_cell_formula_units_Z 40
_cell_length_a 7.885682
_cell_length_b 14.092036
_cell_length_c 19.035272
_cell_angle_alpha 90.000000
_cell_angle_beta 90.000000
_cell_angle_gamma 90.000000
_cell_volume 2115.300590
_symmetry_space_group_name_H-M "P M M N"
_symmetry_group_IT_number 59
_space_group.IT_coordinate_system_code '2'
_symmetry_cell_setting 'orthorhombic'
loop_
_space_group_symop_operation_xyz
x,y,z
1/2-x,1/2-y,z
1/2+x,-y,-z
-x,1/2+y,-z
-x,-y,-z
1/2+x,1/2+y,-z
1/2-x,y,z
x,1/2-y,z
loop_
_atom_site_type_symbol
_atom_site_label
_atom_site_fract_x
_atom_site_fract_y
_atom_site_fract_z
Si Si1 0.048841 0.145703 0.541911
Si Si2 0.047479 0.948158 0.600748
Si Si3 0.044873 0.140872 0.251017
Si Si4 0.545260 0.643107 0.036234
Si Si5 0.453592 0.045484 0.107689
O O1 0.250000 0.149853 0.555651
O O2 0.976485 0.250000 0.557162
O O3 0.024519 0.119787 0.460023
O O4 0.981514 0.054738 0.584636
O O5 0.250000 0.948726 0.591539
O O6 0.006029 0.911483 0.677770
O O7 0.250000 0.142390 0.248588
O O8 0.985989 0.250000 0.251603
O O9 0.982923 0.087252 0.181055
O O10 0.750000 0.645228 0.033700
O O11 0.484984 0.750000 0.049507
O O12 0.495396 0.564025 0.092844
O O13 0.483857 0.604636 0.960247
O O14 0.250000 0.054775 0.108037
#
# Coordination Sequence:
#
# PCOD9449508 Si02
#       5
#     8   8   8   8   8
#     4   9  18  34  53  70  93 128 163 193 233 286
#     4  10  20  32  49  75 101 123 156 201 240 277
#     4  10  20  34  51  70  96 130 161 191 235 289
#     4   9  17  31  51  73  97 126 160 199 243 287
#     4   9  18  32  50  72  97 126 163 201 235 280
#
# _framework density 18.909841
#
# number of rings (size 3 to 8) (size 9 to 14) (size 15 to 20)
#    0.000    2.600    0.000    1.800    0.000    7.600 
#    0.000    1.000    0.000    7.200    0.000    0.000 
#    0.000    0.000    0.000    0.000    0.000    0.000 
#
# Total GULP energy -223124.292336 kJ/mol
# GULP energy per Si atom -5578.107308 kJ/mol
# Density = 1.886680 g / cm^3
# Si number density = 18.909841 Si / 1000 Ang^3
#
#
#
# Elastic Constant Matrix: (Units=GPa)
#
#
# Indices 1 2 3 4 5 6 
#
# 1 15.2782 -1.5478 -9.3183 0.0000 0.0000 0.0000
# 2 -1.5478 171.8248 76.3070 0.0000 0.0000 0.0000
# 3 -9.3183 76.3070 120.3860 0.0000 0.0000 0.0000
# 4 0.0000 0.0000 0.0000 14.7091 0.0000 0.0000
# 5 0.0000 0.0000 0.0000 0.0000 17.1516 0.0000
# 6 0.0000 0.0000 0.0000 0.0000 0.0000 21.5424
#
#
#
# Elastic Compliance Matrix: (Units=1/GPa)
#
#
# Indices 1 2 3 4 5 6 
#
# 1 0.069430 -0.002451 0.006928 0.000000 0.000000 0.000000
# 2 -0.002451 0.008186 -0.005379 0.000000 0.000000 0.000000
# 3 0.006928 -0.005379 0.012252 0.000000 0.000000 0.000000
# 4 0.000000 0.000000 0.000000 0.067985 0.000000 0.000000
# 5 0.000000 0.000000 0.000000 0.000000 0.058304 0.000000
# 6 0.000000 0.000000 0.000000 0.000000 0.000000 0.046420
#
#
# Mechanical properties :
#
#
# Convention : Reuss Voigt Hill
#
# Bulk Modulus (GPa) = 11.35534 48.70787 30.03160
# Shear Modulus (GPa) = 17.02206 26.81716 21.91961
#
# Velocity S-wave (km/s) = 3.00354 3.76993 3.40834
# Velocity P-wave (km/s) = 4.24810 6.69057 5.60402
#
# Compressibility (1/GPa) = 0.08806432
#
# Stress axis : x y z
#
# Youngs Moduli (GPa) = 14.40301 122.15232 81.61800
#
# Poissons Ratio (x) = 0.29942 -0.56543
# Poissons Ratio (y) = 0.03530 0.43900
# Poissons Ratio (z) = -0.09978 0.65703
#
# Static dielectric constant tensor:
#      x y z
#    x 1.691670 0.000000 0.000000 
#    y 0.000000 1.675440 0.000000 
#    z 0.000000 0.000000 1.619720 
# 
# From -- ./inp_files/19880.got.cif
#   From: 2010.05.17/outbox.cif.g08.bks.cpg/sg59_10_cif.got.tgz:19880.got - 2010.06.03 14:40:33.
