data_PCOD9449908
_publ_section_title
;
Structure prediction by ZEFSAII (Michael W. Deem and Ramdas Pophale) SiO2 
 PCOD9449908
Probable space group: P M M N
;
_chemical_formula_sum "Si O2"
_cell_formula_units_Z 40
_cell_length_a 29.493588
_cell_length_b 7.495913
_cell_length_c 8.153449
_cell_angle_alpha 90.000000
_cell_angle_beta 90.000000
_cell_angle_gamma 90.000000
_cell_volume 1802.575673
_symmetry_space_group_name_H-M "P M M N"
_symmetry_group_IT_number 59
_space_group.IT_coordinate_system_code '2'
_symmetry_cell_setting 'orthorhombic'
loop_
_space_group_symop_operation_xyz
x,y,z
1/2-x,1/2-y,z
1/2+x,-y,-z
-x,1/2+y,-z
-x,-y,-z
1/2+x,1/2+y,-z
1/2-x,y,z
x,1/2-y,z
loop_
_atom_site_type_symbol
_atom_site_label
_atom_site_fract_x
_atom_site_fract_y
_atom_site_fract_z
Si Si1 0.397976 0.455524 0.808682
Si Si2 0.699733 0.039186 0.303785
Si Si3 0.394273 0.469317 0.165963
Si Si4 0.946996 0.536363 0.513387
Si Si5 0.200306 0.464776 0.308144
O O1 0.413160 0.250000 0.813769
O O2 0.343722 0.458178 0.784108
O O3 0.420939 0.535907 0.646894
O O4 0.408789 0.533309 0.986589
O O5 0.750000 0.970521 0.258100
O O6 0.698882 0.250000 0.273002
O O7 0.694525 0.009983 0.499574
O O8 0.394305 0.250000 0.162199
O O9 0.425653 0.528733 0.316220
O O10 0.342949 0.527013 0.207031
O O11 0.939772 0.750000 0.515758
O O12 0.000000 0.500000 0.500000
O O13 0.250000 0.530654 0.255469
O O14 0.200704 0.250000 0.298118
#
# Coordination Sequence:
#
# PCOD9449908 Si02
#       5
#     8   8   8   8   8
#     4  10  20  36  59  82 106 141 183 224 267 316
#     4  10  20  33  51  79 115 149 180 217 263 316
#     4   9  18  34  56  83 110 136 177 227 265 311
#     4  10  21  38  57  80 108 139 177 224 275 325
#     4   9  16  30  54  80 107 142 181 217 258 312
#
# _framework density 22.190467000000002
#
# number of rings (size 3 to 8) (size 9 to 14) (size 15 to 20)
#    0.000    2.400    2.000    0.600    0.000    3.600 
#    0.000    4.000    0.000    2.400    0.000    0.000 
#    0.000    0.000    0.000    0.000    0.000    0.000 
#
# Total GULP energy -223397.007314 kJ/mol
# GULP energy per Si atom -5584.925183 kJ/mol
# Density = 2.213996 g / cm^3
# Si number density = 22.190467 Si / 1000 Ang^3
#
#
#
# Elastic Constant Matrix: (Units=GPa)
#
#
# Indices 1 2 3 4 5 6 
#
# 1 117.6872 -6.7237 85.8517 0.0000 0.0000 0.0000
# 2 -6.7237 64.4283 4.4814 0.0000 0.0000 0.0000
# 3 85.8517 4.4814 185.3449 0.0000 0.0000 0.0000
# 4 0.0000 0.0000 0.0000 -18.7754 0.0000 0.0000
# 5 0.0000 0.0000 0.0000 0.0000 -0.7176 0.0000
# 6 0.0000 0.0000 0.0000 0.0000 0.0000 19.1728
#
#
#
# Elastic Compliance Matrix: (Units=1/GPa)
#
#
# Indices 1 2 3 4 5 6 
#
# 1 0.013035 0.001783 -0.006081 0.000000 0.000000 0.000000
# 2 0.001783 0.015791 -0.001208 0.000000 0.000000 0.000000
# 3 -0.006081 -0.001208 0.008241 0.000000 0.000000 0.000000
# 4 0.000000 0.000000 0.000000 -0.053261 0.000000 0.000000
# 5 0.000000 0.000000 0.000000 0.000000 -1.393553 0.000000
# 6 0.000000 0.000000 0.000000 0.000000 0.000000 0.052157
#
#
# Mechanical properties :
#
#
# Convention : Reuss Voigt Hill
#
# Bulk Modulus (GPa) = 38.37807 59.40878 48.89343
# Shear Modulus (GPa) = -3.73722 18.85935 7.56107
#
# Velocity S-wave (km/s) = -1.29916 2.91844 1.84790
# Velocity P-wave (km/s) = 3.88355 6.17954 5.16085
#
# Compressibility (1/GPa) = 0.02605654
#
# Stress axis : x y z
#
# Youngs Moduli (GPa) = 76.71684 63.32618 121.34123
#
# Poissons Ratio (x) = -0.11293 0.73786
# Poissons Ratio (y) = -0.13681 0.14656
# Poissons Ratio (z) = 0.46651 0.07649
#
# Static dielectric constant tensor:
#      x y z
#    x 1.784140 0.000000 0.000000 
#    y 0.000000 1.828300 0.000000 
#    z 0.000000 0.000000 1.815970 
# 
# From -- ./inp_files/5837.got.cif
#   From: 2010.05.17/outbox.cif.g08.bks.cpg/sg59_3_cif.got.tgz:5837.got - 2010.06.03 14:40:33.
