data_PCOD9449556
_publ_section_title
;
Structure prediction by ZEFSAII (Michael W. Deem and Ramdas Pophale) SiO2 
 PCOD9449556
Probable space group: P M M N
;
_chemical_formula_sum "Si O2"
_cell_formula_units_Z 64
_cell_length_a 14.775064
_cell_length_b 8.726950
_cell_length_c 25.119617
_cell_angle_alpha 90.000000
_cell_angle_beta 90.000000
_cell_angle_gamma 90.000000
_cell_volume 3238.954684
_symmetry_space_group_name_H-M "P M M N"
_symmetry_group_IT_number 59
_space_group.IT_coordinate_system_code '2'
_symmetry_cell_setting 'orthorhombic'
loop_
_space_group_symop_operation_xyz
x,y,z
1/2-x,1/2-y,z
1/2+x,-y,-z
-x,1/2+y,-z
-x,-y,-z
1/2+x,1/2+y,-z
1/2-x,y,z
x,1/2-y,z
loop_
_atom_site_type_symbol
_atom_site_label
_atom_site_fract_x
_atom_site_fract_y
_atom_site_fract_z
Si Si1 0.462417 0.065561 0.133248
Si Si2 0.647548 0.437209 0.086541
Si Si3 0.483615 0.428058 0.442287
Si Si4 0.141851 0.571132 0.034779
Si Si5 0.644665 0.066605 0.647098
Si Si6 0.847736 0.429161 0.273494
Si Si7 0.852139 0.574232 0.387110
Si Si8 0.552495 0.931791 0.752677
O O1 0.465467 0.250000 0.136964
O O2 0.565920 0.011875 0.124042
O O3 0.418281 0.011520 0.188814
O O4 0.407433 0.018995 0.081191
O O5 0.750000 0.488058 0.099111
O O6 0.649537 0.250000 0.087149
O O7 0.623923 0.482391 0.025682
O O8 0.500000 0.500000 0.500000
O O9 0.463252 0.250000 0.447769
O O10 0.407430 0.503326 0.404707
O O11 0.577665 0.457850 0.411970
O O12 0.250000 0.561967 0.041697
O O13 0.115535 0.750000 0.038074
O O14 0.750000 0.018403 0.647703
O O15 0.640928 0.250000 0.645569
O O16 0.595036 0.010824 0.701067
O O17 0.750000 0.451043 0.245218
O O18 0.848403 0.250000 0.290977
O O19 0.848911 0.538129 0.324594
O O20 0.943457 0.451182 0.245605
O O21 0.750000 0.556259 0.408024
O O22 0.881391 0.750000 0.396269
O O23 0.571291 0.750000 0.747232
#
# Coordination Sequence:
#
# PCOD9449556 Si02
#       8
#     8   8   8   8   8   8   8   8
#     4  10  20  32  51  81 112 143 187 239 291 342
#     4   8  15  30  52  77 107 144 185 232 288 352
#     4  12  25  42  66  94 125 158 193 238 289 342
#     4   9  18  33  52  73 101 142 190 237 291 351
#     4  11  25  45  67  89 116 156 204 247 290 343
#     4   9  17  31  53  80 109 144 184 225 276 339
#     4  10  20  35  58  88 120 152 187 229 277 330
#     4  10  21  36  55  83 117 153 190 236 291 347
#
# _framework density 19.759461999999999
#
# number of rings (size 3 to 8) (size 9 to 14) (size 15 to 20)
#    0.000    2.125    1.250    3.000    0.000    4.000 
#    0.000    5.000    0.000    1.125    0.000    1.750 
#    0.000    0.000    0.000    0.000    0.000    0.000 
#
# Total GULP energy -356949.560897 kJ/mol
# GULP energy per Si atom -5577.336889 kJ/mol
# Density = 1.971449 g / cm^3
# Si number density = 19.759462 Si / 1000 Ang^3
#
#
#
# Elastic Constant Matrix: (Units=GPa)
#
#
# Indices 1 2 3 4 5 6 
#
# 1 72.6491 29.1239 52.5051 0.0000 0.0000 0.0000
# 2 29.1239 40.7398 34.9956 0.0000 0.0000 0.0000
# 3 52.5051 34.9956 120.4665 0.0000 0.0000 0.0000
# 4 0.0000 0.0000 0.0000 21.0174 0.0000 0.0000
# 5 0.0000 0.0000 0.0000 0.0000 0.1939 0.0000
# 6 0.0000 0.0000 0.0000 0.0000 0.0000 24.8648
#
#
#
# Elastic Compliance Matrix: (Units=1/GPa)
#
#
# Indices 1 2 3 4 5 6 
#
# 1 0.023004 -0.010437 -0.006994 0.000000 0.000000 0.000000
# 2 -0.010437 0.037443 -0.006328 0.000000 0.000000 0.000000
# 3 -0.006994 -0.006328 0.013188 0.000000 0.000000 0.000000
# 4 0.000000 0.000000 0.000000 0.047580 0.000000 0.000000
# 5 0.000000 0.000000 0.000000 0.000000 5.157605 0.000000
# 6 0.000000 0.000000 0.000000 0.000000 0.000000 0.040217
#
#
# Mechanical properties :
#
#
# Convention : Reuss Voigt Hill
#
# Bulk Modulus (GPa) = 38.29082 51.90052 45.09567
# Shear Modulus (GPa) = 0.93019 17.03061 8.98040
#
# Velocity S-wave (km/s) = 0.68686 2.93899 2.13418
# Velocity P-wave (km/s) = 4.47768 6.15143 5.38004
#
# Compressibility (1/GPa) = 0.02611592
#
# Stress axis : x y z
#
# Youngs Moduli (GPa) = 43.47163 26.70726 75.82706
#
# Poissons Ratio (x) = 0.27873 0.53035
# Poissons Ratio (y) = 0.45369 0.47987
# Poissons Ratio (z) = 0.30405 0.16902
#
# Static dielectric constant tensor:
#      x y z
#    x 1.724200 0.000000 0.000000 
#    y 0.000000 1.674540 0.000000 
#    z 0.000000 0.000000 1.713280 
# 
# From -- ./inp_files/32097.got.cif
#   From: 2010.05.17/outbox.cif.g08.bks.cpg/sg59_17_cif.got.tgz:32097.got - 2010.06.03 14:40:33.
