data_PCOD9449022
_publ_section_title
;
Structure prediction by ZEFSAII (Michael W. Deem and Ramdas Pophale) SiO2 
 PCOD9449022
Probable space group: P M M N
;
_chemical_formula_sum "Si O2"
_cell_formula_units_Z 48
_cell_length_a 7.988042
_cell_length_b 10.210516
_cell_length_c 28.941095
_cell_angle_alpha 90.000000
_cell_angle_beta 90.000000
_cell_angle_gamma 90.000000
_cell_volume 2360.494477
_symmetry_space_group_name_H-M "P M M N"
_symmetry_group_IT_number 59
_space_group.IT_coordinate_system_code '2'
_symmetry_cell_setting 'orthorhombic'
loop_
_space_group_symop_operation_xyz
x,y,z
1/2-x,1/2-y,z
1/2+x,-y,-z
-x,1/2+y,-z
-x,-y,-z
1/2+x,1/2+y,-z
1/2-x,y,z
x,1/2-y,z
loop_
_atom_site_type_symbol
_atom_site_label
_atom_site_fract_x
_atom_site_fract_y
_atom_site_fract_z
Si Si1 0.955720 0.750000 0.105295
Si Si2 0.048481 0.486545 0.726484
Si Si3 0.050525 0.250000 0.222053
Si Si4 0.551557 0.750000 0.884124
Si Si5 0.954722 0.902303 0.375740
Si Si6 0.045045 0.250000 0.789663
Si Si7 0.449367 0.994842 0.946650
Si Si8 0.047950 0.903914 0.542272
O O1 0.750000 0.750000 0.105220
O O2 0.010799 0.750000 0.157935
O O3 0.015493 0.623319 0.078557
O O4 0.250000 0.479340 0.724357
O O5 0.989980 0.450028 0.675015
O O6 0.988441 0.376572 0.761953
O O7 0.002868 0.624556 0.748371
O O8 0.250000 0.250000 0.218847
O O9 0.982665 0.250000 0.168813
O O10 0.750000 0.750000 0.879663
O O11 0.502188 0.873352 0.915331
O O12 0.750000 0.900213 0.376546
O O13 0.006806 0.750000 0.384618
O O14 0.008302 0.012023 0.412871
O O15 0.250000 0.250000 0.789834
O O16 0.250000 0.997963 0.945930
O O17 0.500000 0.000000 0.000000
O O18 0.250000 0.896787 0.543680
O O19 0.989263 0.750000 0.539536
O O20 0.000000 0.000000 0.500000
#
# Coordination Sequence:
#
# PCOD9449022 Si02
#       8
#     4   8   4   4   8   4   8   8
#     4   9  19  33  53  82 114 141 175 230 286 337
#     4  10  19  34  60  87 110 143 189 236 288 351
#     4  11  25  40  54  79 119 159 194 239 292 343
#     4  11  24  42  59  80 116 159 201 242 284 339
#     4   9  17  32  56  87 116 144 185 241 296 344
#     4   9  16  31  56  87 111 131 176 237 282 329
#     4  11  22  38  61  88 117 150 189 236 294 354
#     4  10  21  36  57  85 118 154 195 241 290 345
#
# _framework density 20.334721999999999
#
# number of rings (size 3 to 8) (size 9 to 14) (size 15 to 20)
#    0.000    2.000    0.833    3.000    1.167    4.333 
#    0.000    2.500    0.000    5.000    0.000    0.000 
#    0.000    0.000    0.000    0.000    0.000    0.000 
#
# Total GULP energy -267868.994959 kJ/mol
# GULP energy per Si atom -5580.604062 kJ/mol
# Density = 2.028844 g / cm^3
# Si number density = 20.334722 Si / 1000 Ang^3
#
#
#
# Elastic Constant Matrix: (Units=GPa)
#
#
# Indices 1 2 3 4 5 6 
#
# 1 19.0002 7.9343 10.2705 0.0000 0.0000 0.0000
# 2 7.9343 246.2962 129.0740 0.0000 0.0000 0.0000
# 3 10.2705 129.0740 210.1984 0.0000 0.0000 0.0000
# 4 0.0000 0.0000 0.0000 43.2284 0.0000 0.0000
# 5 0.0000 0.0000 0.0000 0.0000 23.8623 0.0000
# 6 0.0000 0.0000 0.0000 0.0000 0.0000 -43.2189
#
#
#
# Elastic Compliance Matrix: (Units=1/GPa)
#
#
# Indices 1 2 3 4 5 6 
#
# 1 0.054105 -0.000527 -0.002320 0.000000 0.000000 0.000000
# 2 -0.000527 0.005992 -0.003654 0.000000 0.000000 0.000000
# 3 -0.002320 -0.003654 0.007114 0.000000 0.000000 0.000000
# 4 0.000000 0.000000 0.000000 0.023133 0.000000 0.000000
# 5 0.000000 0.000000 0.000000 0.000000 0.041907 0.000000
# 6 0.000000 0.000000 0.000000 0.000000 0.000000 -0.023138
#
#
# Mechanical properties :
#
#
# Convention : Reuss Voigt Hill
#
# Bulk Modulus (GPa) = 18.44676 85.56136 52.00406
# Shear Modulus (GPa) = 35.66718 26.65543 31.16130
#
# Velocity S-wave (km/s) = 4.19263 3.62447 3.91886
# Velocity P-wave (km/s) = 5.70340 7.72551 6.79015
#
# Compressibility (1/GPa) = 0.05421007
#
# Stress axis : x y z
#
# Youngs Moduli (GPa) = 18.48246 166.89407 140.56263
#
# Poissons Ratio (x) = 0.08799 0.32609
# Poissons Ratio (y) = 0.00974 0.51356
# Poissons Ratio (z) = 0.04288 0.60976
#
# Static dielectric constant tensor:
#      x y z
#    x 1.739490 0.000000 0.000000 
#    y 0.000000 1.763120 0.000000 
#    z 0.000000 0.000000 1.769260 
# 
# From -- ./inp_files/33109.got.cif
#   From: 2010.05.17/outbox.cif.g08.bks.cpg/sg59_17_cif.got.tgz:33109.got - 2010.06.03 14:40:33.
