data_PCOD9449368
_publ_section_title
;
Structure prediction by ZEFSAII (Michael W. Deem and Ramdas Pophale) SiO2 
 PCOD9449368
Probable space group: P M M N
;
_chemical_formula_sum "Si O2"
_cell_formula_units_Z 64
_cell_length_a 14.875251
_cell_length_b 13.127246
_cell_length_c 20.244062
_cell_angle_alpha 90.000000
_cell_angle_beta 90.000000
_cell_angle_gamma 90.000000
_cell_volume 3953.079834
_symmetry_space_group_name_H-M "P M M N"
_symmetry_group_IT_number 59
_space_group.IT_coordinate_system_code '2'
_symmetry_cell_setting 'orthorhombic'
loop_
_space_group_symop_operation_xyz
x,y,z
1/2-x,1/2-y,z
1/2+x,-y,-z
-x,1/2+y,-z
-x,-y,-z
1/2+x,1/2+y,-z
1/2-x,y,z
x,1/2-y,z
loop_
_atom_site_type_symbol
_atom_site_label
_atom_site_fract_x
_atom_site_fract_y
_atom_site_fract_z
Si Si1 0.998633 0.871157 0.647511
Si Si2 0.499234 0.520058 0.786969
Si Si3 0.855796 0.525628 0.020944
Si Si4 0.856661 0.133063 0.737262
Si Si5 0.145588 0.367651 0.837180
Si Si6 0.356482 0.972798 0.400447
Si Si7 0.145491 0.871702 0.538871
Si Si8 0.500848 0.628352 0.927389
O O1 0.988257 0.750000 0.648559
O O2 0.082512 0.897799 0.600343
O O3 0.010846 0.913681 0.721139
O O4 0.912525 0.927306 0.616800
O O5 0.586786 0.448449 0.778668
O O6 0.416545 0.442480 0.795607
O O7 0.503173 0.589774 0.851891
O O8 0.750000 0.507782 0.006588
O O9 0.911221 0.583432 0.964131
O O10 0.860846 0.595374 0.086807
O O11 0.913430 0.424337 0.038455
O O12 0.750000 0.122641 0.749205
O O13 0.882498 0.250000 0.750648
O O14 0.872612 0.105902 0.659967
O O15 0.250000 0.375998 0.817856
O O16 0.117859 0.250000 0.831738
O O17 0.250000 0.992932 0.401560
O O18 0.382280 0.926628 0.471142
O O19 0.250000 0.896056 0.552076
O O20 0.139588 0.750000 0.528229
O O21 0.497772 0.750000 0.931778
#
# Coordination Sequence:
#
# PCOD9449368 Si02
#       8
#     8   8   8   8   8   8   8   8
#     4  10  20  32  46  67  97 131 163 193 229 278
#     4  10  20  32  47  70 101 133 164 194 230 282
#     4   9  19  35  54  76  99 124 161 207 250 291
#     4   9  17  30  48  69  94 124 159 201 247 290
#     4   9  17  31  52  74  94 120 157 200 245 289
#     4   9  17  30  49  70  90 117 157 203 246 286
#     4   9  17  30  49  71  92 116 152 199 246 287
#     4  10  20  34  53  75 101 133 166 200 241 289
#
# _framework density 16.189907999999999
#
# number of rings (size 3 to 8) (size 9 to 14) (size 15 to 20)
#    0.000    2.625    0.000    1.875    0.000    3.750 
#    0.000    0.625    0.000    5.250    0.000    0.000 
#    0.000    0.000    0.000    0.000    0.000    0.000 
#
# Total GULP energy -356729.434943 kJ/mol
# GULP energy per Si atom -5573.897421 kJ/mol
# Density = 1.615306 g / cm^3
# Si number density = 16.189908 Si / 1000 Ang^3
#
#
#
# Elastic Constant Matrix: (Units=GPa)
#
#
# Indices 1 2 3 4 5 6 
#
# 1 77.6734 53.7172 44.7211 0.0000 0.0000 0.0000
# 2 53.7172 114.6755 56.3488 0.0000 0.0000 0.0000
# 3 44.7211 56.3488 73.9557 0.0000 0.0000 0.0000
# 4 0.0000 0.0000 0.0000 16.5628 0.0000 0.0000
# 5 0.0000 0.0000 0.0000 0.0000 24.1463 0.0000
# 6 0.0000 0.0000 0.0000 0.0000 0.0000 22.3971
#
#
#
# Elastic Compliance Matrix: (Units=1/GPa)
#
#
# Indices 1 2 3 4 5 6 
#
# 1 0.022098 -0.006051 -0.008753 0.000000 0.000000 0.000000
# 2 -0.006051 0.015596 -0.008224 0.000000 0.000000 0.000000
# 3 -0.008753 -0.008224 0.025080 0.000000 0.000000 0.000000
# 4 0.000000 0.000000 0.000000 0.060376 0.000000 0.000000
# 5 0.000000 0.000000 0.000000 0.000000 0.041414 0.000000
# 6 0.000000 0.000000 0.000000 0.000000 0.000000 0.044649
#
#
# Mechanical properties :
#
#
# Convention : Reuss Voigt Hill
#
# Bulk Modulus (GPa) = 59.80923 63.98653 61.89788
# Shear Modulus (GPa) = 19.16874 20.05573 19.61224
#
# Velocity S-wave (km/s) = 3.44465 3.52345 3.48427
# Velocity P-wave (km/s) = 7.26934 7.49408 7.38257
#
# Compressibility (1/GPa) = 0.01671983
#
# Stress axis : x y z
#
# Youngs Moduli (GPa) = 45.25217 64.12102 39.87170
#
# Poissons Ratio (x) = 0.38797 0.34899
# Poissons Ratio (y) = 0.27380 0.32790
# Poissons Ratio (z) = 0.39609 0.52732
#
# Static dielectric constant tensor:
#      x y z
#    x 1.537010 0.000000 0.000000 
#    y 0.000000 1.517480 0.000000 
#    z 0.000000 0.000000 1.527130 
# 
# From -- ./inp_files/27674.got.cif
#   From: 2010.05.17/outbox.cif.g08.bks.cpg/sg59_14_cif.got.tgz:27674.got - 2010.06.03 14:40:33.
