data_PCOD9449727
_publ_section_title
;
Structure prediction by ZEFSAII (Michael W. Deem and Ramdas Pophale) SiO2 
 PCOD9449727
Probable space group: P M M N
;
_chemical_formula_sum "Si O2"
_cell_formula_units_Z 48
_cell_length_a 8.028150
_cell_length_b 9.375345
_cell_length_c 31.978676
_cell_angle_alpha 90.000000
_cell_angle_beta 90.000000
_cell_angle_gamma 90.000000
_cell_volume 2406.928644
_symmetry_space_group_name_H-M "P M M N"
_symmetry_group_IT_number 59
_space_group.IT_coordinate_system_code '2'
_symmetry_cell_setting 'orthorhombic'
loop_
_space_group_symop_operation_xyz
x,y,z
1/2-x,1/2-y,z
1/2+x,-y,-z
-x,1/2+y,-z
-x,-y,-z
1/2+x,1/2+y,-z
1/2-x,y,z
x,1/2-y,z
loop_
_atom_site_type_symbol
_atom_site_label
_atom_site_fract_x
_atom_site_fract_y
_atom_site_fract_z
Si Si1 0.046253 0.914571 0.123273
Si Si2 0.450448 0.586414 0.286700
Si Si3 0.951112 0.913606 0.958761
Si Si4 0.453936 0.085956 0.205791
Si Si5 0.051786 0.410596 0.459549
Si Si6 0.051361 0.412759 0.621228
O O1 0.250000 0.913879 0.123096
O O2 0.992229 0.750000 0.121998
O O3 0.991144 0.002465 0.082568
O O4 0.994057 0.994053 0.165636
O O5 0.250000 0.590740 0.284185
O O6 0.511848 0.750000 0.282380
O O7 0.509931 0.488471 0.248727
O O8 0.496336 0.534933 0.333037
O O9 0.750000 0.909063 0.956922
O O10 0.011527 0.750000 0.959911
O O11 0.000000 0.000000 0.000000
O O12 0.250000 0.086032 0.205926
O O13 0.507389 0.250000 0.202768
O O14 0.250000 0.401181 0.460400
O O15 0.981728 0.250000 0.461027
O O16 0.000000 0.500000 0.500000
O O17 0.003121 0.490157 0.417058
O O18 0.250000 0.406322 0.620919
O O19 0.985994 0.250000 0.616206
#
# Coordination Sequence:
#
# PCOD9449727 Si02
#       6
#     8   8   8   8   8   8
#     4   9  16  27  45  69  97 129 165 207 257 311
#     4   9  17  30  49  73 101 133 167 205 253 306
#     4  10  20  33  50  73 101 133 170 212 259 311
#     4   9  16  26  43  69  99 128 162 208 257 304
#     4  11  24  40  59  84 112 142 178 219 263 312
#     4  10  21  37  57  81 109 142 180 219 260 308
#
# _framework density 19.942426000000001
#
# number of rings (size 3 to 8) (size 9 to 14) (size 15 to 20)
#    0.000    2.333    0.000    3.000    0.000   10.000 
#    0.000    1.667    0.000    1.000    0.000    2.333 
#    0.000    0.000    0.000    0.000    0.000    0.000 
#
# Total GULP energy -268057.390596 kJ/mol
# GULP energy per Si atom -5584.528971 kJ/mol
# Density = 1.989704 g / cm^3
# Si number density = 19.942426 Si / 1000 Ang^3
#
#
#
# Elastic Constant Matrix: (Units=GPa)
#
#
# Indices 1 2 3 4 5 6 
#
# 1 16.7118 11.2504 11.7284 0.0000 0.0000 0.0000
# 2 11.2504 189.8409 145.9010 0.0000 0.0000 0.0000
# 3 11.7284 145.9010 234.1740 0.0000 0.0000 0.0000
# 4 0.0000 0.0000 0.0000 41.2854 0.0000 0.0000
# 5 0.0000 0.0000 0.0000 0.0000 22.7050 0.0000
# 6 0.0000 0.0000 0.0000 0.0000 0.0000 13.9466
#
#
#
# Elastic Compliance Matrix: (Units=1/GPa)
#
#
# Indices 1 2 3 4 5 6 
#
# 1 0.062628 -0.002496 -0.001582 0.000000 0.000000 0.000000
# 2 -0.002496 0.010207 -0.006234 0.000000 0.000000 0.000000
# 3 -0.001582 -0.006234 0.008234 0.000000 0.000000 0.000000
# 4 0.000000 0.000000 0.000000 0.024222 0.000000 0.000000
# 5 0.000000 0.000000 0.000000 0.000000 0.044043 0.000000
# 6 0.000000 0.000000 0.000000 0.000000 0.000000 0.071702
#
#
# Mechanical properties :
#
#
# Convention : Reuss Voigt Hill
#
# Bulk Modulus (GPa) = 16.54391 86.49847 51.52119
# Shear Modulus (GPa) = 19.09797 33.71053 26.40425
#
# Velocity S-wave (km/s) = 3.09796 4.11590 3.64266
# Velocity P-wave (km/s) = 4.59460 8.12747 6.60174
#
# Compressibility (1/GPa) = 0.06044520
#
# Stress axis : x y z
#
# Youngs Moduli (GPa) = 15.96722 97.97382 121.45081
#
# Poissons Ratio (x) = 0.24454 0.19209
# Poissons Ratio (y) = 0.03985 0.75716
# Poissons Ratio (z) = 0.02525 0.61080
#
# Static dielectric constant tensor:
#      x y z
#    x 1.723910 0.000000 0.000000 
#    y 0.000000 1.700100 0.000000 
#    z 0.000000 0.000000 1.572170 
# 
# From -- ./inp_files/32919.got.cif
#   From: 2010.05.17/outbox.cif.g08.bks.cpg/sg59_17_cif.got.tgz:32919.got - 2010.06.03 14:40:33.
