data_PCOD9449927
_publ_section_title
;
Structure prediction by ZEFSAII (Michael W. Deem and Ramdas Pophale) SiO2 
 PCOD9449927
Probable space group: P M M N
;
_chemical_formula_sum "Si O2"
_cell_formula_units_Z 64
_cell_length_a 14.405764
_cell_length_b 9.436631
_cell_length_c 25.980640
_cell_angle_alpha 90.000000
_cell_angle_beta 90.000000
_cell_angle_gamma 90.000000
_cell_volume 3531.857023
_symmetry_space_group_name_H-M "P M M N"
_symmetry_group_IT_number 59
_space_group.IT_coordinate_system_code '2'
_symmetry_cell_setting 'orthorhombic'
loop_
_space_group_symop_operation_xyz
x,y,z
1/2-x,1/2-y,z
1/2+x,-y,-z
-x,1/2+y,-z
-x,-y,-z
1/2+x,1/2+y,-z
1/2-x,y,z
x,1/2-y,z
loop_
_atom_site_type_symbol
_atom_site_label
_atom_site_fract_x
_atom_site_fract_y
_atom_site_fract_z
Si Si1 0.859158 0.916701 0.834573
Si Si2 0.148735 0.590297 0.864477
Si Si3 0.102139 0.588049 0.061092
Si Si4 0.640870 0.579710 0.318252
Si Si5 0.857187 0.420242 0.525871
Si Si6 0.617253 0.910989 0.036516
Si Si7 0.523055 0.081612 0.232653
Si Si8 0.446245 0.419369 0.570430
O O1 0.750000 0.930129 0.825572
O O2 0.880324 0.750000 0.845659
O O3 0.917953 0.955280 0.783633
O O4 0.884515 0.008967 0.884712
O O5 0.250000 0.590635 0.839223
O O6 0.129255 0.750000 0.883700
O O7 0.150736 0.487040 0.912217
O O8 0.075623 0.554074 0.821199
O O9 0.135658 0.750000 0.063734
O O10 0.993692 0.591944 0.045821
O O11 0.143656 0.498582 0.014052
O O12 0.750000 0.537821 0.314836
O O13 0.637182 0.750000 0.311232
O O14 0.575917 0.504543 0.276293
O O15 0.598269 0.547394 0.374411
O O16 0.750000 0.459791 0.539352
O O17 0.857690 0.250000 0.518565
O O18 0.890220 0.497587 0.473723
O O19 0.943049 0.452161 0.565031
O O20 0.647773 0.750000 0.031647
O O21 0.529125 0.250000 0.243839
O O22 0.436161 0.250000 0.561943
#
# Coordination Sequence:
#
# PCOD9449927 Si02
#       8
#     8   8   8   8   8   8   8   8
#     4  10  21  38  60  81 101 131 171 215 265 319
#     4  10  20  34  53  76 101 131 167 207 256 312
#     4  10  20  34  54  78 104 134 167 206 253 308
#     4  10  21  36  55  80 110 144 181 221 266 317
#     4   9  17  30  51  80 113 149 189 231 273 319
#     4  10  20  33  52  77 105 136 168 204 252 310
#     4  10  21  38  58  78 104 135 172 219 267 315
#     4   9  18  33  52  77 112 151 188 228 273 321
#
# _framework density 18.12078
#
# number of rings (size 3 to 8) (size 9 to 14) (size 15 to 20)
#    0.000    2.250    1.250    1.500    0.000    5.000 
#    0.000    0.625    0.000    0.750    0.000    0.000 
#    0.000    0.000    0.000    0.000    0.000    0.000 
#
# Total GULP energy -356801.878814 kJ/mol
# GULP energy per Si atom -5575.029356 kJ/mol
# Density = 1.807954 g / cm^3
# Si number density = 18.120780 Si / 1000 Ang^3
#
#
#
# Elastic Constant Matrix: (Units=GPa)
#
#
# Indices 1 2 3 4 5 6 
#
# 1 130.7693 44.3794 52.2224 0.0000 0.0000 0.0000
# 2 44.3794 67.7074 58.5689 0.0000 0.0000 0.0000
# 3 52.2224 58.5689 91.1108 0.0000 0.0000 0.0000
# 4 0.0000 0.0000 0.0000 31.7882 0.0000 0.0000
# 5 0.0000 0.0000 0.0000 0.0000 30.4457 0.0000
# 6 0.0000 0.0000 0.0000 0.0000 0.0000 17.9963
#
#
#
# Elastic Compliance Matrix: (Units=1/GPa)
#
#
# Indices 1 2 3 4 5 6 
#
# 1 0.010315 -0.003709 -0.003528 0.000000 0.000000 0.000000
# 2 -0.003709 0.034603 -0.020118 0.000000 0.000000 0.000000
# 3 -0.003528 -0.020118 0.025930 0.000000 0.000000 0.000000
# 4 0.000000 0.000000 0.000000 0.031458 0.000000 0.000000
# 5 0.000000 0.000000 0.000000 0.000000 0.032845 0.000000
# 6 0.000000 0.000000 0.000000 0.000000 0.000000 0.055567
#
#
# Mechanical properties :
#
#
# Convention : Reuss Voigt Hill
#
# Bulk Modulus (GPa) = 61.96496 66.65876 64.31186
# Shear Modulus (GPa) = 19.93555 25.00718 22.47136
#
# Velocity S-wave (km/s) = 3.32045 3.71890 3.52531
# Velocity P-wave (km/s) = 6.99787 7.43680 7.22067
#
# Compressibility (1/GPa) = 0.01613815
#
# Stress axis : x y z
#
# Youngs Moduli (GPa) = 96.94955 28.89881 38.56511
#
# Poissons Ratio (x) = 0.10719 0.13604
# Poissons Ratio (y) = 0.35962 0.77586
# Poissons Ratio (z) = 0.34200 0.58139
#
# Static dielectric constant tensor:
#      x y z
#    x 1.682170 0.000000 0.000000 
#    y 0.000000 1.618380 0.000000 
#    z 0.000000 0.000000 1.573350 
# 
# From -- ./inp_files/32148.got.cif
#   From: 2010.05.17/outbox.cif.g08.bks.cpg/sg59_17_cif.got.tgz:32148.got - 2010.06.03 14:40:33.
