data_PCOD9449849
_publ_section_title
;
Structure prediction by ZEFSAII (Michael W. Deem and Ramdas Pophale) SiO2 
 PCOD9449849
Probable space group: P M M N
;
_chemical_formula_sum "Si O2"
_cell_formula_units_Z 64
_cell_length_a 17.577884
_cell_length_b 9.426573
_cell_length_c 20.726493
_cell_angle_alpha 90.000000
_cell_angle_beta 90.000000
_cell_angle_gamma 90.000000
_cell_volume 3434.363448
_symmetry_space_group_name_H-M "P M M N"
_symmetry_group_IT_number 59
_space_group.IT_coordinate_system_code '2'
_symmetry_cell_setting 'orthorhombic'
loop_
_space_group_symop_operation_xyz
x,y,z
1/2-x,1/2-y,z
1/2+x,-y,-z
-x,1/2+y,-z
-x,-y,-z
1/2+x,1/2+y,-z
1/2-x,y,z
x,1/2-y,z
loop_
_atom_site_type_symbol
_atom_site_label
_atom_site_fract_x
_atom_site_fract_y
_atom_site_fract_z
Si Si1 0.661032 0.907492 0.835457
Si Si2 0.939253 0.080495 0.087624
Si Si3 0.428719 0.082561 0.531315
Si Si4 0.340969 0.406554 0.401433
Si Si5 0.343374 0.910729 0.283696
Si Si6 0.405271 0.582551 0.056169
Si Si7 0.336839 0.922119 0.791650
Si Si8 0.840954 0.420327 0.356599
O O1 0.750000 0.892784 0.821342
O O2 0.628072 0.750000 0.842628
O O3 0.628098 0.991913 0.774656
O O4 0.653246 0.999593 0.899427
O O5 0.956342 0.250000 0.092177
O O6 0.893135 0.034979 0.150997
O O7 0.893684 0.062658 0.020317
O O8 0.014790 0.988649 0.076872
O O9 0.445184 0.250000 0.542803
O O10 0.366503 0.073950 0.474274
O O11 0.500000 0.000000 0.500000
O O12 0.393622 0.005695 0.593764
O O13 0.250000 0.407647 0.398646
O O14 0.367378 0.250000 0.379637
O O15 0.368835 0.524159 0.351625
O O16 0.250000 0.910589 0.283141
O O17 0.368127 0.750000 0.275237
O O18 0.405211 0.750000 0.069427
O O19 0.250000 0.970209 0.803773
O O20 0.335505 0.750000 0.792820
O O21 0.357718 0.960340 0.718059
O O22 0.750000 0.446397 0.367392
O O23 0.852526 0.250000 0.363981
#
# Coordination Sequence:
#
# PCOD9449849 Si02
#       8
#     8   8   8   8   8   8   8   8
#     4  10  20  34  52  74 103 140 180 219 263 318
#     4   9  18  34  55  77 105 143 183 223 270 326
#     4  11  23  38  55  78 111 147 183 224 270 322
#     4   9  18  34  55  76  99 134 178 217 260 320
#     4   9  17  30  50  76 103 128 161 210 259 303
#     4  10  20  33  51  76 107 143 183 227 273 323
#     4   8  15  31  57  86 110 136 178 228 274 326
#     4   9  18  35  60  86 111 141 179 225 278 335
#
# _framework density 18.635185
#
# number of rings (size 3 to 8) (size 9 to 14) (size 15 to 20)
#    0.000    2.625    0.000    2.625    0.000    5.000 
#    2.250    3.125    0.000    1.125    0.000    0.000 
#    0.000    0.000    0.000    0.000    0.000    0.000 
#
# Total GULP energy -356649.997581 kJ/mol
# GULP energy per Si atom -5572.656212 kJ/mol
# Density = 1.859277 g / cm^3
# Si number density = 18.635185 Si / 1000 Ang^3
#
#
#
# Elastic Constant Matrix: (Units=GPa)
#
#
# Indices 1 2 3 4 5 6 
#
# 1 28.2560 27.9246 48.6034 0.0000 0.0000 0.0000
# 2 27.9246 103.6331 72.7071 0.0000 0.0000 0.0000
# 3 48.6034 72.7071 134.2580 0.0000 0.0000 0.0000
# 4 0.0000 0.0000 0.0000 31.1856 0.0000 0.0000
# 5 0.0000 0.0000 0.0000 0.0000 21.7293 0.0000
# 6 0.0000 0.0000 0.0000 0.0000 0.0000 20.4148
#
#
#
# Elastic Compliance Matrix: (Units=1/GPa)
#
#
# Indices 1 2 3 4 5 6 
#
# 1 0.094155 -0.002350 -0.032813 0.000000 0.000000 0.000000
# 2 -0.002350 0.015621 -0.007609 0.000000 0.000000 0.000000
# 3 -0.032813 -0.007609 0.023448 0.000000 0.000000 0.000000
# 4 0.000000 0.000000 0.000000 0.032066 0.000000 0.000000
# 5 0.000000 0.000000 0.000000 0.000000 0.046021 0.000000
# 6 0.000000 0.000000 0.000000 0.000000 0.000000 0.048984
#
#
# Mechanical properties :
#
#
# Convention : Reuss Voigt Hill
#
# Bulk Modulus (GPa) = 20.97300 62.73525 41.85413
# Shear Modulus (GPa) = 13.82245 22.46005 18.14125
#
# Velocity S-wave (km/s) = 2.72644 3.47544 3.12347
# Velocity P-wave (km/s) = 4.60329 7.05995 5.95958
#
# Compressibility (1/GPa) = 0.04768035
#
# Stress axis : x y z
#
# Youngs Moduli (GPa) = 10.62082 64.01749 42.64818
#
# Poissons Ratio (x) = 0.15041 1.39941
# Poissons Ratio (y) = 0.02495 0.32450
# Poissons Ratio (z) = 0.34850 0.48710
#
# Static dielectric constant tensor:
#      x y z
#    x 1.654430 0.000000 0.000000 
#    y 0.000000 1.647200 0.000000 
#    z 0.000000 0.000000 1.641350 
# 
# From -- ./inp_files/28264.got.cif
#   From: 2010.05.17/outbox.cif.g08.bks.cpg/sg59_15_cif.got.tgz:28264.got - 2010.06.03 14:40:33.
