data_PCOD9449306
_publ_section_title
;
Structure prediction by ZEFSAII (Michael W. Deem and Ramdas Pophale) SiO2 
 PCOD9449306
Probable space group: P M M N
;
_chemical_formula_sum "Si O2"
_cell_formula_units_Z 64
_cell_length_a 9.516827
_cell_length_b 23.896712
_cell_length_c 16.957722
_cell_angle_alpha 90.000000
_cell_angle_beta 90.000000
_cell_angle_gamma 90.000000
_cell_volume 3856.539958
_symmetry_space_group_name_H-M "P M M N"
_symmetry_group_IT_number 59
_space_group.IT_coordinate_system_code '2'
_symmetry_cell_setting 'orthorhombic'
loop_
_space_group_symop_operation_xyz
x,y,z
1/2-x,1/2-y,z
1/2+x,-y,-z
-x,1/2+y,-z
-x,-y,-z
1/2+x,1/2+y,-z
1/2-x,y,z
x,1/2-y,z
loop_
_atom_site_type_symbol
_atom_site_label
_atom_site_fract_x
_atom_site_fract_y
_atom_site_fract_z
Si Si1 0.418588 0.183801 0.271099
Si Si2 0.084476 0.315753 0.631307
Si Si3 0.589506 0.682086 0.908009
Si Si4 0.414272 0.982761 0.313082
Si Si5 0.916142 0.088170 0.354651
Si Si6 0.413738 0.596900 0.461963
Si Si7 0.917882 0.130271 0.774110
Si Si8 0.417623 0.684129 0.060423
O O1 0.250000 0.176528 0.280493
O O2 0.447927 0.250000 0.281126
O O3 0.454656 0.166856 0.180685
O O4 0.505733 0.144708 0.328872
O O5 0.250000 0.328166 0.638086
O O6 0.067177 0.250000 0.617207
O O7 0.014312 0.352586 0.562960
O O8 0.004215 0.333608 0.711035
O O9 0.750000 0.663510 0.920117
O O10 0.590038 0.750000 0.908051
O O11 0.493502 0.664633 0.980796
O O12 0.250000 0.998988 0.307830
O O13 0.435686 0.951711 0.397387
O O14 0.442469 0.934546 0.248427
O O15 0.512719 0.036306 0.309852
O O16 0.750000 0.091552 0.339536
O O17 0.936836 0.079168 0.448374
O O18 0.250000 0.614241 0.453790
O O19 0.750000 0.140291 0.763290
O O20 0.955626 0.148721 0.862246
O O21 0.250000 0.680853 0.049947
O O22 0.452513 0.750000 0.074090
#
# Coordination Sequence:
#
# PCOD9449306 Si02
#       8
#     8   8   8   8   8   8   8   8
#     4   9  19  36  55  74  99 131 162 193 237 292
#     4  10  20  31  45  69  99 130 164 201 241 284
#     4   8  15  29  48  70  97 128 160 194 234 281
#     4   9  18  34  53  70  93 128 166 200 237 285
#     4  11  22  34  52  77  99 121 156 203 249 291
#     4   9  20  36  51  69  94 127 164 201 245 292
#     4   9  18  32  49  70  98 133 168 199 236 285
#     4   9  16  26  45  74 103 130 160 194 235 283
#
# _framework density 16.595188
#
# number of rings (size 3 to 8) (size 9 to 14) (size 15 to 20)
#    0.000    2.750    0.000    3.000    0.000    6.250 
#    0.000    5.000    0.000    0.750    0.000    0.000 
#    0.000    0.000    0.000    0.000    0.000    0.000 
#
# Total GULP energy -356704.701631 kJ/mol
# GULP energy per Si atom -5573.510963 kJ/mol
# Density = 1.655742 g / cm^3
# Si number density = 16.595188 Si / 1000 Ang^3
#
#
#
# Elastic Constant Matrix: (Units=GPa)
#
#
# Indices 1 2 3 4 5 6 
#
# 1 44.1106 39.5016 18.1001 0.0000 0.0000 0.0000
# 2 39.5016 57.8193 13.6572 0.0000 0.0000 0.0000
# 3 18.1001 13.6572 49.4698 0.0000 0.0000 0.0000
# 4 0.0000 0.0000 0.0000 11.1593 0.0000 0.0000
# 5 0.0000 0.0000 0.0000 0.0000 24.8213 0.0000
# 6 0.0000 0.0000 0.0000 0.0000 0.0000 25.7526
#
#
#
# Elastic Compliance Matrix: (Units=1/GPa)
#
#
# Indices 1 2 3 4 5 6 
#
# 1 0.064681 -0.041292 -0.012266 0.000000 0.000000 0.000000
# 2 -0.041292 0.044863 0.002723 0.000000 0.000000 0.000000
# 3 -0.012266 0.002723 0.023951 0.000000 0.000000 0.000000
# 4 0.000000 0.000000 0.000000 0.089611 0.000000 0.000000
# 5 0.000000 0.000000 0.000000 0.000000 0.040288 0.000000
# 6 0.000000 0.000000 0.000000 0.000000 0.000000 0.038831
#
#
# Mechanical properties :
#
#
# Convention : Reuss Voigt Hill
#
# Bulk Modulus (GPa) = 31.42346 32.65749 32.04048
# Shear Modulus (GPa) = 12.06262 17.68938 14.87600
#
# Velocity S-wave (km/s) = 2.69899 3.26841 2.99725
# Velocity P-wave (km/s) = 5.35622 5.82794 5.59705
#
# Compressibility (1/GPa) = 0.03182336
#
# Stress axis : x y z
#
# Youngs Moduli (GPa) = 15.46040 22.29025 41.75265
#
# Poissons Ratio (x) = 0.92042 0.51214
# Poissons Ratio (y) = 0.63840 -0.11369
# Poissons Ratio (z) = 0.18964 -0.06069
#
# Static dielectric constant tensor:
#      x y z
#    x 1.553350 0.000000 0.000000 
#    y 0.000000 1.543980 0.000000 
#    z 0.000000 0.000000 1.558270 
# 
# From -- ./inp_files/21531.got.cif
#   From: 2010.05.17/outbox.cif.g08.bks.cpg/sg59_11_cif.got.tgz:21531.got - 2010.06.03 14:40:33.
