data_PCOD9449790
_publ_section_title
;
Structure prediction by ZEFSAII (Michael W. Deem and Ramdas Pophale) SiO2 
 PCOD9449790
Probable space group: P M M N
;
_chemical_formula_sum "Si O2"
_cell_formula_units_Z 64
_cell_length_a 23.787298
_cell_length_b 9.747540
_cell_length_c 15.203045
_cell_angle_alpha 90.000000
_cell_angle_beta 90.000000
_cell_angle_gamma 90.000000
_cell_volume 3525.094146
_symmetry_space_group_name_H-M "P M M N"
_symmetry_group_IT_number 59
_space_group.IT_coordinate_system_code '2'
_symmetry_cell_setting 'orthorhombic'
loop_
_space_group_symop_operation_xyz
x,y,z
1/2-x,1/2-y,z
1/2+x,-y,-z
-x,1/2+y,-z
-x,-y,-z
1/2+x,1/2+y,-z
1/2-x,y,z
x,1/2-y,z
loop_
_atom_site_type_symbol
_atom_site_label
_atom_site_fract_x
_atom_site_fract_y
_atom_site_fract_z
Si Si1 0.021223 0.592241 0.080251
Si Si2 0.653957 0.407077 0.952549
Si Si3 0.368053 0.087193 0.693946
Si Si4 0.182688 0.588875 0.850550
Si Si5 0.599681 0.585211 0.644756
Si Si6 0.685873 0.583489 0.492284
Si Si7 0.811170 0.590535 0.796282
Si Si8 0.001133 0.413340 0.717504
O O1 0.001767 0.750000 0.068734
O O2 0.088617 0.591033 0.073721
O O3 0.003402 0.547489 0.178599
O O4 0.000000 0.500000 0.000000
O O5 0.674393 0.250000 0.948347
O O6 0.685080 0.499816 0.882496
O O7 0.662011 0.453861 0.052605
O O8 0.359063 0.250000 0.708558
O O9 0.335162 0.047467 0.605293
O O10 0.435029 0.066290 0.685944
O O11 0.345230 0.001577 0.775588
O O12 0.250000 0.576045 0.847186
O O13 0.168248 0.750000 0.839085
O O14 0.589167 0.750000 0.638637
O O15 0.638296 0.541472 0.562272
O O16 0.639072 0.559364 0.729401
O O17 0.542950 0.500957 0.660992
O O18 0.750000 0.535312 0.508592
O O19 0.687480 0.750000 0.497517
O O20 0.750000 0.572194 0.752594
O O21 0.816145 0.750000 0.820717
O O22 0.987962 0.250000 0.712590
#
# Coordination Sequence:
#
# PCOD9449790 Si02
#       8
#     8   8   8   8   8   8   8   8
#     4  10  20  33  51  74 105 145 186 227 269 317
#     4  10  20  35  53  75 106 147 185 217 271 338
#     4  10  21  37  59  83 109 146 188 230 277 329
#     4  10  21  36  54  79 111 144 182 231 280 329
#     4  10  20  35  57  82 109 144 184 224 271 329
#     4   9  18  35  59  85 111 142 184 230 277 332
#     4  10  20  33  51  78 108 137 175 225 272 316
#     4  10  21  37  54  80 116 146 181 231 280 326
#
# _framework density 18.155543000000002
#
# number of rings (size 3 to 8) (size 9 to 14) (size 15 to 20)
#    0.000    2.125    1.250    1.875    0.000    5.500 
#    0.000    0.625    0.000    1.875    0.000    0.000 
#    0.000    0.000    0.000    0.000    0.000    0.000 
#
# Total GULP energy -357113.342354 kJ/mol
# GULP energy per Si atom -5579.895974 kJ/mol
# Density = 1.811422 g / cm^3
# Si number density = 18.155543 Si / 1000 Ang^3
#
#
#
# Elastic Constant Matrix: (Units=GPa)
#
#
# Indices 1 2 3 4 5 6 
#
# 1 54.1810 19.7250 24.7683 0.0000 0.0000 0.0000
# 2 19.7250 23.2059 32.3202 0.0000 0.0000 0.0000
# 3 24.7683 32.3202 86.8161 0.0000 0.0000 0.0000
# 4 0.0000 0.0000 0.0000 9.1135 0.0000 0.0000
# 5 0.0000 0.0000 0.0000 0.0000 27.9869 0.0000
# 6 0.0000 0.0000 0.0000 0.0000 0.0000 39.0303
#
#
#
# Elastic Compliance Matrix: (Units=1/GPa)
#
#
# Indices 1 2 3 4 5 6 
#
# 1 0.026853 -0.025244 0.001737 0.000000 0.000000 0.000000
# 2 -0.025244 0.113228 -0.034951 0.000000 0.000000 0.000000
# 3 0.001737 -0.034951 0.024035 0.000000 0.000000 0.000000
# 4 0.000000 0.000000 0.000000 0.109727 0.000000 0.000000
# 5 0.000000 0.000000 0.000000 0.000000 0.035731 0.000000
# 6 0.000000 0.000000 0.000000 0.000000 0.000000 0.025621
#
#
# Mechanical properties :
#
#
# Convention : Reuss Voigt Hill
#
# Bulk Modulus (GPa) = 21.18662 35.31443 28.25052
# Shear Modulus (GPa) = 10.68732 21.05212 15.86972
#
# Velocity S-wave (km/s) = 2.42885 3.40890 2.95972
# Velocity P-wave (km/s) = 4.42274 5.91501 5.22245
#
# Compressibility (1/GPa) = 0.04719961
#
# Stress axis : x y z
#
# Youngs Moduli (GPa) = 37.23996 8.83174 41.60647
#
# Poissons Ratio (x) = 0.22295 -0.07227
# Poissons Ratio (y) = 0.94008 1.45418
# Poissons Ratio (z) = -0.06468 0.30868
#
# Static dielectric constant tensor:
#      x y z
#    x 1.638540 0.000000 0.000000 
#    y 0.000000 1.608470 0.000000 
#    z 0.000000 0.000000 1.606660 
# 
# From -- ./inp_files/24754.got.cif
#   From: 2010.05.17/outbox.cif.g08.bks.cpg/sg59_13_cif.got.tgz:24754.got - 2010.06.03 14:40:33.
