data_PCOD9449898
_publ_section_title
;
Structure prediction by ZEFSAII (Michael W. Deem and Ramdas Pophale) SiO2 
 PCOD9449898
Probable space group: P M M N
;
_chemical_formula_sum "Si O2"
_cell_formula_units_Z 64
_cell_length_a 19.590083
_cell_length_b 7.436396
_cell_length_c 17.993217
_cell_angle_alpha 90.000000
_cell_angle_beta 90.000000
_cell_angle_gamma 90.000000
_cell_volume 2621.244923
_symmetry_space_group_name_H-M "P M M N"
_symmetry_group_IT_number 59
_space_group.IT_coordinate_system_code '2'
_symmetry_cell_setting 'orthorhombic'
loop_
_space_group_symop_operation_xyz
x,y,z
1/2-x,1/2-y,z
1/2+x,-y,-z
-x,1/2+y,-z
-x,-y,-z
1/2+x,1/2+y,-z
1/2-x,y,z
x,1/2-y,z
loop_
_atom_site_type_symbol
_atom_site_label
_atom_site_fract_x
_atom_site_fract_y
_atom_site_fract_z
Si Si1 0.175234 0.033145 0.826198
Si Si2 0.026627 0.045513 0.605312
Si Si3 0.671471 0.032269 0.746869
Si Si4 0.621533 0.468756 0.583496
Si Si5 0.967942 0.457508 0.230593
Si Si6 0.826265 0.530476 0.001619
Si Si7 0.571817 0.954776 0.880849
Si Si8 0.324682 0.041813 0.572561
O O1 0.250000 0.974154 0.800847
O O2 0.174007 0.250000 0.824206
O O3 0.112644 0.966591 0.778857
O O4 0.166484 0.978926 0.912380
O O5 0.032691 0.250000 0.578693
O O6 0.101868 0.960535 0.596678
O O7 0.956888 0.969027 0.571317
O O8 0.011403 0.050014 0.693432
O O9 0.750000 0.981520 0.757812
O O10 0.666545 0.250000 0.750188
O O11 0.647231 0.976603 0.664773
O O12 0.624931 0.957005 0.812339
O O13 0.621720 0.250000 0.581504
O O14 0.668401 0.535188 0.516751
O O15 0.989103 0.250000 0.237228
O O16 0.004175 0.534889 0.156858
O O17 0.750000 0.475057 0.976205
O O18 0.826763 0.750000 0.998647
O O19 0.887300 0.463404 0.949782
O O20 0.554700 0.750000 0.902825
O O21 0.250000 0.966370 0.593637
O O22 0.324683 0.250000 0.598625
#
# Coordination Sequence:
#
# PCOD9449898 Si02
#       8
#     8   8   8   8   8   8   8   8
#     4   9  19  37  60  81 103 141 190 232 274 330
#     4  10  21  39  60  79 107 150 191 225 268 326
#     4  10  20  33  51  78 111 146 185 224 265 319
#     4  10  20  36  58  81 108 146 185 223 270 327
#     4  11  23  36  54  84 117 145 180 229 280 329
#     4   8  15  31  55  80 106 141 187 231 270 321
#     4  10  20  34  53  79 112 147 184 225 271 327
#     4  10  22  38  57  84 112 137 176 230 279 326
#
# _framework density 24.415879
#
# number of rings (size 3 to 8) (size 9 to 14) (size 15 to 20)
#    0.000    2.250    1.250    2.250    0.000    4.750 
#    0.000    1.875    0.000    0.750    0.000    0.000 
#    0.000    0.000    0.000    0.000    0.000    0.000 
#
# Total GULP energy -357698.609013 kJ/mol
# GULP energy per Si atom -5589.040766 kJ/mol
# Density = 2.436031 g / cm^3
# Si number density = 24.415879 Si / 1000 Ang^3
#
#
#
# Elastic Constant Matrix: (Units=GPa)
#
#
# Indices 1 2 3 4 5 6 
#
# 1 134.0313 4.1566 0.1026 0.0000 0.0000 0.0000
# 2 4.1566 84.3679 -0.7549 0.0000 0.0000 0.0000
# 3 0.1026 -0.7549 37.9478 0.0000 0.0000 0.0000
# 4 0.0000 0.0000 0.0000 8.8666 0.0000 0.0000
# 5 0.0000 0.0000 0.0000 0.0000 38.2999 0.0000
# 6 0.0000 0.0000 0.0000 0.0000 0.0000 -1.0699
#
#
#
# Elastic Compliance Matrix: (Units=1/GPa)
#
#
# Indices 1 2 3 4 5 6 
#
# 1 0.007472 -0.000368 -0.000028 0.000000 0.000000 0.000000
# 2 -0.000368 0.011873 0.000237 0.000000 0.000000 0.000000
# 3 -0.000028 0.000237 0.026357 0.000000 0.000000 0.000000
# 4 0.000000 0.000000 0.000000 0.112783 0.000000 0.000000
# 5 0.000000 0.000000 0.000000 0.000000 0.026110 0.000000
# 6 0.000000 0.000000 0.000000 0.000000 0.000000 -0.934695
#
#
# Mechanical properties :
#
#
# Convention : Reuss Voigt Hill
#
# Bulk Modulus (GPa) = 22.03380 29.26173 25.64776
# Shear Modulus (GPa) = -6.80592 26.07550 9.63479
#
# Velocity S-wave (km/s) = -1.67139 3.27153 1.98864
# Velocity P-wave (km/s) = 2.30635 5.12653 3.97495
#
# Compressibility (1/GPa) = 0.04538483
#
# Stress axis : x y z
#
# Youngs Moduli (GPa) = 133.82597 84.22385 37.94090
#
# Poissons Ratio (x) = 0.03103 0.00104
# Poissons Ratio (y) = 0.04930 -0.00900
# Poissons Ratio (z) = 0.00368 -0.01998
#
# Static dielectric constant tensor:
#      x y z
#    x 1.949810 0.000000 0.000000 
#    y 0.000000 1.924550 0.000000 
#    z 0.000000 0.000000 1.906480 
# 
# From -- ./inp_files/30820.got.cif
#   From: 2010.05.17/outbox.cif.g08.bks.cpg/sg59_16_cif.got.tgz:30820.got - 2010.06.03 14:40:33.
