data_PCOD9449820
_publ_section_title
;
Structure prediction by ZEFSAII (Michael W. Deem and Ramdas Pophale) SiO2 
 PCOD9449820
Probable space group: P M M N
;
_chemical_formula_sum "Si O2"
_cell_formula_units_Z 64
_cell_length_a 18.722029
_cell_length_b 7.639852
_cell_length_c 22.209211
_cell_angle_alpha 90.000000
_cell_angle_beta 90.000000
_cell_angle_gamma 90.000000
_cell_volume 3176.661863
_symmetry_space_group_name_H-M "P M M N"
_symmetry_group_IT_number 59
_space_group.IT_coordinate_system_code '2'
_symmetry_cell_setting 'orthorhombic'
loop_
_space_group_symop_operation_xyz
x,y,z
1/2-x,1/2-y,z
1/2+x,-y,-z
-x,1/2+y,-z
-x,-y,-z
1/2+x,1/2+y,-z
1/2-x,y,z
x,1/2-y,z
loop_
_atom_site_type_symbol
_atom_site_label
_atom_site_fract_x
_atom_site_fract_y
_atom_site_fract_z
Si Si1 0.903528 0.960616 0.250617
Si Si2 0.547978 0.038970 0.686626
Si Si3 0.169619 0.041894 0.227044
Si Si4 0.413740 0.957721 0.883708
Si Si5 0.831033 0.461785 0.999627
Si Si6 0.329578 0.036023 0.627027
Si Si7 0.575271 0.541160 0.883323
Si Si8 0.473656 0.040232 0.566492
O O1 0.904269 0.750000 0.251232
O O2 0.852058 0.016252 0.305091
O O3 0.983553 0.020763 0.269156
O O4 0.884697 0.016633 0.183580
O O5 0.546730 0.250000 0.686654
O O6 0.526314 0.977759 0.619838
O O7 0.623570 0.983836 0.712839
O O8 0.250000 0.970604 0.229247
O O9 0.175431 0.250000 0.217310
O O10 0.122446 0.968983 0.171842
O O11 0.419001 0.750000 0.894104
O O12 0.364365 0.026280 0.937381
O O13 0.494653 0.030489 0.885603
O O14 0.750000 0.524987 0.990406
O O15 0.828307 0.250000 0.001149
O O16 0.882563 0.511934 0.945003
O O17 0.250000 0.976294 0.611799
O O18 0.329002 0.250000 0.626083
O O19 0.393822 0.977690 0.583444
O O20 0.568814 0.750000 0.873802
O O21 0.471484 0.250000 0.571807
O O22 0.500000 0.000000 0.500000
#
# Coordination Sequence:
#
# PCOD9449820 Si02
#       8
#     8   8   8   8   8   8   8   8
#     4   9  17  30  51  77 100 126 164 206 244 293
#     4   9  18  33  51  73 103 134 166 202 245 299
#     4  10  20  33  51  76 102 128 165 213 259 302
#     4  10  20  34  52  73  99 132 165 202 253 306
#     4  10  22  37  50  69  99 132 166 206 253 306
#     4   8  15  30  52  77 105 135 169 209 249 290
#     4  10  20  35  54  73  95 128 170 212 253 299
#     4   9  18  33  54  79 105 138 175 209 246 291
#
# _framework density 20.146934000000002
#
# number of rings (size 3 to 8) (size 9 to 14) (size 15 to 20)
#    0.000    2.625    1.250    2.250    0.000    3.500 
#    0.000    2.500    0.000    3.375    0.000    0.000 
#    0.000    0.000    0.000    0.000    0.000    0.000 
#
# Total GULP energy -357117.909644 kJ/mol
# GULP energy per Si atom -5579.967338 kJ/mol
# Density = 2.010108 g / cm^3
# Si number density = 20.146934 Si / 1000 Ang^3
#
#
#
# Elastic Constant Matrix: (Units=GPa)
#
#
# Indices 1 2 3 4 5 6 
#
# 1 84.2800 2.0321 43.8323 0.0000 0.0000 0.0000
# 2 2.0321 34.1457 -12.2627 0.0000 0.0000 0.0000
# 3 43.8323 -12.2627 125.6222 0.0000 0.0000 0.0000
# 4 0.0000 0.0000 0.0000 21.4239 0.0000 0.0000
# 5 0.0000 0.0000 0.0000 0.0000 20.5146 0.0000
# 6 0.0000 0.0000 0.0000 0.0000 0.0000 7.7147
#
#
#
# Elastic Compliance Matrix: (Units=1/GPa)
#
#
# Indices 1 2 3 4 5 6 
#
# 1 0.014754 -0.002826 -0.005424 0.000000 0.000000 0.000000
# 2 -0.002826 0.030891 0.004002 0.000000 0.000000 0.000000
# 3 -0.005424 0.004002 0.010244 0.000000 0.000000 0.000000
# 4 0.000000 0.000000 0.000000 0.046677 0.000000 0.000000
# 5 0.000000 0.000000 0.000000 0.000000 0.048746 0.000000
# 6 0.000000 0.000000 0.000000 0.000000 0.000000 0.129623
#
#
# Mechanical properties :
#
#
# Convention : Reuss Voigt Hill
#
# Bulk Modulus (GPa) = 21.10038 34.58349 27.84194
# Shear Modulus (GPa) = 16.38117 23.96039 20.17078
#
# Velocity S-wave (km/s) = 2.85456 3.45234 3.16758
# Velocity P-wave (km/s) = 4.62176 5.75278 5.21800
#
# Compressibility (1/GPa) = 0.04739250
#
# Stress axis : x y z
#
# Youngs Moduli (GPa) = 67.77722 32.37139 97.62280
#
# Poissons Ratio (x) = 0.09148 0.52950
# Poissons Ratio (y) = 0.19153 -0.39064
# Poissons Ratio (z) = 0.36762 -0.12953
#
# Static dielectric constant tensor:
#      x y z
#    x 1.716940 0.000000 0.000000 
#    y 0.000000 1.765090 0.000000 
#    z 0.000000 0.000000 1.691880 
# 
# From -- ./inp_files/29516.got.cif
#   From: 2010.05.17/outbox.cif.g08.bks.cpg/sg59_15_cif.got.tgz:29516.got - 2010.06.03 14:40:33.
