data_PCOD9449096
_publ_section_title
;
Structure prediction by ZEFSAII (Michael W. Deem and Ramdas Pophale) SiO2 
 PCOD9449096
Probable space group: P M M N
;
_chemical_formula_sum "Si O2"
_cell_formula_units_Z 48
_cell_length_a 8.363998
_cell_length_b 18.727173
_cell_length_c 16.364444
_cell_angle_alpha 90.000000
_cell_angle_beta 90.000000
_cell_angle_gamma 90.000000
_cell_volume 2563.228935
_symmetry_space_group_name_H-M "P M M N"
_symmetry_group_IT_number 59
_space_group.IT_coordinate_system_code '2'
_symmetry_cell_setting 'orthorhombic'
loop_
_space_group_symop_operation_xyz
x,y,z
1/2-x,1/2-y,z
1/2+x,-y,-z
-x,1/2+y,-z
-x,-y,-z
1/2+x,1/2+y,-z
1/2-x,y,z
x,1/2-y,z
loop_
_atom_site_type_symbol
_atom_site_label
_atom_site_fract_x
_atom_site_fract_y
_atom_site_fract_z
Si Si1 0.557339 0.750000 0.212692
Si Si2 0.440249 0.973725 0.635204
Si Si3 0.057040 0.750000 0.397558
Si Si4 0.945258 0.667543 0.927184
Si Si5 0.442967 0.385656 0.892772
Si Si6 0.943528 0.397046 0.525018
Si Si7 0.940181 0.964954 0.819273
O O1 0.750000 0.750000 0.207366
O O2 0.506899 0.750000 0.306118
O O3 0.501117 0.822268 0.167678
O O4 0.250000 0.970076 0.645620
O O5 0.491793 0.915374 0.567616
O O6 0.516592 0.967757 0.723845
O O7 0.485400 0.046726 0.589029
O O8 0.250000 0.750000 0.393465
O O9 0.006085 0.819729 0.446122
O O10 0.750000 0.669442 0.926000
O O11 0.998253 0.750000 0.915949
O O12 0.998947 0.608781 0.860962
O O13 0.993141 0.637176 0.016076
O O14 0.250000 0.385740 0.891617
O O15 0.496975 0.463756 0.864133
O O16 0.750000 0.403222 0.528465
O O17 0.750000 0.965867 0.827922
#
# Coordination Sequence:
#
# PCOD9449096 Si02
#       7
#     4   8   4   8   8   8   8
#     4  10  20  32  52  81 108 138 176 221 266 318
#     4  10  20  36  56  78 106 142 181 219 262 317
#     4  10  20  34  52  77 106 136 168 211 270 324
#     4   9  18  36  58  78 106 146 185 224 268 316
#     4  10  19  35  58  80 106 141 183 225 270 319
#     4   9  19  36  57  78 105 140 176 219 271 321
#     4  11  22  34  54  83 111 141 181 225 269 319
#
# _framework density 18.726382000000001
#
# number of rings (size 3 to 8) (size 9 to 14) (size 15 to 20)
#    0.000    2.167    0.833    2.500    0.000    4.667 
#    1.500    0.833    0.000    3.500    0.000    0.000 
#    0.000    0.000    0.000    0.000    0.000    0.000 
#
# Total GULP energy -267863.023266 kJ/mol
# GULP energy per Si atom -5580.479651 kJ/mol
# Density = 1.868376 g / cm^3
# Si number density = 18.726382 Si / 1000 Ang^3
#
#
#
# Elastic Constant Matrix: (Units=GPa)
#
#
# Indices 1 2 3 4 5 6 
#
# 1 9.4821 20.0485 12.2522 0.0000 0.0000 0.0000
# 2 20.0485 157.6853 98.4686 0.0000 0.0000 0.0000
# 3 12.2522 98.4686 108.5080 0.0000 0.0000 0.0000
# 4 0.0000 0.0000 0.0000 17.9710 0.0000 0.0000
# 5 0.0000 0.0000 0.0000 0.0000 7.8840 0.0000
# 6 0.0000 0.0000 0.0000 0.0000 0.0000 22.1172
#
#
#
# Elastic Compliance Matrix: (Units=1/GPa)
#
#
# Indices 1 2 3 4 5 6 
#
# 1 0.144267 -0.018855 0.000820 0.000000 0.000000 0.000000
# 2 -0.018855 0.017100 -0.013389 0.000000 0.000000 0.000000
# 3 0.000820 -0.013389 0.021273 0.000000 0.000000 0.000000
# 4 0.000000 0.000000 0.000000 0.055645 0.000000 0.000000
# 5 0.000000 0.000000 0.000000 0.000000 0.126839 0.000000
# 6 0.000000 0.000000 0.000000 0.000000 0.000000 0.045214
#
#
# Mechanical properties :
#
#
# Convention : Reuss Voigt Hill
#
# Bulk Modulus (GPa) = 8.34766 59.69043 34.01904
# Shear Modulus (GPa) = 9.74441 19.25486 14.49963
#
# Velocity S-wave (km/s) = 2.28361 3.21007 2.78562
# Velocity P-wave (km/s) = 3.37943 6.75897 5.34341
#
# Compressibility (1/GPa) = 0.11979408
#
# Stress axis : x y z
#
# Youngs Moduli (GPa) = 6.93158 58.48073 47.00772
#
# Poissons Ratio (x) = 1.10264 -0.03856
# Poissons Ratio (y) = 0.13069 0.62937
# Poissons Ratio (z) = -0.00569 0.78297
#
# Static dielectric constant tensor:
#      x y z
#    x 1.654170 0.000000 0.000000 
#    y 0.000000 1.646160 0.000000 
#    z 0.000000 0.000000 1.621020 
# 
# From -- ./inp_files/20570.got.cif
#   From: 2010.05.17/outbox.cif.g08.bks.cpg/sg59_11_cif.got.tgz:20570.got - 2010.06.03 14:40:33.
