data_PCOD9449746
_publ_section_title
;
Structure prediction by ZEFSAII (Michael W. Deem and Ramdas Pophale) SiO2 
 PCOD9449746
Probable space group: P M M N
;
_chemical_formula_sum "Si O2"
_cell_formula_units_Z 48
_cell_length_a 14.373184
_cell_length_b 7.810697
_cell_length_c 21.402348
_cell_angle_alpha 90.000000
_cell_angle_beta 90.000000
_cell_angle_gamma 90.000000
_cell_volume 2402.725719
_symmetry_space_group_name_H-M "P M M N"
_symmetry_group_IT_number 59
_space_group.IT_coordinate_system_code '2'
_symmetry_cell_setting 'orthorhombic'
loop_
_space_group_symop_operation_xyz
x,y,z
1/2-x,1/2-y,z
1/2+x,-y,-z
-x,1/2+y,-z
-x,-y,-z
1/2+x,1/2+y,-z
1/2-x,y,z
x,1/2-y,z
loop_
_atom_site_type_symbol
_atom_site_label
_atom_site_fract_x
_atom_site_fract_y
_atom_site_fract_z
Si Si1 0.849127 0.957444 0.383368
Si Si2 0.604861 0.544876 0.518566
Si Si3 0.644841 0.044349 0.028151
Si Si4 0.855160 0.046196 0.783645
Si Si5 0.941300 0.547029 0.651939
Si Si6 0.463471 0.543479 0.095652
O O1 0.750000 0.009400 0.353547
O O2 0.852347 0.750000 0.383405
O O3 0.845438 0.016779 0.455899
O O4 0.947795 0.014108 0.355129
O O5 0.500000 0.500000 0.500000
O O6 0.619758 0.750000 0.521209
O O7 0.612177 0.478894 0.589589
O O8 0.750000 0.979909 0.037050
O O9 0.649792 0.250000 0.023690
O O10 0.570102 0.003208 0.081692
O O11 0.598726 0.981443 0.963147
O O12 0.750000 0.975963 0.785762
O O13 0.848368 0.250000 0.793584
O O14 0.919785 0.978966 0.839741
O O15 0.900550 0.020627 0.716167
O O16 0.928310 0.750000 0.651960
O O17 0.459315 0.750000 0.095405
#
# Coordination Sequence:
#
# PCOD9449746 Si02
#       6
#     8   8   8   8   8   8
#     4   9  17  31  52  74  97 130 170 208 249 301
#     4   8  15  28  46  68  94 124 158 200 249 296
#     4   9  17  31  53  80 108 135 163 200 248 295
#     4  10  21  37  55  73  97 133 173 208 245 295
#     4  10  20  33  50  74 104 133 163 206 256 302
#     4   9  18  33  53  77 104 134 169 207 244 287
#
# _framework density 19.977311
#
# number of rings (size 3 to 8) (size 9 to 14) (size 15 to 20)
#    0.000    2.833    0.000    1.000    0.000    5.000 
#    0.000    2.500    0.000    4.000    0.000    0.000 
#    0.000    0.000    0.000    0.000    0.000    0.000 
#
# Total GULP energy -267312.673114 kJ/mol
# GULP energy per Si atom -5569.014023 kJ/mol
# Density = 1.993184 g / cm^3
# Si number density = 19.977311 Si / 1000 Ang^3
#
#
#
# Elastic Constant Matrix: (Units=GPa)
#
#
# Indices 1 2 3 4 5 6 
#
# 1 153.9667 1.8190 66.9479 0.0000 0.0000 0.0000
# 2 1.8190 24.7063 1.1027 0.0000 0.0000 0.0000
# 3 66.9479 1.1027 129.5513 0.0000 0.0000 0.0000
# 4 0.0000 0.0000 0.0000 19.5208 0.0000 0.0000
# 5 0.0000 0.0000 0.0000 0.0000 17.0650 0.0000
# 6 0.0000 0.0000 0.0000 0.0000 0.0000 13.6544
#
#
#
# Elastic Compliance Matrix: (Units=1/GPa)
#
#
# Indices 1 2 3 4 5 6 
#
# 1 0.008382 -0.000424 -0.004328 0.000000 0.000000 0.000000
# 2 -0.000424 0.040512 -0.000126 0.000000 0.000000 0.000000
# 3 -0.004328 -0.000126 0.009956 0.000000 0.000000 0.000000
# 4 0.000000 0.000000 0.000000 0.051227 0.000000 0.000000
# 5 0.000000 0.000000 0.000000 0.000000 0.058599 0.000000
# 6 0.000000 0.000000 0.000000 0.000000 0.000000 0.073236
#
#
# Mechanical properties :
#
#
# Convention : Reuss Voigt Hill
#
# Bulk Modulus (GPa) = 20.36843 49.77372 35.07108
# Shear Modulus (GPa) = 18.65435 25.93835 22.29635
#
# Velocity S-wave (km/s) = 3.05909 3.60723 3.34441
# Velocity P-wave (km/s) = 4.76396 6.50528 5.70149
#
# Compressibility (1/GPa) = 0.04909558
#
# Stress axis : x y z
#
# Youngs Moduli (GPa) = 119.30698 24.68384 100.43697
#
# Poissons Ratio (x) = 0.01047 0.43467
# Poissons Ratio (y) = 0.05058 0.01263
# Poissons Ratio (z) = 0.51634 0.00310
#
# Static dielectric constant tensor:
#      x y z
#    x 1.730070 0.000000 0.000000 
#    y 0.000000 1.738220 0.000000 
#    z 0.000000 0.000000 1.709060 
# 
# From -- ./inp_files/27394.got.cif
#   From: 2010.05.17/outbox.cif.g08.bks.cpg/sg59_14_cif.got.tgz:27394.got - 2010.06.03 14:40:33.
