data_PCOD9449807
_publ_section_title
;
Structure prediction by ZEFSAII (Michael W. Deem and Ramdas Pophale) SiO2 
 PCOD9449807
Probable space group: P M M N
;
_chemical_formula_sum "Si O2"
_cell_formula_units_Z 48
_cell_length_a 16.906679
_cell_length_b 8.591470
_cell_length_c 18.926985
_cell_angle_alpha 90.000000
_cell_angle_beta 90.000000
_cell_angle_gamma 90.000000
_cell_volume 2749.205619
_symmetry_space_group_name_H-M "P M M N"
_symmetry_group_IT_number 59
_space_group.IT_coordinate_system_code '2'
_symmetry_cell_setting 'orthorhombic'
loop_
_space_group_symop_operation_xyz
x,y,z
1/2-x,1/2-y,z
1/2+x,-y,-z
-x,1/2+y,-z
-x,-y,-z
1/2+x,1/2+y,-z
1/2-x,y,z
x,1/2-y,z
loop_
_atom_site_type_symbol
_atom_site_label
_atom_site_fract_x
_atom_site_fract_y
_atom_site_fract_z
Si Si1 0.433514 0.935129 0.290778
Si Si2 0.490940 0.063594 0.078446
Si Si3 0.007591 0.564554 0.578664
Si Si4 0.915663 0.433898 0.210289
Si Si5 0.661318 0.935497 0.341507
Si Si6 0.337796 0.563540 0.158709
O O1 0.451361 0.750000 0.287906
O O2 0.357543 0.962578 0.241757
O O3 0.439697 0.991330 0.370895
O O4 0.502628 0.030721 0.251588
O O5 0.491680 0.250000 0.077806
O O6 0.562776 0.013373 0.130936
O O7 0.408455 0.007866 0.112861
O O8 0.500000 0.000000 0.000000
O O9 0.001647 0.750000 0.579518
O O10 0.091799 0.514133 0.612952
O O11 0.000000 0.500000 0.500000
O O12 0.898997 0.250000 0.210487
O O13 0.852501 0.520360 0.259166
O O14 0.750000 0.982469 0.362690
O O15 0.653551 0.750000 0.349060
O O16 0.250000 0.506399 0.141147
O O17 0.340091 0.750000 0.147968
#
# Coordination Sequence:
#
# PCOD9449807 Si02
#       6
#     8   8   8   8   8   8
#     4   9  16  29  50  73  97 127 163 201 243 295
#     4  10  20  33  51  75 102 135 172 210 253 302
#     4  11  21  34  53  75 102 136 172 209 251 300
#     4   9  17  30  49  72  96 125 164 203 241 292
#     4  10  20  34  53  77 103 130 164 208 255 302
#     4   9  18  33  53  76 102 132 166 207 254 302
#
# _framework density 17.459589000000001
#
# number of rings (size 3 to 8) (size 9 to 14) (size 15 to 20)
#    0.000    2.333    0.000    5.500    0.000    4.333 
#    0.000    1.667    0.000    4.000    0.000    0.000 
#    0.000    0.000    0.000    0.000    0.000    0.000 
#
# Total GULP energy -267391.030584 kJ/mol
# GULP energy per Si atom -5570.646471 kJ/mol
# Density = 1.741985 g / cm^3
# Si number density = 17.459589 Si / 1000 Ang^3
#
#
#
# Elastic Constant Matrix: (Units=GPa)
#
#
# Indices 1 2 3 4 5 6 
#
# 1 75.8977 21.0613 35.2179 0.0000 0.0000 0.0000
# 2 21.0613 41.4567 23.3953 0.0000 0.0000 0.0000
# 3 35.2179 23.3953 138.0518 0.0000 0.0000 0.0000
# 4 0.0000 0.0000 0.0000 30.7894 0.0000 0.0000
# 5 0.0000 0.0000 0.0000 0.0000 15.3665 0.0000
# 6 0.0000 0.0000 0.0000 0.0000 0.0000 16.2323
#
#
#
# Elastic Compliance Matrix: (Units=1/GPa)
#
#
# Indices 1 2 3 4 5 6 
#
# 1 0.016437 -0.006617 -0.003072 0.000000 0.000000 0.000000
# 2 -0.006617 0.029336 -0.003283 0.000000 0.000000 0.000000
# 3 -0.003072 -0.003283 0.008584 0.000000 0.000000 0.000000
# 4 0.000000 0.000000 0.000000 0.032479 0.000000 0.000000
# 5 0.000000 0.000000 0.000000 0.000000 0.065077 0.000000
# 6 0.000000 0.000000 0.000000 0.000000 0.000000 0.061606
#
#
# Mechanical properties :
#
#
# Convention : Reuss Voigt Hill
#
# Bulk Modulus (GPa) = 35.19599 46.08392 40.63995
# Shear Modulus (GPa) = 20.08564 24.19306 22.13935
#
# Velocity S-wave (km/s) = 3.39545 3.72648 3.56481
# Velocity P-wave (km/s) = 5.96443 6.70578 6.34594
#
# Compressibility (1/GPa) = 0.02841233
#
# Stress axis : x y z
#
# Youngs Moduli (GPa) = 60.83739 34.08760 116.49912
#
# Poissons Ratio (x) = 0.22556 0.35787
# Poissons Ratio (y) = 0.40257 0.38252
# Poissons Ratio (z) = 0.18688 0.11193
#
# Static dielectric constant tensor:
#      x y z
#    x 1.605600 0.000000 0.000000 
#    y 0.000000 1.588710 0.000000 
#    z 0.000000 0.000000 1.622860 
# 
# From -- ./inp_files/27780.got.cif
#   From: 2010.05.17/outbox.cif.g08.bks.cpg/sg59_14_cif.got.tgz:27780.got - 2010.06.03 14:40:33.
