data_PCOD9449131
_publ_section_title
;
Structure prediction by ZEFSAII (Michael W. Deem and Ramdas Pophale) SiO2 
 PCOD9449131
Probable space group: P M M N
;
_chemical_formula_sum "Si O2"
_cell_formula_units_Z 64
_cell_length_a 17.661396
_cell_length_b 14.622898
_cell_length_c 12.168792
_cell_angle_alpha 90.000000
_cell_angle_beta 90.000000
_cell_angle_gamma 90.000000
_cell_volume 3142.721863
_symmetry_space_group_name_H-M "P M M N"
_symmetry_group_IT_number 59
_space_group.IT_coordinate_system_code '2'
_symmetry_cell_setting 'orthorhombic'
loop_
_space_group_symop_operation_xyz
x,y,z
1/2-x,1/2-y,z
1/2+x,-y,-z
-x,1/2+y,-z
-x,-y,-z
1/2+x,1/2+y,-z
1/2-x,y,z
x,1/2-y,z
loop_
_atom_site_type_symbol
_atom_site_label
_atom_site_fract_x
_atom_site_fract_y
_atom_site_fract_z
Si Si1 0.067731 0.943119 0.549621
Si Si2 0.400415 0.861234 0.117818
Si Si3 0.425862 0.360332 0.897940
Si Si4 0.369921 0.642846 0.879727
Si Si5 0.163855 0.639849 0.353761
Si Si6 0.662713 0.637982 0.879070
Si Si7 0.665574 0.975086 0.272433
Si Si8 0.480059 0.356156 0.245941
O O1 0.108734 0.888389 0.452653
O O2 0.026466 0.890527 0.649501
O O3 0.130690 0.004246 0.609455
O O4 0.000000 0.000000 0.500000
O O5 0.402042 0.750000 0.118403
O O6 0.487122 0.892446 0.103930
O O7 0.365524 0.890514 0.233580
O O8 0.356075 0.884196 0.005944
O O9 0.425908 0.250000 0.892375
O O10 0.386615 0.405516 0.793545
O O11 0.376497 0.386305 0.004728
O O12 0.348897 0.750000 0.861895
O O13 0.334686 0.570774 0.795932
O O14 0.460497 0.637000 0.855234
O O15 0.250000 0.607556 0.372164
O O16 0.165352 0.750000 0.350966
O O17 0.750000 0.607170 0.869271
O O18 0.664264 0.750000 0.875690
O O19 0.601743 0.604903 0.788012
O O20 0.750000 0.939425 0.278659
O O21 0.466655 0.250000 0.265575
#
# Coordination Sequence:
#
# PCOD9449131 Si02
#       8
#     8   8   8   8   8   8   8   8
#     4  11  23  41  58  78 108 151 198 244 293 342
#     4   9  17  33  59  89 119 153 192 233 282 349
#     4  10  19  35  59  85 119 157 190 229 281 350
#     4   9  18  35  58  86 121 155 187 228 285 350
#     4  10  21  38  61  86 113 151 200 249 294 343
#     4   9  16  29  53  84 116 145 178 229 287 340
#     4  11  24  38  56  86 118 149 192 243 292 347
#     4   9  17  34  59  83 107 143 190 238 284 343
#
# _framework density 20.364512000000001
#
# number of rings (size 3 to 8) (size 9 to 14) (size 15 to 20)
#    0.000    2.250    1.250    1.875    0.000    2.500 
#    2.250    3.125    0.000    0.000    0.000    0.000 
#    0.000    0.000    0.000    0.000    0.000    0.000 
#
# Total GULP energy -357182.338900 kJ/mol
# GULP energy per Si atom -5580.974045 kJ/mol
# Density = 2.031816 g / cm^3
# Si number density = 20.364512 Si / 1000 Ang^3
#
#
#
# Elastic Constant Matrix: (Units=GPa)
#
#
# Indices 1 2 3 4 5 6 
#
# 1 97.4545 10.4560 34.8126 0.0000 0.0000 0.0000
# 2 10.4560 33.8350 11.0714 0.0000 0.0000 0.0000
# 3 34.8126 11.0714 120.2540 0.0000 0.0000 0.0000
# 4 0.0000 0.0000 0.0000 6.7005 0.0000 0.0000
# 5 0.0000 0.0000 0.0000 0.0000 24.7024 0.0000
# 6 0.0000 0.0000 0.0000 0.0000 0.0000 17.9734
#
#
#
# Elastic Compliance Matrix: (Units=1/GPa)
#
#
# Indices 1 2 3 4 5 6 
#
# 1 0.011658 -0.002576 -0.003138 0.000000 0.000000 0.000000
# 2 -0.002576 0.031042 -0.002112 0.000000 0.000000 0.000000
# 3 -0.003138 -0.002112 0.009419 0.000000 0.000000 0.000000
# 4 0.000000 0.000000 0.000000 0.149243 0.000000 0.000000
# 5 0.000000 0.000000 0.000000 0.000000 0.040482 0.000000
# 6 0.000000 0.000000 0.000000 0.000000 0.000000 0.055638
#
#
# Mechanical properties :
#
#
# Convention : Reuss Voigt Hill
#
# Bulk Modulus (GPa) = 27.42188 40.46927 33.94558
# Shear Modulus (GPa) = 15.37089 22.88883 19.12986
#
# Velocity S-wave (km/s) = 2.75032 3.35618 3.06824
# Velocity P-wave (km/s) = 4.85597 5.91052 5.40900
#
# Compressibility (1/GPa) = 0.03646723
#
# Stress axis : x y z
#
# Youngs Moduli (GPa) = 85.77443 32.21394 106.17301
#
# Poissons Ratio (x) = 0.08298 0.33316
# Poissons Ratio (y) = 0.22096 0.22426
# Poissons Ratio (z) = 0.26915 0.06804
#
# Static dielectric constant tensor:
#      x y z
#    x 1.763730 0.000000 0.000000 
#    y 0.000000 1.756630 0.000000 
#    z 0.000000 0.000000 1.738160 
# 
# From -- ./inp_files/17840.got.cif
#   From: 2010.05.17/outbox.cif.g08.bks.cpg/sg59_9_cif.got.tgz:17840.got - 2010.06.03 14:40:33.
