data_PCOD9449951
_publ_section_title
;
Structure prediction by ZEFSAII (Michael W. Deem and Ramdas Pophale) SiO2 
 PCOD9449951
Probable space group: P M M N
;
_chemical_formula_sum "Si O2"
_cell_formula_units_Z 64
_cell_length_a 9.588635
_cell_length_b 15.398505
_cell_length_c 20.940218
_cell_angle_alpha 90.000000
_cell_angle_beta 90.000000
_cell_angle_gamma 90.000000
_cell_volume 3091.836673
_symmetry_space_group_name_H-M "P M M N"
_symmetry_group_IT_number 59
_space_group.IT_coordinate_system_code '2'
_symmetry_cell_setting 'orthorhombic'
loop_
_space_group_symop_operation_xyz
x,y,z
1/2-x,1/2-y,z
1/2+x,-y,-z
-x,1/2+y,-z
-x,-y,-z
1/2+x,1/2+y,-z
1/2-x,y,z
x,1/2-y,z
loop_
_atom_site_type_symbol
_atom_site_label
_atom_site_fract_x
_atom_site_fract_y
_atom_site_fract_z
Si Si1 0.589475 0.856164 0.020486
Si Si2 0.406874 0.900935 0.755465
Si Si3 0.408871 0.908964 0.379714
Si Si4 0.091227 0.108063 0.738346
Si Si5 0.407030 0.646348 0.137958
Si Si6 0.411316 0.354923 0.124068
Si Si7 0.410328 0.350800 0.505599
Si Si8 0.407901 0.384079 0.360591
O O1 0.750000 0.882163 0.033322
O O2 0.588652 0.750000 0.021604
O O3 0.551261 0.881785 0.948260
O O4 0.485368 0.888183 0.075058
O O5 0.250000 0.866947 0.760782
O O6 0.489922 0.890314 0.821150
O O7 0.491573 0.858978 0.696969
O O8 0.399348 0.003451 0.740293
O O9 0.250000 0.875474 0.380175
O O10 0.505221 0.866861 0.324936
O O11 0.484632 0.898513 0.447422
O O12 0.402308 0.011213 0.363950
O O13 0.250000 0.141803 0.738956
O O14 0.002825 0.132786 0.800419
O O15 0.250000 0.611123 0.146116
O O16 0.395484 0.750000 0.129476
O O17 0.250000 0.379687 0.135657
O O18 0.417821 0.250000 0.126154
O O19 0.250000 0.384339 0.510408
O O20 0.409143 0.250000 0.524572
O O21 0.451640 0.355703 0.431356
O O22 0.250000 0.352827 0.349174
#
# Coordination Sequence:
#
# PCOD9449951 Si02
#       8
#     8   8   8   8   8   8   8   8
#     4   8  15  30  51  74 101 135 174 211 251 306
#     4  10  21  35  53  79 107 135 172 218 262 303
#     4  10  20  35  56  78 101 133 172 213 255 300
#     4  10  21  37  55  75 103 139 176 212 254 309
#     4  10  20  33  52  79 106 132 168 216 265 309
#     4   9  18  33  54  78 104 138 177 213 254 309
#     4  10  21  36  54  78 107 136 167 206 252 303
#     4   9  19  36  56  76 101 137 176 209 248 305
#
# _framework density 20.699670999999999
#
# number of rings (size 3 to 8) (size 9 to 14) (size 15 to 20)
#    0.000    2.500    0.000    2.625    0.000    5.250 
#    0.000    3.125    0.000    0.000    0.000    0.000 
#    0.000    0.000    0.000    0.000    0.000    0.000 
#
# Total GULP energy -357345.283438 kJ/mol
# GULP energy per Si atom -5583.520054 kJ/mol
# Density = 2.065256 g / cm^3
# Si number density = 20.699671 Si / 1000 Ang^3
#
#
#
# Elastic Constant Matrix: (Units=GPa)
#
#
# Indices 1 2 3 4 5 6 
#
# 1 162.6790 7.4295 115.5652 0.0000 0.0000 0.0000
# 2 7.4295 25.5491 -1.8031 0.0000 0.0000 0.0000
# 3 115.5652 -1.8031 150.1103 0.0000 0.0000 0.0000
# 4 0.0000 0.0000 0.0000 27.6387 0.0000 0.0000
# 5 0.0000 0.0000 0.0000 0.0000 24.7372 0.0000
# 6 0.0000 0.0000 0.0000 0.0000 0.0000 10.1522
#
#
#
# Elastic Compliance Matrix: (Units=1/GPa)
#
#
# Indices 1 2 3 4 5 6 
#
# 1 0.014152 -0.004888 -0.010954 0.000000 0.000000 0.000000
# 2 -0.004888 0.040862 0.004254 0.000000 0.000000 0.000000
# 3 -0.010954 0.004254 0.015146 0.000000 0.000000 0.000000
# 4 0.000000 0.000000 0.000000 0.036181 0.000000 0.000000
# 5 0.000000 0.000000 0.000000 0.000000 0.040425 0.000000
# 6 0.000000 0.000000 0.000000 0.000000 0.000000 0.098501
#
#
# Mechanical properties :
#
#
# Convention : Reuss Voigt Hill
#
# Bulk Modulus (GPa) = 21.28386 64.52460 42.90423
# Shear Modulus (GPa) = 17.59927 26.98209 22.29068
#
# Velocity S-wave (km/s) = 2.91902 3.61432 3.28512
# Velocity P-wave (km/s) = 4.65461 6.97547 5.92970
#
# Compressibility (1/GPa) = 0.04698395
#
# Stress axis : x y z
#
# Youngs Moduli (GPa) = 70.66325 24.47260 66.02528
#
# Poissons Ratio (x) = 0.11963 0.72322
# Poissons Ratio (y) = 0.34542 -0.28088
# Poissons Ratio (z) = 0.77402 -0.10411
#
# Static dielectric constant tensor:
#      x y z
#    x 1.730200 0.000000 0.000000 
#    y 0.000000 1.782440 0.000000 
#    z 0.000000 0.000000 1.706690 
# 
# From -- ./inp_files/28256.got.cif
#   From: 2010.05.17/outbox.cif.g08.bks.cpg/sg59_15_cif.got.tgz:28256.got - 2010.06.03 14:40:33.
