data_PCOD9449778
_publ_section_title
;
Structure prediction by ZEFSAII (Michael W. Deem and Ramdas Pophale) SiO2 
 PCOD9449778
Probable space group: P M M N
;
_chemical_formula_sum "Si O2"
_cell_formula_units_Z 56
_cell_length_a 14.768162
_cell_length_b 9.040074
_cell_length_c 24.606404
_cell_angle_alpha 90.000000
_cell_angle_beta 90.000000
_cell_angle_gamma 90.000000
_cell_volume 3285.084790
_symmetry_space_group_name_H-M "P M M N"
_symmetry_group_IT_number 59
_space_group.IT_coordinate_system_code '2'
_symmetry_cell_setting 'orthorhombic'
loop_
_space_group_symop_operation_xyz
x,y,z
1/2-x,1/2-y,z
1/2+x,-y,-z
-x,1/2+y,-z
-x,-y,-z
1/2+x,1/2+y,-z
1/2-x,y,z
x,1/2-y,z
loop_
_atom_site_type_symbol
_atom_site_label
_atom_site_fract_x
_atom_site_fract_y
_atom_site_fract_z
Si Si1 0.750000 0.583379 0.544311
Si Si2 0.511550 0.073386 0.941499
Si Si3 0.564169 0.073488 0.543820
Si Si4 0.355256 0.073428 0.854915
Si Si5 0.061844 0.926810 0.329516
Si Si6 0.486178 0.926438 0.771042
Si Si7 0.750000 0.583506 0.675079
Si Si8 0.644175 0.928092 0.856399
O O1 0.750000 0.750000 0.521831
O O2 0.837734 0.490790 0.530314
O O3 0.750000 0.596360 0.609734
O O4 0.522740 0.250000 0.945990
O O5 0.420326 0.044246 0.906419
O O6 0.595700 0.004835 0.907869
O O7 0.500000 0.000000 0.000000
O O8 0.561996 0.250000 0.539896
O O9 0.544203 0.034682 0.607151
O O10 0.500000 0.000000 0.500000
O O11 0.250000 0.034684 0.863436
O O12 0.360168 0.250000 0.844227
O O13 0.401853 0.986170 0.805644
O O14 0.064813 0.750000 0.325316
O O15 0.158919 0.995341 0.312669
O O16 0.992137 0.996192 0.287235
O O17 0.482843 0.750000 0.765375
O O18 0.577500 0.963785 0.805814
O O19 0.750000 0.750000 0.698851
O O20 0.750000 0.970120 0.849049
O O21 0.641303 0.750000 0.863402
#
# Coordination Sequence:
#
# PCOD9449778 Si02
#       8
#     4   8   8   8   8   8   4   8
#     4   9  17  31  51  75 103 135 171 211 258 311
#     4  10  20  34  53  79 108 138 176 218 261 310
#     4  10  20  34  54  78 107 141 179 221 268 320
#     4   9  19  37  58  76  99 137 180 221 267 316
#     4  10  20  33  50  76 108 141 176 215 263 320
#     4  10  20  33  53  79 106 136 172 219 264 312
#     4   9  17  29  47  73 103 135 171 211 252 303
#     4   9  19  35  52  73 105 142 174 209 259 311
#
# _framework density 17.046744
#
# number of rings (size 3 to 8) (size 9 to 14) (size 15 to 20)
#    0.000    2.429    0.000    2.143    1.000    5.714 
#    0.000    1.429    1.571    0.000    0.000    0.000 
#    0.000    0.000    0.000    0.000    0.000    0.000 
#
# Total GULP energy -312272.292460 kJ/mol
# GULP energy per Si atom -5576.290937 kJ/mol
# Density = 1.700795 g / cm^3
# Si number density = 17.046744 Si / 1000 Ang^3
#
#
#
# Elastic Constant Matrix: (Units=GPa)
#
#
# Indices 1 2 3 4 5 6 
#
# 1 110.9060 40.6089 50.5262 0.0000 0.0000 0.0000
# 2 40.6089 63.5980 56.5935 0.0000 0.0000 0.0000
# 3 50.5262 56.5935 102.8856 0.0000 0.0000 0.0000
# 4 0.0000 0.0000 0.0000 29.6774 0.0000 0.0000
# 5 0.0000 0.0000 0.0000 0.0000 16.8195 0.0000
# 6 0.0000 0.0000 0.0000 0.0000 0.0000 29.3895
#
#
#
# Elastic Compliance Matrix: (Units=1/GPa)
#
#
# Indices 1 2 3 4 5 6 
#
# 1 0.012341 -0.004871 -0.003381 0.000000 0.000000 0.000000
# 2 -0.004871 0.032722 -0.015607 0.000000 0.000000 0.000000
# 3 -0.003381 -0.015607 0.019965 0.000000 0.000000 0.000000
# 4 0.000000 0.000000 0.000000 0.033696 0.000000 0.000000
# 5 0.000000 0.000000 0.000000 0.000000 0.059455 0.000000
# 6 0.000000 0.000000 0.000000 0.000000 0.000000 0.034026
#
#
# Mechanical properties :
#
#
# Convention : Reuss Voigt Hill
#
# Bulk Modulus (GPa) = 57.77270 63.64963 60.71117
# Shear Modulus (GPa) = 20.35068 23.82133 22.08601
#
# Velocity S-wave (km/s) = 3.45891 3.74225 3.60337
# Velocity P-wave (km/s) = 7.06516 7.48946 7.28040
#
# Compressibility (1/GPa) = 0.01730921
#
# Stress axis : x y z
#
# Youngs Moduli (GPa) = 81.03388 30.56014 50.08843
#
# Poissons Ratio (x) = 0.14887 0.16934
# Poissons Ratio (y) = 0.39474 0.78173
# Poissons Ratio (z) = 0.27396 0.47695
#
# Static dielectric constant tensor:
#      x y z
#    x 1.570320 0.000000 0.000000 
#    y 0.000000 1.567720 0.000000 
#    z 0.000000 0.000000 1.575310 
# 
# From -- ./inp_files/30436.got.cif
#   From: 2010.05.17/outbox.cif.g08.bks.cpg/sg59_16_cif.got.tgz:30436.got - 2010.06.03 14:40:33.
