data_PCOD9449351
_publ_section_title
;
Structure prediction by ZEFSAII (Michael W. Deem and Ramdas Pophale) SiO2 
 PCOD9449351
Probable space group: P M M N
;
_chemical_formula_sum "Si O2"
_cell_formula_units_Z 56
_cell_length_a 27.190048
_cell_length_b 8.146491
_cell_length_c 15.099473
_cell_angle_alpha 90.000000
_cell_angle_beta 90.000000
_cell_angle_gamma 90.000000
_cell_volume 3344.585836
_symmetry_space_group_name_H-M "P M M N"
_symmetry_group_IT_number 59
_space_group.IT_coordinate_system_code '2'
_symmetry_cell_setting 'orthorhombic'
loop_
_space_group_symop_operation_xyz
x,y,z
1/2-x,1/2-y,z
1/2+x,-y,-z
-x,1/2+y,-z
-x,-y,-z
1/2+x,1/2+y,-z
1/2-x,y,z
x,1/2-y,z
loop_
_atom_site_type_symbol
_atom_site_label
_atom_site_fract_x
_atom_site_fract_y
_atom_site_fract_z
Si Si1 0.457614 0.053334 0.378304
Si Si2 0.070041 0.439791 0.187622
Si Si3 0.618009 0.448871 0.260294
Si Si4 0.392419 0.556819 0.011374
Si Si5 0.432845 0.551836 0.567349
Si Si6 0.194369 0.550043 0.883269
Si Si7 0.467193 0.439022 0.871378
O O1 0.460815 0.250000 0.368580
O O2 0.434225 0.989785 0.287132
O O3 0.513802 0.994566 0.394892
O O4 0.428608 0.012477 0.467837
O O5 0.084704 0.250000 0.192343
O O6 0.104507 0.525362 0.115498
O O7 0.014685 0.453622 0.149321
O O8 0.614014 0.250000 0.255228
O O9 0.608625 0.496599 0.361815
O O10 0.667733 0.495960 0.209110
O O11 0.573528 0.522309 0.202948
O O12 0.396822 0.750000 0.993606
O O13 0.342892 0.498600 0.961726
O O14 0.438933 0.474743 0.962657
O O15 0.434292 0.750000 0.563191
O O16 0.250000 0.489413 0.891266
O O17 0.196126 0.750000 0.885536
O O18 0.482775 0.250000 0.868626
#
# Coordination Sequence:
#
# PCOD9449351 Si02
#       7
#     8   8   8   8   8   8   8
#     4   9  18  29  42  60  87 121 153 186 218 253
#     4  11  20  32  45  61  90 123 157 190 223 261
#     4   9  16  29  47  67  93 121 150 186 226 268
#     4  10  20  32  46  65  90 117 150 187 227 271
#     4   9  16  28  43  62  88 119 152 184 220 257
#     4   8  15  29  50  72  91 113 143 182 229 278
#     4  11  20  29  43  64  90 122 157 186 220 263
#
# _framework density 16.743478
#
# number of rings (size 3 to 8) (size 9 to 14) (size 15 to 20)
#    0.000    2.429    1.429    3.429    0.000    1.714 
#    0.000    0.000    0.000   10.714    0.000    1.000 
#    0.000    5.714    0.000    0.000    0.000    0.000 
#
# Total GULP energy -312139.487755 kJ/mol
# GULP energy per Si atom -5573.919424 kJ/mol
# Density = 1.670537 g / cm^3
# Si number density = 16.743478 Si / 1000 Ang^3
#
#
#
# Elastic Constant Matrix: (Units=GPa)
#
#
# Indices 1 2 3 4 5 6 
#
# 1 66.7807 -2.7754 48.0001 0.0000 0.0000 0.0000
# 2 -2.7754 13.5485 1.8589 0.0000 0.0000 0.0000
# 3 48.0001 1.8589 150.5893 0.0000 0.0000 0.0000
# 4 0.0000 0.0000 0.0000 22.2512 0.0000 0.0000
# 5 0.0000 0.0000 0.0000 0.0000 11.6980 0.0000
# 6 0.0000 0.0000 0.0000 0.0000 0.0000 8.9279
#
#
#
# Elastic Compliance Matrix: (Units=1/GPa)
#
#
# Indices 1 2 3 4 5 6 
#
# 1 0.019746 0.004917 -0.006355 0.000000 0.000000 0.000000
# 2 0.004917 0.075158 -0.002495 0.000000 0.000000 0.000000
# 3 -0.006355 -0.002495 0.008697 0.000000 0.000000 0.000000
# 4 0.000000 0.000000 0.000000 0.044941 0.000000 0.000000
# 5 0.000000 0.000000 0.000000 0.000000 0.085485 0.000000
# 6 0.000000 0.000000 0.000000 0.000000 0.000000 0.112008
#
#
# Mechanical properties :
#
#
# Convention : Reuss Voigt Hill
#
# Bulk Modulus (GPa) = 10.44541 36.12065 23.28303
# Shear Modulus (GPa) = 12.95962 20.83108 16.89535
#
# Velocity S-wave (km/s) = 2.78512 3.53105 3.18003
# Velocity P-wave (km/s) = 4.07364 6.18419 5.23635
#
# Compressibility (1/GPa) = 0.09573586
#
# Stress axis : x y z
#
# Youngs Moduli (GPa) = 50.64208 13.30525 114.98251
#
# Poissons Ratio (x) = -0.06542 0.73070
# Poissons Ratio (y) = -0.24901 0.28689
# Poissons Ratio (z) = 0.32182 0.03320
#
# Static dielectric constant tensor:
#      x y z
#    x 1.541970 0.000000 0.000000 
#    y 0.000000 1.631570 0.000000 
#    z 0.000000 0.000000 1.605790 
# 
# From -- ./inp_files/24979.got.cif
#   From: 2010.05.17/outbox.cif.g08.bks.cpg/sg59_13_cif.got.tgz:24979.got - 2010.06.03 14:40:33.
