data_PCOD9449997
_publ_section_title
;
Structure prediction by ZEFSAII (Michael W. Deem and Ramdas Pophale) SiO2 
 PCOD9449997
Probable space group: P M M N
;
_chemical_formula_sum "Si O2"
_cell_formula_units_Z 64
_cell_length_a 29.195421
_cell_length_b 7.610861
_cell_length_c 13.349720
_cell_angle_alpha 90.000000
_cell_angle_beta 90.000000
_cell_angle_gamma 90.000000
_cell_volume 2966.338369
_symmetry_space_group_name_H-M "P M M N"
_symmetry_group_IT_number 59
_space_group.IT_coordinate_system_code '2'
_symmetry_cell_setting 'orthorhombic'
loop_
_space_group_symop_operation_xyz
x,y,z
1/2-x,1/2-y,z
1/2+x,-y,-z
-x,1/2+y,-z
-x,-y,-z
1/2+x,1/2+y,-z
1/2-x,y,z
x,1/2-y,z
loop_
_atom_site_type_symbol
_atom_site_label
_atom_site_fract_x
_atom_site_fract_y
_atom_site_fract_z
Si Si1 0.359556 0.461229 0.848020
Si Si2 0.862729 0.039478 0.928089
Si Si3 0.357689 0.957561 0.454095
Si Si4 0.302532 0.037033 0.655659
Si Si5 0.950319 0.459158 0.457243
Si Si6 0.044608 0.043159 0.773469
Si Si7 0.966495 0.460755 0.907031
Si Si8 0.802851 0.034317 0.740011
O O1 0.361175 0.250000 0.838990
O O2 0.327774 0.524050 0.756995
O O3 0.411182 0.531751 0.830599
O O4 0.344747 0.502049 0.960462
O O5 0.864738 0.250000 0.918055
O O6 0.914985 0.969274 0.918602
O O7 0.830072 0.976363 0.839067
O O8 0.363009 0.750000 0.434378
O O9 0.408459 0.030031 0.475822
O O10 0.329853 0.027314 0.359080
O O11 0.329414 0.979818 0.556574
O O12 0.250000 0.977978 0.652540
O O13 0.302789 0.250000 0.656282
O O14 0.945200 0.250000 0.452497
O O15 0.947298 0.525330 0.343933
O O16 0.000000 0.500000 0.500000
O O17 0.043564 0.250000 0.797119
O O18 0.995865 0.973215 0.811748
O O19 0.961469 0.250000 0.900209
O O20 0.000000 0.500000 0.000000
O O21 0.750000 0.978250 0.739091
O O22 0.802397 0.250000 0.739191
#
# Coordination Sequence:
#
# PCOD9449997 Si02
#       8
#     8   8   8   8   8   8   8   8
#     4  10  20  36  56  80 113 151 187 227 283 344
#     4  10  21  35  56  83 111 145 189 238 281 331
#     4  10  21  38  62  86 111 147 192 238 283 339
#     4  10  21  37  58  84 114 148 185 231 290 347
#     4  11  24  38  57  86 118 151 187 230 285 346
#     4  10  20  36  57  78 110 152 189 230 283 340
#     4  10  20  33  53  79 108 144 185 227 274 330
#     4   9  19  37  59  82 110 146 188 236 289 335
#
# _framework density 21.575420999999999
#
# number of rings (size 3 to 8) (size 9 to 14) (size 15 to 20)
#    0.000    2.000    2.500    0.750    1.750    3.250 
#    0.000    0.625    0.000    0.750    0.000    0.000 
#    0.000    0.000    0.000    0.000    0.000    0.000 
#
# Total GULP energy -357475.725763 kJ/mol
# GULP energy per Si atom -5585.558215 kJ/mol
# Density = 2.152631 g / cm^3
# Si number density = 21.575421 Si / 1000 Ang^3
#
#
#
# Elastic Constant Matrix: (Units=GPa)
#
#
# Indices 1 2 3 4 5 6 
#
# 1 152.8963 -9.3282 91.4308 0.0000 0.0000 0.0000
# 2 -9.3282 34.9609 -17.1055 0.0000 0.0000 0.0000
# 3 91.4308 -17.1055 173.3791 0.0000 0.0000 0.0000
# 4 0.0000 0.0000 0.0000 -61.9847 0.0000 0.0000
# 5 0.0000 0.0000 0.0000 0.0000 31.1106 0.0000
# 6 0.0000 0.0000 0.0000 0.0000 0.0000 12.9288
#
#
#
# Elastic Compliance Matrix: (Units=1/GPa)
#
#
# Indices 1 2 3 4 5 6 
#
# 1 0.009553 0.000088 -0.005029 0.000000 0.000000 0.000000
# 2 0.000088 0.030055 0.002919 0.000000 0.000000 0.000000
# 3 -0.005029 0.002919 0.008708 0.000000 0.000000 0.000000
# 4 0.000000 0.000000 0.000000 -0.016133 0.000000 0.000000
# 5 0.000000 0.000000 0.000000 0.000000 0.032143 0.000000
# 6 0.000000 0.000000 0.000000 0.000000 0.000000 0.077347
#
#
# Mechanical properties :
#
#
# Convention : Reuss Voigt Hill
#
# Bulk Modulus (GPa) = 22.58787 54.58115 38.58451
# Shear Modulus (GPa) = 31.15767 16.16023 23.65895
#
# Velocity S-wave (km/s) = 3.80429 2.73978 3.31504
# Velocity P-wave (km/s) = 5.45791 5.94653 5.70745
#
# Compressibility (1/GPa) = 0.04427155
#
# Stress axis : x y z
#
# Youngs Moduli (GPa) = 104.67784 33.27241 114.84056
#
# Poissons Ratio (x) = -0.00294 0.57754
# Poissons Ratio (y) = -0.00925 -0.33518
# Poissons Ratio (z) = 0.52643 -0.09711
#
# Static dielectric constant tensor:
#      x y z
#    x 1.788330 0.000000 0.000000 
#    y 0.000000 1.842680 0.000000 
#    z 0.000000 0.000000 1.754890 
# 
# From -- ./inp_files/19278.got.cif
#   From: 2010.05.17/outbox.cif.g08.bks.cpg/sg59_10_cif.got.tgz:19278.got - 2010.06.03 14:40:33.
