data_PCOD9449250
_publ_section_title
;
Structure prediction by ZEFSAII (Michael W. Deem and Ramdas Pophale) SiO2 
 PCOD9449250
Probable space group: P M M N
;
_chemical_formula_sum "Si O2"
_cell_formula_units_Z 48
_cell_length_a 9.576533
_cell_length_b 10.057086
_cell_length_c 28.284464
_cell_angle_alpha 90.000000
_cell_angle_beta 90.000000
_cell_angle_gamma 90.000000
_cell_volume 2724.133748
_symmetry_space_group_name_H-M "P M M N"
_symmetry_group_IT_number 59
_space_group.IT_coordinate_system_code '2'
_symmetry_cell_setting 'orthorhombic'
loop_
_space_group_symop_operation_xyz
x,y,z
1/2-x,1/2-y,z
1/2+x,-y,-z
-x,1/2+y,-z
-x,-y,-z
1/2+x,1/2+y,-z
1/2-x,y,z
x,1/2-y,z
loop_
_atom_site_type_symbol
_atom_site_label
_atom_site_fract_x
_atom_site_fract_y
_atom_site_fract_z
Si Si1 0.414095 0.593497 0.299913
Si Si2 0.582973 0.900340 0.785852
Si Si3 0.579197 0.750000 0.571622
Si Si4 0.482325 0.592916 0.892299
Si Si5 0.417360 0.250000 0.538731
Si Si6 0.250000 0.092585 0.043822
Si Si7 0.079936 0.490729 0.607734
Si Si8 0.750000 0.911049 0.064471
O O1 0.250000 0.563513 0.312109
O O2 0.421659 0.750000 0.289447
O O3 0.452293 0.506260 0.254236
O O4 0.517924 0.560061 0.342657
O O5 0.750000 0.906765 0.793468
O O6 0.549762 0.750000 0.769522
O O7 0.513544 0.920696 0.836724
O O8 0.750000 0.750000 0.576604
O O9 0.540607 0.750000 0.515816
O O10 0.504945 0.622849 0.594688
O O11 0.442056 0.750000 0.900038
O O12 0.617179 0.564231 0.924185
O O13 0.377248 0.481389 0.909397
O O14 0.250000 0.250000 0.538410
O O15 0.457969 0.119516 0.568100
O O16 0.250000 0.250000 0.036910
O O17 0.250000 0.040313 0.990435
O O18 0.250000 0.506971 0.608886
O O19 0.750000 0.750000 0.067078
#
# Coordination Sequence:
#
# PCOD9449250 Si02
#       8
#     8   8   4   8   4   4   8   4
#     4  10  21  37  58  85 115 151 192 239 294 354
#     4   9  18  35  61  87 108 142 194 246 290 337
#     4  11  23  39  61  91 121 157 201 249 286 333
#     4  10  19  37  61  82 111 153 195 241 291 348
#     4   9  20  39  63  87 121 159 199 237 290 357
#     4   9  18  35  61  85 111 149 199 239 290 347
#     4  11  22  40  61  87 122 159 195 241 297 352
#     4  11  23  35  51  85 125 155 187 239 288 349
#
# _framework density 17.620279
#
# number of rings (size 3 to 8) (size 9 to 14) (size 15 to 20)
#    0.000    2.000    1.667    2.000    1.167    0.667 
#    1.500    3.750    0.000    0.000    0.000    0.000 
#    0.000    0.000    0.000    0.000    0.000    0.000 
#
# Total GULP energy -267543.552752 kJ/mol
# GULP energy per Si atom -5573.824016 kJ/mol
# Density = 1.758017 g / cm^3
# Si number density = 17.620279 Si / 1000 Ang^3
#
#
#
# Elastic Constant Matrix: (Units=GPa)
#
#
# Indices 1 2 3 4 5 6 
#
# 1 81.0560 60.6717 43.8483 0.0000 0.0000 0.0000
# 2 60.6717 127.7665 68.6899 0.0000 0.0000 0.0000
# 3 43.8483 68.6899 113.4459 0.0000 0.0000 0.0000
# 4 0.0000 0.0000 0.0000 33.2296 0.0000 0.0000
# 5 0.0000 0.0000 0.0000 0.0000 14.7199 0.0000
# 6 0.0000 0.0000 0.0000 0.0000 0.0000 26.4602
#
#
#
# Elastic Compliance Matrix: (Units=1/GPa)
#
#
# Indices 1 2 3 4 5 6 
#
# 1 0.019764 -0.007826 -0.002901 0.000000 0.000000 0.000000
# 2 -0.007826 0.014703 -0.005878 0.000000 0.000000 0.000000
# 3 -0.002901 -0.005878 0.013495 0.000000 0.000000 0.000000
# 4 0.000000 0.000000 0.000000 0.030094 0.000000 0.000000
# 5 0.000000 0.000000 0.000000 0.000000 0.067935 0.000000
# 6 0.000000 0.000000 0.000000 0.000000 0.000000 0.037793
#
#
# Mechanical properties :
#
#
# Convention : Reuss Voigt Hill
#
# Bulk Modulus (GPa) = 67.78037 74.29869 71.03953
# Shear Modulus (GPa) = 22.53178 24.81919 23.67549
#
# Velocity S-wave (km/s) = 3.57983 3.75715 3.66956
# Velocity P-wave (km/s) = 7.45907 7.81535 7.63928
#
# Compressibility (1/GPa) = 0.01475353
#
# Stress axis : x y z
#
# Youngs Moduli (GPa) = 50.59711 68.01390 74.10297
#
# Poissons Ratio (x) = 0.53226 0.21495
# Poissons Ratio (y) = 0.39596 0.43555
# Poissons Ratio (z) = 0.14676 0.39976
#
# Static dielectric constant tensor:
#      x y z
#    x 1.580200 0.000000 0.000000 
#    y 0.000000 1.597750 0.000000 
#    z 0.000000 0.000000 1.590580 
# 
# From -- ./inp_files/33115.got.cif
#   From: 2010.05.17/outbox.cif.g08.bks.cpg/sg59_17_cif.got.tgz:33115.got - 2010.06.03 14:40:33.
