data_PCOD9449464
_publ_section_title
;
Structure prediction by ZEFSAII (Michael W. Deem and Ramdas Pophale) SiO2 
 PCOD9449464
Probable space group: P M M N
;
_chemical_formula_sum "Si O2"
_cell_formula_units_Z 64
_cell_length_a 15.707805
_cell_length_b 8.956296
_cell_length_c 23.905790
_cell_angle_alpha 90.000000
_cell_angle_beta 90.000000
_cell_angle_gamma 90.000000
_cell_volume 3363.156210
_symmetry_space_group_name_H-M "P M M N"
_symmetry_group_IT_number 59
_space_group.IT_coordinate_system_code '2'
_symmetry_cell_setting 'orthorhombic'
loop_
_space_group_symop_operation_xyz
x,y,z
1/2-x,1/2-y,z
1/2+x,-y,-z
-x,1/2+y,-z
-x,-y,-z
1/2+x,1/2+y,-z
1/2-x,y,z
x,1/2-y,z
loop_
_atom_site_type_symbol
_atom_site_label
_atom_site_fract_x
_atom_site_fract_y
_atom_site_fract_z
Si Si1 0.152345 0.070832 0.919639
Si Si2 0.651405 0.418035 0.528040
Si Si3 0.848536 0.072226 0.957434
Si Si4 0.156060 0.071756 0.699792
Si Si5 0.599209 0.076905 0.411032
Si Si6 0.593419 0.919433 0.634656
Si Si7 0.983754 0.571147 0.873008
Si Si8 0.014677 0.429652 0.254644
O O1 0.250000 0.036884 0.901745
O O2 0.142155 0.250000 0.919112
O O3 0.077830 0.994284 0.884297
O O4 0.142525 0.008493 0.982700
O O5 0.750000 0.413402 0.511751
O O6 0.617537 0.250000 0.534898
O O7 0.605423 0.486265 0.473789
O O8 0.644794 0.494896 0.587750
O O9 0.750000 0.049928 0.939093
O O10 0.862461 0.250000 0.964074
O O11 0.916543 0.004134 0.914807
O O12 0.250000 0.030522 0.721478
O O13 0.147651 0.250000 0.701777
O O14 0.148414 0.015825 0.635770
O O15 0.077748 0.998232 0.732473
O O16 0.629791 0.250000 0.412035
O O17 0.502218 0.080962 0.390459
O O18 0.625020 0.750000 0.638673
O O19 0.580298 0.982015 0.697196
O O20 0.984671 0.750000 0.881333
O O21 0.959650 0.539105 0.808686
O O22 0.007619 0.250000 0.261587
#
# Coordination Sequence:
#
# PCOD9449464 Si02
#       8
#     8   8   8   8   8   8   8   8
#     4  10  21  37  58  86 121 156 186 220 267 324
#     4  10  20  32  48  73 101 128 160 200 252 312
#     4  10  21  38  60  86 116 149 187 230 275 325
#     4  10  20  32  49  76 106 134 168 213 262 310
#     4   9  18  33  52  72  97 130 165 201 248 312
#     4   9  18  34  53  71  93 125 167 210 251 297
#     4  11  22  37  59  84 112 147 188 234 278 323
#     4   9  21  39  55  73  99 137 182 218 255 311
#
# _framework density 19.029743
#
# number of rings (size 3 to 8) (size 9 to 14) (size 15 to 20)
#    0.000    2.250    0.000    3.375    0.000    7.250 
#    0.000    3.125    0.000    3.750    0.000    0.000 
#    0.000    0.000    0.000    0.000    0.000    0.000 
#
# Total GULP energy -356994.039980 kJ/mol
# GULP energy per Si atom -5578.031875 kJ/mol
# Density = 1.898643 g / cm^3
# Si number density = 19.029743 Si / 1000 Ang^3
#
#
#
# Elastic Constant Matrix: (Units=GPa)
#
#
# Indices 1 2 3 4 5 6 
#
# 1 29.3350 7.5732 13.4889 0.0000 0.0000 0.0000
# 2 7.5732 34.9930 14.2363 0.0000 0.0000 0.0000
# 3 13.4889 14.2363 76.0892 0.0000 0.0000 0.0000
# 4 0.0000 0.0000 0.0000 22.7090 0.0000 0.0000
# 5 0.0000 0.0000 0.0000 0.0000 10.3454 0.0000
# 6 0.0000 0.0000 0.0000 0.0000 0.0000 23.2666
#
#
#
# Elastic Compliance Matrix: (Units=1/GPa)
#
#
# Indices 1 2 3 4 5 6 
#
# 1 0.038233 -0.005972 -0.005661 0.000000 0.000000 0.000000
# 2 -0.005972 0.031864 -0.004903 0.000000 0.000000 0.000000
# 3 -0.005661 -0.004903 0.015063 0.000000 0.000000 0.000000
# 4 0.000000 0.000000 0.000000 0.044035 0.000000 0.000000
# 5 0.000000 0.000000 0.000000 0.000000 0.096661 0.000000
# 6 0.000000 0.000000 0.000000 0.000000 0.000000 0.042980
#
#
# Mechanical properties :
#
#
# Convention : Reuss Voigt Hill
#
# Bulk Modulus (GPa) = 19.19744 23.44601 21.32172
# Shear Modulus (GPa) = 15.66062 18.27211 16.96637
#
# Velocity S-wave (km/s) = 2.87183 3.10205 2.98916
# Velocity P-wave (km/s) = 4.59419 5.01774 4.81063
#
# Compressibility (1/GPa) = 0.05209029
#
# Stress axis : x y z
#
# Youngs Moduli (GPa) = 26.15509 31.38309 66.38626
#
# Poissons Ratio (x) = 0.18741 0.37579
# Poissons Ratio (y) = 0.15619 0.32551
# Poissons Ratio (z) = 0.14805 0.15388
#
# Static dielectric constant tensor:
#      x y z
#    x 1.664100 0.000000 0.000000 
#    y 0.000000 1.665020 0.000000 
#    z 0.000000 0.000000 1.674400 
# 
# From -- ./inp_files/32198.got.cif
#   From: 2010.05.17/outbox.cif.g08.bks.cpg/sg59_17_cif.got.tgz:32198.got - 2010.06.03 14:40:33.
