data_PCOD9449579
_publ_section_title
;
Structure prediction by ZEFSAII (Michael W. Deem and Ramdas Pophale) SiO2 
 PCOD9449579
Probable space group: P M M N
;
_chemical_formula_sum "Si O2"
_cell_formula_units_Z 56
_cell_length_a 7.658548
_cell_length_b 20.609342
_cell_length_c 17.966511
_cell_angle_alpha 90.000000
_cell_angle_beta 90.000000
_cell_angle_gamma 90.000000
_cell_volume 2835.791605
_symmetry_space_group_name_H-M "P M M N"
_symmetry_group_IT_number 59
_space_group.IT_coordinate_system_code '2'
_symmetry_cell_setting 'orthorhombic'
loop_
_space_group_symop_operation_xyz
x,y,z
1/2-x,1/2-y,z
1/2+x,-y,-z
-x,1/2+y,-z
-x,-y,-z
1/2+x,1/2+y,-z
1/2-x,y,z
x,1/2-y,z
loop_
_atom_site_type_symbol
_atom_site_label
_atom_site_fract_x
_atom_site_fract_y
_atom_site_fract_z
Si Si1 0.040092 0.822716 0.448952
Si Si2 0.035744 0.939967 0.724458
Si Si3 0.457209 0.902695 0.046389
Si Si4 0.459171 0.821881 0.181196
Si Si5 0.461733 0.545484 0.893572
Si Si6 0.544043 0.917510 0.315846
Si Si7 0.536774 0.176580 0.380877
O O1 0.250000 0.819762 0.450553
O O2 0.978533 0.750000 0.426436
O O3 0.981218 0.835257 0.533601
O O4 0.994595 0.878562 0.391090
O O5 0.250000 0.939262 0.723668
O O6 0.981397 0.936050 0.810830
O O7 0.977429 0.879445 0.674710
O O8 0.974091 0.009308 0.691966
O O9 0.250000 0.891275 0.039718
O O10 0.529981 0.849627 0.103181
O O11 0.483193 0.972365 0.085934
O O12 0.525588 0.910235 0.962318
O O13 0.250000 0.817554 0.173879
O O14 0.526292 0.750000 0.198856
O O15 0.489388 0.872745 0.246850
O O16 0.250000 0.546175 0.894158
O O17 0.750000 0.924154 0.310429
O O18 0.750000 0.175793 0.380751
O O19 0.483977 0.250000 0.360354
#
# Coordination Sequence:
#
# PCOD9449579 Si02
#       7
#     8   8   8   8   8   8   8
#     4   9  18  33  51  69  92 125 163 198 231 278
#     4   9  17  29  46  71 100 123 151 197 242 279
#     4   9  17  29  47  68  90 123 163 193 227 277
#     4  10  20  33  47  66  97 132 165 202 238 277
#     4   9  16  29  48  69  95 123 150 190 238 278
#     4  11  21  31  46  71 100 127 157 196 242 288
#     4   8  15  30  51  71  92 123 159 192 236 292
#
# _framework density 19.747574
#
# number of rings (size 3 to 8) (size 9 to 14) (size 15 to 20)
#    0.000    2.714    1.429    1.714    0.000    2.857 
#    0.000    0.714    0.000    6.000    0.000    0.000 
#    0.000    1.143    0.000    0.000    0.000    0.000 
#
# Total GULP energy -312288.777680 kJ/mol
# GULP energy per Si atom -5576.585316 kJ/mol
# Density = 1.970263 g / cm^3
# Si number density = 19.747574 Si / 1000 Ang^3
#
#
#
# Elastic Constant Matrix: (Units=GPa)
#
#
# Indices 1 2 3 4 5 6 
#
# 1 34.2878 3.3182 1.3803 0.0000 0.0000 0.0000
# 2 3.3182 159.5766 117.6217 0.0000 0.0000 0.0000
# 3 1.3803 117.6217 150.1462 0.0000 0.0000 0.0000
# 4 0.0000 0.0000 0.0000 28.0655 0.0000 0.0000
# 5 0.0000 0.0000 0.0000 0.0000 3.9682 0.0000
# 6 0.0000 0.0000 0.0000 0.0000 0.0000 10.9501
#
#
#
# Elastic Compliance Matrix: (Units=1/GPa)
#
#
# Indices 1 2 3 4 5 6 
#
# 1 0.029239 -0.000970 0.000491 0.000000 0.000000 0.000000
# 2 -0.000970 0.014861 -0.011633 0.000000 0.000000 0.000000
# 3 0.000491 -0.011633 0.015769 0.000000 0.000000 0.000000
# 4 0.000000 0.000000 0.000000 0.035631 0.000000 0.000000
# 5 0.000000 0.000000 0.000000 0.000000 0.252002 0.000000
# 6 0.000000 0.000000 0.000000 0.000000 0.000000 0.091323
#
#
# Mechanical properties :
#
#
# Convention : Reuss Voigt Hill
#
# Bulk Modulus (GPa) = 28.05436 65.40566 46.73001
# Shear Modulus (GPa) = 10.52784 23.37614 16.95199
#
# Velocity S-wave (km/s) = 2.31145 3.44430 2.93308
# Velocity P-wave (km/s) = 4.62180 7.00074 5.93175
#
# Compressibility (1/GPa) = 0.03564509
#
# Stress axis : x y z
#
# Youngs Moduli (GPa) = 34.20088 67.28803 63.41574
#
# Poissons Ratio (x) = 0.06526 -0.03114
# Poissons Ratio (y) = 0.03317 0.73773
# Poissons Ratio (z) = -0.01679 0.78278
#
# Static dielectric constant tensor:
#      x y z
#    x 1.538860 0.000000 0.000000 
#    y 0.000000 1.693320 0.000000 
#    z 0.000000 0.000000 1.705500 
# 
# From -- ./inp_files/26130.got.cif
#   From: 2010.05.17/outbox.cif.g08.bks.cpg/sg59_14_cif.got.tgz:26130.got - 2010.06.03 14:40:33.
