data_PCOD9449240
_publ_section_title
;
Structure prediction by ZEFSAII (Michael W. Deem and Ramdas Pophale) SiO2 
 PCOD9449240
Probable space group: P M M N
;
_chemical_formula_sum "Si O2"
_cell_formula_units_Z 56
_cell_length_a 22.378553
_cell_length_b 14.454971
_cell_length_c 8.569549
_cell_angle_alpha 90.000000
_cell_angle_beta 90.000000
_cell_angle_gamma 90.000000
_cell_volume 2772.089148
_symmetry_space_group_name_H-M "P M M N"
_symmetry_group_IT_number 59
_space_group.IT_coordinate_system_code '2'
_symmetry_cell_setting 'orthorhombic'
loop_
_space_group_symop_operation_xyz
x,y,z
1/2-x,1/2-y,z
1/2+x,-y,-z
-x,1/2+y,-z
-x,-y,-z
1/2+x,1/2+y,-z
1/2-x,y,z
x,1/2-y,z
loop_
_atom_site_type_symbol
_atom_site_label
_atom_site_fract_x
_atom_site_fract_y
_atom_site_fract_z
Si Si1 0.181753 0.854855 0.009188
Si Si2 0.181045 0.145471 0.492387
Si Si3 0.032064 0.098150 0.038600
Si Si4 0.551802 0.350648 0.585182
Si Si5 0.427724 0.393724 0.706452
Si Si6 0.922149 0.386397 0.237840
Si Si7 0.370573 0.004143 0.242069
O O1 0.250000 0.864603 0.954216
O O2 0.175598 0.750000 0.074416
O O3 0.168072 0.935305 0.134163
O O4 0.134596 0.864316 0.868857
O O5 0.250000 0.133646 0.540679
O O6 0.175002 0.250000 0.426075
O O7 0.134662 0.138431 0.635501
O O8 0.163976 0.065940 0.368354
O O9 0.981524 0.144352 0.144581
O O10 0.090957 0.073194 0.135037
O O11 0.050717 0.142957 0.874968
O O12 0.000000 0.000000 0.000000
O O13 0.562055 0.250000 0.660244
O O14 0.480860 0.369951 0.586576
O O15 0.576878 0.347640 0.411129
O O16 0.582794 0.434817 0.674435
O O17 0.423890 0.503434 0.732742
#
# Coordination Sequence:
#
# PCOD9449240 Si02
#       7
#     8   8   8   8   8   8   8
#     4  11  24  41  62  92 131 174 215 257 314 384
#     4  11  26  46  66  91 125 169 222 275 322 373
#     4  10  19  36  67  90 119 161 202 257 316 379
#     4  12  23  36  64 100 132 166 204 258 326 389
#     4  11  20  41  65  91 125 164 212 258 322 379
#     4  11  20  40  63  90 131 168 208 263 310 377
#     4  12  21  43  68  91 127 166 212 264 321 384
#
# _framework density 20.201370000000001
#
# number of rings (size 3 to 8) (size 9 to 14) (size 15 to 20)
#    0.000    0.857    7.143    3.000    0.000    0.571 
#    0.000    4.286    0.000    4.286    0.000    0.000 
#    0.000    0.000    0.000    0.000    0.000    0.000 
#
# Total GULP energy -312750.734415 kJ/mol
# GULP energy per Si atom -5584.834543 kJ/mol
# Density = 2.015539 g / cm^3
# Si number density = 20.201370 Si / 1000 Ang^3
#
#
#
# Elastic Constant Matrix: (Units=GPa)
#
#
# Indices 1 2 3 4 5 6 
#
# 1 124.4424 43.4184 44.1076 0.0000 0.0000 0.0000
# 2 43.4184 110.7373 20.9444 0.0000 0.0000 0.0000
# 3 44.1076 20.9444 87.9770 0.0000 0.0000 0.0000
# 4 0.0000 0.0000 0.0000 -10.2588 0.0000 0.0000
# 5 0.0000 0.0000 0.0000 0.0000 23.4588 0.0000
# 6 0.0000 0.0000 0.0000 0.0000 0.0000 137.5864
#
#
#
# Elastic Compliance Matrix: (Units=1/GPa)
#
#
# Indices 1 2 3 4 5 6 
#
# 1 0.010860 -0.003380 -0.004640 0.000000 0.000000 0.000000
# 2 -0.003380 0.010508 -0.000807 0.000000 0.000000 0.000000
# 3 -0.004640 -0.000807 0.013885 0.000000 0.000000 0.000000
# 4 0.000000 0.000000 0.000000 -0.097477 0.000000 0.000000
# 5 0.000000 0.000000 0.000000 0.000000 0.042628 0.000000
# 6 0.000000 0.000000 0.000000 0.000000 0.000000 0.007268
#
#
# Mechanical properties :
#
#
# Convention : Reuss Voigt Hill
#
# Bulk Modulus (GPa) = 56.82209 60.01082 58.41646
# Shear Modulus (GPa) = 446.70333 44.46969 245.58651
#
# Velocity S-wave (km/s) = 14.88641 4.69691 11.03781
# Velocity P-wave (km/s) = 17.99063 7.69321 13.83561
#
# Compressibility (1/GPa) = 0.01759879
#
# Stress axis : x y z
#
# Youngs Moduli (GPa) = 92.08238 95.16188 72.02056
#
# Poissons Ratio (x) = 0.32169 0.33417
# Poissons Ratio (y) = 0.31128 0.05812
# Poissons Ratio (z) = 0.42725 0.07679
#
# Static dielectric constant tensor:
#      x y z
#    x 1.696250 0.000000 0.000000 
#    y 0.000000 0.751160 0.000000 
#    z 0.000000 0.000000 1.722010 
# 
# From -- ./inp_files/11437.got.cif
#   From: 2010.05.17/outbox.cif.g08.bks.cpg/sg59_6_cif.got.tgz:11437.got - 2010.06.03 14:40:33.
