data_PCOD9449139
_publ_section_title
;
Structure prediction by ZEFSAII (Michael W. Deem and Ramdas Pophale) SiO2 
 PCOD9449139
Probable space group: P M M N
;
_chemical_formula_sum "Si O2"
_cell_formula_units_Z 64
_cell_length_a 22.387393
_cell_length_b 8.224561
_cell_length_c 15.585875
_cell_angle_alpha 90.000000
_cell_angle_beta 90.000000
_cell_angle_gamma 90.000000
_cell_volume 2869.772291
_symmetry_space_group_name_H-M "P M M N"
_symmetry_group_IT_number 59
_space_group.IT_coordinate_system_code '2'
_symmetry_cell_setting 'orthorhombic'
loop_
_space_group_symop_operation_xyz
x,y,z
1/2-x,1/2-y,z
1/2+x,-y,-z
-x,1/2+y,-z
-x,-y,-z
1/2+x,1/2+y,-z
1/2-x,y,z
x,1/2-y,z
loop_
_atom_site_type_symbol
_atom_site_label
_atom_site_fract_x
_atom_site_fract_y
_atom_site_fract_z
Si Si1 0.373105 0.944969 0.926468
Si Si2 0.313741 0.439670 0.465446
Si Si3 0.374938 0.057804 0.107349
Si Si4 0.152155 0.937420 0.288958
Si Si5 0.006269 0.440209 0.851729
Si Si6 0.477875 0.438949 0.326326
Si Si7 0.906199 0.055896 0.404525
Si Si8 0.682358 0.051570 0.255088
O O1 0.373936 0.750000 0.930024
O O2 0.338175 0.995754 0.840431
O O3 0.440479 0.010092 0.914237
O O4 0.347734 0.011501 0.015791
O O5 0.250000 0.508554 0.497334
O O6 0.315816 0.250000 0.485858
O O7 0.316155 0.463679 0.363661
O O8 0.370999 0.519671 0.508922
O O9 0.383765 0.250000 0.113635
O O10 0.340301 0.999591 0.192144
O O11 0.440264 0.973845 0.112215
O O12 0.169129 0.750000 0.294877
O O13 0.081867 0.959911 0.311631
O O14 0.011388 0.250000 0.830436
O O15 0.011401 0.547616 0.765498
O O16 0.461557 0.250000 0.342914
O O17 0.526007 0.504270 0.394217
O O18 0.911228 0.250000 0.394318
O O19 0.863651 0.993240 0.327676
O O20 0.750000 0.998043 0.272241
O O21 0.681741 0.250000 0.257642
#
# Coordination Sequence:
#
# PCOD9449139 Si02
#       8
#     8   8   8   8   8   8   8   8
#     4  11  20  34  54  81 116 155 200 245 292 348
#     4  11  25  44  65  90 119 154 197 248 302 353
#     4  11  22  37  57  83 116 153 194 243 297 352
#     4  11  23  41  64  90 119 156 198 247 300 358
#     4  11  20  32  52  82 118 156 195 239 290 350
#     4  10  19  35  59  90 125 161 194 238 297 356
#     4  10  20  37  63  92 121 156 198 242 294 355
#     4   9  18  34  57  84 116 155 199 246 292 343
#
# _framework density 22.301421000000001
#
# number of rings (size 3 to 8) (size 9 to 14) (size 15 to 20)
#    0.000    1.500    1.250    6.750    0.000    3.000 
#    0.000    0.625    0.000    4.500    0.000    0.000 
#    0.000    0.000    0.000    0.000    0.000    0.000 
#
# Total GULP energy -357803.403398 kJ/mol
# GULP energy per Si atom -5590.678178 kJ/mol
# Density = 2.225066 g / cm^3
# Si number density = 22.301421 Si / 1000 Ang^3
#
#
#
# Elastic Constant Matrix: (Units=GPa)
#
#
# Indices 1 2 3 4 5 6 
#
# 1 28.5480 -2.9238 9.2523 0.0000 0.0000 0.0000
# 2 -2.9238 49.2673 -14.7466 0.0000 0.0000 0.0000
# 3 9.2523 -14.7466 93.1797 0.0000 0.0000 0.0000
# 4 0.0000 0.0000 0.0000 29.5958 0.0000 0.0000
# 5 0.0000 0.0000 0.0000 0.0000 7.0810 0.0000
# 6 0.0000 0.0000 0.0000 0.0000 0.0000 7.3831
#
#
#
# Elastic Compliance Matrix: (Units=1/GPa)
#
#
# Indices 1 2 3 4 5 6 
#
# 1 0.036253 0.001127 -0.003421 0.000000 0.000000 0.000000
# 2 0.001127 0.021342 0.003266 0.000000 0.000000 0.000000
# 3 -0.003421 0.003266 0.011588 0.000000 0.000000 0.000000
# 4 0.000000 0.000000 0.000000 0.033789 0.000000 0.000000
# 5 0.000000 0.000000 0.000000 0.000000 0.141224 0.000000
# 6 0.000000 0.000000 0.000000 0.000000 0.000000 0.135444
#
#
# Mechanical properties :
#
#
# Convention : Reuss Voigt Hill
#
# Bulk Modulus (GPa) = 14.05942 17.12876 15.59409
# Shear Modulus (GPa) = 12.45624 20.77286 16.61455
#
# Velocity S-wave (km/s) = 2.36591 3.05529 2.73243
# Velocity P-wave (km/s) = 3.71232 4.48817 4.11855
#
# Compressibility (1/GPa) = 0.07112667
#
# Stress axis : x y z
#
# Youngs Moduli (GPa) = 27.58386 46.85644 86.29254
#
# Poissons Ratio (x) = -0.05283 0.29524
# Poissons Ratio (y) = -0.03110 -0.28180
# Poissons Ratio (z) = 0.09437 -0.15301
#
# Static dielectric constant tensor:
#      x y z
#    x 2.300910 0.000000 0.000000 
#    y 0.000000 1.788730 0.000000 
#    z 0.000000 0.000000 1.851540 
# 
# From -- ./inp_files/24759.got.cif
#   From: 2010.05.17/outbox.cif.g08.bks.cpg/sg59_13_cif.got.tgz:24759.got - 2010.06.03 14:40:33.
