data_PCOD9449775
_publ_section_title
;
Structure prediction by ZEFSAII (Michael W. Deem and Ramdas Pophale) SiO2 
 PCOD9449775
Probable space group: P M M N
;
_chemical_formula_sum "Si O2"
_cell_formula_units_Z 64
_cell_length_a 24.647948
_cell_length_b 8.838684
_cell_length_c 16.623321
_cell_angle_alpha 90.000000
_cell_angle_beta 90.000000
_cell_angle_gamma 90.000000
_cell_volume 3621.480638
_symmetry_space_group_name_H-M "P M M N"
_symmetry_group_IT_number 59
_space_group.IT_coordinate_system_code '2'
_symmetry_cell_setting 'orthorhombic'
loop_
_space_group_symop_operation_xyz
x,y,z
1/2-x,1/2-y,z
1/2+x,-y,-z
-x,1/2+y,-z
-x,-y,-z
1/2+x,1/2+y,-z
1/2-x,y,z
x,1/2-y,z
loop_
_atom_site_type_symbol
_atom_site_label
_atom_site_fract_x
_atom_site_fract_y
_atom_site_fract_z
Si Si1 0.621450 0.431665 0.118552
Si Si2 0.812255 0.568876 0.977952
Si Si3 0.394068 0.571058 0.620846
Si Si4 0.082191 0.569084 0.296624
Si Si5 0.188730 0.568331 0.199026
Si Si6 0.023996 0.930914 0.769132
Si Si7 0.314293 0.075251 0.735828
Si Si8 0.443570 0.070581 0.469729
O O1 0.625041 0.250000 0.119834
O O2 0.561872 0.471570 0.154393
O O3 0.662546 0.503019 0.183071
O O4 0.641956 0.494300 0.033727
O O5 0.750000 0.527195 0.003432
O O6 0.816384 0.750000 0.982725
O O7 0.818222 0.513099 0.886548
O O8 0.396341 0.750000 0.605039
O O9 0.440458 0.536802 0.688310
O O10 0.338980 0.521691 0.663658
O O11 0.402653 0.478788 0.539786
O O12 0.080160 0.750000 0.304697
O O13 0.140196 0.525895 0.258743
O O14 0.072677 0.495144 0.383501
O O15 0.032848 0.514773 0.239771
O O16 0.250000 0.534404 0.228552
O O17 0.185596 0.750000 0.186341
O O18 0.015138 0.750000 0.770816
O O19 0.250000 0.072435 0.736326
O O20 0.332703 0.250000 0.729542
O O21 0.448980 0.250000 0.464027
O O22 0.500000 0.000000 0.500000
#
# Coordination Sequence:
#
# PCOD9449775 Si02
#       8
#     8   8   8   8   8   8   8   8
#     4  10  20  33  52  78 110 147 188 228 272 328
#     4  10  20  34  55  83 111 141 183 233 281 327
#     4  10  20  35  54  78 108 143 184 227 272 323
#     4  11  22  36  59  86 110 142 183 226 278 336
#     4   9  20  40  62  83 109 142 182 227 275 330
#     4   9  19  34  52  77 111 146 180 223 272 325
#     4  10  20  33  50  75 110 149 186 226 274 327
#     4  12  23  36  57  83 112 143 180 227 273 325
#
# _framework density 17.672331
#
# number of rings (size 3 to 8) (size 9 to 14) (size 15 to 20)
#    0.000    1.875    1.250    4.125    0.000    6.750 
#    0.000    1.250    0.000    2.250    0.000    0.000 
#    0.000    0.000    0.000    0.000    0.000    0.000 
#
# Total GULP energy -357208.498576 kJ/mol
# GULP energy per Si atom -5581.382790 kJ/mol
# Density = 1.763211 g / cm^3
# Si number density = 17.672331 Si / 1000 Ang^3
#
#
#
# Elastic Constant Matrix: (Units=GPa)
#
#
# Indices 1 2 3 4 5 6 
#
# 1 110.1641 52.7379 61.9351 0.0000 0.0000 0.0000
# 2 52.7379 68.5416 39.2869 0.0000 0.0000 0.0000
# 3 61.9351 39.2869 87.3104 0.0000 0.0000 0.0000
# 4 0.0000 0.0000 0.0000 28.9792 0.0000 0.0000
# 5 0.0000 0.0000 0.0000 0.0000 21.3877 0.0000
# 6 0.0000 0.0000 0.0000 0.0000 0.0000 23.8753
#
#
#
# Elastic Compliance Matrix: (Units=1/GPa)
#
#
# Indices 1 2 3 4 5 6 
#
# 1 0.018494 -0.009043 -0.009050 0.000000 0.000000 0.000000
# 2 -0.009043 0.024082 -0.004421 0.000000 0.000000 0.000000
# 3 -0.009050 -0.004421 0.019863 0.000000 0.000000 0.000000
# 4 0.000000 0.000000 0.000000 0.034507 0.000000 0.000000
# 5 0.000000 0.000000 0.000000 0.000000 0.046756 0.000000
# 6 0.000000 0.000000 0.000000 0.000000 0.000000 0.041884
#
#
# Mechanical properties :
#
#
# Convention : Reuss Voigt Hill
#
# Bulk Modulus (GPa) = 57.43810 63.77066 60.60438
# Shear Modulus (GPa) = 21.14886 22.31885 21.73386
#
# Velocity S-wave (km/s) = 3.46312 3.55762 3.51069
# Velocity P-wave (km/s) = 6.96873 7.28278 7.12749
#
# Compressibility (1/GPa) = 0.01741005
#
# Stress axis : x y z
#
# Youngs Moduli (GPa) = 54.07014 41.52543 50.34483
#
# Poissons Ratio (x) = 0.37550 0.45565
# Poissons Ratio (y) = 0.48893 0.22260
# Poissons Ratio (z) = 0.48936 0.18360
#
# Static dielectric constant tensor:
#      x y z
#    x 1.616960 0.000000 0.000000 
#    y 0.000000 1.591820 0.000000 
#    z 0.000000 0.000000 1.611500 
# 
# From -- ./inp_files/24775.got.cif
#   From: 2010.05.17/outbox.cif.g08.bks.cpg/sg59_13_cif.got.tgz:24775.got - 2010.06.03 14:40:33.
