data_PCOD9449847
_publ_section_title
;
Structure prediction by ZEFSAII (Michael W. Deem and Ramdas Pophale) SiO2 
 PCOD9449847
Probable space group: P M M N
;
_chemical_formula_sum "Si O2"
_cell_formula_units_Z 64
_cell_length_a 8.940154
_cell_length_b 14.823596
_cell_length_c 27.054889
_cell_angle_alpha 90.000000
_cell_angle_beta 90.000000
_cell_angle_gamma 90.000000
_cell_volume 3585.455416
_symmetry_space_group_name_H-M "P M M N"
_symmetry_group_IT_number 59
_space_group.IT_coordinate_system_code '2'
_symmetry_cell_setting 'orthorhombic'
loop_
_space_group_symop_operation_xyz
x,y,z
1/2-x,1/2-y,z
1/2+x,-y,-z
-x,1/2+y,-z
-x,-y,-z
1/2+x,1/2+y,-z
1/2-x,y,z
x,1/2-y,z
loop_
_atom_site_type_symbol
_atom_site_label
_atom_site_fract_x
_atom_site_fract_y
_atom_site_fract_z
Si Si1 0.074380 0.857917 0.127680
Si Si2 0.070202 0.353724 0.236534
Si Si3 0.930420 0.011474 0.576192
Si Si4 0.074784 0.357864 0.768066
Si Si5 0.070744 0.494595 0.946062
Si Si6 0.429607 0.645732 0.867747
Si Si7 0.430484 0.354450 0.498702
Si Si8 0.069404 0.988317 0.309541
O O1 0.250000 0.880048 0.126158
O O2 0.057961 0.750000 0.122735
O O3 0.006929 0.883925 0.180949
O O4 0.988764 0.908986 0.084341
O O5 0.250000 0.355866 0.232176
O O6 0.024499 0.250000 0.245576
O O7 0.027150 0.420178 0.280651
O O8 0.000971 0.382821 0.184275
O O9 0.750000 0.019135 0.574147
O O10 0.971234 0.918466 0.547853
O O11 0.976567 0.010852 0.633316
O O12 0.001074 0.094172 0.545853
O O13 0.250000 0.380066 0.771985
O O14 0.060010 0.250000 0.762618
O O15 0.002003 0.408046 0.721915
O O16 0.250000 0.492179 0.949728
O O17 0.027021 0.580836 0.912487
O O18 0.000000 0.500000 0.000000
O O19 0.250000 0.641899 0.862895
O O20 0.472675 0.750000 0.876733
O O21 0.250000 0.355307 0.502537
O O22 0.478017 0.250000 0.494337
O O23 0.250000 0.980603 0.307976
#
# Coordination Sequence:
#
# PCOD9449847 Si02
#       8
#     8   8   8   8   8   8   8   8
#     4  10  21  38  59  80 105 139 177 219 267 317
#     4   9  18  32  51  76 103 131 165 204 247 298
#     4   9  19  34  51  75 104 134 171 213 258 308
#     4  10  21  36  54  77 105 138 175 213 256 309
#     4  11  23  37  55  80 108 139 176 219 267 317
#     4   9  19  36  55  74 100 135 171 206 249 304
#     4   9  18  34  55  75  98 133 175 217 261 308
#     4  10  20  33  51  76 107 139 169 208 257 307
#
# _framework density 17.849893000000002
#
# number of rings (size 3 to 8) (size 9 to 14) (size 15 to 20)
#    0.000    2.375    0.000    1.875    0.000    7.250 
#    0.000    6.250    0.000    0.000    0.000    3.500 
#    0.000    0.000    0.000    0.000    0.000    0.000 
#
# Total GULP energy -357206.955717 kJ/mol
# GULP energy per Si atom -5581.358683 kJ/mol
# Density = 1.780927 g / cm^3
# Si number density = 17.849893 Si / 1000 Ang^3
#
#
#
# Elastic Constant Matrix: (Units=GPa)
#
#
# Indices 1 2 3 4 5 6 
#
# 1 36.1668 40.3496 53.9887 0.0000 0.0000 0.0000
# 2 40.3496 89.9343 70.5227 0.0000 0.0000 0.0000
# 3 53.9887 70.5227 179.5743 0.0000 0.0000 0.0000
# 4 0.0000 0.0000 0.0000 -298.7475 0.0000 0.0000
# 5 0.0000 0.0000 0.0000 0.0000 30.7941 0.0000
# 6 0.0000 0.0000 0.0000 0.0000 0.0000 25.7665
#
#
#
# Elastic Compliance Matrix: (Units=1/GPa)
#
#
# Indices 1 2 3 4 5 6 
#
# 1 0.071201 -0.021904 -0.012804 0.000000 0.000000 0.000000
# 2 -0.021904 0.022806 -0.002371 0.000000 0.000000 0.000000
# 3 -0.012804 -0.002371 0.010349 0.000000 0.000000 0.000000
# 4 0.000000 0.000000 0.000000 -0.003347 0.000000 0.000000
# 5 0.000000 0.000000 0.000000 0.000000 0.032474 0.000000
# 6 0.000000 0.000000 0.000000 0.000000 0.000000 0.038810
#
#
# Mechanical properties :
#
#
# Convention : Reuss Voigt Hill
#
# Bulk Modulus (GPa) = 33.11522 70.59971 51.85746
# Shear Modulus (GPa) = 19.49186 -39.04977 -9.77895
#
# Velocity S-wave (km/s) = 3.30811 -4.68233 -2.34315
# Velocity P-wave (km/s) = 5.76054 3.22575 4.66847
#
# Compressibility (1/GPa) = 0.03019759
#
# Stress axis : x y z
#
# Youngs Moduli (GPa) = 14.04474 43.84844 96.62414
#
# Poissons Ratio (x) = 0.96047 1.23720
# Poissons Ratio (y) = 0.30764 0.22908
# Poissons Ratio (z) = 0.17983 0.10396
#
# Static dielectric constant tensor:
#      x y z
#    x 1.599520 0.000000 0.000000 
#    y 0.000000 1.618610 0.000000 
#    z 0.000000 0.000000 1.573830 
# 
# From -- ./inp_files/31690.got.cif
#   From: 2010.05.17/outbox.cif.g08.bks.cpg/sg59_16_cif.got.tgz:31690.got - 2010.06.03 14:40:33.
