data_PCOD9449894
_publ_section_title
;
Structure prediction by ZEFSAII (Michael W. Deem and Ramdas Pophale) SiO2 
 PCOD9449894
Probable space group: P M M N
;
_chemical_formula_sum "Si O2"
_cell_formula_units_Z 64
_cell_length_a 14.709022
_cell_length_b 7.710746
_cell_length_c 26.993501
_cell_angle_alpha 90.000000
_cell_angle_beta 90.000000
_cell_angle_gamma 90.000000
_cell_volume 3061.536278
_symmetry_space_group_name_H-M "P M M N"
_symmetry_group_IT_number 59
_space_group.IT_coordinate_system_code '2'
_symmetry_cell_setting 'orthorhombic'
loop_
_space_group_symop_operation_xyz
x,y,z
1/2-x,1/2-y,z
1/2+x,-y,-z
-x,1/2+y,-z
-x,-y,-z
1/2+x,1/2+y,-z
1/2-x,y,z
x,1/2-y,z
loop_
_atom_site_type_symbol
_atom_site_label
_atom_site_fract_x
_atom_site_fract_y
_atom_site_fract_z
Si Si1 0.147593 0.956605 0.139599
Si Si2 0.038983 0.044911 0.430755
Si Si3 0.452945 0.537356 0.237663
Si Si4 0.848598 0.951488 0.238493
Si Si5 0.852210 0.046279 0.473431
Si Si6 0.351519 0.959269 0.335144
Si Si7 0.013726 0.044078 0.057113
Si Si8 0.150270 0.540660 0.875826
O O1 0.250000 0.026426 0.143500
O O2 0.152700 0.750000 0.147044
O O3 0.081929 0.022760 0.183757
O O4 0.103868 0.985684 0.085837
O O5 0.036532 0.250000 0.440804
O O6 0.937075 0.974690 0.441229
O O7 0.110228 0.968696 0.470450
O O8 0.076405 0.014817 0.376202
O O9 0.458073 0.750000 0.236111
O O10 0.553560 0.473422 0.252834
O O11 0.382510 0.488106 0.280309
O O12 0.750000 0.028804 0.252923
O O13 0.846977 0.750000 0.253888
O O14 0.853036 0.960532 0.178690
O O15 0.750000 0.972308 0.468412
O O16 0.845182 0.250000 0.461393
O O17 0.250000 0.022787 0.346800
O O18 0.349498 0.750000 0.335652
O O19 0.011595 0.250000 0.060836
O O20 0.929433 0.974738 0.089425
O O21 0.000000 0.000000 0.000000
O O22 0.250000 0.504661 0.897361
O O23 0.142831 0.750000 0.869805
#
# Coordination Sequence:
#
# PCOD9449894 Si02
#       8
#     8   8   8   8   8   8   8   8
#     4  10  20  36  58  80 104 137 176 217 262 312
#     4  10  20  33  51  78 109 138 175 227 275 312
#     4   9  17  32  54  78 104 136 177 216 254 309
#     4   9  16  28  51  79 101 123 158 207 256 299
#     4   9  18  34  55  76 102 141 183 219 264 326
#     4  10  20  34  52  74 104 145 186 219 258 314
#     4  11  23  37  54  77 106 137 170 211 260 314
#     4   9  18  33  52  73  97 126 160 199 246 301
#
# _framework density 20.904539
#
# number of rings (size 3 to 8) (size 9 to 14) (size 15 to 20)
#    0.000    2.375    1.250    1.500    0.000    5.250 
#    0.000    3.125    0.000    2.250    0.000    0.000 
#    0.000    0.000    0.000    0.000    0.000    0.000 
#
# Total GULP energy -356941.191849 kJ/mol
# GULP energy per Si atom -5577.206123 kJ/mol
# Density = 2.085696 g / cm^3
# Si number density = 20.904539 Si / 1000 Ang^3
#
#
#
# Elastic Constant Matrix: (Units=GPa)
#
#
# Indices 1 2 3 4 5 6 
#
# 1 155.0230 8.9445 31.4868 0.0000 0.0000 0.0000
# 2 8.9445 34.8927 -7.7431 0.0000 0.0000 0.0000
# 3 31.4868 -7.7431 70.4791 0.0000 0.0000 0.0000
# 4 0.0000 0.0000 0.0000 14.8934 0.0000 0.0000
# 5 0.0000 0.0000 0.0000 0.0000 20.6995 0.0000
# 6 0.0000 0.0000 0.0000 0.0000 0.0000 11.3795
#
#
#
# Elastic Compliance Matrix: (Units=1/GPa)
#
#
# Indices 1 2 3 4 5 6 
#
# 1 0.007329 -0.002671 -0.003568 0.000000 0.000000 0.000000
# 2 -0.002671 0.030349 0.004527 0.000000 0.000000 0.000000
# 3 -0.003568 0.004527 0.016280 0.000000 0.000000 0.000000
# 4 0.000000 0.000000 0.000000 0.067144 0.000000 0.000000
# 5 0.000000 0.000000 0.000000 0.000000 0.048310 0.000000
# 6 0.000000 0.000000 0.000000 0.000000 0.000000 0.087877
#
#
# Mechanical properties :
#
#
# Convention : Reuss Voigt Hill
#
# Bulk Modulus (GPa) = 19.78805 36.19682 27.99243
# Shear Modulus (GPa) = 18.01431 24.57490 21.29460
#
# Velocity S-wave (km/s) = 2.93873 3.43239 3.19511
# Velocity P-wave (km/s) = 4.58272 5.74989 5.19916
#
# Compressibility (1/GPa) = 0.05053556
#
# Stress axis : x y z
#
# Youngs Moduli (GPa) = 136.43661 32.95055 61.42533
#
# Poissons Ratio (x) = 0.08800 0.21916
# Poissons Ratio (y) = 0.36437 -0.27809
# Poissons Ratio (z) = 0.48678 -0.14918
#
# Static dielectric constant tensor:
#      x y z
#    x 1.809760 0.000000 0.000000 
#    y 0.000000 1.823510 0.000000 
#    z 0.000000 0.000000 1.800090 
# 
# From -- ./inp_files/32222.got.cif
#   From: 2010.05.17/outbox.cif.g08.bks.cpg/sg59_17_cif.got.tgz:32222.got - 2010.06.03 14:40:33.
