data_PCOD9449025
_publ_section_title
;
Structure prediction by ZEFSAII (Michael W. Deem and Ramdas Pophale) SiO2 
 PCOD9449025
Probable space group: P M M N
;
_chemical_formula_sum "Si O2"
_cell_formula_units_Z 34
_cell_length_a 29.846746
_cell_length_b 7.392428
_cell_length_c 6.951183
_cell_angle_alpha 90.000000
_cell_angle_beta 90.000000
_cell_angle_gamma 90.000000
_cell_volume 1533.708467
_symmetry_space_group_name_H-M "P M M N"
_symmetry_group_IT_number 59
_space_group.IT_coordinate_system_code '2'
_symmetry_cell_setting 'orthorhombic'
loop_
_space_group_symop_operation_xyz
x,y,z
1/2-x,1/2-y,z
1/2+x,-y,-z
-x,1/2+y,-z
-x,-y,-z
1/2+x,1/2+y,-z
1/2-x,y,z
x,1/2-y,z
loop_
_atom_site_type_symbol
_atom_site_label
_atom_site_fract_x
_atom_site_fract_y
_atom_site_fract_z
Si Si1 0.830489 0.040927 0.559301
Si Si2 0.604584 0.967132 0.870718
Si Si3 0.915080 0.462338 0.316624
Si Si4 0.250000 0.250000 0.466408
Si Si5 0.490277 0.465729 0.226556
O O1 0.820889 0.250000 0.504967
O O2 0.873179 0.968062 0.437228
O O3 0.850286 0.038118 0.775666
O O4 0.789176 0.908619 0.536684
O O5 0.605207 0.750000 0.861352
O O6 0.560494 0.033812 0.752961
O O7 0.597777 0.018418 0.091943
O O8 0.917980 0.250000 0.359401
O O9 0.965784 0.539279 0.335905
O O10 0.489632 0.250000 0.253531
O O11 0.500000 0.500000 0.000000
#
# Coordination Sequence:
#
# PCOD9449025 Si02
#       5
#     8   8   8   2   8
#     4  11  24  43  66  89 118 159 205 259 320 368
#     4  10  19  34  60  92 127 166 203 246 301 366
#     4   9  19  36  59  89 125 165 205 247 300 368
#     4  12  26  48  66  90 120 154 214 276 318 360
#     4   8  15  29  51  85 126 162 199 239 289 357
#
# _framework density 22.168488
#
# number of rings (size 3 to 8) (size 9 to 14) (size 15 to 20)
#    0.000    2.353    1.176    1.059    1.647    1.882 
#    0.000    2.353    0.000    2.824    0.000    0.000 
#    0.000    0.000    0.000    0.000    0.000    0.000 
#
# Total GULP energy -189364.782973 kJ/mol
# GULP energy per Si atom -5569.552440 kJ/mol
# Density = 2.211803 g / cm^3
# Si number density = 22.168488 Si / 1000 Ang^3
#
#
#
# Elastic Constant Matrix: (Units=GPa)
#
#
# Indices 1 2 3 4 5 6 
#
# 1 201.3712 54.7012 33.2020 0.0000 0.0000 0.0000
# 2 54.7012 143.0899 10.3676 0.0000 0.0000 0.0000
# 3 33.2020 10.3676 63.4308 0.0000 0.0000 0.0000
# 4 0.0000 0.0000 0.0000 19.4229 0.0000 0.0000
# 5 0.0000 0.0000 0.0000 0.0000 -2.2010 0.0000
# 6 0.0000 0.0000 0.0000 0.0000 0.0000 6.1813
#
#
#
# Elastic Compliance Matrix: (Units=1/GPa)
#
#
# Indices 1 2 3 4 5 6 
#
# 1 0.005994 -0.002089 -0.002796 0.000000 0.000000 0.000000
# 2 -0.002089 0.007800 -0.000181 0.000000 0.000000 0.000000
# 3 -0.002796 -0.000181 0.017259 0.000000 0.000000 0.000000
# 4 0.000000 0.000000 0.000000 0.051486 0.000000 0.000000
# 5 0.000000 0.000000 0.000000 0.000000 -0.454344 0.000000
# 6 0.000000 0.000000 0.000000 0.000000 0.000000 0.161779
#
#
# Mechanical properties :
#
#
# Convention : Reuss Voigt Hill
#
# Bulk Modulus (GPa) = 47.80153 67.15929 57.48041
# Shear Modulus (GPa) = -25.91767 25.32205 -0.29781
#
# Velocity S-wave (km/s) = -3.42295 3.38339 -0.36692
# Velocity P-wave (km/s) = 2.44694 6.75454 5.07993
#
# Compressibility (1/GPa) = 0.02091983
#
# Stress axis : x y z
#
# Youngs Moduli (GPa) = 166.82060 128.19932 57.94231
#
# Poissons Ratio (x) = 0.26781 0.16202
# Poissons Ratio (y) = 0.34849 0.01052
# Poissons Ratio (z) = 0.46648 0.02327
#
# Static dielectric constant tensor:
#      x y z
#    x 1.812350 0.000000 0.000000 
#    y 0.000000 1.826460 0.000000 
#    z 0.000000 0.000000 1.948480 
# 
# From -- ./inp_files/12353.got.cif
#   From: 2010.05.17/outbox.cif.g08.bks.cpg/sg59_7_cif.got.tgz:12353.got - 2010.06.03 14:40:33.
