data_PCOD9449976
_publ_section_title
;
Structure prediction by ZEFSAII (Michael W. Deem and Ramdas Pophale) SiO2 
 PCOD9449976
Probable space group: P M M N
;
_chemical_formula_sum "Si O2"
_cell_formula_units_Z 48
_cell_length_a 10.132929
_cell_length_b 8.415655
_cell_length_c 29.742213
_cell_angle_alpha 90.000000
_cell_angle_beta 90.000000
_cell_angle_gamma 90.000000
_cell_volume 2536.274191
_symmetry_space_group_name_H-M "P M M N"
_symmetry_group_IT_number 59
_space_group.IT_coordinate_system_code '2'
_symmetry_cell_setting 'orthorhombic'
loop_
_space_group_symop_operation_xyz
x,y,z
1/2-x,1/2-y,z
1/2+x,-y,-z
-x,1/2+y,-z
-x,-y,-z
1/2+x,1/2+y,-z
1/2-x,y,z
x,1/2-y,z
loop_
_atom_site_type_symbol
_atom_site_label
_atom_site_fract_x
_atom_site_fract_y
_atom_site_fract_z
Si Si1 0.750000 0.559424 0.959556
Si Si2 0.404393 0.942543 0.459961
Si Si3 0.400468 0.443478 0.618558
Si Si4 0.398830 0.439858 0.203881
Si Si5 0.522644 0.059486 0.894543
Si Si6 0.750000 0.943901 0.062957
Si Si7 0.100412 0.441714 0.721727
O O1 0.750000 0.750000 0.959655
O O2 0.874938 0.499149 0.931779
O O3 0.750000 0.503113 0.011126
O O4 0.250000 0.995576 0.462709
O O5 0.401726 0.750000 0.460625
O O6 0.483269 0.994295 0.414901
O O7 0.500000 0.000000 0.500000
O O8 0.250000 0.493543 0.605560
O O9 0.398933 0.250000 0.617853
O O10 0.424681 0.492607 0.670148
O O11 0.250000 0.497966 0.212756
O O12 0.397747 0.250000 0.203273
O O13 0.441293 0.498111 0.154676
O O14 0.497275 0.496550 0.242386
O O15 0.525636 0.250000 0.893349
O O16 0.379353 0.004625 0.910602
O O17 0.750000 0.750000 0.062093
O O18 0.250000 0.490836 0.733433
O O19 0.096851 0.250000 0.722112
#
# Coordination Sequence:
#
# PCOD9449976 Si02
#       7
#     4   8   8   8   8   4   8
#     4  11  21  39  61  85 119 149 177 225 282 331
#     4  10  20  33  52  80 112 148 191 236 281 332
#     4   8  15  31  54  79 108 142 181 228 280 330
#     4  11  24  40  56  79 113 148 183 228 280 329
#     4  11  22  39  61  85 111 147 190 229 271 328
#     4   9  22  39  59  87 115 143 183 233 276 321
#     4   9  19  36  60  87 111 139 180 229 278 335
#
# _framework density 18.925398999999999
#
# number of rings (size 3 to 8) (size 9 to 14) (size 15 to 20)
#    0.000    2.167    0.833    3.250    1.167    3.000 
#    0.000    6.250    0.000    1.000    0.000    0.000 
#    0.000    0.000    0.000    0.000    0.000    0.000 
#
# Total GULP energy -267902.039632 kJ/mol
# GULP energy per Si atom -5581.292492 kJ/mol
# Density = 1.888232 g / cm^3
# Si number density = 18.925399 Si / 1000 Ang^3
#
#
#
# Elastic Constant Matrix: (Units=GPa)
#
#
# Indices 1 2 3 4 5 6 
#
# 1 208.9440 29.8742 117.0007 0.0000 0.0000 0.0000
# 2 29.8742 17.2707 25.1571 0.0000 0.0000 0.0000
# 3 117.0007 25.1571 141.3227 0.0000 0.0000 0.0000
# 4 0.0000 0.0000 0.0000 25.8572 0.0000 0.0000
# 5 0.0000 0.0000 0.0000 0.0000 41.8003 0.0000
# 6 0.0000 0.0000 0.0000 0.0000 0.0000 30.7009
#
#
#
# Elastic Compliance Matrix: (Units=1/GPa)
#
#
# Indices 1 2 3 4 5 6 
#
# 1 0.009462 -0.006692 -0.006643 0.000000 0.000000 0.000000
# 2 -0.006692 0.082903 -0.009218 0.000000 0.000000 0.000000
# 3 -0.006643 -0.009218 0.014216 0.000000 0.000000 0.000000
# 4 0.000000 0.000000 0.000000 0.038674 0.000000 0.000000
# 5 0.000000 0.000000 0.000000 0.000000 0.023923 0.000000
# 6 0.000000 0.000000 0.000000 0.000000 0.000000 0.032572
#
#
# Mechanical properties :
#
#
# Convention : Reuss Voigt Hill
#
# Bulk Modulus (GPa) = 16.26601 79.06681 47.66641
# Shear Modulus (GPa) = 18.70218 32.70537 25.70378
#
# Velocity S-wave (km/s) = 3.14698 4.16158 3.68932
# Velocity P-wave (km/s) = 4.67099 8.05981 6.58706
#
# Compressibility (1/GPa) = 0.06147788
#
# Stress axis : x y z
#
# Youngs Moduli (GPa) = 105.68177 12.06223 70.34177
#
# Poissons Ratio (x) = 0.08072 0.46726
# Poissons Ratio (y) = 0.70719 0.64839
# Poissons Ratio (z) = 0.70201 0.11119
#
# Static dielectric constant tensor:
#      x y z
#    x 1.614170 0.000000 0.000000 
#    y 0.000000 1.658490 0.000000 
#    z 0.000000 0.000000 1.630310 
# 
# From -- ./inp_files/32929.got.cif
#   From: 2010.05.17/outbox.cif.g08.bks.cpg/sg59_17_cif.got.tgz:32929.got - 2010.06.03 14:40:33.
