data_PCOD9449734
_publ_section_title
;
Structure prediction by ZEFSAII (Michael W. Deem and Ramdas Pophale) SiO2 
 PCOD9449734
Probable space group: P M M N
;
_chemical_formula_sum "Si O2"
_cell_formula_units_Z 48
_cell_length_a 9.039899
_cell_length_b 18.372822
_cell_length_c 16.687690
_cell_angle_alpha 90.000000
_cell_angle_beta 90.000000
_cell_angle_gamma 90.000000
_cell_volume 2771.632653
_symmetry_space_group_name_H-M "P M M N"
_symmetry_group_IT_number 59
_space_group.IT_coordinate_system_code '2'
_symmetry_cell_setting 'orthorhombic'
loop_
_space_group_symop_operation_xyz
x,y,z
1/2-x,1/2-y,z
1/2+x,-y,-z
-x,1/2+y,-z
-x,-y,-z
1/2+x,1/2+y,-z
1/2-x,y,z
x,1/2-y,z
loop_
_atom_site_type_symbol
_atom_site_label
_atom_site_fract_x
_atom_site_fract_y
_atom_site_fract_z
Si Si1 0.076481 0.662447 0.018614
Si Si2 0.076662 0.549800 0.744717
Si Si3 0.927405 0.969387 0.419838
Si Si4 0.073356 0.666212 0.335664
Si Si5 0.925144 0.835191 0.850982
Si Si6 0.074986 0.393369 0.822463
O O1 0.250000 0.644584 0.021371
O O2 0.060905 0.750000 0.027236
O O3 0.008679 0.642646 0.932560
O O4 0.991154 0.625351 0.091551
O O5 0.250000 0.569634 0.748214
O O6 0.041884 0.523639 0.654776
O O7 0.055288 0.477978 0.799376
O O8 0.979986 0.614720 0.778960
O O9 0.750000 0.963123 0.427209
O O10 0.995812 0.891949 0.393749
O O11 0.000000 0.000000 0.500000
O O12 0.250000 0.654252 0.334904
O O13 0.045079 0.750000 0.358101
O O14 0.008507 0.651339 0.247019
O O15 0.750000 0.842580 0.862942
O O16 0.958120 0.750000 0.836256
O O17 0.250000 0.377249 0.819400
#
# Coordination Sequence:
#
# PCOD9449734 Si02
#       6
#     8   8   8   8   8   8
#     4  10  20  33  50  73 103 141 181 218 260 309
#     4   9  20  37  55  77 103 134 171 209 258 316
#     4  10  21  38  60  84 110 140 175 216 264 318
#     4  10  20  34  54  81 112 144 178 216 261 315
#     4  10  21  36  54  76 101 133 176 222 264 306
#     4  10  20  33  51  77 108 140 176 218 262 311
#
# _framework density 17.318311999999999
#
# number of rings (size 3 to 8) (size 9 to 14) (size 15 to 20)
#    0.000    2.167    0.000    4.000    0.000   10.000 
#    0.000    0.833    0.000    1.000    0.000    0.000 
#    0.000    0.000    0.000    0.000    0.000    0.000 
#
# Total GULP energy -268002.046060 kJ/mol
# GULP energy per Si atom -5583.375960 kJ/mol
# Density = 1.727889 g / cm^3
# Si number density = 17.318312 Si / 1000 Ang^3
#
#
#
# Elastic Constant Matrix: (Units=GPa)
#
#
# Indices 1 2 3 4 5 6 
#
# 1 100.2072 69.0290 76.5718 0.0000 0.0000 0.0000
# 2 69.0290 75.1225 74.1825 0.0000 0.0000 0.0000
# 3 76.5718 74.1825 115.5160 0.0000 0.0000 0.0000
# 4 0.0000 0.0000 0.0000 18.8386 0.0000 0.0000
# 5 0.0000 0.0000 0.0000 0.0000 34.8385 0.0000
# 6 0.0000 0.0000 0.0000 0.0000 0.0000 31.2257
#
#
#
# Elastic Compliance Matrix: (Units=1/GPa)
#
#
# Indices 1 2 3 4 5 6 
#
# 1 0.028486 -0.020580 -0.005666 0.000000 0.000000 0.000000
# 2 -0.020580 0.051253 -0.019272 0.000000 0.000000 0.000000
# 3 -0.005666 -0.019272 0.024789 0.000000 0.000000 0.000000
# 4 0.000000 0.000000 0.000000 0.053083 0.000000 0.000000
# 5 0.000000 0.000000 0.000000 0.000000 0.028704 0.000000
# 6 0.000000 0.000000 0.000000 0.000000 0.000000 0.032025
#
#
# Mechanical properties :
#
#
# Convention : Reuss Voigt Hill
#
# Bulk Modulus (GPa) = 74.12135 81.15694 77.63914
# Shear Modulus (GPa) = 15.92998 21.71805 18.82401
#
# Velocity S-wave (km/s) = 3.03617 3.54510 3.30046
# Velocity P-wave (km/s) = 7.42855 7.98252 7.71051
#
# Compressibility (1/GPa) = 0.01349139
#
# Stress axis : x y z
#
# Youngs Moduli (GPa) = 35.10513 19.51095 40.34023
#
# Poissons Ratio (x) = 0.40153 0.22858
# Poissons Ratio (y) = 0.72246 0.77745
# Poissons Ratio (z) = 0.19892 0.37602
#
# Static dielectric constant tensor:
#      x y z
#    x 1.575630 0.000000 0.000000 
#    y 0.000000 1.578980 0.000000 
#    z 0.000000 0.000000 1.556400 
# 
# From -- ./inp_files/20438.got.cif
#   From: 2010.05.17/outbox.cif.g08.bks.cpg/sg59_11_cif.got.tgz:20438.got - 2010.06.03 14:40:33.
