data_PCOD9449114
_publ_section_title
;
Structure prediction by ZEFSAII (Michael W. Deem and Ramdas Pophale) SiO2 
 PCOD9449114
Probable space group: P M M N
;
_chemical_formula_sum "Si O2"
_cell_formula_units_Z 64
_cell_length_a 25.134151
_cell_length_b 8.962061
_cell_length_c 15.390587
_cell_angle_alpha 90.000000
_cell_angle_beta 90.000000
_cell_angle_gamma 90.000000
_cell_volume 3466.788120
_symmetry_space_group_name_H-M "P M M N"
_symmetry_group_IT_number 59
_space_group.IT_coordinate_system_code '2'
_symmetry_cell_setting 'orthorhombic'
loop_
_space_group_symop_operation_xyz
x,y,z
1/2-x,1/2-y,z
1/2+x,-y,-z
-x,1/2+y,-z
-x,-y,-z
1/2+x,1/2+y,-z
1/2-x,y,z
x,1/2-y,z
loop_
_atom_site_type_symbol
_atom_site_label
_atom_site_fract_x
_atom_site_fract_y
_atom_site_fract_z
Si Si1 0.811311 0.074368 0.713059
Si Si2 0.812764 0.427009 0.360575
Si Si3 0.186442 0.416566 0.464397
Si Si4 0.929669 0.916019 0.070659
Si Si5 0.945616 0.414965 0.907497
Si Si6 0.503513 0.430476 0.597679
Si Si7 0.081297 0.425859 0.263802
Si Si8 0.406773 0.429956 0.731661
O O1 0.750000 0.033135 0.734104
O O2 0.817741 0.250000 0.728382
O O3 0.820335 0.034387 0.611899
O O4 0.858019 0.977612 0.753776
O O5 0.750000 0.458158 0.345885
O O6 0.817886 0.250000 0.373582
O O7 0.832321 0.515840 0.445727
O O8 0.851916 0.487168 0.288022
O O9 0.250000 0.401597 0.472843
O O10 0.164749 0.250000 0.445896
O O11 0.905921 0.750000 0.060883
O O12 0.920771 0.968824 0.168996
O O13 0.993235 0.899444 0.064820
O O14 0.914194 0.020199 0.990128
O O15 0.926198 0.250000 0.881493
O O16 0.946579 0.521937 0.824601
O O17 0.500000 0.500000 0.500000
O O18 0.506670 0.250000 0.591068
O O19 0.553779 0.492430 0.653623
O O20 0.452407 0.467954 0.659972
O O21 0.077791 0.250000 0.276858
O O22 0.400901 0.250000 0.727126
#
# Coordination Sequence:
#
# PCOD9449114 Si02
#       8
#     8   8   8   8   8   8   8   8
#     4  10  21  37  57  80 108 145 189 237 286 333
#     4  10  21  35  52  77 109 146 190 236 280 329
#     4   9  17  31  51  74 101 136 183 233 277 323
#     4   9  18  35  57  84 113 143 180 230 286 339
#     4  10  19  35  58  85 115 145 181 232 283 334
#     4  11  24  42  58  81 117 157 196 236 283 338
#     4  12  24  38  59  85 116 154 192 232 280 341
#     4  10  21  38  59  81 113 150 189 234 281 336
#
# _framework density 18.460891
#
# number of rings (size 3 to 8) (size 9 to 14) (size 15 to 20)
#    0.000    1.875    1.250    3.000    1.750    5.000 
#    0.000    0.000    0.000    0.750    0.000    3.500 
#    0.000    0.000    0.000    0.000    0.000    0.000 
#
# Total GULP energy -356570.235215 kJ/mol
# GULP energy per Si atom -5571.409925 kJ/mol
# Density = 1.841887 g / cm^3
# Si number density = 18.460891 Si / 1000 Ang^3
#
#
#
# Elastic Constant Matrix: (Units=GPa)
#
#
# Indices 1 2 3 4 5 6 
#
# 1 50.0031 26.1952 2.6449 0.0000 0.0000 0.0000
# 2 26.1952 71.3905 29.6516 0.0000 0.0000 0.0000
# 3 2.6449 29.6516 65.9754 0.0000 0.0000 0.0000
# 4 0.0000 0.0000 0.0000 25.6703 0.0000 0.0000
# 5 0.0000 0.0000 0.0000 0.0000 19.8676 0.0000
# 6 0.0000 0.0000 0.0000 0.0000 0.0000 22.3111
#
#
#
# Elastic Compliance Matrix: (Units=1/GPa)
#
#
# Indices 1 2 3 4 5 6 
#
# 1 0.025557 -0.011007 0.003922 0.000000 0.000000 0.000000
# 2 -0.011007 0.021963 -0.009430 0.000000 0.000000 0.000000
# 3 0.003922 -0.009430 0.019238 0.000000 0.000000 0.000000
# 4 0.000000 0.000000 0.000000 0.038956 0.000000 0.000000
# 5 0.000000 0.000000 0.000000 0.000000 0.050333 0.000000
# 6 0.000000 0.000000 0.000000 0.000000 0.000000 0.044821
#
#
# Mechanical properties :
#
#
# Convention : Reuss Voigt Hill
#
# Bulk Modulus (GPa) = 29.64734 33.81693 31.73213
# Shear Modulus (GPa) = 20.39659 22.16161 21.27910
#
# Velocity S-wave (km/s) = 3.32754 3.46853 3.39877
# Velocity P-wave (km/s) = 5.55498 5.86505 5.71212
#
# Compressibility (1/GPa) = 0.03372984
#
# Stress axis : x y z
#
# Youngs Moduli (GPa) = 39.12749 45.53180 51.98075
#
# Poissons Ratio (x) = 0.50116 -0.20388
# Poissons Ratio (y) = 0.43067 0.49015
# Poissons Ratio (z) = -0.15347 0.42934
#
# Static dielectric constant tensor:
#      x y z
#    x 1.669370 0.000000 0.000000 
#    y 0.000000 1.657640 0.000000 
#    z 0.000000 0.000000 1.665970 
# 
# From -- ./inp_files/24688.got.cif
#   From: 2010.05.17/outbox.cif.g08.bks.cpg/sg59_13_cif.got.tgz:24688.got - 2010.06.03 14:40:33.
