data_PCOD9449312
_publ_section_title
;
Structure prediction by ZEFSAII (Michael W. Deem and Ramdas Pophale) SiO2 
 PCOD9449312
Probable space group: P M M N
;
_chemical_formula_sum "Si O2"
_cell_formula_units_Z 48
_cell_length_a 7.619451
_cell_length_b 9.807860
_cell_length_c 32.388186
_cell_angle_alpha 90.000000
_cell_angle_beta 90.000000
_cell_angle_gamma 90.000000
_cell_volume 2420.385615
_symmetry_space_group_name_H-M "P M M N"
_symmetry_group_IT_number 59
_space_group.IT_coordinate_system_code '2'
_symmetry_cell_setting 'orthorhombic'
loop_
_space_group_symop_operation_xyz
x,y,z
1/2-x,1/2-y,z
1/2+x,-y,-z
-x,1/2+y,-z
-x,-y,-z
1/2+x,1/2+y,-z
1/2-x,y,z
x,1/2-y,z
loop_
_atom_site_type_symbol
_atom_site_label
_atom_site_fract_x
_atom_site_fract_y
_atom_site_fract_z
Si Si1 0.038298 0.593586 0.369824
Si Si2 0.038805 0.094943 0.961444
Si Si3 0.046979 0.084070 0.872284
Si Si4 0.541188 0.095920 0.292898
Si Si5 0.960314 0.096629 0.538041
Si Si6 0.465614 0.407804 0.781724
O O1 0.250000 0.596208 0.369927
O O2 0.979398 0.750000 0.361541
O O3 0.977816 0.554328 0.416132
O O4 0.984548 0.488555 0.334799
O O5 0.250000 0.101598 0.957342
O O6 0.975567 0.250000 0.968310
O O7 0.970453 0.043449 0.916734
O O8 0.000000 0.000000 0.000000
O O9 0.250000 0.038043 0.871661
O O10 0.047536 0.250000 0.873032
O O11 0.972279 0.047880 0.827469
O O12 0.750000 0.106104 0.286525
O O13 0.470552 0.250000 0.295025
O O14 0.472965 0.006504 0.254555
O O15 0.750000 0.103286 0.540854
O O16 0.026216 0.250000 0.530315
O O17 0.000000 0.000000 0.500000
O O18 0.250000 0.408064 0.782578
O O19 0.516660 0.250000 0.774380
#
# Coordination Sequence:
#
# PCOD9449312 Si02
#       6
#     8   8   8   8   8   8
#     4   9  19  36  54  70  92 126 165 198 227 266
#     4   9  17  29  45  66  92 120 151 189 231 274
#     4   7  11  22  41  63  85 112 149 190 228 267
#     4  10  20  31  45  71 103 127 149 185 234 281
#     4   9  19  35  53  74  99 125 156 195 235 274
#     4   8  13  24  44  66  87 115 152 192 231 270
#
# _framework density 19.831551000000001
#
# number of rings (size 3 to 8) (size 9 to 14) (size 15 to 20)
#    0.000    3.333    0.000    3.500    0.000    3.333 
#    0.000    5.833    0.000    4.000    0.000    2.333 
#    0.000    0.000    0.000    0.000    0.000    0.000 
#
# Total GULP energy -267395.340017 kJ/mol
# GULP energy per Si atom -5570.736250 kJ/mol
# Density = 1.978641 g / cm^3
# Si number density = 19.831551 Si / 1000 Ang^3
#
#
#
# Elastic Constant Matrix: (Units=GPa)
#
#
# Indices 1 2 3 4 5 6 
#
# 1 37.9463 5.4337 4.3359 0.0000 0.0000 0.0000
# 2 5.4337 114.3715 127.6348 0.0000 0.0000 0.0000
# 3 4.3359 127.6348 237.8844 0.0000 0.0000 0.0000
# 4 0.0000 0.0000 0.0000 33.2526 0.0000 0.0000
# 5 0.0000 0.0000 0.0000 0.0000 17.1408 0.0000
# 6 0.0000 0.0000 0.0000 0.0000 0.0000 14.9277
#
#
#
# Elastic Compliance Matrix: (Units=1/GPa)
#
#
# Indices 1 2 3 4 5 6 
#
# 1 0.026556 -0.001798 0.000481 0.000000 0.000000 0.000000
# 2 -0.001798 0.021913 -0.011724 0.000000 0.000000 0.000000
# 3 0.000481 -0.011724 0.010486 0.000000 0.000000 0.000000
# 4 0.000000 0.000000 0.000000 0.030073 0.000000 0.000000
# 5 0.000000 0.000000 0.000000 0.000000 0.058340 0.000000
# 6 0.000000 0.000000 0.000000 0.000000 0.000000 0.066989
#
#
# Mechanical properties :
#
#
# Convention : Reuss Voigt Hill
#
# Bulk Modulus (GPa) = 30.42244 73.89014 52.15629
# Shear Modulus (GPa) = 19.88886 29.91743 24.90315
#
# Velocity S-wave (km/s) = 3.17028 3.88825 3.54748
# Velocity P-wave (km/s) = 5.36420 7.58273 6.56782
#
# Compressibility (1/GPa) = 0.03287047
#
# Stress axis : x y z
#
# Youngs Moduli (GPa) = 37.65689 45.63519 95.36898
#
# Poissons Ratio (x) = 0.08206 -0.04585
# Poissons Ratio (y) = 0.06771 1.11815
# Poissons Ratio (z) = -0.01810 0.53505
#
# Static dielectric constant tensor:
#      x y z
#    x 1.773910 0.000000 0.000000 
#    y 0.000000 1.673500 0.000000 
#    z 0.000000 0.000000 1.727650 
# 
# From -- ./inp_files/32592.got.cif
#   From: 2010.05.17/outbox.cif.g08.bks.cpg/sg59_17_cif.got.tgz:32592.got - 2010.06.03 14:40:33.
