data_PCOD9449130
_publ_section_title
;
Structure prediction by ZEFSAII (Michael W. Deem and Ramdas Pophale) SiO2 
 PCOD9449130
Probable space group: P M M N
;
_chemical_formula_sum "Si O2"
_cell_formula_units_Z 48
_cell_length_a 8.357502
_cell_length_b 31.297729
_cell_length_c 9.749551
_cell_angle_alpha 90.000000
_cell_angle_beta 90.000000
_cell_angle_gamma 90.000000
_cell_volume 2550.198174
_symmetry_space_group_name_H-M "P M M N"
_symmetry_group_IT_number 59
_space_group.IT_coordinate_system_code '2'
_symmetry_cell_setting 'orthorhombic'
loop_
_space_group_symop_operation_xyz
x,y,z
1/2-x,1/2-y,z
1/2+x,-y,-z
-x,1/2+y,-z
-x,-y,-z
1/2+x,1/2+y,-z
1/2-x,y,z
x,1/2-y,z
loop_
_atom_site_type_symbol
_atom_site_label
_atom_site_fract_x
_atom_site_fract_y
_atom_site_fract_z
Si Si1 0.057917 0.382864 0.315936
Si Si2 0.073675 0.250000 0.705189
Si Si3 0.567778 0.322692 0.533420
Si Si4 0.067612 0.750000 0.005314
Si Si5 0.059223 0.547236 0.465110
Si Si6 0.441943 0.346704 0.030280
Si Si7 0.940981 0.889087 0.262320
O O1 0.250000 0.386474 0.321198
O O2 0.004571 0.375399 0.159595
O O3 0.001530 0.339779 0.392242
O O4 0.988528 0.421607 0.407002
O O5 0.250000 0.250000 0.768377
O O6 0.045807 0.210692 0.606482
O O7 0.949958 0.250000 0.829188
O O8 0.750000 0.307599 0.521140
O O9 0.554192 0.362025 0.637499
O O10 0.250000 0.750000 0.960511
O O11 0.997890 0.703058 0.965020
O O12 0.250000 0.548003 0.449116
O O13 0.000000 0.500000 0.500000
O O14 0.976625 0.564053 0.323625
O O15 0.250000 0.344511 0.035759
O O16 0.481268 0.372004 0.889494
O O17 0.750000 0.880677 0.283497
#
# Coordination Sequence:
#
# PCOD9449130 Si02
#       7
#     8   4   8   4   8   8   8
#     4  10  21  39  60  85 116 154 191 234 290 350
#     4  12  22  35  54  77 108 148 196 246 288 337
#     4  11  21  34  53  81 110 145 190 240 288 337
#     4  12  24  35  56  85 118 156 200 246 288 337
#     4  11  22  39  63  90 117 149 190 242 294 356
#     4  10  22  39  60  84 119 161 200 236 287 350
#     4  10  19  35  59  85 113 151 190 234 285 346
#
# _framework density 18.822068000000002
#
# number of rings (size 3 to 8) (size 9 to 14) (size 15 to 20)
#    0.000    1.333    1.667    7.500    0.000    2.667 
#    0.000    1.667    0.000    0.000    0.000    0.000 
#    0.000    0.000    0.000    0.000    0.000    0.000 
#
# Total GULP energy -267465.120377 kJ/mol
# GULP energy per Si atom -5572.190008 kJ/mol
# Density = 1.877923 g / cm^3
# Si number density = 18.822068 Si / 1000 Ang^3
#
#
#
# Elastic Constant Matrix: (Units=GPa)
#
#
# Indices 1 2 3 4 5 6 
#
# 1 71.7866 13.9398 19.1232 0.0000 0.0000 0.0000
# 2 13.9398 94.9695 41.8828 0.0000 0.0000 0.0000
# 3 19.1232 41.8828 116.1877 0.0000 0.0000 0.0000
# 4 0.0000 0.0000 0.0000 24.5695 0.0000 0.0000
# 5 0.0000 0.0000 0.0000 0.0000 11.5644 0.0000
# 6 0.0000 0.0000 0.0000 0.0000 0.0000 21.5276
#
#
#
# Elastic Compliance Matrix: (Units=1/GPa)
#
#
# Indices 1 2 3 4 5 6 
#
# 1 0.014702 -0.001297 -0.001952 0.000000 0.000000 0.000000
# 2 -0.001297 0.012634 -0.004341 0.000000 0.000000 0.000000
# 3 -0.001952 -0.004341 0.010493 0.000000 0.000000 0.000000
# 4 0.000000 0.000000 0.000000 0.040701 0.000000 0.000000
# 5 0.000000 0.000000 0.000000 0.000000 0.086472 0.000000
# 6 0.000000 0.000000 0.000000 0.000000 0.000000 0.046452
#
#
# Mechanical properties :
#
#
# Convention : Reuss Voigt Hill
#
# Bulk Modulus (GPa) = 44.15202 48.09282 46.12242
# Shear Modulus (GPa) = 21.35069 25.39885 23.37477
#
# Velocity S-wave (km/s) = 3.37166 3.67743 3.52786
# Velocity P-wave (km/s) = 6.21819 6.60591 6.41498
#
# Compressibility (1/GPa) = 0.02264902
#
# Stress axis : x y z
#
# Youngs Moduli (GPa) = 68.01747 79.14848 95.30270
#
# Poissons Ratio (x) = 0.10266 0.18606
# Poissons Ratio (y) = 0.08822 0.41370
# Poissons Ratio (z) = 0.13279 0.34358
#
# Static dielectric constant tensor:
#      x y z
#    x 1.641100 0.000000 0.000000 
#    y 0.000000 1.668060 0.000000 
#    z 0.000000 0.000000 1.661320 
# 
# From -- ./inp_files/6360.got.cif
#   From: 2010.05.17/outbox.cif.g08.bks.cpg/sg59_4_cif.got.tgz:6360.got - 2010.06.03 14:40:33.
