data_PCOD9449543
_publ_section_title
;
Structure prediction by ZEFSAII (Michael W. Deem and Ramdas Pophale) SiO2 
 PCOD9449543
Probable space group: P M M N
;
_chemical_formula_sum "Si O2"
_cell_formula_units_Z 64
_cell_length_a 9.168680
_cell_length_b 19.641019
_cell_length_c 20.436268
_cell_angle_alpha 90.000000
_cell_angle_beta 90.000000
_cell_angle_gamma 90.000000
_cell_volume 3680.208471
_symmetry_space_group_name_H-M "P M M N"
_symmetry_group_IT_number 59
_space_group.IT_coordinate_system_code '2'
_symmetry_cell_setting 'orthorhombic'
loop_
_space_group_symop_operation_xyz
x,y,z
1/2-x,1/2-y,z
1/2+x,-y,-z
-x,1/2+y,-z
-x,-y,-z
1/2+x,1/2+y,-z
1/2-x,y,z
x,1/2-y,z
loop_
_atom_site_type_symbol
_atom_site_label
_atom_site_fract_x
_atom_site_fract_y
_atom_site_fract_z
Si Si1 0.923995 0.330261 0.607494
Si Si2 0.575362 0.435800 0.232569
Si Si3 0.075232 0.412413 0.723118
Si Si4 0.082881 0.167437 0.475151
Si Si5 0.079006 0.170911 0.852119
Si Si6 0.579146 0.400147 0.966553
Si Si7 0.425694 0.169618 0.328144
Si Si8 0.578273 0.552138 0.907312
O O1 0.750000 0.335391 0.609599
O O2 0.963242 0.250000 0.617242
O O3 0.995729 0.376159 0.663245
O O4 0.983332 0.351758 0.536180
O O5 0.750000 0.429724 0.227091
O O6 0.542663 0.507951 0.267824
O O7 0.507574 0.375420 0.275204
O O8 0.504412 0.437697 0.160730
O O9 0.250000 0.404286 0.715427
O O10 0.032946 0.374759 0.790621
O O11 0.250000 0.144890 0.485984
O O12 0.085209 0.250000 0.473186
O O13 0.034943 0.146804 0.402295
O O14 0.250000 0.155983 0.865350
O O15 0.065800 0.250000 0.834560
O O16 0.987247 0.153366 0.916061
O O17 0.750000 0.389073 0.978411
O O18 0.562214 0.473806 0.931188
O O19 0.492424 0.403881 0.034490
O O20 0.250000 0.162527 0.322197
O O21 0.459220 0.250000 0.321251
O O22 0.750000 0.566412 0.900260
#
# Coordination Sequence:
#
# PCOD9449543 Si02
#       8
#     8   8   8   8   8   8   8   8
#     4  10  20  32  50  79 111 142 181 231 277 315
#     4  11  22  36  57  84 112 142 180 227 272 319
#     4  10  21  36  53  75 108 149 189 223 263 323
#     4   8  15  31  55  78 102 138 181 220 264 326
#     4  10  20  35  55  78 109 149 188 226 269 320
#     4  10  20  34  55  81 107 137 177 225 269 313
#     4   9  19  37  60  84 109 139 176 219 273 337
#     4  10  20  35  57  80 106 141 178 217 265 322
#
# _framework density 17.390319999999999
#
# number of rings (size 3 to 8) (size 9 to 14) (size 15 to 20)
#    0.000    2.250    1.250    2.625    0.000    4.750 
#    0.000    2.500    0.000    3.750    0.000    0.000 
#    0.000    0.000    0.000    0.000    0.000    0.000 
#
# Total GULP energy -357108.065422 kJ/mol
# GULP energy per Si atom -5579.813522 kJ/mol
# Density = 1.735074 g / cm^3
# Si number density = 17.390320 Si / 1000 Ang^3
#
#
#
# Elastic Constant Matrix: (Units=GPa)
#
#
# Indices 1 2 3 4 5 6 
#
# 1 68.5678 48.2284 76.1023 0.0000 0.0000 0.0000
# 2 48.2284 63.8493 58.6614 0.0000 0.0000 0.0000
# 3 76.1023 58.6614 149.5625 0.0000 0.0000 0.0000
# 4 0.0000 0.0000 0.0000 24.1507 0.0000 0.0000
# 5 0.0000 0.0000 0.0000 0.0000 30.2529 0.0000
# 6 0.0000 0.0000 0.0000 0.0000 0.0000 25.3212
#
#
#
# Elastic Compliance Matrix: (Units=1/GPa)
#
#
# Indices 1 2 3 4 5 6 
#
# 1 0.046354 -0.020860 -0.015405 0.000000 0.000000 0.000000
# 2 -0.020860 0.033873 -0.002671 0.000000 0.000000 0.000000
# 3 -0.015405 -0.002671 0.015572 0.000000 0.000000 0.000000
# 4 0.000000 0.000000 0.000000 0.041407 0.000000 0.000000
# 5 0.000000 0.000000 0.000000 0.000000 0.033055 0.000000
# 6 0.000000 0.000000 0.000000 0.000000 0.000000 0.039493
#
#
# Mechanical properties :
#
#
# Convention : Reuss Voigt Hill
#
# Bulk Modulus (GPa) = 55.78254 71.99598 63.88926
# Shear Modulus (GPa) = 17.02995 22.54413 19.78704
#
# Velocity S-wave (km/s) = 3.13274 3.60441 3.37682
# Velocity P-wave (km/s) = 6.72546 7.66891 7.21263
#
# Compressibility (1/GPa) = 0.01792676
#
# Stress axis : x y z
#
# Youngs Moduli (GPa) = 21.57319 29.52223 64.21718
#
# Poissons Ratio (x) = 0.61584 0.98923
# Poissons Ratio (y) = 0.45002 0.17153
# Poissons Ratio (z) = 0.33232 0.07886
#
# Static dielectric constant tensor:
#      x y z
#    x 1.577870 0.000000 0.000000 
#    y 0.000000 1.580000 0.000000 
#    z 0.000000 0.000000 1.570650 
# 
# From -- ./inp_files/26349.got.cif
#   From: 2010.05.17/outbox.cif.g08.bks.cpg/sg59_14_cif.got.tgz:26349.got - 2010.06.03 14:40:33.
