data_PCOD9449104
_publ_section_title
;
Structure prediction by ZEFSAII (Michael W. Deem and Ramdas Pophale) SiO2 
 PCOD9449104
Probable space group: P M M N
;
_chemical_formula_sum "Si O2"
_cell_formula_units_Z 56
_cell_length_a 8.643623
_cell_length_b 14.777755
_cell_length_c 23.100708
_cell_angle_alpha 90.000000
_cell_angle_beta 90.000000
_cell_angle_gamma 90.000000
_cell_volume 2950.730659
_symmetry_space_group_name_H-M "P M M N"
_symmetry_group_IT_number 59
_space_group.IT_coordinate_system_code '2'
_symmetry_cell_setting 'orthorhombic'
loop_
_space_group_symop_operation_xyz
x,y,z
1/2-x,1/2-y,z
1/2+x,-y,-z
-x,1/2+y,-z
-x,-y,-z
1/2+x,1/2+y,-z
1/2-x,y,z
x,1/2-y,z
loop_
_atom_site_type_symbol
_atom_site_label
_atom_site_fract_x
_atom_site_fract_y
_atom_site_fract_z
Si Si1 0.062978 0.855119 0.470259
Si Si2 0.565948 0.088246 0.163180
Si Si3 0.562856 0.465011 0.415209
Si Si4 0.430978 0.899439 0.128496
Si Si5 0.934367 0.459830 0.288877
Si Si6 0.063808 0.250000 0.955326
Si Si7 0.065854 0.250000 0.088439
Si Si8 0.068432 0.849044 0.261391
O O1 0.250000 0.855442 0.466291
O O2 0.013051 0.750000 0.462096
O O3 0.018730 0.895909 0.533488
O O4 0.999555 0.933667 0.427912
O O5 0.750000 0.100657 0.164655
O O6 0.505454 0.086042 0.229853
O O7 0.491828 0.164057 0.123864
O O8 0.524034 0.991760 0.135882
O O9 0.750000 0.470060 0.415219
O O10 0.509145 0.431162 0.352160
O O11 0.250000 0.917868 0.117689
O O12 0.499325 0.836266 0.079105
O O13 0.441362 0.852133 0.191499
O O14 0.750000 0.447599 0.287938
O O15 0.972860 0.566197 0.283616
O O16 0.250000 0.250000 0.953022
O O17 0.011343 0.250000 0.021930
O O18 0.250000 0.250000 0.086723
O O19 0.250000 0.860842 0.276414
O O20 0.017781 0.750000 0.282047
#
# Coordination Sequence:
#
# PCOD9449104 Si02
#       8
#     8   8   8   8   8   4   4   8
#     4   9  18  33  53  77 105 141 180 218 263 313
#     4  10  21  39  60  83 110 143 184 232 279 325
#     4   9  18  34  53  76 107 140 176 220 267 314
#     4  10  19  35  58  83 111 144 180 222 276 336
#     4   9  19  34  52  78 106 137 179 221 268 319
#     4  11  23  37  57  85 113 143 184 229 272 329
#     4  11  25  43  59  79 109 147 186 227 280 331
#     4   9  17  30  48  74 106 140 175 212 264 324
#
# _framework density 18.978349999999999
#
# number of rings (size 3 to 8) (size 9 to 14) (size 15 to 20)
#    0.000    2.429    0.714    1.286    0.000    4.571 
#    1.286    2.857    0.000    0.000    0.000    0.000 
#    0.000    0.000    0.000    0.000    0.000    0.000 
#
# Total GULP energy -312282.365836 kJ/mol
# GULP energy per Si atom -5576.470819 kJ/mol
# Density = 1.893515 g / cm^3
# Si number density = 18.978350 Si / 1000 Ang^3
#
#
#
# Elastic Constant Matrix: (Units=GPa)
#
#
# Indices 1 2 3 4 5 6 
#
# 1 16.4833 -2.4372 15.7399 0.0000 0.0000 0.0000
# 2 -2.4372 40.0185 11.0994 0.0000 0.0000 0.0000
# 3 15.7399 11.0994 118.6326 0.0000 0.0000 0.0000
# 4 0.0000 0.0000 0.0000 -2.6225 0.0000 0.0000
# 5 0.0000 0.0000 0.0000 0.0000 21.2135 0.0000
# 6 0.0000 0.0000 0.0000 0.0000 0.0000 -10.1691
#
#
#
# Elastic Compliance Matrix: (Units=1/GPa)
#
#
# Indices 1 2 3 4 5 6 
#
# 1 0.071415 0.007163 -0.010145 0.000000 0.000000 0.000000
# 2 0.007163 0.026373 -0.003418 0.000000 0.000000 0.000000
# 3 -0.010145 -0.003418 0.010095 0.000000 0.000000 0.000000
# 4 0.000000 0.000000 0.000000 -0.381314 0.000000 0.000000
# 5 0.000000 0.000000 0.000000 0.000000 0.047140 0.000000
# 6 0.000000 0.000000 0.000000 0.000000 0.000000 -0.098337
#
#
# Mechanical properties :
#
#
# Convention : Reuss Voigt Hill
#
# Bulk Modulus (GPa) = 10.51718 24.88205 17.69962
# Shear Modulus (GPa) = -17.84859 11.73320 -3.05770
#
# Velocity S-wave (km/s) = -3.07004 2.48914 -1.27069
# Velocity P-wave (km/s) = 2.64823 4.62605 2.68209
#
# Compressibility (1/GPa) = 0.09508255
#
# Stress axis : x y z
#
# Youngs Moduli (GPa) = 14.00274 37.91802 99.05672
#
# Poissons Ratio (x) = -0.27162 1.00496
# Poissons Ratio (y) = -0.10030 0.33856
# Poissons Ratio (z) = 0.14206 0.12960
#
# Static dielectric constant tensor:
#      x y z
#    x 1.643310 0.000000 0.000000 
#    y 0.000000 1.627870 0.000000 
#    z 0.000000 0.000000 1.690410 
# 
# From -- ./inp_files/29248.got.cif
#   From: 2010.05.17/outbox.cif.g08.bks.cpg/sg59_15_cif.got.tgz:29248.got - 2010.06.03 14:40:33.
