data_PCOD9449568
_publ_section_title
;
Structure prediction by ZEFSAII (Michael W. Deem and Ramdas Pophale) SiO2 
 PCOD9449568
Probable space group: P M M N
;
_chemical_formula_sum "Si O2"
_cell_formula_units_Z 52
_cell_length_a 28.647517
_cell_length_b 14.536869
_cell_length_c 7.854879
_cell_angle_alpha 90.000000
_cell_angle_beta 90.000000
_cell_angle_gamma 90.000000
_cell_volume 3271.126670
_symmetry_space_group_name_H-M "P M M N"
_symmetry_group_IT_number 59
_space_group.IT_coordinate_system_code '2'
_symmetry_cell_setting 'orthorhombic'
loop_
_space_group_symop_operation_xyz
x,y,z
1/2-x,1/2-y,z
1/2+x,-y,-z
-x,1/2+y,-z
-x,-y,-z
1/2+x,1/2+y,-z
1/2-x,y,z
x,1/2-y,z
loop_
_atom_site_type_symbol
_atom_site_label
_atom_site_fract_x
_atom_site_fract_y
_atom_site_fract_z
Si Si1 0.196774 0.356648 0.705970
Si Si2 0.196779 0.143339 0.293915
Si Si3 0.452943 0.250000 0.193197
Si Si4 0.102260 0.440778 0.192877
Si Si5 0.525261 0.250000 0.499719
Si Si6 0.397679 0.059135 0.806917
Si Si7 0.547210 0.750000 0.194031
Si Si8 0.052747 0.957213 0.499921
O O1 0.250000 0.380179 0.753462
O O2 0.188556 0.250000 0.757937
O O3 0.193640 0.358984 0.499943
O O4 0.157113 0.422104 0.779139
O O5 0.250000 0.119692 0.246455
O O6 0.188620 0.250000 0.241940
O O7 0.157046 0.078049 0.220751
O O8 0.421855 0.159105 0.215428
O O9 0.492743 0.250000 0.333069
O O10 0.471121 0.250000 0.999491
O O11 0.079581 0.505525 0.334008
O O12 0.093337 0.472136 0.999899
O O13 0.492468 0.250000 0.665649
O O14 0.551582 0.153012 0.500095
O O15 0.421711 0.159078 0.784138
O O16 0.420385 0.994408 0.665818
O O17 0.000000 0.000000 0.500000
#
# Coordination Sequence:
#
# PCOD9449568 Si02
#       8
#     8   8   4   8   4   8   4   8
#     4   9  17  29  50  80 114 148 178 211 254 312
#     4   9  17  29  50  80 114 148 178 211 254 312
#     4  10  20  32  53  81 109 139 178 215 254 314
#     4  11  21  34  54  81 111 146 179 212 259 316
#     4  12  24  40  56  74  98 142 178 232 278 302
#     4  11  21  34  54  81 111 146 179 212 259 316
#     4  10  20  32  53  81 109 139 178 215 254 314
#     4  12  24  38  57  75 103 139 183 227 266 321
#
# _framework density 15.896663999999999
#
# number of rings (size 3 to 8) (size 9 to 14) (size 15 to 20)
#    0.000    1.538    6.154    0.923    0.000    2.462 
#    0.000    1.538    0.000    0.000    0.000    2.154 
#    0.000    2.462    0.000    0.000    0.000    0.000 
#
# Total GULP energy -290259.976189 kJ/mol
# GULP energy per Si atom -5581.922619 kJ/mol
# Density = 1.586048 g / cm^3
# Si number density = 15.896664 Si / 1000 Ang^3
#
#
#
# Elastic Constant Matrix: (Units=GPa)
#
#
# Indices 1 2 3 4 5 6 
#
# 1 102.0427 49.6885 62.0260 0.0000 0.0000 0.0000
# 2 49.6885 91.8071 62.9564 0.0000 0.0000 0.0000
# 3 62.0260 62.9564 106.1170 0.0000 0.0000 0.0000
# 4 0.0000 0.0000 0.0000 8.3199 0.0000 0.0000
# 5 0.0000 0.0000 0.0000 0.0000 70.3636 0.0000
# 6 0.0000 0.0000 0.0000 0.0000 0.0000 17.4742
#
#
#
# Elastic Compliance Matrix: (Units=1/GPa)
#
#
# Indices 1 2 3 4 5 6 
#
# 1 0.015940 -0.003773 -0.007078 0.000000 0.000000 0.000000
# 2 -0.003773 0.019256 -0.009219 0.000000 0.000000 0.000000
# 3 -0.007078 -0.009219 0.019030 0.000000 0.000000 0.000000
# 4 0.000000 0.000000 0.000000 0.120193 0.000000 0.000000
# 5 0.000000 0.000000 0.000000 0.000000 0.014212 0.000000
# 6 0.000000 0.000000 0.000000 0.000000 0.000000 0.057227
#
#
# Mechanical properties :
#
#
# Convention : Reuss Voigt Hill
#
# Bulk Modulus (GPa) = 70.99456 72.14542 71.56999
# Shear Modulus (GPa) = 17.20022 27.58462 22.39242
#
# Velocity S-wave (km/s) = 3.29295 4.17015 3.75724
# Velocity P-wave (km/s) = 7.69513 8.28670 7.99639
#
# Compressibility (1/GPa) = 0.01408559
#
# Stress axis : x y z
#
# Youngs Moduli (GPa) = 62.73704 51.93115 52.54790
#
# Poissons Ratio (x) = 0.19593 0.37195
# Poissons Ratio (y) = 0.23670 0.48444
# Poissons Ratio (z) = 0.44408 0.47875
#
# Static dielectric constant tensor:
#      x y z
#    x 1.535560 0.000000 0.000000 
#    y 0.000000 1.507780 0.000000 
#    z 0.000000 0.000000 1.553570 
# 
# From -- ./inp_files/12598.got.cif
#   From: 2010.05.17/outbox.cif.g08.bks.cpg/sg59_7_cif.got.tgz:12598.got - 2010.06.03 14:40:33.
