data_PCOD9449547
_publ_section_title
;
Structure prediction by ZEFSAII (Michael W. Deem and Ramdas Pophale) SiO2 
 PCOD9449547
Probable space group: P M M N
;
_chemical_formula_sum "Si O2"
_cell_formula_units_Z 48
_cell_length_a 8.285646
_cell_length_b 26.571470
_cell_length_c 11.899408
_cell_angle_alpha 90.000000
_cell_angle_beta 90.000000
_cell_angle_gamma 90.000000
_cell_volume 2619.795014
_symmetry_space_group_name_H-M "P M M N"
_symmetry_group_IT_number 59
_space_group.IT_coordinate_system_code '2'
_symmetry_cell_setting 'orthorhombic'
loop_
_space_group_symop_operation_xyz
x,y,z
1/2-x,1/2-y,z
1/2+x,-y,-z
-x,1/2+y,-z
-x,-y,-z
1/2+x,1/2+y,-z
1/2-x,y,z
x,1/2-y,z
loop_
_atom_site_type_symbol
_atom_site_label
_atom_site_fract_x
_atom_site_fract_y
_atom_site_fract_z
Si Si1 0.941438 0.499479 0.627430
Si Si2 0.056707 0.191933 0.866130
Si Si3 0.442492 0.906892 0.214618
Si Si4 0.934404 0.096983 0.240098
Si Si5 0.936858 0.944357 0.982544
Si Si6 0.945720 0.307632 0.123816
O O1 0.750000 0.497225 0.627688
O O2 0.995431 0.448529 0.693433
O O3 0.000000 0.500000 0.500000
O O4 0.989498 0.551724 0.688449
O O5 0.250000 0.188206 0.858750
O O6 0.008784 0.250000 0.844892
O O7 0.977963 0.152674 0.778469
O O8 0.007793 0.181474 0.996989
O O9 0.250000 0.913689 0.196852
O O10 0.541032 0.919460 0.102525
O O11 0.750000 0.101242 0.278062
O O12 0.003689 0.153257 0.219986
O O13 0.949086 0.078546 0.111763
O O14 0.750000 0.942583 0.945500
O O15 0.000000 0.000000 0.000000
O O16 0.750000 0.311209 0.120030
O O17 0.990434 0.250000 0.148965
#
# Coordination Sequence:
#
# PCOD9449547 Si02
#       6
#     8   8   8   8   8   8
#     4  11  25  42  60  80 107 141 186 236 286 337
#     4  10  20  32  50  80 116 151 185 224 270 324
#     4  11  22  36  55  80 111 148 184 225 277 335
#     4  11  21  34  56  82 113 149 186 226 275 331
#     4  12  22  32  50  79 114 148 182 223 276 333
#     4   9  18  32  51  78 114 152 186 221 264 322
#
# _framework density 18.322044999999999
#
# number of rings (size 3 to 8) (size 9 to 14) (size 15 to 20)
#    0.000    1.333    3.333    3.500    0.000    3.667 
#    0.000    0.000    0.000    1.000    0.000    2.333 
#    0.000    0.000    0.000    0.000    0.000    0.000 
#
# Total GULP energy -267479.172565 kJ/mol
# GULP energy per Si atom -5572.482762 kJ/mol
# Density = 1.828034 g / cm^3
# Si number density = 18.322045 Si / 1000 Ang^3
#
#
#
# Elastic Constant Matrix: (Units=GPa)
#
#
# Indices 1 2 3 4 5 6 
#
# 1 38.1484 19.8122 9.7357 0.0000 0.0000 0.0000
# 2 19.8122 165.9068 61.9010 0.0000 0.0000 0.0000
# 3 9.7357 61.9010 86.4724 0.0000 0.0000 0.0000
# 4 0.0000 0.0000 0.0000 10.4129 0.0000 0.0000
# 5 0.0000 0.0000 0.0000 0.0000 23.2734 0.0000
# 6 0.0000 0.0000 0.0000 0.0000 0.0000 23.4782
#
#
#
# Elastic Compliance Matrix: (Units=1/GPa)
#
#
# Indices 1 2 3 4 5 6 
#
# 1 0.028014 -0.002959 -0.001036 0.000000 0.000000 0.000000
# 2 -0.002959 0.008537 -0.005778 0.000000 0.000000 0.000000
# 3 -0.001036 -0.005778 0.015817 0.000000 0.000000 0.000000
# 4 0.000000 0.000000 0.000000 0.096034 0.000000 0.000000
# 5 0.000000 0.000000 0.000000 0.000000 0.042968 0.000000
# 6 0.000000 0.000000 0.000000 0.000000 0.000000 0.042593
#
#
# Mechanical properties :
#
#
# Convention : Reuss Voigt Hill
#
# Bulk Modulus (GPa) = 30.46655 52.60282 41.53468
# Shear Modulus (GPa) = 18.90724 24.70480 21.80602
#
# Velocity S-wave (km/s) = 3.21587 3.67599 3.45360
# Velocity P-wave (km/s) = 5.51847 6.84030 6.21463
#
# Compressibility (1/GPa) = 0.03282288
#
# Stress axis : x y z
#
# Youngs Moduli (GPa) = 35.69580 117.14355 63.22315
#
# Poissons Ratio (x) = 0.34662 0.06550
# Poissons Ratio (y) = 0.10562 0.36529
# Poissons Ratio (z) = 0.03698 0.67682
#
# Static dielectric constant tensor:
#      x y z
#    x 1.615070 0.000000 0.000000 
#    y 0.000000 1.774710 0.000000 
#    z 0.000000 0.000000 1.600380 
# 
# From -- ./inp_files/14506.got.cif
#   From: 2010.05.17/outbox.cif.g08.bks.cpg/sg59_8_cif.got.tgz:14506.got - 2010.06.03 14:40:33.
