data_PCOD9449377
_publ_section_title
;
Structure prediction by ZEFSAII (Michael W. Deem and Ramdas Pophale) SiO2 
 PCOD9449377
Probable space group: P M M N
;
_chemical_formula_sum "Si O2"
_cell_formula_units_Z 48
_cell_length_a 32.587695
_cell_length_b 9.316111
_cell_length_c 7.322121
_cell_angle_alpha 90.000000
_cell_angle_beta 90.000000
_cell_angle_gamma 90.000000
_cell_volume 2222.926989
_symmetry_space_group_name_H-M "P M M N"
_symmetry_group_IT_number 59
_space_group.IT_coordinate_system_code '2'
_symmetry_cell_setting 'orthorhombic'
loop_
_space_group_symop_operation_xyz
x,y,z
1/2-x,1/2-y,z
1/2+x,-y,-z
-x,1/2+y,-z
-x,-y,-z
1/2+x,1/2+y,-z
1/2-x,y,z
x,1/2-y,z
loop_
_atom_site_type_symbol
_atom_site_label
_atom_site_fract_x
_atom_site_fract_y
_atom_site_fract_z
Si Si1 0.622898 0.083547 0.539351
Si Si2 0.959496 0.909321 0.968628
Si Si3 0.957966 0.913683 0.532727
Si Si4 0.704272 0.921535 0.567288
Si Si5 0.294259 0.920724 0.044038
Si Si6 0.882505 0.413366 0.986176
O O1 0.623403 0.250000 0.483735
O O2 0.620747 0.082370 0.763254
O O3 0.582227 0.001801 0.471916
O O4 0.664919 0.003080 0.487015
O O5 0.965066 0.750000 0.040639
O O6 0.953842 0.902645 0.751225
O O7 0.918828 0.983593 0.044204
O O8 0.000000 0.000000 0.000000
O O9 0.959723 0.750000 0.462517
O O10 0.000000 0.000000 0.500000
O O11 0.750000 0.950650 0.489165
O O12 0.697821 0.750000 0.566925
O O13 0.706150 0.982013 0.774923
O O14 0.250000 0.940862 0.950816
O O15 0.296745 0.750000 0.094867
O O16 0.337011 0.951824 0.944829
O O17 0.892549 0.250000 0.036212
#
# Coordination Sequence:
#
# PCOD9449377 Si02
#       6
#     8   8   8   8   8   8
#     4   9  16  26  40  57  80 112 146 180 219 263
#     4  10  20  32  47  66  89 118 152 188 225 266
#     4  10  20  33  49  69  92 119 151 187 227 271
#     4   9  15  21  31  50  77 108 141 177 216 259
#     4   8  13  21  33  50  74 106 141 173 209 257
#     4   8  14  24  38  56  80 110 142 177 217 259
#
# _framework density 21.593150999999999
#
# number of rings (size 3 to 8) (size 9 to 14) (size 15 to 20)
#    0.000    3.000    0.000    3.000    0.000    7.000 
#    0.000    0.000    0.000    0.000    0.000    0.000 
#    0.000    1.333    0.000   11.000    0.000   18.500 
#
# Total GULP energy -267737.109917 kJ/mol
# GULP energy per Si atom -5577.856457 kJ/mol
# Density = 2.154400 g / cm^3
# Si number density = 21.593151 Si / 1000 Ang^3
#
#
#
# Elastic Constant Matrix: (Units=GPa)
#
#
# Indices 1 2 3 4 5 6 
#
# 1 260.7609 151.5963 0.6296 0.0000 0.0000 0.0000
# 2 151.5963 175.1016 16.5221 0.0000 0.0000 0.0000
# 3 0.6296 16.5221 68.4255 0.0000 0.0000 0.0000
# 4 0.0000 0.0000 0.0000 1.2274 0.0000 0.0000
# 5 0.0000 0.0000 0.0000 0.0000 7.8187 0.0000
# 6 0.0000 0.0000 0.0000 0.0000 0.0000 44.9746
#
#
#
# Elastic Compliance Matrix: (Units=1/GPa)
#
#
# Indices 1 2 3 4 5 6 
#
# 1 0.007892 -0.006984 0.001614 0.000000 0.000000 0.000000
# 2 -0.006984 0.012026 -0.002840 0.000000 0.000000 0.000000
# 3 0.001614 -0.002840 0.015285 0.000000 0.000000 0.000000
# 4 0.000000 0.000000 0.000000 0.814732 0.000000 0.000000
# 5 0.000000 0.000000 0.000000 0.000000 0.127898 0.000000
# 6 0.000000 0.000000 0.000000 0.000000 0.000000 0.022235
#
#
# Mechanical properties :
#
#
# Convention : Reuss Voigt Hill
#
# Bulk Modulus (GPa) = 53.24154 93.53156 73.38655
# Shear Modulus (GPa) = 4.88879 33.17348 19.03114
#
# Velocity S-wave (km/s) = 1.50631 3.92381 2.97198
# Velocity P-wave (km/s) = 5.26645 7.99611 6.77028
#
# Compressibility (1/GPa) = 0.01878233
#
# Stress axis : x y z
#
# Youngs Moduli (GPa) = 126.71795 83.15456 65.42273
#
# Poissons Ratio (x) = 0.58079 -0.10558
# Poissons Ratio (y) = 0.88506 0.18577
# Poissons Ratio (z) = -0.20451 0.23612
#
# Static dielectric constant tensor:
#      x y z
#    x 1.797660 0.000000 0.000000 
#    y 0.000000 1.739970 0.000000 
#    z 0.000000 0.000000 2.017720 
# 
# From -- ./inp_files/18835.got.cif
#   From: 2010.05.17/outbox.cif.g08.bks.cpg/sg59_10_cif.got.tgz:18835.got - 2010.06.03 14:40:33.
