data_PCOD9449723
_publ_section_title
;
Structure prediction by ZEFSAII (Michael W. Deem and Ramdas Pophale) SiO2 
 PCOD9449723
Probable space group: P M M N
;
_chemical_formula_sum "Si O2"
_cell_formula_units_Z 32
_cell_length_a 8.459814
_cell_length_b 18.033970
_cell_length_c 11.911236
_cell_angle_alpha 90.000000
_cell_angle_beta 90.000000
_cell_angle_gamma 90.000000
_cell_volume 1817.226189
_symmetry_space_group_name_H-M "P M M N"
_symmetry_group_IT_number 59
_space_group.IT_coordinate_system_code '2'
_symmetry_cell_setting 'orthorhombic'
loop_
_space_group_symop_operation_xyz
x,y,z
1/2-x,1/2-y,z
1/2+x,-y,-z
-x,1/2+y,-z
-x,-y,-z
1/2+x,1/2+y,-z
1/2-x,y,z
x,1/2-y,z
loop_
_atom_site_type_symbol
_atom_site_label
_atom_site_fract_x
_atom_site_fract_y
_atom_site_fract_z
Si Si1 0.063492 0.831540 0.718289
Si Si2 0.933849 0.614687 0.939401
Si Si3 0.438597 0.461218 0.846520
Si Si4 0.063052 0.485526 0.375885
O O1 0.250000 0.839146 0.697503
O O2 0.010556 0.750000 0.680011
O O3 0.033279 0.837558 0.852285
O O4 0.978306 0.901242 0.661329
O O5 0.750000 0.634761 0.928378
O O6 0.962082 0.530914 0.893778
O O7 0.974731 0.607728 0.071215
O O8 0.250000 0.476237 0.858674
O O9 0.481455 0.460469 0.715917
O O10 0.250000 0.496102 0.371107
O O11 0.000000 0.500000 0.500000
#
# Coordination Sequence:
#
# PCOD9449723 Si02
#       4
#     8   8   8   8
#     4  10  20  33  50  73 101 131 164 205 252 302
#     4   9  16  26  44  69  95 123 153 189 235 285
#     4   9  16  27  44  68  96 122 153 194 237 283
#     4  11  21  33  51  73  99 132 171 213 253 298
#
# _framework density 17.609254
#
# number of rings (size 3 to 8) (size 9 to 14) (size 15 to 20)
#    0.000    2.250    0.000    7.500    0.000    5.000 
#    0.000    0.000    0.000    1.500    0.000    7.000 
#    0.000    0.000    0.000    0.000    0.000    0.000 
#
# Total GULP energy -178206.896278 kJ/mol
# GULP energy per Si atom -5568.965509 kJ/mol
# Density = 1.756918 g / cm^3
# Si number density = 17.609254 Si / 1000 Ang^3
#
#
#
# Elastic Constant Matrix: (Units=GPa)
#
#
# Indices 1 2 3 4 5 6 
#
# 1 55.8610 8.0845 15.7210 0.0000 0.0000 0.0000
# 2 8.0845 43.4818 22.0868 0.0000 0.0000 0.0000
# 3 15.7210 22.0868 129.1924 0.0000 0.0000 0.0000
# 4 0.0000 0.0000 0.0000 11.5766 0.0000 0.0000
# 5 0.0000 0.0000 0.0000 0.0000 30.9636 0.0000
# 6 0.0000 0.0000 0.0000 0.0000 0.0000 15.4973
#
#
#
# Elastic Compliance Matrix: (Units=1/GPa)
#
#
# Indices 1 2 3 4 5 6 
#
# 1 0.018792 -0.002554 -0.001850 0.000000 0.000000 0.000000
# 2 -0.002554 0.025532 -0.004054 0.000000 0.000000 0.000000
# 3 -0.001850 -0.004054 0.008659 0.000000 0.000000 0.000000
# 4 0.000000 0.000000 0.000000 0.086381 0.000000 0.000000
# 5 0.000000 0.000000 0.000000 0.000000 0.032296 0.000000
# 6 0.000000 0.000000 0.000000 0.000000 0.000000 0.064527
#
#
# Mechanical properties :
#
#
# Convention : Reuss Voigt Hill
#
# Bulk Modulus (GPa) = 27.72697 35.59108 31.65903
# Shear Modulus (GPa) = 18.85892 23.78368 21.32130
#
# Velocity S-wave (km/s) = 3.27611 3.67909 3.48343
# Velocity P-wave (km/s) = 5.48547 6.18894 5.84780
#
# Compressibility (1/GPa) = 0.03606596
#
# Stress axis : x y z
#
# Youngs Moduli (GPa) = 53.21437 39.16592 115.49169
#
# Poissons Ratio (x) = 0.10004 0.21367
# Poissons Ratio (y) = 0.13592 0.46823
# Poissons Ratio (z) = 0.09845 0.15879
#
# Static dielectric constant tensor:
#      x y z
#    x 1.588770 0.000000 0.000000 
#    y 0.000000 1.615480 0.000000 
#    z 0.000000 0.000000 1.654140 
# 
# From -- ./inp_files/13754.got.cif
#   From: 2010.05.17/outbox.cif.g08.bks.cpg/sg59_7_cif.got.tgz:13754.got - 2010.06.03 14:40:33.
