data_PCOD9449019
_publ_section_title
;
Structure prediction by ZEFSAII (Michael W. Deem and Ramdas Pophale) SiO2 
 PCOD9449019
Probable space group: P M M N
;
_chemical_formula_sum "Si O2"
_cell_formula_units_Z 64
_cell_length_a 18.105523
_cell_length_b 15.670324
_cell_length_c 12.033336
_cell_angle_alpha 90.000000
_cell_angle_beta 90.000000
_cell_angle_gamma 90.000000
_cell_volume 3414.091009
_symmetry_space_group_name_H-M "P M M N"
_symmetry_group_IT_number 59
_space_group.IT_coordinate_system_code '2'
_symmetry_cell_setting 'orthorhombic'
loop_
_space_group_symop_operation_xyz
x,y,z
1/2-x,1/2-y,z
1/2+x,-y,-z
-x,1/2+y,-z
-x,-y,-z
1/2+x,1/2+y,-z
1/2-x,y,z
x,1/2-y,z
loop_
_atom_site_type_symbol
_atom_site_label
_atom_site_fract_x
_atom_site_fract_y
_atom_site_fract_z
Si Si1 0.399034 0.498953 0.098563
Si Si2 0.442325 0.845448 0.699178
Si Si3 0.662246 0.342842 0.764940
Si Si4 0.420537 0.600701 0.447391
Si Si5 0.118683 0.345822 0.254001
Si Si6 0.925891 0.505206 0.151828
Si Si7 0.333838 0.073629 0.477396
Si Si8 0.574538 0.648560 0.330531
O O1 0.367864 0.582086 0.158818
O O2 0.367648 0.415673 0.159759
O O3 0.486829 0.500256 0.123312
O O4 0.386302 0.497833 0.967008
O O5 0.418513 0.750000 0.733306
O O6 0.425071 0.859450 0.569501
O O7 0.531189 0.849185 0.714997
O O8 0.409403 0.922912 0.771262
O O9 0.750000 0.344983 0.767505
O O10 0.635434 0.250000 0.803752
O O11 0.635182 0.356085 0.639074
O O12 0.391357 0.504291 0.461152
O O13 0.499818 0.611894 0.388230
O O14 0.136165 0.250000 0.218701
O O15 0.160811 0.371331 0.365657
O O16 0.912912 0.591546 0.221171
O O17 0.250000 0.042121 0.492281
O O18 0.360865 0.128806 0.581650
O O19 0.566613 0.750000 0.311576
#
# Coordination Sequence:
#
# PCOD9449019 Si02
#       8
#     8   8   8   8   8   8   8   8
#     4  10  21  37  59  82 120 152 203 251 293 351
#     4  10  19  34  59  89 119 150 194 250 299 354
#     4  11  23  38  59  89 123 158 197 247 310 367
#     4  12  20  37  62  90 121 155 201 250 306 365
#     4  10  20  35  56  84 116 153 193 243 302 353
#     4  10  21  37  57  89 115 157 201 248 298 351
#     4  12  24  38  60  89 125 163 200 249 311 376
#     4  12  23  38  63  94 128 161 201 252 306 371
#
# _framework density 18.745839
#
# number of rings (size 3 to 8) (size 9 to 14) (size 15 to 20)
#    0.000    1.125    5.000    3.000    0.000    2.000 
#    0.000    3.125    0.000    0.000    0.000    1.750 
#    0.000    0.000    0.000    0.000    0.000    0.000 
#
# Total GULP energy -357468.753042 kJ/mol
# GULP energy per Si atom -5585.449266 kJ/mol
# Density = 1.870317 g / cm^3
# Si number density = 18.745839 Si / 1000 Ang^3
#
#
#
# Elastic Constant Matrix: (Units=GPa)
#
#
# Indices 1 2 3 4 5 6 
#
# 1 19.5128 31.4888 19.3312 0.0000 0.0000 0.0000
# 2 31.4888 177.2337 79.3067 0.0000 0.0000 0.0000
# 3 19.3312 79.3067 150.4441 0.0000 0.0000 0.0000
# 4 0.0000 0.0000 0.0000 -1.6687 0.0000 0.0000
# 5 0.0000 0.0000 0.0000 0.0000 2.3156 0.0000
# 6 0.0000 0.0000 0.0000 0.0000 0.0000 39.2606
#
#
#
# Elastic Compliance Matrix: (Units=1/GPa)
#
#
# Indices 1 2 3 4 5 6 
#
# 1 0.073103 -0.011497 -0.003333 0.000000 0.000000 0.000000
# 2 -0.011497 0.009192 -0.003368 0.000000 0.000000 0.000000
# 3 -0.003333 -0.003368 0.008851 0.000000 0.000000 0.000000
# 4 0.000000 0.000000 0.000000 -0.599260 0.000000 0.000000
# 5 0.000000 0.000000 0.000000 0.000000 0.431857 0.000000
# 6 0.000000 0.000000 0.000000 0.000000 0.000000 0.025471
#
#
# Mechanical properties :
#
#
# Convention : Reuss Voigt Hill
#
# Bulk Modulus (GPa) = 18.26477 67.49378 42.87928
# Shear Modulus (GPa) = 1295.36509 22.45241 658.90875
#
# Velocity S-wave (km/s) = 26.31568 3.46457 18.76857
# Velocity P-wave (km/s) = 30.54697 7.21715 22.19465
#
# Compressibility (1/GPa) = 0.05475022
#
# Stress axis : x y z
#
# Youngs Moduli (GPa) = 13.67930 108.78879 112.98324
#
# Poissons Ratio (x) = 1.25072 0.37655
# Poissons Ratio (y) = 0.15727 0.38057
# Poissons Ratio (z) = 0.04559 0.36644
#
# Static dielectric constant tensor:
#      x y z
#    x 1.602160 0.000000 0.000000 
#    y 0.000000 1.667300 0.000000 
#    z 0.000000 0.000000 1.627860 
# 
# From -- ./inp_files/17871.got.cif
#   From: 2010.05.17/outbox.cif.g08.bks.cpg/sg59_9_cif.got.tgz:17871.got - 2010.06.03 14:40:33.
