data_PCOD9449754
_publ_section_title
;
Structure prediction by ZEFSAII (Michael W. Deem and Ramdas Pophale) SiO2 
 PCOD9449754
Probable space group: P M M N
;
_chemical_formula_sum "Si O2"
_cell_formula_units_Z 48
_cell_length_a 19.476772
_cell_length_b 8.018624
_cell_length_c 15.838594
_cell_angle_alpha 90.000000
_cell_angle_beta 90.000000
_cell_angle_gamma 90.000000
_cell_volume 2473.622692
_symmetry_space_group_name_H-M "P M M N"
_symmetry_group_IT_number 59
_space_group.IT_coordinate_system_code '2'
_symmetry_cell_setting 'orthorhombic'
loop_
_space_group_symop_operation_xyz
x,y,z
1/2-x,1/2-y,z
1/2+x,-y,-z
-x,1/2+y,-z
-x,-y,-z
1/2+x,1/2+y,-z
1/2-x,y,z
x,1/2-y,z
loop_
_atom_site_type_symbol
_atom_site_label
_atom_site_fract_x
_atom_site_fract_y
_atom_site_fract_z
Si Si1 0.171226 0.453490 0.844535
Si Si2 0.078838 0.552103 0.497854
Si Si3 0.420799 0.451488 0.999693
Si Si4 0.671340 0.548875 0.844655
Si Si5 0.327965 0.048903 0.653327
Si Si6 0.828560 0.048720 0.655386
O O1 0.250000 0.501797 0.863771
O O2 0.170076 0.250000 0.844744
O O3 0.118880 0.511524 0.915885
O O4 0.154993 0.507134 0.748780
O O5 0.080214 0.750000 0.490414
O O6 0.118844 0.505085 0.582845
O O7 0.120826 0.483748 0.417033
O O8 0.000000 0.500000 0.500000
O O9 0.417101 0.250000 0.999630
O O10 0.500000 0.500000 0.000000
O O11 0.379792 0.511370 0.082615
O O12 0.750000 0.490031 0.858337
O O13 0.672720 0.750000 0.848483
O O14 0.650366 0.499202 0.750139
O O15 0.250000 0.991955 0.633434
O O16 0.326873 0.250000 0.654643
O O17 0.750000 0.989157 0.642015
O O18 0.827177 0.250000 0.651281
#
# Coordination Sequence:
#
# PCOD9449754 Si02
#       6
#     8   8   8   8   8   8
#     4   8  15  31  55  77  97 129 172 210 245 295
#     4  11  23  37  53  75 106 141 175 212 258 310
#     4  10  20  33  50  74 105 137 168 204 249 300
#     4   9  18  33  54  78 101 129 169 214 253 291
#     4   9  18  34  57  82 104 130 170 216 259 307
#     4   9  19  36  56  76  99 131 170 210 255 308
#
# _framework density 19.404737000000001
#
# number of rings (size 3 to 8) (size 9 to 14) (size 15 to 20)
#    0.000    2.667    0.000    2.500    0.000    6.333 
#    0.000    7.500    0.000    2.500    0.000    0.000 
#    0.000    0.000    0.000    0.000    0.000    0.000 
#
# Total GULP energy -267846.212473 kJ/mol
# GULP energy per Si atom -5580.129427 kJ/mol
# Density = 1.936057 g / cm^3
# Si number density = 19.404737 Si / 1000 Ang^3
#
#
#
# Elastic Constant Matrix: (Units=GPa)
#
#
# Indices 1 2 3 4 5 6 
#
# 1 167.5760 12.1513 154.3574 0.0000 0.0000 0.0000
# 2 12.1513 14.3794 13.5748 0.0000 0.0000 0.0000
# 3 154.3574 13.5748 198.2498 0.0000 0.0000 0.0000
# 4 0.0000 0.0000 0.0000 16.2614 0.0000 0.0000
# 5 0.0000 0.0000 0.0000 0.0000 -3.2118 0.0000
# 6 0.0000 0.0000 0.0000 0.0000 0.0000 26.8642
#
#
#
# Elastic Compliance Matrix: (Units=1/GPa)
#
#
# Indices 1 2 3 4 5 6 
#
# 1 0.021183 -0.002491 -0.016323 0.000000 0.000000 0.000000
# 2 -0.002491 0.074643 -0.003171 0.000000 0.000000 0.000000
# 3 -0.016323 -0.003171 0.017970 0.000000 0.000000 0.000000
# 4 0.000000 0.000000 0.000000 0.061495 0.000000 0.000000
# 5 0.000000 0.000000 0.000000 0.000000 -0.311348 0.000000
# 6 0.000000 0.000000 0.000000 0.000000 0.000000 0.037224
#
#
# Mechanical properties :
#
#
# Convention : Reuss Voigt Hill
#
# Bulk Modulus (GPa) = 14.32133 82.26355 48.29244
# Shear Modulus (GPa) = -158.30046 21.32421 -68.48812
#
# Velocity S-wave (km/s) = -9.04187 3.31859 -5.94737
# Velocity P-wave (km/s) = 10.08022 7.56106 4.71387
#
# Compressibility (1/GPa) = 0.06982593
#
# Stress axis : x y z
#
# Youngs Moduli (GPa) = 47.20715 13.39705 55.64790
#
# Poissons Ratio (x) = 0.03338 0.90832
# Poissons Ratio (y) = 0.11762 0.17647
# Poissons Ratio (z) = 0.77055 0.04248
#
# Static dielectric constant tensor:
#      x y z
#    x 1.666400 0.000000 0.000000 
#    y 0.000000 1.703150 0.000000 
#    z 0.000000 0.000000 1.670510 
# 
# From -- ./inp_files/20408.got.cif
#   From: 2010.05.17/outbox.cif.g08.bks.cpg/sg59_11_cif.got.tgz:20408.got - 2010.06.03 14:40:33.
