data_PCOD9449740
_publ_section_title
;
Structure prediction by ZEFSAII (Michael W. Deem and Ramdas Pophale) SiO2 
 PCOD9449740
Probable space group: P M M N
;
_chemical_formula_sum "Si O2"
_cell_formula_units_Z 40
_cell_length_a 11.769192
_cell_length_b 7.742017
_cell_length_c 18.426004
_cell_angle_alpha 90.000000
_cell_angle_beta 90.000000
_cell_angle_gamma 90.000000
_cell_volume 1678.927449
_symmetry_space_group_name_H-M "P M M N"
_symmetry_group_IT_number 59
_space_group.IT_coordinate_system_code '2'
_symmetry_cell_setting 'orthorhombic'
loop_
_space_group_symop_operation_xyz
x,y,z
1/2-x,1/2-y,z
1/2+x,-y,-z
-x,1/2+y,-z
-x,-y,-z
1/2+x,1/2+y,-z
1/2-x,y,z
x,1/2-y,z
loop_
_atom_site_type_symbol
_atom_site_label
_atom_site_fract_x
_atom_site_fract_y
_atom_site_fract_z
Si Si1 0.374039 0.952676 0.444335
Si Si2 0.126633 0.052159 0.765783
Si Si3 0.095838 0.553466 0.609087
Si Si4 0.123888 0.456938 0.034118
Si Si5 0.375973 0.549179 0.200846
O O1 0.250000 0.966494 0.414137
O O2 0.406079 0.750000 0.447035
O O3 0.373922 0.012124 0.528378
O O4 0.460751 0.050976 0.395211
O O5 0.250000 0.977502 0.790429
O O6 0.123216 0.250000 0.793240
O O7 0.001577 0.972497 0.780812
O O8 0.132065 0.051191 0.678367
O O9 0.134494 0.750000 0.615989
O O10 0.250000 0.502985 0.000028
O O11 0.125090 0.250000 0.041625
O O12 0.125164 0.540831 0.113626
O O13 0.000000 0.500000 0.000000
O O14 0.250000 0.479238 0.223585
O O15 0.378925 0.750000 0.226128
#
# Coordination Sequence:
#
# PCOD9449740 Si02
#       5
#     8   8   8   8   8
#     4   9  18  33  51  70  96 132 173 217 268 327
#     4  10  21  36  54  77 106 142 183 224 268 322
#     4  10  20  33  50  74 102 131 169 219 272 324
#     4  10  21  37  59  88 120 153 189 229 273 322
#     4   9  19  37  58  79 108 147 187 226 269 317
#
# _framework density 23.824736000000001
#
# number of rings (size 3 to 8) (size 9 to 14) (size 15 to 20)
#    0.000    2.400    0.000    1.800    0.000    6.000 
#    0.000    4.000    0.000    0.000    0.000    0.000 
#    0.000    0.000    0.000    0.000    0.000    0.000 
#
# Total GULP energy -222745.894372 kJ/mol
# GULP energy per Si atom -5568.647359 kJ/mol
# Density = 2.377051 g / cm^3
# Si number density = 23.824736 Si / 1000 Ang^3
#
#
#
# Elastic Constant Matrix: (Units=GPa)
#
#
# Indices 1 2 3 4 5 6 
#
# 1 273.2206 40.5044 36.0198 0.0000 0.0000 0.0000
# 2 40.5044 39.6504 -6.3994 0.0000 0.0000 0.0000
# 3 36.0198 -6.3994 37.1715 0.0000 0.0000 0.0000
# 4 0.0000 0.0000 0.0000 15.1797 0.0000 0.0000
# 5 0.0000 0.0000 0.0000 0.0000 435.8024 0.0000
# 6 0.0000 0.0000 0.0000 0.0000 0.0000 -15.8333
#
#
#
# Elastic Compliance Matrix: (Units=1/GPa)
#
#
# Indices 1 2 3 4 5 6 
#
# 1 0.005503 -0.006667 -0.006480 0.000000 0.000000 0.000000
# 2 -0.006667 0.034019 0.012317 0.000000 0.000000 0.000000
# 3 -0.006480 0.012317 0.035302 0.000000 0.000000 0.000000
# 4 0.000000 0.000000 0.000000 0.065877 0.000000 0.000000
# 5 0.000000 0.000000 0.000000 0.000000 0.002295 0.000000
# 6 0.000000 0.000000 0.000000 0.000000 0.000000 -0.063158
#
#
# Mechanical properties :
#
#
# Convention : Reuss Voigt Hill
#
# Bulk Modulus (GPa) = 13.66790 54.47688 34.07239
# Shear Modulus (GPa) = 47.22081 105.69096 76.45588
#
# Velocity S-wave (km/s) = 4.45680 6.66770 5.67103
# Velocity P-wave (km/s) = 5.67745 9.06603 7.56394
#
# Compressibility (1/GPa) = 0.07316414
#
# Stress axis : x y z
#
# Youngs Moduli (GPa) = 181.72841 29.39529 28.32689
#
# Poissons Ratio (x) = 0.19598 0.18356
# Poissons Ratio (y) = 1.21160 -0.34891
# Poissons Ratio (z) = 1.17761 -0.36207
#
# Static dielectric constant tensor:
#      x y z
#    x 2.074950 0.000000 0.000000 
#    y 0.000000 1.899290 0.000000 
#    z 0.000000 0.000000 1.859070 
# 
# From -- ./inp_files/25251.got.cif
#   From: 2010.05.17/outbox.cif.g08.bks.cpg/sg59_13_cif.got.tgz:25251.got - 2010.06.03 14:40:33.
