data_PCOD9449475
_publ_section_title
;
Structure prediction by ZEFSAII (Michael W. Deem and Ramdas Pophale) SiO2 
 PCOD9449475
Probable space group: P M M N
;
_chemical_formula_sum "Si O2"
_cell_formula_units_Z 64
_cell_length_a 7.693972
_cell_length_b 9.459310
_cell_length_c 42.944077
_cell_angle_alpha 90.000000
_cell_angle_beta 90.000000
_cell_angle_gamma 90.000000
_cell_volume 3125.455593
_symmetry_space_group_name_H-M "P M M N"
_symmetry_group_IT_number 59
_space_group.IT_coordinate_system_code '2'
_symmetry_cell_setting 'orthorhombic'
loop_
_space_group_symop_operation_xyz
x,y,z
1/2-x,1/2-y,z
1/2+x,-y,-z
-x,1/2+y,-z
-x,-y,-z
1/2+x,1/2+y,-z
1/2-x,y,z
x,1/2-y,z
loop_
_atom_site_type_symbol
_atom_site_label
_atom_site_fract_x
_atom_site_fract_y
_atom_site_fract_z
Si Si1 0.537206 0.086938 0.347452
Si Si2 0.958790 0.588550 0.098242
Si Si3 0.537439 0.586414 0.408690
Si Si4 0.541847 0.590527 0.841270
Si Si5 0.958536 0.911068 0.030362
Si Si6 0.043178 0.090192 0.711791
Si Si7 0.040980 0.587977 0.530939
Si Si8 0.959785 0.913514 0.772396
O O1 0.750000 0.089312 0.347245
O O2 0.480479 0.250000 0.348928
O O3 0.484639 0.996245 0.377525
O O4 0.476366 0.008458 0.316150
O O5 0.750000 0.592266 0.097121
O O6 0.021385 0.750000 0.101092
O O7 0.019451 0.533291 0.064277
O O8 0.003834 0.501855 0.128738
O O9 0.750000 0.588127 0.409004
O O10 0.481051 0.750000 0.409144
O O11 0.478690 0.498957 0.438928
O O12 0.750000 0.597887 0.838938
O O13 0.475266 0.750000 0.845854
O O14 0.480725 0.540851 0.807078
O O15 0.750000 0.905204 0.031927
O O16 0.022903 0.750000 0.027078
O O17 0.000000 0.000000 0.000000
O O18 0.250000 0.100546 0.706807
O O19 0.972391 0.250000 0.711216
O O20 0.016793 0.014566 0.744768
O O21 0.250000 0.595723 0.533471
O O22 0.975796 0.750000 0.529715
O O23 0.000000 0.500000 0.500000
O O24 0.750000 0.913042 0.772140
O O25 0.016090 0.750000 0.767534
#
# Coordination Sequence:
#
# PCOD9449475 Si02
#       8
#     8   8   8   8   8   8   8   8
#     4   9  16  27  45  69  97 128 162 201 243 287
#     4   9  19  35  52  72 101 133 163 199 245 294
#     4   9  16  27  45  69  97 128 162 202 247 293
#     4   9  19  35  53  74  99 127 163 205 245 288
#     4   9  19  35  52  72 100 132 165 202 244 290
#     4  10  20  32  48  74 104 130 160 200 244 289
#     4  10  20  33  50  73 100 131 168 207 248 297
#     4   9  19  36  54  71  96 131 167 202 242 290
#
# _framework density 20.477014
#
# number of rings (size 3 to 8) (size 9 to 14) (size 15 to 20)
#    0.000    2.750    0.000    3.000    0.000    7.500 
#    0.000    7.500    0.000    0.750    0.000    0.000 
#    0.000    0.000    0.000    0.000    0.000    0.000 
#
# Total GULP energy -357067.742746 kJ/mol
# GULP energy per Si atom -5579.183480 kJ/mol
# Density = 2.043041 g / cm^3
# Si number density = 20.477014 Si / 1000 Ang^3
#
#
#
# Elastic Constant Matrix: (Units=GPa)
#
#
# Indices 1 2 3 4 5 6 
#
# 1 30.0588 7.2628 3.5669 0.0000 0.0000 0.0000
# 2 7.2628 173.6095 138.1821 0.0000 0.0000 0.0000
# 3 3.5669 138.1821 238.3231 0.0000 0.0000 0.0000
# 4 0.0000 0.0000 0.0000 42.1946 0.0000 0.0000
# 5 0.0000 0.0000 0.0000 0.0000 19.2004 0.0000
# 6 0.0000 0.0000 0.0000 0.0000 0.0000 14.8965
#
#
#
# Elastic Compliance Matrix: (Units=1/GPa)
#
#
# Indices 1 2 3 4 5 6 
#
# 1 0.033651 -0.001870 0.000580 0.000000 0.000000 0.000000
# 2 -0.001870 0.010800 -0.006234 0.000000 0.000000 0.000000
# 3 0.000580 -0.006234 0.007802 0.000000 0.000000 0.000000
# 4 0.000000 0.000000 0.000000 0.023700 0.000000 0.000000
# 5 0.000000 0.000000 0.000000 0.000000 0.052082 0.000000
# 6 0.000000 0.000000 0.000000 0.000000 0.000000 0.067130
#
#
# Mechanical properties :
#
#
# Convention : Reuss Voigt Hill
#
# Bulk Modulus (GPa) = 26.87716 82.22389 54.55052
# Shear Modulus (GPa) = 22.46041 34.79028 28.62534
#
# Velocity S-wave (km/s) = 3.31548 4.12635 3.74294
# Velocity P-wave (km/s) = 5.27357 7.93371 6.73626
#
# Compressibility (1/GPa) = 0.03720631
#
# Stress axis : x y z
#
# Youngs Moduli (GPa) = 29.71680 92.59082 128.17420
#
# Poissons Ratio (x) = 0.17312 -0.07440
# Poissons Ratio (y) = 0.05556 0.79905
# Poissons Ratio (z) = -0.01725 0.57722
#
# Static dielectric constant tensor:
#      x y z
#    x 1.779710 0.000000 0.000000 
#    y 0.000000 1.706400 0.000000 
#    z 0.000000 0.000000 1.722290 
# 
# From -- ./inp_files/33292.got.cif
#   From: 2010.05.17/outbox.cif.g08.bks.cpg/sg59_17_cif.got.tgz:33292.got - 2010.06.03 14:40:33.
