data_PCOD9449389
_publ_section_title
;
Structure prediction by ZEFSAII (Michael W. Deem and Ramdas Pophale) SiO2 
 PCOD9449389
Probable space group: P M M N
;
_chemical_formula_sum "Si O2"
_cell_formula_units_Z 40
_cell_length_a 9.503476
_cell_length_b 7.360686
_cell_length_c 26.538339
_cell_angle_alpha 90.000000
_cell_angle_beta 90.000000
_cell_angle_gamma 90.000000
_cell_volume 1856.412616
_symmetry_space_group_name_H-M "P M M N"
_symmetry_group_IT_number 59
_space_group.IT_coordinate_system_code '2'
_symmetry_cell_setting 'orthorhombic'
loop_
_space_group_symop_operation_xyz
x,y,z
1/2-x,1/2-y,z
1/2+x,-y,-z
-x,1/2+y,-z
-x,-y,-z
1/2+x,1/2+y,-z
1/2-x,y,z
x,1/2-y,z
loop_
_atom_site_type_symbol
_atom_site_label
_atom_site_fract_x
_atom_site_fract_y
_atom_site_fract_z
Si Si1 0.091431 0.032816 0.950372
Si Si2 0.589984 0.466994 0.550090
Si Si3 0.412038 0.528587 0.144024
Si Si4 0.587865 0.471090 0.742511
Si Si5 0.911883 0.527847 0.353756
O O1 0.250000 0.962506 0.955684
O O2 0.100299 0.250000 0.944735
O O3 0.012418 0.964243 0.900484
O O4 0.000000 0.000000 0.000000
O O5 0.500000 0.500000 0.500000
O O6 0.750000 0.536914 0.546462
O O7 0.599993 0.250000 0.555862
O O8 0.505053 0.533597 0.598878
O O9 0.250000 0.474876 0.134815
O O10 0.413837 0.750000 0.143761
O O11 0.451504 0.472217 0.200770
O O12 0.750000 0.525414 0.732974
O O13 0.587002 0.250000 0.742296
O O14 0.484837 0.530267 0.698271
O O15 0.750000 0.470545 0.357876
O O16 0.911871 0.750000 0.354045
#
# Coordination Sequence:
#
# PCOD9449389 Si02
#       5
#     8   8   8   8   8
#     4  10  20  32  47  68  93 122 156 192 230 273
#     4  10  20  33  49  69  94 124 157 193 232 274
#     4   8  14  25  41  61  87 118 149 184 227 271
#     4   8  13  22  37  58  85 116 147 180 223 272
#     4   9  16  25  39  61  89 119 150 186 227 269
#
# _framework density 21.546934
#
# number of rings (size 3 to 8) (size 9 to 14) (size 15 to 20)
#    0.000    3.000    0.000    3.000    0.000    5.600 
#    0.000    4.000    0.000    0.000    0.000    1.400 
#    0.000    1.600    0.000    0.000    0.000    0.000 
#
# Total GULP energy -223406.315134 kJ/mol
# GULP energy per Si atom -5585.157878 kJ/mol
# Density = 2.149789 g / cm^3
# Si number density = 21.546934 Si / 1000 Ang^3
#
#
#
# Elastic Constant Matrix: (Units=GPa)
#
#
# Indices 1 2 3 4 5 6 
#
# 1 223.1826 7.8400 167.4337 0.0000 0.0000 0.0000
# 2 7.8400 79.6993 3.1744 0.0000 0.0000 0.0000
# 3 167.4337 3.1744 224.8130 0.0000 0.0000 0.0000
# 4 0.0000 0.0000 0.0000 11.5550 0.0000 0.0000
# 5 0.0000 0.0000 0.0000 0.0000 46.8554 0.0000
# 6 0.0000 0.0000 0.0000 0.0000 0.0000 0.8808
#
#
#
# Elastic Compliance Matrix: (Units=1/GPa)
#
#
# Indices 1 2 3 4 5 6 
#
# 1 0.010193 -0.000701 -0.007582 0.000000 0.000000 0.000000
# 2 -0.000701 0.012602 0.000344 0.000000 0.000000 0.000000
# 3 -0.007582 0.000344 0.010090 0.000000 0.000000 0.000000
# 4 0.000000 0.000000 0.000000 0.086543 0.000000 0.000000
# 5 0.000000 0.000000 0.000000 0.000000 0.021342 0.000000
# 6 0.000000 0.000000 0.000000 0.000000 0.000000 1.135383
#
#
# Mechanical properties :
#
#
# Convention : Reuss Voigt Hill
#
# Bulk Modulus (GPa) = 58.79408 98.28791 78.54099
# Shear Modulus (GPa) = 3.85297 35.14134 19.49716
#
# Velocity S-wave (km/s) = 1.33868 4.04285 3.01137
# Velocity P-wave (km/s) = 5.45300 8.21630 6.97290
#
# Compressibility (1/GPa) = 0.01700851
#
# Stress axis : x y z
#
# Youngs Moduli (GPa) = 98.10679 79.35000 99.11036
#
# Poissons Ratio (x) = 0.05560 0.75141
# Poissons Ratio (y) = 0.06874 -0.03409
# Poissons Ratio (z) = 0.74380 -0.02729
#
# Static dielectric constant tensor:
#      x y z
#    x 1.737610 0.000000 0.000000 
#    y 0.000000 1.905180 0.000000 
#    z 0.000000 0.000000 1.734890 
# 
# From -- ./inp_files/31153.got.cif
#   From: 2010.05.17/outbox.cif.g08.bks.cpg/sg59_16_cif.got.tgz:31153.got - 2010.06.03 14:40:33.
