data_PCOD9449436
_publ_section_title
;
Structure prediction by ZEFSAII (Michael W. Deem and Ramdas Pophale) SiO2 
 PCOD9449436
Probable space group: P M M N
;
_chemical_formula_sum "Si O2"
_cell_formula_units_Z 64
_cell_length_a 19.158200
_cell_length_b 7.963834
_cell_length_c 22.039183
_cell_angle_alpha 90.000000
_cell_angle_beta 90.000000
_cell_angle_gamma 90.000000
_cell_volume 3362.578197
_symmetry_space_group_name_H-M "P M M N"
_symmetry_group_IT_number 59
_space_group.IT_coordinate_system_code '2'
_symmetry_cell_setting 'orthorhombic'
loop_
_space_group_symop_operation_xyz
x,y,z
1/2-x,1/2-y,z
1/2+x,-y,-z
-x,1/2+y,-z
-x,-y,-z
1/2+x,1/2+y,-z
1/2-x,y,z
x,1/2-y,z
loop_
_atom_site_type_symbol
_atom_site_label
_atom_site_fract_x
_atom_site_fract_y
_atom_site_fract_z
Si Si1 0.533909 0.552821 0.562955
Si Si2 0.670119 0.045344 0.108810
Si Si3 0.672441 0.953051 0.624653
Si Si4 0.580577 0.047351 0.995998
Si Si5 0.328905 0.547472 0.754098
Si Si6 0.604896 0.047485 0.750978
Si Si7 0.533767 0.550430 0.313311
Si Si8 0.331143 0.955631 0.121139
O O1 0.500000 0.500000 0.500000
O O2 0.543948 0.750000 0.558671
O O3 0.609827 0.480195 0.582036
O O4 0.484266 0.516638 0.620186
O O5 0.750000 0.998825 0.095171
O O6 0.667606 0.250000 0.109188
O O7 0.653853 0.989643 0.177249
O O8 0.619477 0.984527 0.056390
O O9 0.750000 0.014459 0.609577
O O10 0.673076 0.750000 0.621004
O O11 0.652637 0.998579 0.693756
O O12 0.585120 0.250000 0.995676
O O13 0.621527 0.989339 0.935723
O O14 0.500000 0.000000 0.000000
O O15 0.250000 0.490279 0.739294
O O16 0.327386 0.750000 0.754985
O O17 0.389672 0.493418 0.709494
O O18 0.603314 0.250000 0.754320
O O19 0.526863 0.987654 0.732928
O O20 0.635353 0.987403 0.815029
O O21 0.527026 0.750000 0.315984
O O22 0.250000 0.006977 0.115675
O O23 0.331203 0.750000 0.121308
#
# Coordination Sequence:
#
# PCOD9449436 Si02
#       8
#     8   8   8   8   8   8   8   8
#     4  10  20  36  57  79 107 142 178 214 252 300
#     4   8  15  30  51  71  91 124 172 217 255 305
#     4   9  18  33  53  78 106 135 168 207 252 299
#     4  10  20  32  48  70  96 128 167 211 258 307
#     4   9  18  33  53  75  99 130 173 222 266 309
#     4   9  18  31  49  75 103 133 168 207 250 301
#     4  10  20  33  52  78 108 138 168 207 256 310
#     4   9  17  30  49  71  96 129 168 208 250 299
#
# _framework density 19.033016
#
# number of rings (size 3 to 8) (size 9 to 14) (size 15 to 20)
#    0.000    2.750    0.000    2.250    1.750    3.500 
#    0.000    1.250    0.000    5.250    0.000    0.000 
#    0.000    0.000    0.000    0.000    0.000    0.000 
#
# Total GULP energy -356929.588946 kJ/mol
# GULP energy per Si atom -5577.024827 kJ/mol
# Density = 1.898970 g / cm^3
# Si number density = 19.033016 Si / 1000 Ang^3
#
#
#
# Elastic Constant Matrix: (Units=GPa)
#
#
# Indices 1 2 3 4 5 6 
#
# 1 136.2627 -5.7570 98.0404 0.0000 0.0000 0.0000
# 2 -5.7570 8.6295 -1.4693 0.0000 0.0000 0.0000
# 3 98.0404 -1.4693 120.2020 0.0000 0.0000 0.0000
# 4 0.0000 0.0000 0.0000 12.3455 0.0000 0.0000
# 5 0.0000 0.0000 0.0000 0.0000 11.7887 0.0000
# 6 0.0000 0.0000 0.0000 0.0000 0.0000 20.6675
#
#
#
# Elastic Compliance Matrix: (Units=1/GPa)
#
#
# Indices 1 2 3 4 5 6 
#
# 1 0.018558 0.009824 -0.015016 0.000000 0.000000 0.000000
# 2 0.009824 0.121323 -0.006529 0.000000 0.000000 0.000000
# 3 -0.015016 -0.006529 0.020487 0.000000 0.000000 0.000000
# 4 0.000000 0.000000 0.000000 0.081001 0.000000 0.000000
# 5 0.000000 0.000000 0.000000 0.000000 0.084827 0.000000
# 6 0.000000 0.000000 0.000000 0.000000 0.000000 0.048385
#
#
# Mechanical properties :
#
#
# Convention : Reuss Voigt Hill
#
# Bulk Modulus (GPa) = 7.30331 49.63583 28.46957
# Shear Modulus (GPa) = 11.26969 20.57901 15.92435
#
# Velocity S-wave (km/s) = 2.43598 3.29177 2.89566
# Velocity P-wave (km/s) = 3.42892 6.37048 5.11569
#
# Compressibility (1/GPa) = 0.13692413
#
# Stress axis : x y z
#
# Youngs Moduli (GPa) = 53.88485 8.24246 48.81050
#
# Poissons Ratio (x) = -0.08097 0.73296
# Poissons Ratio (y) = -0.52935 0.31871
# Poissons Ratio (z) = 0.80916 0.05382
#
# Static dielectric constant tensor:
#      x y z
#    x 1.674010 0.000000 0.000000 
#    y 0.000000 1.690020 0.000000 
#    z 0.000000 0.000000 1.587940 
# 
# From -- ./inp_files/30768.got.cif
#   From: 2010.05.17/outbox.cif.g08.bks.cpg/sg59_16_cif.got.tgz:30768.got - 2010.06.03 14:40:33.
