data_PCOD9449035
_publ_section_title
;
Structure prediction by ZEFSAII (Michael W. Deem and Ramdas Pophale) SiO2 
 PCOD9449035
Probable space group: P M M N
;
_chemical_formula_sum "Si O2"
_cell_formula_units_Z 48
_cell_length_a 9.980317
_cell_length_b 9.188064
_cell_length_c 30.396945
_cell_angle_alpha 90.000000
_cell_angle_beta 90.000000
_cell_angle_gamma 90.000000
_cell_volume 2787.393514
_symmetry_space_group_name_H-M "P M M N"
_symmetry_group_IT_number 59
_space_group.IT_coordinate_system_code '2'
_symmetry_cell_setting 'orthorhombic'
loop_
_space_group_symop_operation_xyz
x,y,z
1/2-x,1/2-y,z
1/2+x,-y,-z
-x,1/2+y,-z
-x,-y,-z
1/2+x,1/2+y,-z
1/2-x,y,z
x,1/2-y,z
loop_
_atom_site_type_symbol
_atom_site_label
_atom_site_fract_x
_atom_site_fract_y
_atom_site_fract_z
Si Si1 0.591087 0.925804 0.537479
Si Si2 0.250000 0.074594 0.051262
Si Si3 0.589654 0.077879 0.200893
Si Si4 0.906143 0.075439 0.379343
Si Si5 0.587336 0.916187 0.288891
Si Si6 0.485203 0.925770 0.896735
Si Si7 0.750000 0.574823 0.049830
O O1 0.750000 0.967584 0.536759
O O2 0.586573 0.750000 0.532322
O O3 0.512975 0.962009 0.582853
O O4 0.500000 0.000000 0.500000
O O5 0.250000 0.250000 0.048368
O O6 0.121902 0.034063 0.079493
O O7 0.250000 0.022902 0.000959
O O8 0.750000 0.054491 0.195262
O O9 0.570335 0.250000 0.208380
O O10 0.521816 0.036918 0.154835
O O11 0.542235 0.991783 0.243788
O O12 0.750000 0.033364 0.390102
O O13 0.906173 0.250000 0.374421
O O14 0.945558 0.002890 0.333195
O O15 0.750000 0.916587 0.287004
O O16 0.541780 0.750000 0.291492
O O17 0.463864 0.750000 0.899507
O O18 0.374262 0.009847 0.924031
O O19 0.750000 0.750000 0.050677
#
# Coordination Sequence:
#
# PCOD9449035 Si02
#       7
#     8   4   8   8   8   8   4
#     4  10  21  36  55  80 110 144 183 225 267 312
#     4   9  20  35  53  75 103 133 171 215 260 311
#     4   9  16  28  48  73  97 127 168 210 254 303
#     4   9  17  31  51  74 102 136 173 214 258 308
#     4   9  17  28  46  74 103 130 162 209 262 307
#     4  10  19  35  55  75 100 135 174 215 257 310
#     4  11  21  33  51  79 105 133 169 213 262 311
#
# _framework density 17.220388
#
# number of rings (size 3 to 8) (size 9 to 14) (size 15 to 20)
#    0.000    2.500    0.833    1.750    0.000    4.333 
#    0.000    2.917    1.833    0.000    0.000    0.000 
#    0.000    0.000    0.000    0.000    0.000    0.000 
#
# Total GULP energy -267488.564357 kJ/mol
# GULP energy per Si atom -5572.678424 kJ/mol
# Density = 1.718119 g / cm^3
# Si number density = 17.220388 Si / 1000 Ang^3
#
#
#
# Elastic Constant Matrix: (Units=GPa)
#
#
# Indices 1 2 3 4 5 6 
#
# 1 114.7019 41.1651 83.7914 0.0000 0.0000 0.0000
# 2 41.1651 35.0549 65.0717 0.0000 0.0000 0.0000
# 3 83.7914 65.0717 196.2996 0.0000 0.0000 0.0000
# 4 0.0000 0.0000 0.0000 29.1966 0.0000 0.0000
# 5 0.0000 0.0000 0.0000 0.0000 58.4924 0.0000
# 6 0.0000 0.0000 0.0000 0.0000 0.0000 21.3527
#
#
#
# Elastic Compliance Matrix: (Units=1/GPa)
#
#
# Indices 1 2 3 4 5 6 
#
# 1 0.015234 -0.015127 -0.001489 0.000000 0.000000 0.000000
# 2 -0.015127 0.089181 -0.023106 0.000000 0.000000 0.000000
# 3 -0.001489 -0.023106 0.013389 0.000000 0.000000 0.000000
# 4 0.000000 0.000000 0.000000 0.034251 0.000000 0.000000
# 5 0.000000 0.000000 0.000000 0.000000 0.017096 0.000000
# 6 0.000000 0.000000 0.000000 0.000000 0.000000 0.046833
#
#
# Mechanical properties :
#
#
# Convention : Reuss Voigt Hill
#
# Bulk Modulus (GPa) = 26.06737 80.67921 53.37329
# Shear Modulus (GPa) = 16.22256 32.21022 24.21639
#
# Velocity S-wave (km/s) = 3.07262 4.32958 3.75409
# Velocity P-wave (km/s) = 5.26862 8.48212 7.06062
#
# Compressibility (1/GPa) = 0.03836214
#
# Stress axis : x y z
#
# Youngs Moduli (GPa) = 65.64094 11.21320 74.68816
#
# Poissons Ratio (x) = 0.16962 0.11117
# Poissons Ratio (y) = 0.99293 1.72573
# Poissons Ratio (z) = 0.09771 0.25909
#
# Static dielectric constant tensor:
#      x y z
#    x 1.539510 0.000000 0.000000 
#    y 0.000000 1.577770 0.000000 
#    z 0.000000 0.000000 1.573340 
# 
# From -- ./inp_files/32945.got.cif
#   From: 2010.05.17/outbox.cif.g08.bks.cpg/sg59_17_cif.got.tgz:32945.got - 2010.06.03 14:40:33.
