data_PCOD9449695
_publ_section_title
;
Structure prediction by ZEFSAII (Michael W. Deem and Ramdas Pophale) SiO2 
 PCOD9449695
Probable space group: P M M N
;
_chemical_formula_sum "Si O2"
_cell_formula_units_Z 48
_cell_length_a 7.520048
_cell_length_b 9.380626
_cell_length_c 32.495046
_cell_angle_alpha 90.000000
_cell_angle_beta 90.000000
_cell_angle_gamma 90.000000
_cell_volume 2292.290159
_symmetry_space_group_name_H-M "P M M N"
_symmetry_group_IT_number 59
_space_group.IT_coordinate_system_code '2'
_symmetry_cell_setting 'orthorhombic'
loop_
_space_group_symop_operation_xyz
x,y,z
1/2-x,1/2-y,z
1/2+x,-y,-z
-x,1/2+y,-z
-x,-y,-z
1/2+x,1/2+y,-z
1/2-x,y,z
x,1/2-y,z
loop_
_atom_site_type_symbol
_atom_site_label
_atom_site_fract_x
_atom_site_fract_y
_atom_site_fract_z
Si Si1 0.467149 0.416415 0.120214
Si Si2 0.963404 0.088768 0.958977
Si Si3 0.463468 0.414920 0.209989
Si Si4 0.036879 0.588047 0.541191
Si Si5 0.461063 0.912768 0.700125
Si Si6 0.531991 0.914031 0.378931
O O1 0.250000 0.418006 0.119629
O O2 0.518671 0.250000 0.116217
O O3 0.530546 0.507827 0.081669
O O4 0.523076 0.471761 0.165505
O O5 0.750000 0.096246 0.954947
O O6 0.031604 0.250000 0.962260
O O7 0.000000 0.000000 0.000000
O O8 0.250000 0.413504 0.208902
O O9 0.525862 0.250000 0.211127
O O10 0.513113 0.476863 0.254223
O O11 0.250000 0.596776 0.545205
O O12 0.968235 0.750000 0.538887
O O13 0.972571 0.503380 0.581353
O O14 0.000000 0.500000 0.500000
O O15 0.250000 0.901152 0.694114
O O16 0.533704 0.750000 0.699140
O O17 0.528591 0.008877 0.662890
O O18 0.750000 0.913587 0.378959
O O19 0.475520 0.750000 0.381130
#
# Coordination Sequence:
#
# PCOD9449695 Si02
#       6
#     8   8   8   8   8   8
#     4   8  14  27  47  67  89 121 157 190 228 279
#     4  10  20  33  50  72  96 124 159 197 238 285
#     4   8  14  26  45  67  90 119 154 188 226 275
#     4  10  20  34  53  76 100 127 161 200 241 287
#     4   9  16  27  45  68  91 116 151 194 233 270
#     4   9  17  30  48  68  92 125 161 193 230 281
#
# _framework density 20.939755999999999
#
# number of rings (size 3 to 8) (size 9 to 14) (size 15 to 20)
#    0.000    3.000    0.000    2.500    0.000    4.000 
#    0.000    2.500    0.000    7.500    0.000    0.000 
#    0.000    0.000    0.000    0.000    0.000    0.000 
#
# Total GULP energy -267726.690157 kJ/mol
# GULP energy per Si atom -5577.639378 kJ/mol
# Density = 2.089210 g / cm^3
# Si number density = 20.939756 Si / 1000 Ang^3
#
#
#
# Elastic Constant Matrix: (Units=GPa)
#
#
# Indices 1 2 3 4 5 6 
#
# 1 51.8672 6.2524 1.8703 0.0000 0.0000 0.0000
# 2 6.2524 151.7838 126.6911 0.0000 0.0000 0.0000
# 3 1.8703 126.6911 258.9895 0.0000 0.0000 0.0000
# 4 0.0000 0.0000 0.0000 35.1047 0.0000 0.0000
# 5 0.0000 0.0000 0.0000 0.0000 23.6416 0.0000
# 6 0.0000 0.0000 0.0000 0.0000 0.0000 6.6613
#
#
#
# Elastic Compliance Matrix: (Units=1/GPa)
#
#
# Indices 1 2 3 4 5 6 
#
# 1 0.019404 -0.001153 0.000424 0.000000 0.000000 0.000000
# 2 -0.001153 0.011203 -0.005472 0.000000 0.000000 0.000000
# 3 0.000424 -0.005472 0.006535 0.000000 0.000000 0.000000
# 4 0.000000 0.000000 0.000000 0.028486 0.000000 0.000000
# 5 0.000000 0.000000 0.000000 0.000000 0.042298 0.000000
# 6 0.000000 0.000000 0.000000 0.000000 0.000000 0.150120
#
#
# Mechanical properties :
#
#
# Convention : Reuss Voigt Hill
#
# Bulk Modulus (GPa) = 40.42135 81.36311 60.89223
# Shear Modulus (GPa) = 17.94074 34.93664 26.43869
#
# Velocity S-wave (km/s) = 2.93025 4.08908 3.55717
# Velocity P-wave (km/s) = 5.54924 7.82523 6.78337
#
# Compressibility (1/GPa) = 0.02473940
#
# Stress axis : x y z
#
# Youngs Moduli (GPa) = 51.53646 89.26033 153.02553
#
# Poissons Ratio (x) = 0.10293 -0.06488
# Poissons Ratio (y) = 0.05943 0.83735
# Poissons Ratio (z) = -0.02185 0.48843
#
# Static dielectric constant tensor:
#      x y z
#    x 1.811750 0.000000 0.000000 
#    y 0.000000 1.724890 0.000000 
#    z 0.000000 0.000000 1.750690 
# 
# From -- ./inp_files/31220.got.cif
#   From: 2010.05.17/outbox.cif.g08.bks.cpg/sg59_16_cif.got.tgz:31220.got - 2010.06.03 14:40:33.
