data_PCOD9449030
_publ_section_title
;
Structure prediction by ZEFSAII (Michael W. Deem and Ramdas Pophale) SiO2 
 PCOD9449030
Probable space group: P M M N
;
_chemical_formula_sum "Si O2"
_cell_formula_units_Z 48
_cell_length_a 13.885452
_cell_length_b 27.385902
_cell_length_c 5.621140
_cell_angle_alpha 90.000000
_cell_angle_beta 90.000000
_cell_angle_gamma 90.000000
_cell_volume 2137.526330
_symmetry_space_group_name_H-M "P M M N"
_symmetry_group_IT_number 59
_space_group.IT_coordinate_system_code '2'
_symmetry_cell_setting 'orthorhombic'
loop_
_space_group_symop_operation_xyz
x,y,z
1/2-x,1/2-y,z
1/2+x,-y,-z
-x,1/2+y,-z
-x,-y,-z
1/2+x,1/2+y,-z
1/2-x,y,z
x,1/2-y,z
loop_
_atom_site_type_symbol
_atom_site_label
_atom_site_fract_x
_atom_site_fract_y
_atom_site_fract_z
Si Si1 0.946163 0.694678 0.735569
Si Si2 0.906156 0.034011 0.042261
Si Si3 0.975746 0.130377 0.893019
Si Si4 0.358118 0.805508 0.436590
Si Si5 0.885452 0.500938 0.543447
Si Si6 0.355938 0.392179 0.551155
O O1 0.911204 0.750000 0.721225
O O2 0.879297 0.655321 0.605517
O O3 0.053531 0.692567 0.621066
O O4 0.964255 0.675203 0.998982
O O5 0.939511 0.089937 0.077399
O O6 0.859364 0.029853 0.778420
O O7 0.852771 0.016509 0.280426
O O8 0.000000 0.000000 0.000000
O O9 0.886722 0.153950 0.754951
O O10 0.053531 0.103680 0.727119
O O11 0.250000 0.813086 0.532455
O O12 0.360271 0.750000 0.335577
O O13 0.856385 0.556862 0.589859
O O14 0.000000 0.500000 0.500000
O O15 0.250000 0.387232 0.664067
#
# Coordination Sequence:
#
# PCOD9449030 Si02
#       6
#     8   8   8   8   8   8
#     4  10  22  40  63  92 125 169 217 271 334 395
#     4  10  19  34  65  88 124 164 210 260 329 383
#     4  11  21  37  65  92 126 168 213 268 330 395
#     4   9  20  39  62  90 123 158 204 265 334 405
#     4  10  19  38  62  90 118 168 210 270 323 386
#     4  11  24  40  62  89 126 175 226 271 323 388
#
# _framework density 22.455864999999999
#
# number of rings (size 3 to 8) (size 9 to 14) (size 15 to 20)
#    0.000    1.833    3.333    2.500    2.333    2.333 
#    0.000    3.333    0.000    0.000    0.000    0.000 
#    0.000    0.000    0.000    0.000    0.000    0.000 
#
# Total GULP energy -267709.178221 kJ/mol
# GULP energy per Si atom -5577.274546 kJ/mol
# Density = 2.240475 g / cm^3
# Si number density = 22.455865 Si / 1000 Ang^3
#
#
#
# Elastic Constant Matrix: (Units=GPa)
#
#
# Indices 1 2 3 4 5 6 
#
# 1 106.0299 15.5270 -3.9706 0.0000 0.0000 0.0000
# 2 15.5270 123.3674 15.8539 0.0000 0.0000 0.0000
# 3 -3.9706 15.8539 88.0768 0.0000 0.0000 0.0000
# 4 0.0000 0.0000 0.0000 38.4804 0.0000 0.0000
# 5 0.0000 0.0000 0.0000 0.0000 -364.0809 0.0000
# 6 0.0000 0.0000 0.0000 0.0000 0.0000 -14.1553
#
#
#
# Elastic Compliance Matrix: (Units=1/GPa)
#
#
# Indices 1 2 3 4 5 6 
#
# 1 0.009647 -0.001300 0.000669 0.000000 0.000000 0.000000
# 2 -0.001300 0.008473 -0.001584 0.000000 0.000000 0.000000
# 3 0.000669 -0.001584 0.011669 0.000000 0.000000 0.000000
# 4 0.000000 0.000000 0.000000 0.025987 0.000000 0.000000
# 5 0.000000 0.000000 0.000000 0.000000 -0.002747 0.000000
# 6 0.000000 0.000000 0.000000 0.000000 0.000000 -0.070645
#
#
# Mechanical properties :
#
#
# Convention : Reuss Voigt Hill
#
# Bulk Modulus (GPa) = 39.43404 41.36609 40.40006
# Shear Modulus (GPa) = -1056.52171 -48.61358 -552.56764
#
# Velocity S-wave (km/s) = -21.71427 -4.65784 -15.70358
# Velocity P-wave (km/s) = 24.72004 3.23516 17.62877
#
# Compressibility (1/GPa) = 0.02535880
#
# Stress axis : x y z
#
# Youngs Moduli (GPa) = 103.66202 118.02161 85.69748
#
# Poissons Ratio (x) = 0.15344 -0.05732
# Poissons Ratio (y) = 0.13477 0.13572
# Poissons Ratio (z) = -0.06934 0.18692
#
# Static dielectric constant tensor:
#      x y z
#    x 1.868110 0.000000 0.000000 
#    y 0.000000 1.811590 0.000000 
#    z 0.000000 0.000000 1.907190 
# 
# From -- ./inp_files/2160.got.cif
#   From: 2010.05.17/outbox.cif.g08.bks.cpg/sg59_2_cif.got.tgz:2160.got - 2010.06.03 14:40:33.
