data_PCOD9449070
_publ_section_title
;
Structure prediction by ZEFSAII (Michael W. Deem and Ramdas Pophale) SiO2 
 PCOD9449070
Probable space group: P M M N
;
_chemical_formula_sum "Si O2"
_cell_formula_units_Z 64
_cell_length_a 20.892295
_cell_length_b 7.725279
_cell_length_c 18.765915
_cell_angle_alpha 90.000000
_cell_angle_beta 90.000000
_cell_angle_gamma 90.000000
_cell_volume 3028.796309
_symmetry_space_group_name_H-M "P M M N"
_symmetry_group_IT_number 59
_space_group.IT_coordinate_system_code '2'
_symmetry_cell_setting 'orthorhombic'
loop_
_space_group_symop_operation_xyz
x,y,z
1/2-x,1/2-y,z
1/2+x,-y,-z
-x,1/2+y,-z
-x,-y,-z
1/2+x,1/2+y,-z
1/2-x,y,z
x,1/2-y,z
loop_
_atom_site_type_symbol
_atom_site_label
_atom_site_fract_x
_atom_site_fract_y
_atom_site_fract_z
Si Si1 0.540633 0.545979 0.209091
Si Si2 0.677068 0.459707 0.404419
Si Si3 0.072582 0.957705 0.480823
Si Si4 0.681764 0.458313 0.929649
Si Si5 0.678337 0.954209 0.238544
Si Si6 0.461954 0.050208 0.070044
Si Si7 0.559895 0.037144 0.679626
Si Si8 0.182513 0.960300 0.236188
O O1 0.549279 0.750000 0.221661
O O2 0.613206 0.474648 0.201843
O O3 0.493267 0.534120 0.140832
O O4 0.504060 0.477242 0.279600
O O5 0.750000 0.505993 0.426089
O O6 0.673742 0.250000 0.401103
O O7 0.623951 0.522178 0.461021
O O8 0.667684 0.525859 0.323811
O O9 0.080868 0.750000 0.479244
O O10 0.076235 0.021383 0.399718
O O11 0.000000 0.000000 0.500000
O O12 0.750000 0.519616 0.961558
O O13 0.681979 0.250000 0.934278
O O14 0.611740 0.516570 0.951149
O O15 0.682880 0.507637 0.846351
O O16 0.750000 0.027833 0.222929
O O17 0.682323 0.750000 0.221726
O O18 0.469203 0.250000 0.085386
O O19 0.500000 0.000000 0.000000
O O20 0.557754 0.250000 0.678696
O O21 0.619025 0.977941 0.727319
O O22 0.250000 0.016337 0.269098
O O23 0.181046 0.750000 0.238702
#
# Coordination Sequence:
#
# PCOD9449070 Si02
#       8
#     8   8   8   8   8   8   8   8
#     4  10  19  35  57  79 108 140 178 231 284 338
#     4   9  18  32  49  72 106 145 184 229 276 323
#     4  10  20  32  47  70 101 139 181 226 273 323
#     4   9  17  34  61  88 115 147 182 219 264 322
#     4   9  18  33  56  83 107 139 184 231 281 337
#     4  12  25  40  60  86 117 152 189 229 277 333
#     4   9  16  27  47  72  99 134 177 222 270 322
#     4   8  13  23  45  76 103 128 164 210 255 306
#
# _framework density 21.130507999999999
#
# number of rings (size 3 to 8) (size 9 to 14) (size 15 to 20)
#    0.000    2.500    1.250    2.625    0.000    2.750 
#    0.000    3.750    0.000    2.250    0.000    0.000 
#    0.000    0.000    0.000    0.000    0.000    0.000 
#
# Total GULP energy -356546.034651 kJ/mol
# GULP energy per Si atom -5571.031791 kJ/mol
# Density = 2.108241 g / cm^3
# Si number density = 21.130508 Si / 1000 Ang^3
#
#
#
# Elastic Constant Matrix: (Units=GPa)
#
#
# Indices 1 2 3 4 5 6 
#
# 1 166.5513 3.2094 16.7718 0.0000 0.0000 0.0000
# 2 3.2094 29.8187 -8.7491 0.0000 0.0000 0.0000
# 3 16.7718 -8.7491 19.3690 0.0000 0.0000 0.0000
# 4 0.0000 0.0000 0.0000 13.7575 0.0000 0.0000
# 5 0.0000 0.0000 0.0000 0.0000 32.1062 0.0000
# 6 0.0000 0.0000 0.0000 0.0000 0.0000 13.3042
#
#
#
# Elastic Compliance Matrix: (Units=1/GPa)
#
#
# Indices 1 2 3 4 5 6 
#
# 1 0.006778 -0.002826 -0.007146 0.000000 0.000000 0.000000
# 2 -0.002826 0.039838 0.020442 0.000000 0.000000 0.000000
# 3 -0.007146 0.020442 0.067050 0.000000 0.000000 0.000000
# 4 0.000000 0.000000 0.000000 0.072688 0.000000 0.000000
# 5 0.000000 0.000000 0.000000 0.000000 0.031147 0.000000
# 6 0.000000 0.000000 0.000000 0.000000 0.000000 0.075164
#
#
# Mechanical properties :
#
#
# Convention : Reuss Voigt Hill
#
# Bulk Modulus (GPa) = 7.42902 26.46703 16.94802
# Shear Modulus (GPa) = 15.79310 25.46737 20.63023
#
# Velocity S-wave (km/s) = 2.73684 3.47543 3.12801
# Velocity P-wave (km/s) = 3.67566 5.35327 4.59173
#
# Compressibility (1/GPa) = 0.13460731
#
# Stress axis : x y z
#
# Youngs Moduli (GPa) = 147.53143 25.10152 14.91415
#
# Poissons Ratio (x) = 0.07094 0.10658
# Poissons Ratio (y) = 0.41696 -0.30488
# Poissons Ratio (z) = 1.05425 -0.51313
#
# Static dielectric constant tensor:
#      x y z
#    x 1.907140 0.000000 0.000000 
#    y 0.000000 1.790590 0.000000 
#    z 0.000000 0.000000 1.758990 
# 
# From -- ./inp_files/28156.got.cif
#   From: 2010.05.17/outbox.cif.g08.bks.cpg/sg59_15_cif.got.tgz:28156.got - 2010.06.03 14:40:33.
