data_PCOD9449150
_publ_section_title
;
Structure prediction by ZEFSAII (Michael W. Deem and Ramdas Pophale) SiO2 
 PCOD9449150
Probable space group: P M M N
;
_chemical_formula_sum "Si O2"
_cell_formula_units_Z 64
_cell_length_a 8.652823
_cell_length_b 28.986300
_cell_length_c 13.236842
_cell_angle_alpha 90.000000
_cell_angle_beta 90.000000
_cell_angle_gamma 90.000000
_cell_volume 3319.976332
_symmetry_space_group_name_H-M "P M M N"
_symmetry_group_IT_number 59
_space_group.IT_coordinate_system_code '2'
_symmetry_cell_setting 'orthorhombic'
loop_
_space_group_symop_operation_xyz
x,y,z
1/2-x,1/2-y,z
1/2+x,-y,-z
-x,1/2+y,-z
-x,-y,-z
1/2+x,1/2+y,-z
1/2-x,y,z
x,1/2-y,z
loop_
_atom_site_type_symbol
_atom_site_label
_atom_site_fract_x
_atom_site_fract_y
_atom_site_fract_z
Si Si1 0.067640 0.549195 0.969119
Si Si2 0.936700 0.643098 0.035475
Si Si3 0.564867 0.641368 0.635604
Si Si4 0.438534 0.303044 0.166102
Si Si5 0.934675 0.135176 0.581919
Si Si6 0.436484 0.971176 0.405326
Si Si7 0.065234 0.452642 0.251277
Si Si8 0.436862 0.303291 0.762562
O O1 0.250000 0.548770 0.981467
O O2 0.021092 0.556586 0.852524
O O3 0.000000 0.500000 0.000000
O O4 0.997696 0.591156 0.033192
O O5 0.750000 0.641974 0.034160
O O6 0.986188 0.671677 0.133730
O O7 0.988527 0.668419 0.932302
O O8 0.750000 0.646506 0.623583
O O9 0.513784 0.673318 0.729011
O O10 0.484928 0.650880 0.529632
O O11 0.534654 0.588823 0.670643
O O12 0.250000 0.303910 0.165512
O O13 0.487415 0.250000 0.159864
O O14 0.750000 0.135524 0.589928
O O15 0.988746 0.081863 0.594755
O O16 0.004012 0.167796 0.667551
O O17 0.250000 0.971660 0.411883
O O18 0.500000 0.000000 0.500000
O O19 0.478766 0.999412 0.304332
O O20 0.250000 0.452511 0.230809
O O21 0.250000 0.303342 0.761385
O O22 0.488138 0.250000 0.759930
#
# Coordination Sequence:
#
# PCOD9449150 Si02
#       8
#     8   8   8   8   8   8   8   8
#     4  12  26  41  60  89 125 163 200 242 298 364
#     4  10  20  40  66  93 121 153 198 251 308 365
#     4  10  19  35  60  88 120 160 203 249 301 361
#     4   9  17  32  59  91 118 147 189 244 304 362
#     4  11  24  39  58  88 125 164 208 259 313 366
#     4  10  21  36  57  85 118 157 201 246 296 358
#     4  10  20  38  60  85 119 158 200 249 303 360
#     4  10  23  43  67  92 119 159 213 265 309 365
#
# _framework density 19.277246000000002
#
# number of rings (size 3 to 8) (size 9 to 14) (size 15 to 20)
#    0.000    1.750    2.500    1.875    1.750    4.250 
#    0.000    1.250    0.000    1.875    0.000    0.000 
#    0.000    0.000    0.000    0.000    0.000    0.000 
#
# Total GULP energy -357578.084412 kJ/mol
# GULP energy per Si atom -5587.157569 kJ/mol
# Density = 1.923337 g / cm^3
# Si number density = 19.277246 Si / 1000 Ang^3
#
#
#
# Elastic Constant Matrix: (Units=GPa)
#
#
# Indices 1 2 3 4 5 6 
#
# 1 18.2580 31.4360 32.4664 0.0000 0.0000 0.0000
# 2 31.4360 169.3321 87.7131 0.0000 0.0000 0.0000
# 3 32.4664 87.7131 132.1005 0.0000 0.0000 0.0000
# 4 0.0000 0.0000 0.0000 30.9915 0.0000 0.0000
# 5 0.0000 0.0000 0.0000 0.0000 22.3932 0.0000
# 6 0.0000 0.0000 0.0000 0.0000 0.0000 22.9510
#
#
#
# Elastic Compliance Matrix: (Units=1/GPa)
#
#
# Indices 1 2 3 4 5 6 
#
# 1 0.106381 -0.009460 -0.019864 0.000000 0.000000 0.000000
# 2 -0.009460 0.009843 -0.004211 0.000000 0.000000 0.000000
# 3 -0.019864 -0.004211 0.015248 0.000000 0.000000 0.000000
# 4 0.000000 0.000000 0.000000 0.032267 0.000000 0.000000
# 5 0.000000 0.000000 0.000000 0.000000 0.044656 0.000000
# 6 0.000000 0.000000 0.000000 0.000000 0.000000 0.043571
#
#
# Mechanical properties :
#
#
# Convention : Reuss Voigt Hill
#
# Bulk Modulus (GPa) = 15.52738 69.21351 42.37044
# Shear Modulus (GPa) = 14.68422 26.47215 20.57818
#
# Velocity S-wave (km/s) = 2.76296 3.70974 3.27078
# Velocity P-wave (km/s) = 4.27210 7.37101 6.02422
#
# Compressibility (1/GPa) = 0.06440237
#
# Stress axis : x y z
#
# Youngs Moduli (GPa) = 9.40021 101.59729 65.58348
#
# Poissons Ratio (x) = 0.96109 1.30275
# Poissons Ratio (y) = 0.08892 0.27614
# Poissons Ratio (z) = 0.18673 0.42778
#
# Static dielectric constant tensor:
#      x y z
#    x 1.655430 0.000000 0.000000 
#    y 0.000000 1.670440 0.000000 
#    z 0.000000 0.000000 1.653990 
# 
# From -- ./inp_files/15039.got.cif
#   From: 2010.05.17/outbox.cif.g08.bks.cpg/sg59_8_cif.got.tgz:15039.got - 2010.06.03 14:40:33.
