data_PCOD9449911
_publ_section_title
;
Structure prediction by ZEFSAII (Michael W. Deem and Ramdas Pophale) SiO2 
 PCOD9449911
Probable space group: P M M N
;
_chemical_formula_sum "Si O2"
_cell_formula_units_Z 56
_cell_length_a 21.036779
_cell_length_b 8.647432
_cell_length_c 15.476332
_cell_angle_alpha 90.000000
_cell_angle_beta 90.000000
_cell_angle_gamma 90.000000
_cell_volume 2815.363253
_symmetry_space_group_name_H-M "P M M N"
_symmetry_group_IT_number 59
_space_group.IT_coordinate_system_code '2'
_symmetry_cell_setting 'orthorhombic'
loop_
_space_group_symop_operation_xyz
x,y,z
1/2-x,1/2-y,z
1/2+x,-y,-z
-x,1/2+y,-z
-x,-y,-z
1/2+x,1/2+y,-z
1/2-x,y,z
x,1/2-y,z
loop_
_atom_site_type_symbol
_atom_site_label
_atom_site_fract_x
_atom_site_fract_y
_atom_site_fract_z
Si Si1 0.179237 0.566925 0.978442
Si Si2 0.008720 0.928739 0.233463
Si Si3 0.117069 0.925699 0.800545
Si Si4 0.323730 0.075476 0.640764
Si Si5 0.177641 0.563855 0.449493
Si Si6 0.539637 0.565143 0.583386
Si Si7 0.944932 0.932134 0.937300
O O1 0.250000 0.516387 0.002075
O O2 0.172700 0.750000 0.998747
O O3 0.122789 0.475324 0.022685
O O4 0.168258 0.552815 0.875545
O O5 0.022848 0.750000 0.248166
O O6 0.939785 0.953999 0.190566
O O7 0.008491 0.014599 0.325632
O O8 0.053162 0.999498 0.159574
O O9 0.092434 0.750000 0.807671
O O10 0.145150 0.959075 0.707258
O O11 0.250000 0.087604 0.664536
O O12 0.351649 0.250000 0.643740
O O13 0.326274 0.007132 0.545350
O O14 0.250000 0.524380 0.416536
O O15 0.173890 0.750000 0.451175
O O16 0.112366 0.498379 0.409221
O O17 0.500000 0.500000 0.500000
O O18 0.540718 0.750000 0.575369
O O19 0.954815 0.750000 0.933140
O O20 0.000000 0.000000 0.000000
#
# Coordination Sequence:
#
# PCOD9449911 Si02
#       7
#     8   8   8   8   8   8   8
#     4  10  22  40  63  92 128 169 212 263 322 381
#     4  12  25  42  65  93 124 164 213 265 320 383
#     4  11  21  35  57  86 122 162 205 254 315 384
#     4  10  20  33  51  79 117 160 206 254 309 376
#     4  10  21  39  62  87 119 162 211 263 323 386
#     4  12  25  43  66  95 132 170 215 271 325 385
#     4  12  24  42  67  95 127 168 214 262 315 376
#
# _framework density 19.890861999999998
#
# number of rings (size 3 to 8) (size 9 to 14) (size 15 to 20)
#    0.000    1.000    1.429    6.429    0.000    3.143 
#    0.000    0.714    0.000    4.286    0.000    0.000 
#    0.000    0.000    0.000    0.000    0.000    0.000 
#
# Total GULP energy -312718.792822 kJ/mol
# GULP energy per Si atom -5584.264158 kJ/mol
# Density = 1.984559 g / cm^3
# Si number density = 19.890862 Si / 1000 Ang^3
#
#
#
# Elastic Constant Matrix: (Units=GPa)
#
#
# Indices 1 2 3 4 5 6 
#
# 1 96.2713 37.3709 24.4832 0.0000 0.0000 0.0000
# 2 37.3709 117.8630 28.4652 0.0000 0.0000 0.0000
# 3 24.4832 28.4652 73.6971 0.0000 0.0000 0.0000
# 4 0.0000 0.0000 0.0000 21.3905 0.0000 0.0000
# 5 0.0000 0.0000 0.0000 0.0000 25.3215 0.0000
# 6 0.0000 0.0000 0.0000 0.0000 0.0000 33.4208
#
#
#
# Elastic Compliance Matrix: (Units=1/GPa)
#
#
# Indices 1 2 3 4 5 6 
#
# 1 0.012369 -0.003231 -0.002861 0.000000 0.000000 0.000000
# 2 -0.003231 0.010201 -0.002867 0.000000 0.000000 0.000000
# 3 -0.002861 -0.002867 0.015627 0.000000 0.000000 0.000000
# 4 0.000000 0.000000 0.000000 0.046750 0.000000 0.000000
# 5 0.000000 0.000000 0.000000 0.000000 0.039492 0.000000
# 6 0.000000 0.000000 0.000000 0.000000 0.000000 0.029922
#
#
# Mechanical properties :
#
#
# Convention : Reuss Voigt Hill
#
# Bulk Modulus (GPa) = 49.31139 52.05222 50.68181
# Shear Modulus (GPa) = 27.92697 29.19403 28.56050
#
# Velocity S-wave (km/s) = 3.75108 3.83523 3.79339
# Velocity P-wave (km/s) = 6.60345 6.77035 6.68742
#
# Compressibility (1/GPa) = 0.02027929
#
# Stress axis : x y z
#
# Youngs Moduli (GPa) = 80.84635 98.02757 63.99214
#
# Poissons Ratio (x) = 0.31671 0.18310
# Poissons Ratio (y) = 0.26120 0.18346
# Poissons Ratio (z) = 0.23132 0.28103
#
# Static dielectric constant tensor:
#      x y z
#    x 1.760070 0.000000 0.000000 
#    y 0.000000 1.669600 0.000000 
#    z 0.000000 0.000000 1.695510 
# 
# From -- ./inp_files/21075.got.cif
#   From: 2010.05.17/outbox.cif.g08.bks.cpg/sg59_11_cif.got.tgz:21075.got - 2010.06.03 14:40:33.
