data_PCOD9449736
_publ_section_title
;
Structure prediction by ZEFSAII (Michael W. Deem and Ramdas Pophale) SiO2 
 PCOD9449736
Probable space group: P M M N
;
_chemical_formula_sum "Si O2"
_cell_formula_units_Z 56
_cell_length_a 14.977050
_cell_length_b 9.381723
_cell_length_c 18.941925
_cell_angle_alpha 90.000000
_cell_angle_beta 90.000000
_cell_angle_gamma 90.000000
_cell_volume 2661.540005
_symmetry_space_group_name_H-M "P M M N"
_symmetry_group_IT_number 59
_space_group.IT_coordinate_system_code '2'
_symmetry_cell_setting 'orthorhombic'
loop_
_space_group_symop_operation_xyz
x,y,z
1/2-x,1/2-y,z
1/2+x,-y,-z
-x,1/2+y,-z
-x,-y,-z
1/2+x,1/2+y,-z
1/2-x,y,z
x,1/2-y,z
loop_
_atom_site_type_symbol
_atom_site_label
_atom_site_fract_x
_atom_site_fract_y
_atom_site_fract_z
Si Si1 0.859558 0.915514 0.167882
Si Si2 0.589123 0.921384 0.477191
Si Si3 0.641076 0.915468 0.892773
Si Si4 0.359482 0.084831 0.264281
Si Si5 0.859500 0.413464 0.029906
Si Si6 0.646786 0.922917 0.320814
Si Si7 0.647669 0.408401 0.604692
O O1 0.750000 0.917686 0.170013
O O2 0.885124 0.750000 0.158610
O O3 0.890374 0.970449 0.244893
O O4 0.888459 0.007400 0.101180
O O5 0.590495 0.750000 0.483538
O O6 0.605939 0.961114 0.395942
O O7 0.500000 0.000000 0.500000
O O8 0.651523 0.993068 0.535719
O O9 0.750000 0.919120 0.893664
O O10 0.615611 0.750000 0.900914
O O11 0.613914 0.964636 0.814297
O O12 0.610126 0.007176 0.958997
O O13 0.250000 0.085143 0.265441
O O14 0.385992 0.250000 0.273602
O O15 0.394696 0.989170 0.328529
O O16 0.750000 0.416848 0.029777
O O17 0.887445 0.250000 0.029912
O O18 0.750000 0.968430 0.324383
O O19 0.645695 0.750000 0.317323
O O20 0.750000 0.388083 0.625539
O O21 0.608087 0.250000 0.591843
#
# Coordination Sequence:
#
# PCOD9449736 Si02
#       7
#     8   8   8   8   8   8   8
#     4   8  13  23  39  57  78 107 146 187 223 264
#     4  11  22  36  53  72  97 126 158 197 242 291
#     4   8  13  21  33  50  76 113 153 187 220 263
#     4   8  14  25  41  61  85 116 155 194 231 272
#     4   9  15  20  28  48  80 115 147 179 221 269
#     4   8  15  29  50  72  90 116 157 198 234 277
#     4  10  20  33  50  73  99 126 159 198 240 287
#
# _framework density 21.040451000000001
#
# number of rings (size 3 to 8) (size 9 to 14) (size 15 to 20)
#    0.000    3.143    0.000    3.429    0.000    3.714 
#    0.000    4.286    0.000    3.429    0.000    0.000 
#    0.000    1.143    0.000    3.429    0.000    7.429 
#
# Total GULP energy -312133.632674 kJ/mol
# GULP energy per Si atom -5573.814869 kJ/mol
# Density = 2.099256 g / cm^3
# Si number density = 21.040451 Si / 1000 Ang^3
#
#
#
# Elastic Constant Matrix: (Units=GPa)
#
#
# Indices 1 2 3 4 5 6 
#
# 1 24.1830 8.6205 25.0602 0.0000 0.0000 0.0000
# 2 8.6205 106.0174 106.4143 0.0000 0.0000 0.0000
# 3 25.0602 106.4143 217.7978 0.0000 0.0000 0.0000
# 4 0.0000 0.0000 0.0000 18.8609 0.0000 0.0000
# 5 0.0000 0.0000 0.0000 0.0000 8.9712 0.0000
# 6 0.0000 0.0000 0.0000 0.0000 0.0000 5.3291
#
#
#
# Elastic Compliance Matrix: (Units=1/GPa)
#
#
# Indices 1 2 3 4 5 6 
#
# 1 0.047491 0.003185 -0.007021 0.000000 0.000000 0.000000
# 2 0.003185 0.018724 -0.009515 0.000000 0.000000 0.000000
# 3 -0.007021 -0.009515 0.010048 0.000000 0.000000 0.000000
# 4 0.000000 0.000000 0.000000 0.053020 0.000000 0.000000
# 5 0.000000 0.000000 0.000000 0.000000 0.111468 0.000000
# 6 0.000000 0.000000 0.000000 0.000000 0.000000 0.187649
#
#
# Mechanical properties :
#
#
# Convention : Reuss Voigt Hill
#
# Bulk Modulus (GPa) = 20.17641 69.79869 44.98755
# Shear Modulus (GPa) = 10.60174 20.49246 15.54710
#
# Velocity S-wave (km/s) = 2.24715 3.12421 2.72125
# Velocity P-wave (km/s) = 4.04266 6.80146 5.59477
#
# Compressibility (1/GPa) = 0.04956284
#
# Stress axis : x y z
#
# Youngs Moduli (GPa) = 21.05652 53.40770 99.52098
#
# Poissons Ratio (x) = -0.17013 0.69872
# Poissons Ratio (y) = -0.06708 0.94693
# Poissons Ratio (z) = 0.14783 0.50817
#
# Static dielectric constant tensor:
#      x y z
#    x 2.009560 0.000000 0.000000 
#    y 0.000000 1.726560 0.000000 
#    z 0.000000 0.000000 1.784720 
# 
# From -- ./inp_files/30875.got.cif
#   From: 2010.05.17/outbox.cif.g08.bks.cpg/sg59_16_cif.got.tgz:30875.got - 2010.06.03 14:40:33.
