data_PCOD9449203
_publ_section_title
;
Structure prediction by ZEFSAII (Michael W. Deem and Ramdas Pophale) SiO2 
 PCOD9449203
Probable space group: P M M N
;
_chemical_formula_sum "Si O2"
_cell_formula_units_Z 48
_cell_length_a 20.457793
_cell_length_b 14.994232
_cell_length_c 8.644060
_cell_angle_alpha 90.000000
_cell_angle_beta 90.000000
_cell_angle_gamma 90.000000
_cell_volume 2651.555849
_symmetry_space_group_name_H-M "P M M N"
_symmetry_group_IT_number 59
_space_group.IT_coordinate_system_code '2'
_symmetry_cell_setting 'orthorhombic'
loop_
_space_group_symop_operation_xyz
x,y,z
1/2-x,1/2-y,z
1/2+x,-y,-z
-x,1/2+y,-z
-x,-y,-z
1/2+x,1/2+y,-z
1/2-x,y,z
x,1/2-y,z
loop_
_atom_site_type_symbol
_atom_site_label
_atom_site_fract_x
_atom_site_fract_y
_atom_site_fract_z
Si Si1 0.522499 0.569028 0.135607
Si Si2 0.175182 0.649451 0.906527
Si Si3 0.412175 0.645935 0.351705
Si Si4 0.445453 0.899539 0.696197
Si Si5 0.081624 0.349155 0.141904
Si Si6 0.174462 0.515770 0.193899
O O1 0.462417 0.619240 0.214974
O O2 0.553691 0.505029 0.264471
O O3 0.500000 0.500000 0.000000
O O4 0.568062 0.635855 0.041028
O O5 0.250000 0.641534 0.847133
O O6 0.169347 0.750000 0.973897
O O7 0.118838 0.638899 0.779816
O O8 0.166210 0.573383 0.035855
O O9 0.396848 0.750000 0.345563
O O10 0.443526 0.622389 0.516416
O O11 0.349876 0.583140 0.325789
O O12 0.511702 0.860411 0.771917
O O13 0.106870 0.250000 0.171292
O O14 0.129053 0.428848 0.192533
O O15 0.250000 0.492222 0.209196
#
# Coordination Sequence:
#
# PCOD9449203 Si02
#       6
#     8   8   8   8   8   8
#     4  10  19  36  59  84 114 150 190 240 287 340
#     4  10  20  36  58  84 118 156 192 233 287 354
#     4  12  23  36  58  91 124 153 189 239 298 363
#     4  11  21  38  59  89 123 153 188 238 297 358
#     4  11  21  38  62  87 112 152 202 250 293 341
#     4  11  23  39  57  83 115 156 201 245 292 342
#
# _framework density 18.102578999999999
#
# number of rings (size 3 to 8) (size 9 to 14) (size 15 to 20)
#    0.000    1.167    5.000    4.000    0.000    2.000 
#    0.000    0.000    0.000    0.000    0.000    0.000 
#    0.000    0.000    0.000    0.000    0.000    0.000 
#
# Total GULP energy -267892.839759 kJ/mol
# GULP energy per Si atom -5581.100828 kJ/mol
# Density = 1.806138 g / cm^3
# Si number density = 18.102579 Si / 1000 Ang^3
#
#
#
# Elastic Constant Matrix: (Units=GPa)
#
#
# Indices 1 2 3 4 5 6 
#
# 1 115.0931 65.1484 32.6134 0.0000 0.0000 0.0000
# 2 65.1484 122.5999 44.3374 0.0000 0.0000 0.0000
# 3 32.6134 44.3374 54.7442 0.0000 0.0000 0.0000
# 4 0.0000 0.0000 0.0000 19.6432 0.0000 0.0000
# 5 0.0000 0.0000 0.0000 0.0000 14.6089 0.0000
# 6 0.0000 0.0000 0.0000 0.0000 0.0000 13.8822
#
#
#
# Elastic Compliance Matrix: (Units=1/GPa)
#
#
# Indices 1 2 3 4 5 6 
#
# 1 0.012762 -0.005702 -0.002985 0.000000 0.000000 0.000000
# 2 -0.005702 0.014083 -0.008009 0.000000 0.000000 0.000000
# 3 -0.002985 -0.008009 0.026531 0.000000 0.000000 0.000000
# 4 0.000000 0.000000 0.000000 0.050908 0.000000 0.000000
# 5 0.000000 0.000000 0.000000 0.000000 0.068452 0.000000
# 6 0.000000 0.000000 0.000000 0.000000 0.000000 0.072035
#
#
# Mechanical properties :
#
#
# Convention : Reuss Voigt Hill
#
# Bulk Modulus (GPa) = 50.03776 64.07063 57.05420
# Shear Modulus (GPa) = 17.55470 19.64938 18.60204
#
# Velocity S-wave (km/s) = 3.11743 3.29819 3.20908
# Velocity P-wave (km/s) = 6.37645 7.06923 6.73176
#
# Compressibility (1/GPa) = 0.01998491
#
# Stress axis : x y z
#
# Youngs Moduli (GPa) = 78.35665 71.00708 37.69149
#
# Poissons Ratio (x) = 0.40490 0.11250
# Poissons Ratio (y) = 0.44681 0.30186
# Poissons Ratio (z) = 0.23387 0.56868
#
# Static dielectric constant tensor:
#      x y z
#    x 1.625360 0.000000 0.000000 
#    y 0.000000 1.643280 0.000000 
#    z 0.000000 0.000000 1.631840 
# 
# From -- ./inp_files/11276.got.cif
#   From: 2010.05.17/outbox.cif.g08.bks.cpg/sg59_6_cif.got.tgz:11276.got - 2010.06.03 14:40:33.
