data_PCOD9449583
_publ_section_title
;
Structure prediction by ZEFSAII (Michael W. Deem and Ramdas Pophale) SiO2 
 PCOD9449583
Probable space group: P M M N
;
_chemical_formula_sum "Si O2"
_cell_formula_units_Z 64
_cell_length_a 9.159132
_cell_length_b 17.686612
_cell_length_c 21.916053
_cell_angle_alpha 90.000000
_cell_angle_beta 90.000000
_cell_angle_gamma 90.000000
_cell_volume 3550.269395
_symmetry_space_group_name_H-M "P M M N"
_symmetry_group_IT_number 59
_space_group.IT_coordinate_system_code '2'
_symmetry_cell_setting 'orthorhombic'
loop_
_space_group_symop_operation_xyz
x,y,z
1/2-x,1/2-y,z
1/2+x,-y,-z
-x,1/2+y,-z
-x,-y,-z
1/2+x,1/2+y,-z
1/2-x,y,z
x,1/2-y,z
loop_
_atom_site_type_symbol
_atom_site_label
_atom_site_fract_x
_atom_site_fract_y
_atom_site_fract_z
Si Si1 0.922308 0.834312 0.632599
Si Si2 0.075737 0.065009 0.908897
Si Si3 0.420600 0.587596 0.738445
Si Si4 0.574407 0.439145 0.689626
Si Si5 0.573793 0.338316 0.801537
Si Si6 0.423983 0.009466 0.435448
Si Si7 0.086175 0.163456 0.162154
Si Si8 0.418877 0.084935 0.043862
O O1 0.750000 0.839226 0.648662
O O2 0.948723 0.750000 0.607763
O O3 0.018128 0.849364 0.692168
O O4 0.953230 0.905380 0.588944
O O5 0.250000 0.062412 0.898227
O O6 0.999592 0.107778 0.852557
O O7 0.044428 0.105103 0.974356
O O8 0.013695 0.981818 0.925657
O O9 0.250000 0.576688 0.730949
O O10 0.505964 0.511456 0.722749
O O11 0.465225 0.614488 0.804955
O O12 0.750000 0.445473 0.689580
O O13 0.536436 0.368411 0.733005
O O14 0.529438 0.450816 0.618530
O O15 0.750000 0.344094 0.807727
O O16 0.532958 0.250000 0.808945
O O17 0.250000 0.001672 0.442886
O O18 0.500000 0.000000 0.500000
O O19 0.250000 0.136193 0.179539
O O20 0.074059 0.250000 0.180485
O O21 0.073611 0.154294 0.089927
O O22 0.250000 0.057560 0.042760
#
# Coordination Sequence:
#
# PCOD9449583 Si02
#       8
#     8   8   8   8   8   8   8   8
#     4   9  18  34  54  74 100 137 177 210 245 299
#     4  10  20  34  54  78 102 129 166 217 271 316
#     4  11  21  31  48  76 105 130 162 208 258 301
#     4   9  19  37  57  75 100 137 176 207 242 299
#     4  10  21  37  57  79 103 135 177 222 265 312
#     4   9  18  33  54  79 105 135 170 207 248 297
#     4  10  20  33  48  66  93 132 171 201 238 296
#     4   9  19  35  53  72  97 133 175 214 254 311
#
# _framework density 18.026800000000001
#
# number of rings (size 3 to 8) (size 9 to 14) (size 15 to 20)
#    0.000    2.375    0.000    3.375    0.000    9.250 
#    0.000    1.875    0.000    0.750    0.000    0.000 
#    0.000    0.000    0.000    0.000    0.000    0.000 
#
# Total GULP energy -356558.591051 kJ/mol
# GULP energy per Si atom -5571.227985 kJ/mol
# Density = 1.798577 g / cm^3
# Si number density = 18.026800 Si / 1000 Ang^3
#
#
#
# Elastic Constant Matrix: (Units=GPa)
#
#
# Indices 1 2 3 4 5 6 
#
# 1 12.2133 16.3176 32.2205 0.0000 0.0000 0.0000
# 2 16.3176 48.2751 36.8642 0.0000 0.0000 0.0000
# 3 32.2205 36.8642 126.4739 0.0000 0.0000 0.0000
# 4 0.0000 0.0000 0.0000 14.4981 0.0000 0.0000
# 5 0.0000 0.0000 0.0000 0.0000 28.4066 0.0000
# 6 0.0000 0.0000 0.0000 0.0000 0.0000 6.9037
#
#
#
# Elastic Compliance Matrix: (Units=1/GPa)
#
#
# Indices 1 2 3 4 5 6 
#
# 1 0.366758 -0.067685 -0.073707 0.000000 0.000000 0.000000
# 2 -0.067685 0.039136 0.005836 0.000000 0.000000 0.000000
# 3 -0.073707 0.005836 0.024983 0.000000 0.000000 0.000000
# 4 0.000000 0.000000 0.000000 0.068974 0.000000 0.000000
# 5 0.000000 0.000000 0.000000 0.000000 0.035203 0.000000
# 6 0.000000 0.000000 0.000000 0.000000 0.000000 0.144849
#
#
# Mechanical properties :
#
#
# Convention : Reuss Voigt Hill
#
# Bulk Modulus (GPa) = 6.25912 39.75187 23.00550
# Shear Modulus (GPa) = 4.97874 16.73236 10.85555
#
# Velocity S-wave (km/s) = 1.66369 3.04993 2.45662
# Velocity P-wave (km/s) = 2.67771 5.87386 4.56466
#
# Compressibility (1/GPa) = 0.15976681
#
# Stress axis : x y z
#
# Youngs Moduli (GPa) = 2.72659 25.55165 40.02676
#
# Poissons Ratio (x) = 1.72945 2.95025
# Poissons Ratio (y) = 0.18455 -0.23360
# Poissons Ratio (z) = 0.20097 -0.14912
#
# Static dielectric constant tensor:
#      x y z
#    x 1.596730 0.000000 0.000000 
#    y 0.000000 1.629600 0.000000 
#    z 0.000000 0.000000 1.647950 
# 
# From -- ./inp_files/29619.got.cif
#   From: 2010.05.17/outbox.cif.g08.bks.cpg/sg59_15_cif.got.tgz:29619.got - 2010.06.03 14:40:33.
