data_PCOD9449787
_publ_section_title
;
Structure prediction by ZEFSAII (Michael W. Deem and Ramdas Pophale) SiO2 
 PCOD9449787
Probable space group: P M M N
;
_chemical_formula_sum "Si O2"
_cell_formula_units_Z 64
_cell_length_a 28.879795
_cell_length_b 8.871465
_cell_length_c 15.926306
_cell_angle_alpha 90.000000
_cell_angle_beta 90.000000
_cell_angle_gamma 90.000000
_cell_volume 4080.416597
_symmetry_space_group_name_H-M "P M M N"
_symmetry_group_IT_number 59
_space_group.IT_coordinate_system_code '2'
_symmetry_cell_setting 'orthorhombic'
loop_
_space_group_symop_operation_xyz
x,y,z
1/2-x,1/2-y,z
1/2+x,-y,-z
-x,1/2+y,-z
-x,-y,-z
1/2+x,1/2+y,-z
1/2-x,y,z
x,1/2-y,z
loop_
_atom_site_type_symbol
_atom_site_label
_atom_site_fract_x
_atom_site_fract_y
_atom_site_fract_z
Si Si1 0.696713 0.929579 0.089507
Si Si2 0.448641 0.569561 0.504414
Si Si3 0.108233 0.569971 0.834540
Si Si4 0.303354 0.929627 0.095844
Si Si5 0.555421 0.930257 0.322972
Si Si6 0.893289 0.929373 0.838794
Si Si7 0.948938 0.430523 0.995201
Si Si8 0.054648 0.930055 0.317235
O O1 0.750000 0.957336 0.115209
O O2 0.689891 0.750000 0.082511
O O3 0.658809 0.000540 0.150400
O O4 0.690479 0.003895 0.997781
O O5 0.500000 0.500000 0.500000
O O6 0.451546 0.750000 0.512701
O O7 0.427598 0.498783 0.588383
O O8 0.428244 0.536538 0.412166
O O9 0.110980 0.750000 0.825787
O O10 0.082980 0.498819 0.754710
O O11 0.078487 0.536793 0.918642
O O12 0.250000 0.957937 0.120630
O O13 0.310908 0.750000 0.092950
O O14 0.341384 0.006487 0.154128
O O15 0.559583 0.750000 0.325027
O O16 0.500421 0.965659 0.313151
O O17 0.893231 0.750000 0.845920
O O18 0.917957 0.981755 0.753657
O O19 0.921519 0.999696 0.916925
O O20 0.951585 0.250000 0.985215
O O21 0.000000 0.500000 0.000000
O O22 0.059146 0.750000 0.303318
#
# Coordination Sequence:
#
# PCOD9449787 Si02
#       8
#     8   8   8   8   8   8   8   8
#     4  10  20  34  53  75  98 126 164 210 256 300
#     4   9  17  31  51  73  98 130 167 209 253 297
#     4  11  22  34  50  72  99 135 172 206 248 299
#     4  10  20  35  54  73  96 128 166 209 254 299
#     4  10  20  33  51  74 102 135 169 211 253 294
#     4  12  23  33  50  74 101 133 168 208 251 297
#     4  11  23  36  49  67  97 136 174 208 244 291
#     4   9  19  34  51  72 101 135 170 207 248 296
#
# _framework density 15.684672000000001
#
# number of rings (size 3 to 8) (size 9 to 14) (size 15 to 20)
#    0.000    1.750    1.250    4.875    0.000    8.000 
#    0.000    0.000    0.000    0.000    0.000    0.875 
#    0.000    1.000    0.000    0.000    0.000    0.000 
#
# Total GULP energy -357261.258600 kJ/mol
# GULP energy per Si atom -5582.207166 kJ/mol
# Density = 1.564897 g / cm^3
# Si number density = 15.684672 Si / 1000 Ang^3
#
#
#
# Elastic Constant Matrix: (Units=GPa)
#
#
# Indices 1 2 3 4 5 6 
#
# 1 93.3514 58.4582 63.1252 0.0000 0.0000 0.0000
# 2 58.4582 85.8941 74.2547 0.0000 0.0000 0.0000
# 3 63.1252 74.2547 136.6117 0.0000 0.0000 0.0000
# 4 0.0000 0.0000 0.0000 28.1928 0.0000 0.0000
# 5 0.0000 0.0000 0.0000 0.0000 5.2232 0.0000
# 6 0.0000 0.0000 0.0000 0.0000 0.0000 25.4403
#
#
#
# Elastic Compliance Matrix: (Units=1/GPa)
#
#
# Indices 1 2 3 4 5 6 
#
# 1 0.019464 -0.010322 -0.003383 0.000000 0.000000 0.000000
# 2 -0.010322 0.027436 -0.010143 0.000000 0.000000 0.000000
# 3 -0.003383 -0.010143 0.014397 0.000000 0.000000 0.000000
# 4 0.000000 0.000000 0.000000 0.035470 0.000000 0.000000
# 5 0.000000 0.000000 0.000000 0.000000 0.191454 0.000000
# 6 0.000000 0.000000 0.000000 0.000000 0.000000 0.039308
#
#
# Mechanical properties :
#
#
# Convention : Reuss Voigt Hill
#
# Bulk Modulus (GPa) = 73.53193 78.61482 76.07337
# Shear Modulus (GPa) = 13.16629 19.77253 16.46941
#
# Velocity S-wave (km/s) = 2.90045 3.55438 3.24394
# Velocity P-wave (km/s) = 7.62889 8.18998 7.91441
#
# Compressibility (1/GPa) = 0.01359953
#
# Stress axis : x y z
#
# Youngs Moduli (GPa) = 51.37735 36.44879 69.46069
#
# Poissons Ratio (x) = 0.37622 0.23501
# Poissons Ratio (y) = 0.53031 0.70454
# Poissons Ratio (z) = 0.17383 0.36970
#
# Static dielectric constant tensor:
#      x y z
#    x 1.495510 0.000000 0.000000 
#    y 0.000000 1.520030 0.000000 
#    z 0.000000 0.000000 1.626130 
# 
# From -- ./inp_files/25037.got.cif
#   From: 2010.05.17/outbox.cif.g08.bks.cpg/sg59_13_cif.got.tgz:25037.got - 2010.06.03 14:40:33.
