data_PCOD9449633
_publ_section_title
;
Structure prediction by ZEFSAII (Michael W. Deem and Ramdas Pophale) SiO2 
 PCOD9449633
Probable space group: P M M N
;
_chemical_formula_sum "Si O2"
_cell_formula_units_Z 48
_cell_length_a 18.601500
_cell_length_b 7.476543
_cell_length_c 16.123618
_cell_angle_alpha 90.000000
_cell_angle_beta 90.000000
_cell_angle_gamma 90.000000
_cell_volume 2242.390797
_symmetry_space_group_name_H-M "P M M N"
_symmetry_group_IT_number 59
_space_group.IT_coordinate_system_code '2'
_symmetry_cell_setting 'orthorhombic'
loop_
_space_group_symop_operation_xyz
x,y,z
1/2-x,1/2-y,z
1/2+x,-y,-z
-x,1/2+y,-z
-x,-y,-z
1/2+x,1/2+y,-z
1/2-x,y,z
x,1/2-y,z
loop_
_atom_site_type_symbol
_atom_site_label
_atom_site_fract_x
_atom_site_fract_y
_atom_site_fract_z
Si Si1 0.831063 0.534660 0.490011
Si Si2 0.572957 0.969169 0.642917
Si Si3 0.166284 0.468000 0.199626
Si Si4 0.666793 0.535372 0.981347
Si Si5 0.167872 0.537708 0.837500
Si Si6 0.587160 0.462268 0.323022
O O1 0.750000 0.469692 0.504875
O O2 0.829325 0.750000 0.495814
O O3 0.886850 0.470561 0.559650
O O4 0.858290 0.488439 0.398634
O O5 0.572907 0.750000 0.641215
O O6 0.618373 0.025549 0.723430
O O7 0.491139 0.032189 0.651367
O O8 0.250000 0.521328 0.208424
O O9 0.166069 0.250000 0.200474
O O10 0.138482 0.524926 0.108363
O O11 0.750000 0.472927 0.983816
O O12 0.667459 0.750000 0.979164
O O13 0.635358 0.485663 0.070467
O O14 0.250000 0.464999 0.836195
O O15 0.173881 0.750000 0.824483
O O16 0.120279 0.464791 0.762372
O O17 0.577408 0.250000 0.310905
#
# Coordination Sequence:
#
# PCOD9449633 Si02
#       6
#     8   8   8   8   8   8
#     4  10  20  33  51  74  95 118 153 195 235 274
#     4   9  17  30  48  70  96 124 153 188 232 280
#     4   8  13  24  45  71  95 119 152 194 234 273
#     4   8  14  25  44  69  91 114 150 194 233 265
#     4   9  17  29  44  62  87 121 157 189 224 270
#     4  10  20  33  49  69  95 127 158 188 228 279
#
# _framework density 21.405725
#
# number of rings (size 3 to 8) (size 9 to 14) (size 15 to 20)
#    0.000    3.000    0.000    2.500    0.000    3.667 
#    0.000    2.500    0.000    2.000    0.000    2.333 
#    0.000    0.000    0.000    0.000    0.000    0.000 
#
# Total GULP energy -267750.459693 kJ/mol
# GULP energy per Si atom -5578.134577 kJ/mol
# Density = 2.135700 g / cm^3
# Si number density = 21.405725 Si / 1000 Ang^3
#
#
#
# Elastic Constant Matrix: (Units=GPa)
#
#
# Indices 1 2 3 4 5 6 
#
# 1 32.4576 -3.0242 -20.0739 0.0000 0.0000 0.0000
# 2 -3.0242 55.2249 -11.1385 0.0000 0.0000 0.0000
# 3 -20.0739 -11.1385 76.3107 0.0000 0.0000 0.0000
# 4 0.0000 0.0000 0.0000 78.9458 0.0000 0.0000
# 5 0.0000 0.0000 0.0000 0.0000 -25.0286 0.0000
# 6 0.0000 0.0000 0.0000 0.0000 0.0000 4.2106
#
#
#
# Elastic Compliance Matrix: (Units=1/GPa)
#
#
# Indices 1 2 3 4 5 6 
#
# 1 0.037714 0.004190 0.010532 0.000000 0.000000 0.000000
# 2 0.004190 0.019122 0.003893 0.000000 0.000000 0.000000
# 3 0.010532 0.003893 0.016443 0.000000 0.000000 0.000000
# 4 0.000000 0.000000 0.000000 0.012667 0.000000 0.000000
# 5 0.000000 0.000000 0.000000 0.000000 -0.039954 0.000000
# 6 0.000000 0.000000 0.000000 0.000000 0.000000 0.237496
#
#
# Mechanical properties :
#
#
# Convention : Reuss Voigt Hill
#
# Bulk Modulus (GPa) = 9.04901 10.61334 9.83117
# Shear Modulus (GPa) = 17.66194 24.84088 21.25141
#
# Velocity S-wave (km/s) = 2.87558 3.41028 3.15428
# Velocity P-wave (km/s) = 3.90664 4.52499 4.22714
#
# Compressibility (1/GPa) = 0.11050935
#
# Stress axis : x y z
#
# Youngs Moduli (GPa) = 26.51559 52.29459 60.81558
#
# Poissons Ratio (x) = -0.21909 -0.64053
# Poissons Ratio (y) = -0.11109 -0.23677
# Poissons Ratio (z) = -0.27927 -0.20359
#
# Static dielectric constant tensor:
#      x y z
#    x 1.747030 0.000000 0.000000 
#    y 0.000000 1.814110 0.000000 
#    z 0.000000 0.000000 1.775590 
# 
# From -- ./inp_files/15794.got.cif
#   From: 2010.05.17/outbox.cif.g08.bks.cpg/sg59_8_cif.got.tgz:15794.got - 2010.06.03 14:40:33.
