data_PCOD9449771
_publ_section_title
;
Structure prediction by ZEFSAII (Michael W. Deem and Ramdas Pophale) SiO2 
 PCOD9449771
Probable space group: P M M N
;
_chemical_formula_sum "Si O2"
_cell_formula_units_Z 40
_cell_length_a 7.370369
_cell_length_b 17.006212
_cell_length_c 12.638891
_cell_angle_alpha 90.000000
_cell_angle_beta 90.000000
_cell_angle_gamma 90.000000
_cell_volume 1584.184605
_symmetry_space_group_name_H-M "P M M N"
_symmetry_group_IT_number 59
_space_group.IT_coordinate_system_code '2'
_symmetry_cell_setting 'orthorhombic'
loop_
_space_group_symop_operation_xyz
x,y,z
1/2-x,1/2-y,z
1/2+x,-y,-z
-x,1/2+y,-z
-x,-y,-z
1/2+x,1/2+y,-z
1/2-x,y,z
x,1/2-y,z
loop_
_atom_site_type_symbol
_atom_site_label
_atom_site_fract_x
_atom_site_fract_y
_atom_site_fract_z
Si Si1 0.029621 0.607774 0.047494
Si Si2 0.032713 0.837195 0.817573
Si Si3 0.965774 0.495002 0.772831
Si Si4 0.530974 0.250000 0.799844
Si Si5 0.032865 0.580274 0.438113
Si Si6 0.470233 0.750000 0.447029
O O1 0.250000 0.605910 0.038857
O O2 0.966377 0.529412 0.109896
O O3 0.978899 0.674774 0.131973
O O4 0.962419 0.636609 0.933643
O O5 0.250000 0.831426 0.823695
O O6 0.966289 0.750000 0.787954
O O7 0.996646 0.913707 0.747166
O O8 0.750000 0.483512 0.776405
O O9 0.036569 0.439124 0.680093
O O10 0.750000 0.250000 0.796859
O O11 0.479601 0.250000 0.677688
O O12 0.250000 0.588844 0.429746
O O13 0.966556 0.663658 0.484759
O O14 0.000000 0.500000 0.500000
O O15 0.250000 0.750000 0.460267
#
# Coordination Sequence:
#
# PCOD9449771 Si02
#       6
#     8   8   8   4   8   4
#     4   9  15  27  50  79 106 134 173 218 259 301
#     4  10  20  33  50  75 108 146 183 215 253 307
#     4  10  20  34  54  79 106 137 174 219 271 319
#     4   9  12  22  50  80 101 126 170 223 255 288
#     4  10  21  38  60  85 109 136 176 226 276 325
#     4   9  16  32  59  84 103 132 178 225 269 320
#
# _framework density 25.249583999999999
#
# number of rings (size 3 to 8) (size 9 to 14) (size 15 to 20)
#    0.000    2.400    3.000    0.600    0.000    1.200 
#    1.800    0.500    0.000    0.000    0.000    0.000 
#    0.000    0.000    0.000    0.000    0.000    0.000 
#
# Total GULP energy -223296.394504 kJ/mol
# GULP energy per Si atom -5582.409863 kJ/mol
# Density = 2.519211 g / cm^3
# Si number density = 25.249584 Si / 1000 Ang^3
#
#
#
# Elastic Constant Matrix: (Units=GPa)
#
#
# Indices 1 2 3 4 5 6 
#
# 1 91.5737 -1.2998 -2.0816 0.0000 0.0000 0.0000
# 2 -1.2998 228.8872 22.7642 0.0000 0.0000 0.0000
# 3 -2.0816 22.7642 27.8682 0.0000 0.0000 0.0000
# 4 0.0000 0.0000 0.0000 35.6888 0.0000 0.0000
# 5 0.0000 0.0000 0.0000 0.0000 3.2852 0.0000
# 6 0.0000 0.0000 0.0000 0.0000 0.0000 14.6512
#
#
#
# Elastic Compliance Matrix: (Units=1/GPa)
#
#
# Indices 1 2 3 4 5 6 
#
# 1 0.010939 -0.000021 0.000834 0.000000 0.000000 0.000000
# 2 -0.000021 0.004755 -0.003886 0.000000 0.000000 0.000000
# 3 0.000834 -0.003886 0.039120 0.000000 0.000000 0.000000
# 4 0.000000 0.000000 0.000000 0.028020 0.000000 0.000000
# 5 0.000000 0.000000 0.000000 0.000000 0.304393 0.000000
# 6 0.000000 0.000000 0.000000 0.000000 0.000000 0.068254
#
#
# Mechanical properties :
#
#
# Convention : Reuss Voigt Hill
#
# Bulk Modulus (GPa) = 20.54719 43.01052 31.77886
# Shear Modulus (GPa) = 10.46356 32.65480 21.55918
#
# Velocity S-wave (km/s) = 2.03790 3.60012 2.92523
# Velocity P-wave (km/s) = 3.70037 5.86108 4.90128
#
# Compressibility (1/GPa) = 0.04866845
#
# Stress axis : x y z
#
# Youngs Moduli (GPa) = 91.41745 210.29041 25.56255
#
# Poissons Ratio (x) = 0.00438 -0.02132
# Poissons Ratio (y) = 0.00190 0.09933
# Poissons Ratio (z) = -0.07625 0.81718
#
# Static dielectric constant tensor:
#      x y z
#    x 1.999160 0.000000 0.000000 
#    y 0.000000 2.055010 0.000000 
#    z 0.000000 0.000000 1.994370 
# 
# From -- ./inp_files/19901.got.cif
#   From: 2010.05.17/outbox.cif.g08.bks.cpg/sg59_10_cif.got.tgz:19901.got - 2010.06.03 14:40:33.
