data_PCOD9449825
_publ_section_title
;
Structure prediction by ZEFSAII (Michael W. Deem and Ramdas Pophale) SiO2 
 PCOD9449825
Probable space group: P M M N
;
_chemical_formula_sum "Si O2"
_cell_formula_units_Z 40
_cell_length_a 9.503561
_cell_length_b 8.977964
_cell_length_c 26.498408
_cell_angle_alpha 90.000000
_cell_angle_beta 90.000000
_cell_angle_gamma 90.000000
_cell_volume 2260.913822
_symmetry_space_group_name_H-M "P M M N"
_symmetry_group_IT_number 59
_space_group.IT_coordinate_system_code '2'
_symmetry_cell_setting 'orthorhombic'
loop_
_space_group_symop_operation_xyz
x,y,z
1/2-x,1/2-y,z
1/2+x,-y,-z
-x,1/2+y,-z
-x,-y,-z
1/2+x,1/2+y,-z
1/2-x,y,z
x,1/2-y,z
loop_
_atom_site_type_symbol
_atom_site_label
_atom_site_fract_x
_atom_site_fract_y
_atom_site_fract_z
Si Si1 0.582943 0.572976 0.045977
Si Si2 0.413984 0.069795 0.546003
Si Si3 0.418580 0.926229 0.242866
Si Si4 0.416072 0.926851 0.848158
Si Si5 0.088247 0.568753 0.356353
O O1 0.750000 0.543228 0.040285
O O2 0.561714 0.750000 0.046264
O O3 0.538572 0.505081 0.099797
O O4 0.500000 0.500000 0.000000
O O5 0.250000 0.027705 0.544032
O O6 0.422402 0.250000 0.543162
O O7 0.486153 0.022477 0.598679
O O8 0.500000 0.000000 0.500000
O O9 0.250000 0.942232 0.237913
O O10 0.451036 0.750000 0.238636
O O11 0.455119 0.977178 0.299858
O O12 0.498305 0.013100 0.199362
O O13 0.250000 0.959471 0.841017
O O14 0.432903 0.750000 0.853267
O O15 0.250000 0.521299 0.365725
O O16 0.089725 0.750000 0.355504
#
# Coordination Sequence:
#
# PCOD9449825 Si02
#       5
#     8   8   8   8   8
#     4  10  21  37  57  80 105 136 174 214 258 306
#     4  10  20  33  51  76 103 133 171 212 256 307
#     4   9  18  33  54  79 103 130 168 211 255 305
#     4  10  21  36  53  75 105 139 173 210 253 301
#     4   8  15  30  51  73  99 131 167 209 255 302
#
# _framework density 17.691960000000002
#
# number of rings (size 3 to 8) (size 9 to 14) (size 15 to 20)
#    0.000    2.600    0.000    3.000    0.000    5.600 
#    0.000    3.000    0.000    1.200    0.000    0.000 
#    0.000    0.000    0.000    0.000    0.000    0.000 
#
# Total GULP energy -223161.335239 kJ/mol
# GULP energy per Si atom -5579.033381 kJ/mol
# Density = 1.765169 g / cm^3
# Si number density = 17.691960 Si / 1000 Ang^3
#
#
#
# Elastic Constant Matrix: (Units=GPa)
#
#
# Indices 1 2 3 4 5 6 
#
# 1 83.1875 41.0952 98.9746 0.0000 0.0000 0.0000
# 2 41.0952 29.5012 55.4053 0.0000 0.0000 0.0000
# 3 98.9746 55.4053 199.6245 0.0000 0.0000 0.0000
# 4 0.0000 0.0000 0.0000 32.7355 0.0000 0.0000
# 5 0.0000 0.0000 0.0000 0.0000 40.6646 0.0000
# 6 0.0000 0.0000 0.0000 0.0000 0.0000 26.6767
#
#
#
# Elastic Compliance Matrix: (Units=1/GPa)
#
#
# Indices 1 2 3 4 5 6 
#
# 1 0.047684 -0.046001 -0.010875 0.000000 0.000000 0.000000
# 2 -0.046001 0.115180 -0.009161 0.000000 0.000000 0.000000
# 3 -0.010875 -0.009161 0.012944 0.000000 0.000000 0.000000
# 4 0.000000 0.000000 0.000000 0.030548 0.000000 0.000000
# 5 0.000000 0.000000 0.000000 0.000000 0.024591 0.000000
# 6 0.000000 0.000000 0.000000 0.000000 0.000000 0.037486
#
#
# Mechanical properties :
#
#
# Convention : Reuss Voigt Hill
#
# Bulk Modulus (GPa) = 22.86449 78.14038 50.50243
# Shear Modulus (GPa) = 12.04578 27.80458 19.92518
#
# Velocity S-wave (km/s) = 2.61216 3.96863 3.35957
# Velocity P-wave (km/s) = 4.69570 8.07856 6.60730
#
# Compressibility (1/GPa) = 0.04373595
#
# Stress axis : x y z
#
# Youngs Moduli (GPa) = 20.97140 8.68205 77.25871
#
# Poissons Ratio (x) = 0.39938 0.84015
# Poissons Ratio (y) = 0.96470 0.70774
# Poissons Ratio (z) = 0.22805 0.07953
#
# Static dielectric constant tensor:
#      x y z
#    x 1.588610 0.000000 0.000000 
#    y 0.000000 1.594710 0.000000 
#    z 0.000000 0.000000 1.584270 
# 
# From -- ./inp_files/31150.got.cif
#   From: 2010.05.17/outbox.cif.g08.bks.cpg/sg59_16_cif.got.tgz:31150.got - 2010.06.03 14:40:33.
