data_PCOD9449804
_publ_section_title
;
Structure prediction by ZEFSAII (Michael W. Deem and Ramdas Pophale) SiO2 
 PCOD9449804
Probable space group: P M M N
;
_chemical_formula_sum "Si O2"
_cell_formula_units_Z 56
_cell_length_a 8.993100
_cell_length_b 16.766965
_cell_length_c 19.814228
_cell_angle_alpha 90.000000
_cell_angle_beta 90.000000
_cell_angle_gamma 90.000000
_cell_volume 2987.727858
_symmetry_space_group_name_H-M "P M M N"
_symmetry_group_IT_number 59
_space_group.IT_coordinate_system_code '2'
_symmetry_cell_setting 'orthorhombic'
loop_
_space_group_symop_operation_xyz
x,y,z
1/2-x,1/2-y,z
1/2+x,-y,-z
-x,1/2+y,-z
-x,-y,-z
1/2+x,1/2+y,-z
1/2-x,y,z
x,1/2-y,z
loop_
_atom_site_type_symbol
_atom_site_label
_atom_site_fract_x
_atom_site_fract_y
_atom_site_fract_z
Si Si1 0.428840 0.338842 0.901147
Si Si2 0.086613 0.343746 0.535939
Si Si3 0.923130 0.343357 0.669431
Si Si4 0.925538 0.994302 0.293661
Si Si5 0.071924 0.339738 0.062202
Si Si6 0.076419 0.460992 0.433221
Si Si7 0.069917 0.515493 0.855251
O O1 0.250000 0.337556 0.890537
O O2 0.484155 0.250000 0.877643
O O3 0.481697 0.424471 0.872287
O O4 0.455383 0.342779 0.981689
O O5 0.250000 0.376804 0.557668
O O6 0.094995 0.250000 0.538754
O O7 0.063677 0.370392 0.459611
O O8 0.963160 0.364421 0.591405
O O9 0.750000 0.358084 0.682245
O O10 0.953873 0.250000 0.679889
O O11 0.026857 0.401522 0.711373
O O12 0.750000 0.000683 0.301325
O O13 0.969773 0.033000 0.222784
O O14 0.002163 0.026541 0.361302
O O15 0.250000 0.345452 0.071809
O O16 0.025283 0.250000 0.085150
O O17 0.995633 0.414780 0.098201
O O18 0.250000 0.482702 0.429587
O O19 0.000000 0.500000 0.500000
O O20 0.250000 0.515707 0.861393
#
# Coordination Sequence:
#
# PCOD9449804 Si02
#       7
#     8   8   8   8   8   8   8
#     4   8  15  31  56  85 115 146 184 228 274 328
#     4   9  18  33  53  75  96 121 160 213 270 325
#     4  10  20  33  51  75 101 131 169 215 268 322
#     4  11  23  36  50  74 107 145 184 219 265 326
#     4   9  18  34  58  85 111 144 185 230 282 334
#     4  11  21  34  55  77 100 132 173 223 271 318
#     4  10  21  35  54  81 113 150 191 231 273 324
#
# _framework density 18.74334
#
# number of rings (size 3 to 8) (size 9 to 14) (size 15 to 20)
#    0.000    2.286    1.429    2.571    0.000    3.429 
#    0.000    2.143    0.000    3.857    0.000    0.000 
#    0.000    0.000    0.000    0.000    0.000    0.000 
#
# Total GULP energy -311774.443742 kJ/mol
# GULP energy per Si atom -5567.400781 kJ/mol
# Density = 1.870068 g / cm^3
# Si number density = 18.743340 Si / 1000 Ang^3
#
#
#
# Elastic Constant Matrix: (Units=GPa)
#
#
# Indices 1 2 3 4 5 6 
#
# 1 41.2541 13.3885 25.1981 0.0000 0.0000 0.0000
# 2 13.3885 72.2059 35.5224 0.0000 0.0000 0.0000
# 3 25.1981 35.5224 70.1139 0.0000 0.0000 0.0000
# 4 0.0000 0.0000 0.0000 17.3524 0.0000 0.0000
# 5 0.0000 0.0000 0.0000 0.0000 20.1865 0.0000
# 6 0.0000 0.0000 0.0000 0.0000 0.0000 30.1627
#
#
#
# Elastic Compliance Matrix: (Units=1/GPa)
#
#
# Indices 1 2 3 4 5 6 
#
# 1 0.031065 -0.000357 -0.010984 0.000000 0.000000 0.000000
# 2 -0.000357 0.018451 -0.009220 0.000000 0.000000 0.000000
# 3 -0.010984 -0.009220 0.022881 0.000000 0.000000 0.000000
# 4 0.000000 0.000000 0.000000 0.057629 0.000000 0.000000
# 5 0.000000 0.000000 0.000000 0.000000 0.049538 0.000000
# 6 0.000000 0.000000 0.000000 0.000000 0.000000 0.033154
#
#
# Mechanical properties :
#
#
# Convention : Reuss Voigt Hill
#
# Bulk Modulus (GPa) = 31.97274 36.86578 34.41926
# Shear Modulus (GPa) = 18.92053 20.83797 19.87925
#
# Velocity S-wave (km/s) = 3.18064 3.33791 3.26022
# Velocity P-wave (km/s) = 5.53026 5.87937 5.70749
#
# Compressibility (1/GPa) = 0.03127664
#
# Stress axis : x y z
#
# Youngs Moduli (GPa) = 32.19106 54.19685 43.70419
#
# Poissons Ratio (x) = 0.01932 0.48003
# Poissons Ratio (y) = 0.01148 0.40295
# Poissons Ratio (z) = 0.35357 0.49969
#
# Static dielectric constant tensor:
#      x y z
#    x 1.669980 0.000000 0.000000 
#    y 0.000000 1.763580 0.000000 
#    z 0.000000 0.000000 1.654490 
# 
# From -- ./inp_files/29306.got.cif
#   From: 2010.05.17/outbox.cif.g08.bks.cpg/sg59_15_cif.got.tgz:29306.got - 2010.06.03 14:40:33.
