data_PCOD9449903
_publ_section_title
;
Structure prediction by ZEFSAII (Michael W. Deem and Ramdas Pophale) SiO2 
 PCOD9449903
Probable space group: P M M N
;
_chemical_formula_sum "Si O2"
_cell_formula_units_Z 48
_cell_length_a 13.655808
_cell_length_b 14.817587
_cell_length_c 13.092055
_cell_angle_alpha 90.000000
_cell_angle_beta 90.000000
_cell_angle_gamma 90.000000
_cell_volume 2649.126573
_symmetry_space_group_name_H-M "P M M N"
_symmetry_group_IT_number 59
_space_group.IT_coordinate_system_code '2'
_symmetry_cell_setting 'orthorhombic'
loop_
_space_group_symop_operation_xyz
x,y,z
1/2-x,1/2-y,z
1/2+x,-y,-z
-x,1/2+y,-z
-x,-y,-z
1/2+x,1/2+y,-z
1/2-x,y,z
x,1/2-y,z
loop_
_atom_site_type_symbol
_atom_site_label
_atom_site_fract_x
_atom_site_fract_y
_atom_site_fract_z
Si Si1 0.638937 0.250000 0.820969
Si Si2 0.637175 0.511342 0.997144
Si Si3 0.539409 0.478756 0.331496
Si Si4 0.499230 0.585092 0.142644
Si Si5 0.634670 0.453423 0.540773
Si Si6 0.861090 0.250000 0.575447
Si Si7 0.135130 0.854481 0.831819
O O1 0.750000 0.250000 0.861228
O O2 0.576135 0.165511 0.854373
O O3 0.643510 0.250000 0.698169
O O4 0.750000 0.524337 0.972970
O O5 0.588213 0.590356 0.063575
O O6 0.627988 0.422449 0.071176
O O7 0.569661 0.495891 0.899148
O O8 0.542149 0.561769 0.252576
O O9 0.614024 0.484817 0.425612
O O10 0.432140 0.486964 0.383439
O O11 0.569446 0.393994 0.260449
O O12 0.750000 0.454967 0.566855
O O13 0.598077 0.348277 0.545337
O O14 0.750000 0.250000 0.533302
O O15 0.250000 0.858515 0.800251
O O16 0.112390 0.750000 0.856264
#
# Coordination Sequence:
#
# PCOD9449903 Si02
#       7
#     4   8   8   8   8   4   8
#     4  11  20  32  55  86 113 134 175 230 274 312
#     4   9  19  35  54  78 112 147 181 220 267 321
#     4  10  20  33  51  79 109 141 174 217 266 325
#     4  10  20  34  53  82 112 142 179 220 269 322
#     4  10  20  34  53  79 108 140 176 219 272 321
#     4   9  18  32  52  80 107 130 168 220 271 316
#     4   9  18  32  52  81 110 137 175 223 271 312
#
# _framework density 18.11918
#
# number of rings (size 3 to 8) (size 9 to 14) (size 15 to 20)
#    0.000    2.333    1.667    1.000    2.333    1.333 
#    0.000    0.417    0.000    0.500    0.000    1.750 
#    0.000    0.000    0.000    0.000    0.000    0.000 
#
# Total GULP energy -267262.450938 kJ/mol
# GULP energy per Si atom -5567.967728 kJ/mol
# Density = 1.807794 g / cm^3
# Si number density = 18.119180 Si / 1000 Ang^3
#
#
#
# Elastic Constant Matrix: (Units=GPa)
#
#
# Indices 1 2 3 4 5 6 
#
# 1 80.2976 29.6673 4.1715 0.0000 0.0000 0.0000
# 2 29.6673 63.1614 10.2749 0.0000 0.0000 0.0000
# 3 4.1715 10.2749 52.8663 0.0000 0.0000 0.0000
# 4 0.0000 0.0000 0.0000 31.7486 0.0000 0.0000
# 5 0.0000 0.0000 0.0000 0.0000 24.1583 0.0000
# 6 0.0000 0.0000 0.0000 0.0000 0.0000 25.1097
#
#
#
# Elastic Compliance Matrix: (Units=1/GPa)
#
#
# Indices 1 2 3 4 5 6 
#
# 1 0.015071 -0.007110 0.000193 0.000000 0.000000 0.000000
# 2 -0.007110 0.019704 -0.003269 0.000000 0.000000 0.000000
# 3 0.000193 -0.003269 0.019536 0.000000 0.000000 0.000000
# 4 0.000000 0.000000 0.000000 0.031497 0.000000 0.000000
# 5 0.000000 0.000000 0.000000 0.000000 0.041394 0.000000
# 6 0.000000 0.000000 0.000000 0.000000 0.000000 0.039825
#
#
# Mechanical properties :
#
#
# Convention : Reuss Voigt Hill
#
# Bulk Modulus (GPa) = 29.46525 31.61699 30.54112
# Shear Modulus (GPa) = 25.16218 26.35078 25.75648
#
# Velocity S-wave (km/s) = 3.73057 3.81767 3.77437
# Velocity P-wave (km/s) = 5.90368 6.07620 5.99056
#
# Compressibility (1/GPa) = 0.03393828
#
# Stress axis : x y z
#
# Youngs Moduli (GPa) = 66.35433 50.75156 51.18834
#
# Poissons Ratio (x) = 0.36085 -0.00987
# Poissons Ratio (y) = 0.47179 0.16731
# Poissons Ratio (z) = -0.01279 0.16588
#
# Static dielectric constant tensor:
#      x y z
#    x 1.624610 0.000000 0.000000 
#    y 0.000000 1.726380 0.000000 
#    z 0.000000 0.000000 1.644850 
# 
# From -- ./inp_files/16868.got.cif
#   From: 2010.05.17/outbox.cif.g08.bks.cpg/sg59_9_cif.got.tgz:16868.got - 2010.06.03 14:40:33.
