data_PCOD9449263
_publ_section_title
;
Structure prediction by ZEFSAII (Michael W. Deem and Ramdas Pophale) SiO2 
 PCOD9449263
Probable space group: P M M N
;
_chemical_formula_sum "Si O2"
_cell_formula_units_Z 48
_cell_length_a 16.445269
_cell_length_b 28.636148
_cell_length_c 5.090410
_cell_angle_alpha 90.000000
_cell_angle_beta 90.000000
_cell_angle_gamma 90.000000
_cell_volume 2397.222490
_symmetry_space_group_name_H-M "P M M N"
_symmetry_group_IT_number 59
_space_group.IT_coordinate_system_code '2'
_symmetry_cell_setting 'orthorhombic'
loop_
_space_group_symop_operation_xyz
x,y,z
1/2-x,1/2-y,z
1/2+x,-y,-z
-x,1/2+y,-z
-x,-y,-z
1/2+x,1/2+y,-z
1/2-x,y,z
x,1/2-y,z
loop_
_atom_site_type_symbol
_atom_site_label
_atom_site_fract_x
_atom_site_fract_y
_atom_site_fract_z
Si Si1 0.407497 0.467804 0.747091
Si Si2 0.345094 0.084718 0.244676
Si Si3 0.369103 0.803162 0.678843
Si Si4 0.129939 0.858872 0.175410
Si Si5 0.922641 0.061192 0.530142
Si Si6 0.992789 0.642268 0.822178
O O1 0.364418 0.433887 0.535934
O O2 0.504626 0.460275 0.707627
O O3 0.388735 0.520058 0.651044
O O4 0.378979 0.453302 0.035260
O O5 0.250000 0.091296 0.207525
O O6 0.398907 0.130845 0.191342
O O7 0.347082 0.750000 0.726415
O O8 0.346365 0.821773 0.394714
O O9 0.467110 0.811185 0.703368
O O10 0.338155 0.839310 0.900240
O O11 0.141505 0.910379 0.291350
O O12 0.467903 0.858896 0.113099
O O13 0.963645 0.099702 0.337406
#
# Coordination Sequence:
#
# PCOD9449263 Si02
#       6
#     8   8   8   8   8   8
#     4  10  20  29  47  65  84 114 145 188 228 253
#     4  11  21  33  44  62  89 120 155 187 223 260
#     4   9  16  26  42  62  86 111 143 179 219 274
#     4   9  16  26  41  63  87 107 141 174 222 265
#     4   9  17  29  47  66  89 104 147 190 223 261
#     4   8  18  29  45  64  85 114 147 185 222 259
#
# _framework density 20.023173
#
# number of rings (size 3 to 8) (size 9 to 14) (size 15 to 20)
#    1.000    1.667    1.667    1.000    2.333    2.000 
#    0.000    0.000    0.000    0.500    0.000    0.000 
#    0.000    0.000    0.000    0.000    0.000  305.000 
#
# Total GULP energy -267255.597026 kJ/mol
# GULP energy per Si atom -5567.824938 kJ/mol
# Density = 1.997760 g / cm^3
# Si number density = 20.023173 Si / 1000 Ang^3
#
#
#
# Elastic Constant Matrix: (Units=GPa)
#
#
# Indices 1 2 3 4 5 6 
#
# 1 93.0145 18.1444 2.3618 0.0000 0.0000 0.0000
# 2 18.1444 66.5588 4.6960 0.0000 0.0000 0.0000
# 3 2.3618 4.6960 87.8971 0.0000 0.0000 0.0000
# 4 0.0000 0.0000 0.0000 22.7621 0.0000 0.0000
# 5 0.0000 0.0000 0.0000 0.0000 -24.9519 0.0000
# 6 0.0000 0.0000 0.0000 0.0000 0.0000 -14.7923
#
#
#
# Elastic Compliance Matrix: (Units=1/GPa)
#
#
# Indices 1 2 3 4 5 6 
#
# 1 0.011357 -0.003086 -0.000140 0.000000 0.000000 0.000000
# 2 -0.003086 0.015920 -0.000768 0.000000 0.000000 0.000000
# 3 -0.000140 -0.000768 0.011422 0.000000 0.000000 0.000000
# 4 0.000000 0.000000 0.000000 0.043933 0.000000 0.000000
# 5 0.000000 0.000000 0.000000 0.000000 -0.040077 0.000000
# 6 0.000000 0.000000 0.000000 0.000000 0.000000 -0.067603
#
#
# Mechanical properties :
#
#
# Convention : Reuss Voigt Hill
#
# Bulk Modulus (GPa) = 32.56241 33.09720 32.82981
# Shear Modulus (GPa) = -732.61938 11.42147 -360.59895
#
# Velocity S-wave (km/s) = -19.14889 2.39092 -13.43435
# Velocity P-wave (km/s) = 21.73957 4.91806 14.97367
#
# Compressibility (1/GPa) = 0.03071026
#
# Stress axis : x y z
#
# Youngs Moduli (GPa) = 88.05478 62.81512 87.55250
#
# Poissons Ratio (x) = 0.19385 0.01228
# Poissons Ratio (y) = 0.27174 0.06721
# Poissons Ratio (z) = 0.01235 0.04822
#
# Static dielectric constant tensor:
#      x y z
#    x 1.775940 0.000000 0.000000 
#    y 0.000000 1.713270 0.000000 
#    z 0.000000 0.000000 1.744370 
# 
# From -- ./inp_files/2925.got.cif
#   From: 2010.05.17/outbox.cif.g08.bks.cpg/sg59_2_cif.got.tgz:2925.got - 2010.06.03 14:40:33.
