data_PCOD9449711
_publ_section_title
;
Structure prediction by ZEFSAII (Michael W. Deem and Ramdas Pophale) SiO2 
 PCOD9449711
Probable space group: P M M N
;
_chemical_formula_sum "Si O2"
_cell_formula_units_Z 48
_cell_length_a 9.501476
_cell_length_b 8.343722
_cell_length_c 32.132485
_cell_angle_alpha 90.000000
_cell_angle_beta 90.000000
_cell_angle_gamma 90.000000
_cell_volume 2547.388681
_symmetry_space_group_name_H-M "P M M N"
_symmetry_group_IT_number 59
_space_group.IT_coordinate_system_code '2'
_symmetry_cell_setting 'orthorhombic'
loop_
_space_group_symop_operation_xyz
x,y,z
1/2-x,1/2-y,z
1/2+x,-y,-z
-x,1/2+y,-z
-x,-y,-z
1/2+x,1/2+y,-z
1/2-x,y,z
x,1/2-y,z
loop_
_atom_site_type_symbol
_atom_site_label
_atom_site_fract_x
_atom_site_fract_y
_atom_site_fract_z
Si Si1 0.913165 0.445510 0.299127
Si Si2 0.588587 0.558862 0.960964
Si Si3 0.087803 0.054033 0.379033
Si Si4 0.589109 0.059019 0.872181
Si Si5 0.913507 0.443139 0.206050
Si Si6 0.087413 0.943867 0.539899
O O1 0.750000 0.492991 0.305982
O O2 0.913918 0.250000 0.299346
O O3 0.957451 0.495892 0.252604
O O4 0.013930 0.499015 0.336241
O O5 0.750000 0.497909 0.963914
O O6 0.591700 0.750000 0.961541
O O7 0.530785 0.504379 0.916114
O O8 0.500000 0.500000 0.000000
O O9 0.250000 0.002228 0.382427
O O10 0.088169 0.250000 0.378859
O O11 0.994049 0.003426 0.418399
O O12 0.750000 0.998132 0.868631
O O13 0.591881 0.250000 0.874420
O O14 0.503525 0.008056 0.831812
O O15 0.750000 0.488717 0.201046
O O16 0.920890 0.250000 0.205281
O O17 0.250000 0.998924 0.538881
O O18 0.089405 0.750000 0.540140
O O19 0.000000 0.000000 0.500000
#
# Coordination Sequence:
#
# PCOD9449711 Si02
#       6
#     8   8   8   8   8   8
#     4   8  14  26  44  67  96 126 157 198 247 296
#     4  10  21  37  57  80 105 135 171 210 254 303
#     4   9  16  26  43  69  98 127 162 204 249 298
#     4  10  21  36  53  74 102 136 172 209 250 296
#     4   9  18  32  51  76 103 131 165 205 249 297
#     4  10  20  33  50  72  99 132 168 207 253 303
#
# _framework density 18.842825999999999
#
# number of rings (size 3 to 8) (size 9 to 14) (size 15 to 20)
#    0.000    2.667    0.000    3.000    0.000    6.667 
#    0.000    1.667    0.000    1.000    0.000    4.667 
#    0.000    0.000    0.000    0.000    0.000    0.000 
#
# Total GULP energy -267764.983418 kJ/mol
# GULP energy per Si atom -5578.437155 kJ/mol
# Density = 1.879994 g / cm^3
# Si number density = 18.842826 Si / 1000 Ang^3
#
#
#
# Elastic Constant Matrix: (Units=GPa)
#
#
# Indices 1 2 3 4 5 6 
#
# 1 122.6495 18.1715 116.1434 0.0000 0.0000 0.0000
# 2 18.1715 8.7573 24.7837 0.0000 0.0000 0.0000
# 3 116.1434 24.7837 220.1537 0.0000 0.0000 0.0000
# 4 0.0000 0.0000 0.0000 24.6863 0.0000 0.0000
# 5 0.0000 0.0000 0.0000 0.0000 40.4539 0.0000
# 6 0.0000 0.0000 0.0000 0.0000 0.0000 19.1111
#
#
#
# Elastic Compliance Matrix: (Units=1/GPa)
#
#
# Indices 1 2 3 4 5 6 
#
# 1 0.017536 -0.014978 -0.007565 0.000000 0.000000 0.000000
# 2 -0.014978 0.180374 -0.012404 0.000000 0.000000 0.000000
# 3 -0.007565 -0.012404 0.009930 0.000000 0.000000 0.000000
# 4 0.000000 0.000000 0.000000 0.040508 0.000000 0.000000
# 5 0.000000 0.000000 0.000000 0.000000 0.024720 0.000000
# 6 0.000000 0.000000 0.000000 0.000000 0.000000 0.052326
#
#
# Mechanical properties :
#
#
# Convention : Reuss Voigt Hill
#
# Bulk Modulus (GPa) = 7.24921 74.41753 40.83337
# Shear Modulus (GPa) = 11.33093 29.68104 20.50599
#
# Velocity S-wave (km/s) = 2.45488 3.97317 3.30246
# Velocity P-wave (km/s) = 3.44831 7.78638 6.02157
#
# Compressibility (1/GPa) = 0.13794613
#
# Stress axis : x y z
#
# Youngs Moduli (GPa) = 57.02423 5.54403 100.70736
#
# Poissons Ratio (x) = 0.08304 0.76188
# Poissons Ratio (y) = 0.85411 1.24916
# Poissons Ratio (z) = 0.43141 0.06877
#
# Static dielectric constant tensor:
#      x y z
#    x 1.649650 0.000000 0.000000 
#    y 0.000000 1.663340 0.000000 
#    z 0.000000 0.000000 1.636390 
# 
# From -- ./inp_files/32830.got.cif
#   From: 2010.05.17/outbox.cif.g08.bks.cpg/sg59_17_cif.got.tgz:32830.got - 2010.06.03 14:40:33.
