data_PCOD9449905
_publ_section_title
;
Structure prediction by ZEFSAII (Michael W. Deem and Ramdas Pophale) SiO2 
 PCOD9449905
Probable space group: P M M N
;
_chemical_formula_sum "Si O2"
_cell_formula_units_Z 64
_cell_length_a 8.400616
_cell_length_b 20.471023
_cell_length_c 19.444783
_cell_angle_alpha 90.000000
_cell_angle_beta 90.000000
_cell_angle_gamma 90.000000
_cell_volume 3343.903842
_symmetry_space_group_name_H-M "P M M N"
_symmetry_group_IT_number 59
_space_group.IT_coordinate_system_code '2'
_symmetry_cell_setting 'orthorhombic'
loop_
_space_group_symop_operation_xyz
x,y,z
1/2-x,1/2-y,z
1/2+x,-y,-z
-x,1/2+y,-z
-x,-y,-z
1/2+x,1/2+y,-z
1/2-x,y,z
x,1/2-y,z
loop_
_atom_site_type_symbol
_atom_site_label
_atom_site_fract_x
_atom_site_fract_y
_atom_site_fract_z
Si Si1 0.441693 0.965312 0.431639
Si Si2 0.555411 0.539788 0.707726
Si Si3 0.435759 0.069748 0.976952
Si Si4 0.934889 0.823157 0.247243
Si Si5 0.558013 0.179312 0.598667
Si Si6 0.941045 0.824238 0.764736
Si Si7 0.560915 0.175492 0.082288
Si Si8 0.566640 0.442268 0.827155
O O1 0.250000 0.967366 0.429600
O O2 0.489431 0.889030 0.435045
O O3 0.500000 0.000000 0.500000
O O4 0.497399 0.002015 0.361529
O O5 0.750000 0.538714 0.707060
O O6 0.503347 0.615124 0.717493
O O7 0.507372 0.498997 0.775778
O O8 0.250000 0.074437 0.990452
O O9 0.470162 0.070824 0.896055
O O10 0.516951 0.126186 0.021799
O O11 0.500000 0.000000 0.000000
O O12 0.750000 0.841343 0.236097
O O13 0.959358 0.750000 0.219343
O O14 0.972354 0.820822 0.327891
O O15 0.051566 0.875782 0.215496
O O16 0.750000 0.177148 0.609130
O O17 0.522488 0.250000 0.564880
O O18 0.750000 0.822017 0.758503
O O19 0.001531 0.750000 0.750618
O O20 0.981976 0.840397 0.844146
O O21 0.750000 0.173784 0.092655
O O22 0.513614 0.250000 0.064640
O O23 0.750000 0.456596 0.845321
#
# Coordination Sequence:
#
# PCOD9449905 Si02
#       8
#     8   8   8   8   8   8   8   8
#     4  10  20  36  55  81 113 147 185 230 279 336
#     4   9  18  34  55  79 108 139 179 227 274 329
#     4  12  25  40  57  81 113 149 190 238 289 344
#     4  10  20  33  51  79 112 141 176 225 275 326
#     4   9  17  33  57  79 104 144 188 225 267 324
#     4   9  17  32  57  84 108 141 183 228 281 338
#     4  10  21  38  59  83 113 150 192 237 285 340
#     4  11  21  36  57  79 106 145 188 233 281 333
#
# _framework density 19.139306999999999
#
# number of rings (size 3 to 8) (size 9 to 14) (size 15 to 20)
#    0.000    2.000    1.250    3.000    0.000    3.500 
#    0.000    1.875    0.000    0.750    0.000    0.000 
#    0.000    0.000    0.000    0.000    0.000    0.000 
#
# Total GULP energy -356944.584843 kJ/mol
# GULP energy per Si atom -5577.259138 kJ/mol
# Density = 1.909575 g / cm^3
# Si number density = 19.139307 Si / 1000 Ang^3
#
#
#
# Elastic Constant Matrix: (Units=GPa)
#
#
# Indices 1 2 3 4 5 6 
#
# 1 13.0760 12.1814 -2.9822 0.0000 0.0000 0.0000
# 2 12.1814 157.6828 67.4660 0.0000 0.0000 0.0000
# 3 -2.9822 67.4660 59.2520 0.0000 0.0000 0.0000
# 4 0.0000 0.0000 0.0000 26.5508 0.0000 0.0000
# 5 0.0000 0.0000 0.0000 0.0000 27.3819 0.0000
# 6 0.0000 0.0000 0.0000 0.0000 0.0000 19.3310
#
#
#
# Elastic Compliance Matrix: (Units=1/GPa)
#
#
# Indices 1 2 3 4 5 6 
#
# 1 0.100753 -0.019408 0.027170 0.000000 0.000000 0.000000
# 2 -0.019408 0.016105 -0.019315 0.000000 0.000000 0.000000
# 3 0.027170 -0.019315 0.040237 0.000000 0.000000 0.000000
# 4 0.000000 0.000000 0.000000 0.037664 0.000000 0.000000
# 5 0.000000 0.000000 0.000000 0.000000 0.036520 0.000000
# 6 0.000000 0.000000 0.000000 0.000000 0.000000 0.051730
#
#
# Mechanical properties :
#
#
# Convention : Reuss Voigt Hill
#
# Bulk Modulus (GPa) = 7.46329 42.59348 25.02838
# Shear Modulus (GPa) = 14.25400 24.87579 19.56490
#
# Velocity S-wave (km/s) = 2.73197 3.60908 3.20071
# Velocity P-wave (km/s) = 3.72283 6.29841 5.17347
#
# Compressibility (1/GPa) = 0.13398924
#
# Stress axis : x y z
#
# Youngs Moduli (GPa) = 9.92523 62.09196 24.85291
#
# Poissons Ratio (x) = 1.20511 -0.67526
# Poissons Ratio (y) = 0.19263 0.48002
# Poissons Ratio (z) = -0.26967 1.19928
#
# Static dielectric constant tensor:
#      x y z
#    x 1.662880 0.000000 0.000000 
#    y 0.000000 1.709610 0.000000 
#    z 0.000000 0.000000 1.602590 
# 
# From -- ./inp_files/26365.got.cif
#   From: 2010.05.17/outbox.cif.g08.bks.cpg/sg59_14_cif.got.tgz:26365.got - 2010.06.03 14:40:33.
