data_PCOD9449960
_publ_section_title
;
Structure prediction by ZEFSAII (Michael W. Deem and Ramdas Pophale) SiO2 
 PCOD9449960
Probable space group: P M M N
;
_chemical_formula_sum "Si O2"
_cell_formula_units_Z 56
_cell_length_a 23.519073
_cell_length_b 7.777450
_cell_length_c 14.937539
_cell_angle_alpha 90.000000
_cell_angle_beta 90.000000
_cell_angle_gamma 90.000000
_cell_volume 2732.350947
_symmetry_space_group_name_H-M "P M M N"
_symmetry_group_IT_number 59
_space_group.IT_coordinate_system_code '2'
_symmetry_cell_setting 'orthorhombic'
loop_
_space_group_symop_operation_xyz
x,y,z
1/2-x,1/2-y,z
1/2+x,-y,-z
-x,1/2+y,-z
-x,-y,-z
1/2+x,1/2+y,-z
1/2-x,y,z
x,1/2-y,z
loop_
_atom_site_type_symbol
_atom_site_label
_atom_site_fract_x
_atom_site_fract_y
_atom_site_fract_z
Si Si1 0.312408 0.546288 0.690810
Si Si2 0.814125 0.542149 0.923113
Si Si3 0.052874 0.451015 0.402907
Si Si4 0.426209 0.949157 0.599543
Si Si5 0.910099 0.453366 0.782109
Si Si6 0.856611 0.958778 0.118904
Si Si7 0.485029 0.456806 0.897788
O O1 0.250000 0.475308 0.665500
O O2 0.311114 0.750000 0.670257
O O3 0.369511 0.473161 0.643822
O O4 0.321300 0.523391 0.796896
O O5 0.750000 0.483751 0.906494
O O6 0.814767 0.750000 0.924492
O O7 0.857103 0.485122 0.846504
O O8 0.834086 0.485254 0.021847
O O9 0.046135 0.250000 0.425681
O O10 0.076394 0.539580 0.491865
O O11 0.091923 0.469153 0.316451
O O12 0.989344 0.521472 0.379332
O O13 0.427827 0.750000 0.628533
O O14 0.916931 0.250000 0.770754
O O15 0.965646 0.524408 0.833551
O O16 0.855119 0.750000 0.120711
O O17 0.922072 0.017268 0.126946
O O18 0.484600 0.250000 0.891171
O O19 0.500000 0.500000 0.000000
#
# Coordination Sequence:
#
# PCOD9449960 Si02
#       7
#     8   8   8   8   8   8   8
#     4  10  21  36  55  81 112 146 182 221 270 328
#     4  10  21  37  55  74 103 146 190 228 266 315
#     4  10  20  35  59  85 108 140 179 224 278 333
#     4   9  19  37  58  82 111 141 176 224 278 331
#     4  11  22  35  54  82 112 143 179 224 274 324
#     4  10  20  35  55  79 109 146 184 223 270 321
#     4  10  20  33  52  79 109 141 179 223 270 318
#
# _framework density 20.495170999999999
#
# number of rings (size 3 to 8) (size 9 to 14) (size 15 to 20)
#    0.000    2.000    1.429    2.143    0.000    4.000 
#    0.000    0.714    0.000    2.571    0.000    0.000 
#    0.000    0.000    0.000    0.000    0.000    0.000 
#
# Total GULP energy -312736.120948 kJ/mol
# GULP energy per Si atom -5584.573588 kJ/mol
# Density = 2.044852 g / cm^3
# Si number density = 20.495171 Si / 1000 Ang^3
#
#
#
# Elastic Constant Matrix: (Units=GPa)
#
#
# Indices 1 2 3 4 5 6 
#
# 1 118.3858 3.3401 46.5251 0.0000 0.0000 0.0000
# 2 3.3401 32.1783 -9.5875 0.0000 0.0000 0.0000
# 3 46.5251 -9.5875 95.7804 0.0000 0.0000 0.0000
# 4 0.0000 0.0000 0.0000 17.8706 0.0000 0.0000
# 5 0.0000 0.0000 0.0000 0.0000 19.6873 0.0000
# 6 0.0000 0.0000 0.0000 0.0000 0.0000 12.0875
#
#
#
# Elastic Compliance Matrix: (Units=1/GPa)
#
#
# Indices 1 2 3 4 5 6 
#
# 1 0.010668 -0.002733 -0.005456 0.000000 0.000000 0.000000
# 2 -0.002733 0.032732 0.004604 0.000000 0.000000 0.000000
# 3 -0.005456 0.004604 0.013551 0.000000 0.000000 0.000000
# 4 0.000000 0.000000 0.000000 0.055958 0.000000 0.000000
# 5 0.000000 0.000000 0.000000 0.000000 0.050794 0.000000
# 6 0.000000 0.000000 0.000000 0.000000 0.000000 0.082730
#
#
# Mechanical properties :
#
#
# Convention : Reuss Voigt Hill
#
# Bulk Modulus (GPa) = 20.08723 36.32219 28.20471
# Shear Modulus (GPa) = 18.50503 23.66687 21.08595
#
# Velocity S-wave (km/s) = 3.00808 3.40185 3.21101
# Velocity P-wave (km/s) = 4.67835 5.76116 5.24776
#
# Compressibility (1/GPa) = 0.04978287
#
# Stress axis : x y z
#
# Youngs Moduli (GPa) = 93.73775 30.55092 73.79303
#
# Poissons Ratio (x) = 0.08349 0.40258
# Poissons Ratio (y) = 0.25617 -0.33974
# Poissons Ratio (z) = 0.51139 -0.14065
#
# Static dielectric constant tensor:
#      x y z
#    x 1.758860 0.000000 0.000000 
#    y 0.000000 1.756800 0.000000 
#    z 0.000000 0.000000 1.698440 
# 
# From -- ./inp_files/21034.got.cif
#   From: 2010.05.17/outbox.cif.g08.bks.cpg/sg59_11_cif.got.tgz:21034.got - 2010.06.03 14:40:33.
