data_PCOD9449320
_publ_section_title
;
Structure prediction by ZEFSAII (Michael W. Deem and Ramdas Pophale) SiO2 
 PCOD9449320
Probable space group: P M M N
;
_chemical_formula_sum "Si O2"
_cell_formula_units_Z 48
_cell_length_a 7.334373
_cell_length_b 13.165606
_cell_length_c 19.490246
_cell_angle_alpha 90.000000
_cell_angle_beta 90.000000
_cell_angle_gamma 90.000000
_cell_volume 1882.006710
_symmetry_space_group_name_H-M "P M M N"
_symmetry_group_IT_number 59
_space_group.IT_coordinate_system_code '2'
_symmetry_cell_setting 'orthorhombic'
loop_
_space_group_symop_operation_xyz
x,y,z
1/2-x,1/2-y,z
1/2+x,-y,-z
-x,1/2+y,-z
-x,-y,-z
1/2+x,1/2+y,-z
1/2-x,y,z
x,1/2-y,z
loop_
_atom_site_type_symbol
_atom_site_label
_atom_site_fract_x
_atom_site_fract_y
_atom_site_fract_z
Si Si1 0.460135 0.083558 0.599111
Si Si2 0.471390 0.360934 0.449141
Si Si3 0.029805 0.129004 0.039793
Si Si4 0.533489 0.871171 0.107519
Si Si5 0.538920 0.567768 0.253939
Si Si6 0.029603 0.366353 0.191716
O O1 0.250000 0.117005 0.601329
O O2 0.464136 0.961651 0.588853
O O3 0.540526 0.104839 0.674051
O O4 0.535235 0.128483 0.528474
O O5 0.250000 0.365982 0.448852
O O6 0.523995 0.250000 0.422106
O O7 0.250000 0.122368 0.038432
O O8 0.988012 0.250000 0.041374
O O9 0.968999 0.095018 0.115649
O O10 0.959461 0.089700 0.965982
O O11 0.750000 0.893861 0.108183
O O12 0.516781 0.750000 0.103522
O O13 0.454746 0.900182 0.181361
O O14 0.750000 0.601454 0.252819
O O15 0.533771 0.445540 0.248333
O O16 0.250000 0.366053 0.191750
O O17 0.971031 0.250000 0.201471
#
# Coordination Sequence:
#
# PCOD9449320 Si02
#       6
#     8   8   8   8   8   8
#     4   9  19  34  49  71 103 127 146 183 233 280
#     4   9  18  34  56  76  92 118 157 193 223 264
#     4   7  11  23  43  64  86 116 158 202 234 265
#     4   8  14  26  45  68  93 122 157 195 234 278
#     4  10  20  31  46  72 101 125 150 186 235 283
#     4   9  18  32  48  65  89 126 167 200 232 272
#
# _framework density 25.50469
#
# number of rings (size 3 to 8) (size 9 to 14) (size 15 to 20)
#    0.000    3.333    0.000    2.000    0.000    3.333 
#    0.000    6.667    0.000    0.500    0.000    4.667 
#    0.000    0.000    0.000    0.000    0.000    0.000 
#
# Total GULP energy -268019.793482 kJ/mol
# GULP energy per Si atom -5583.745698 kJ/mol
# Density = 2.544664 g / cm^3
# Si number density = 25.504690 Si / 1000 Ang^3
#
#
#
# Elastic Constant Matrix: (Units=GPa)
#
#
# Indices 1 2 3 4 5 6 
#
# 1 101.8154 2.0580 5.5440 0.0000 0.0000 0.0000
# 2 2.0580 54.5896 -9.9065 0.0000 0.0000 0.0000
# 3 5.5440 -9.9065 127.1960 0.0000 0.0000 0.0000
# 4 0.0000 0.0000 0.0000 4.4125 0.0000 0.0000
# 5 0.0000 0.0000 0.0000 0.0000 3.3756 0.0000
# 6 0.0000 0.0000 0.0000 0.0000 0.0000 8.5858
#
#
#
# Elastic Compliance Matrix: (Units=1/GPa)
#
#
# Indices 1 2 3 4 5 6 
#
# 1 0.009856 -0.000456 -0.000465 0.000000 0.000000 0.000000
# 2 -0.000456 0.018602 0.001469 0.000000 0.000000 0.000000
# 3 -0.000465 0.001469 0.007997 0.000000 0.000000 0.000000
# 4 0.000000 0.000000 0.000000 0.226631 0.000000 0.000000
# 5 0.000000 0.000000 0.000000 0.000000 0.296242 0.000000
# 6 0.000000 0.000000 0.000000 0.000000 0.000000 0.116471
#
#
# Mechanical properties :
#
#
# Convention : Reuss Voigt Hill
#
# Bulk Modulus (GPa) = 26.63102 30.99911 28.81506
# Shear Modulus (GPa) = 7.27569 22.33514 14.80541
#
# Velocity S-wave (km/s) = 1.69082 2.96248 2.41197
# Velocity P-wave (km/s) = 3.77838 4.88696 4.36798
#
# Compressibility (1/GPa) = 0.03755020
#
# Stress axis : x y z
#
# Youngs Moduli (GPa) = 101.45858 53.75698 125.05405
#
# Poissons Ratio (x) = 0.02451 0.05816
# Poissons Ratio (y) = 0.04626 -0.18366
# Poissons Ratio (z) = 0.04719 -0.07895
#
# Static dielectric constant tensor:
#      x y z
#    x 1.965930 0.000000 0.000000 
#    y 0.000000 2.047620 0.000000 
#    z 0.000000 0.000000 2.022310 
# 
# From -- ./inp_files/26961.got.cif
#   From: 2010.05.17/outbox.cif.g08.bks.cpg/sg59_14_cif.got.tgz:26961.got - 2010.06.03 14:40:33.
