data_PCOD9449261
_publ_section_title
;
Structure prediction by ZEFSAII (Michael W. Deem and Ramdas Pophale) SiO2 
 PCOD9449261
Probable space group: P M M N
;
_chemical_formula_sum "Si O2"
_cell_formula_units_Z 26
_cell_length_a 7.180817
_cell_length_b 18.536000
_cell_length_c 7.470189
_cell_angle_alpha 90.000000
_cell_angle_beta 90.000000
_cell_angle_gamma 90.000000
_cell_volume 994.309227
_symmetry_space_group_name_H-M "P M M N"
_symmetry_group_IT_number 59
_space_group.IT_coordinate_system_code '2'
_symmetry_cell_setting 'orthorhombic'
loop_
_space_group_symop_operation_xyz
x,y,z
1/2-x,1/2-y,z
1/2+x,-y,-z
-x,1/2+y,-z
-x,-y,-z
1/2+x,1/2+y,-z
1/2-x,y,z
x,1/2-y,z
loop_
_atom_site_type_symbol
_atom_site_label
_atom_site_fract_x
_atom_site_fract_y
_atom_site_fract_z
Si Si1 0.030673 0.327072 0.197981
Si Si2 0.030952 0.483169 0.293224
Si Si3 0.971653 0.140159 0.788603
Si Si4 0.750000 0.750000 0.378021
O O1 0.250000 0.325499 0.247420
O O2 0.955526 0.250000 0.263345
O O3 0.952051 0.404130 0.255250
O O4 0.012768 0.327273 0.983293
O O5 0.250000 0.478264 0.252428
O O6 0.966145 0.556334 0.198220
O O7 0.000000 0.500000 0.500000
O O8 0.750000 0.142391 0.752602
O O9 0.088128 0.186216 0.647127
#
# Coordination Sequence:
#
# PCOD9449261 Si02
#       4
#     8   8   8   2
#     4  10  19  39  65  95 125 164 214 266 316 375
#     4  10  24  41  61  91 133 174 214 258 316 384
#     4  11  22  40  66  98 128 163 212 265 316 380
#     4  12  22  40  68  96 130 160 210 266 328 366
#
# _framework density 26.148806
#
# number of rings (size 3 to 8) (size 9 to 14) (size 15 to 20)
#    0.000    1.538    3.077    1.385    2.154    1.231 
#    2.769    0.000    0.000    0.000    0.000    0.000 
#    0.000    0.000    0.000    0.000    0.000    0.000 
#
# Total GULP energy -145030.104317 kJ/mol
# GULP energy per Si atom -5578.080935 kJ/mol
# Density = 2.608929 g / cm^3
# Si number density = 26.148806 Si / 1000 Ang^3
#
#
#
# Elastic Constant Matrix: (Units=GPa)
#
#
# Indices 1 2 3 4 5 6 
#
# 1 182.9958 43.5865 -13.3576 0.0000 0.0000 0.0000
# 2 43.5865 347.6079 40.5227 0.0000 0.0000 0.0000
# 3 -13.3576 40.5227 66.0057 0.0000 0.0000 0.0000
# 4 0.0000 0.0000 0.0000 101.2187 0.0000 0.0000
# 5 0.0000 0.0000 0.0000 0.0000 19.3449 0.0000
# 6 0.0000 0.0000 0.0000 0.0000 0.0000 -53.9573
#
#
#
# Elastic Compliance Matrix: (Units=1/GPa)
#
#
# Indices 1 2 3 4 5 6 
#
# 1 0.005815 -0.000933 0.001750 0.000000 0.000000 0.000000
# 2 -0.000933 0.003248 -0.002183 0.000000 0.000000 0.000000
# 3 0.001750 -0.002183 0.016844 0.000000 0.000000 0.000000
# 4 0.000000 0.000000 0.000000 0.009880 0.000000 0.000000
# 5 0.000000 0.000000 0.000000 0.000000 0.051693 0.000000
# 6 0.000000 0.000000 0.000000 0.000000 0.000000 -0.018533
#
#
# Mechanical properties :
#
#
# Convention : Reuss Voigt Hill
#
# Bulk Modulus (GPa) = 43.15150 82.01252 62.58201
# Shear Modulus (GPa) = 62.96851 48.37847 55.67349
#
# Velocity S-wave (km/s) = 4.91255 4.30597 4.61923
# Velocity P-wave (km/s) = 6.97966 7.49358 7.24118
#
# Compressibility (1/GPa) = 0.02317417
#
# Stress axis : x y z
#
# Youngs Moduli (GPa) = 171.98264 307.85461 59.36669
#
# Poissons Ratio (x) = 0.28724 -0.10386
# Poissons Ratio (y) = 0.16047 0.12960
# Poissons Ratio (z) = -0.30088 0.67206
#
# Static dielectric constant tensor:
#      x y z
#    x 1.987130 0.000000 0.000000 
#    y 0.000000 2.049520 0.000000 
#    z 0.000000 0.000000 2.086340 
# 
# From -- ./inp_files/5168.got.cif
#   From: 2010.05.17/outbox.cif.g08.bks.cpg/sg59_3_cif.got.tgz:5168.got - 2010.06.03 14:40:33.
