data_PCOD9449074
_publ_section_title
;
Structure prediction by ZEFSAII (Michael W. Deem and Ramdas Pophale) SiO2 
 PCOD9449074
Probable space group: P M M N
;
_chemical_formula_sum "Si O2"
_cell_formula_units_Z 64
_cell_length_a 24.754238
_cell_length_b 7.532518
_cell_length_c 15.826496
_cell_angle_alpha 90.000000
_cell_angle_beta 90.000000
_cell_angle_gamma 90.000000
_cell_volume 2951.036035
_symmetry_space_group_name_H-M "P M M N"
_symmetry_group_IT_number 59
_space_group.IT_coordinate_system_code '2'
_symmetry_cell_setting 'orthorhombic'
loop_
_space_group_symop_operation_xyz
x,y,z
1/2-x,1/2-y,z
1/2+x,-y,-z
-x,1/2+y,-z
-x,-y,-z
1/2+x,1/2+y,-z
1/2-x,y,z
x,1/2-y,z
loop_
_atom_site_type_symbol
_atom_site_label
_atom_site_fract_x
_atom_site_fract_y
_atom_site_fract_z
Si Si1 0.497740 0.539288 0.821428
Si Si2 0.311068 0.462892 0.752721
Si Si3 0.612425 0.463673 0.902918
Si Si4 0.884205 0.537895 0.401173
Si Si5 0.112600 0.537123 0.907601
Si Si6 0.187816 0.967398 0.250434
Si Si7 0.497241 0.953827 0.372530
Si Si8 0.120410 0.963417 0.412837
O O1 0.491822 0.750000 0.807964
O O2 0.551512 0.506608 0.874972
O O3 0.444233 0.471928 0.868839
O O4 0.503759 0.455194 0.729196
O O5 0.250000 0.531858 0.750264
O O6 0.308322 0.250000 0.743018
O O7 0.348276 0.531692 0.675999
O O8 0.340502 0.498401 0.841076
O O9 0.617312 0.250000 0.903890
O O10 0.653610 0.527399 0.830908
O O11 0.622568 0.530226 0.997741
O O12 0.888801 0.750000 0.388633
O O13 0.859754 0.505379 0.493296
O O14 0.945471 0.464441 0.398930
O O15 0.107553 0.750000 0.913893
O O16 0.250000 0.023321 0.247652
O O17 0.187447 0.750000 0.250377
O O18 0.157705 0.026080 0.336019
O O19 0.497445 0.750000 0.402848
O O20 0.440847 0.034910 0.403098
O O21 0.117681 0.750000 0.404400
#
# Coordination Sequence:
#
# PCOD9449074 Si02
#       8
#     8   8   8   8   8   8   8   8
#     4  11  21  33  54  86 117 144 181 230 281 331
#     4  10  22  40  60  81 110 151 193 232 277 332
#     4  10  20  37  59  82 113 150 186 225 277 337
#     4  10  21  36  56  81 110 145 184 225 278 337
#     4  10  22  37  57  86 114 146 187 233 281 330
#     4   9  18  34  56  80 106 141 186 228 266 319
#     4  10  19  35  57  80 107 149 187 220 279 342
#     4  10  20  34  55  82 110 141 182 227 277 332
#
# _framework density 21.6873
#
# number of rings (size 3 to 8) (size 9 to 14) (size 15 to 20)
#    0.000    2.000    2.500    1.125    0.000    3.750 
#    0.000    1.250    0.000    1.125    0.000    0.000 
#    0.000    0.000    0.000    0.000    0.000    0.000 
#
# Total GULP energy -357669.905125 kJ/mol
# GULP energy per Si atom -5588.592268 kJ/mol
# Density = 2.163794 g / cm^3
# Si number density = 21.687300 Si / 1000 Ang^3
#
#
#
# Elastic Constant Matrix: (Units=GPa)
#
#
# Indices 1 2 3 4 5 6 
#
# 1 142.2263 2.6944 55.9848 0.0000 0.0000 0.0000
# 2 2.6944 54.6716 -3.5364 0.0000 0.0000 0.0000
# 3 55.9848 -3.5364 139.5443 0.0000 0.0000 0.0000
# 4 0.0000 0.0000 0.0000 397.1346 0.0000 0.0000
# 5 0.0000 0.0000 0.0000 0.0000 1.3042 0.0000
# 6 0.0000 0.0000 0.0000 0.0000 0.0000 -7.4201
#
#
#
# Elastic Compliance Matrix: (Units=1/GPa)
#
#
# Indices 1 2 3 4 5 6 
#
# 1 0.008371 -0.000631 -0.003375 0.000000 0.000000 0.000000
# 2 -0.000631 0.018369 0.000719 0.000000 0.000000 0.000000
# 3 -0.003375 0.000719 0.008538 0.000000 0.000000 0.000000
# 4 0.000000 0.000000 0.000000 0.002518 0.000000 0.000000
# 5 0.000000 0.000000 0.000000 0.000000 0.766755 0.000000
# 6 0.000000 0.000000 0.000000 0.000000 0.000000 -0.134769
#
#
# Mechanical properties :
#
#
# Convention : Reuss Voigt Hill
#
# Bulk Modulus (GPa) = 34.83760 49.63641 42.23700
# Shear Modulus (GPa) = 7.28944 96.95705 52.12324
#
# Velocity S-wave (km/s) = 1.83533 6.69357 4.90777
# Velocity P-wave (km/s) = 4.53759 9.09261 7.18558
#
# Compressibility (1/GPa) = 0.02870462
#
# Stress axis : x y z
#
# Youngs Moduli (GPa) = 119.45538 54.44070 117.12001
#
# Poissons Ratio (x) = 0.03434 0.39523
# Poissons Ratio (y) = 0.07536 -0.08416
# Poissons Ratio (z) = 0.40311 -0.03912
#
# Static dielectric constant tensor:
#      x y z
#    x 1.764820 0.000000 0.000000 
#    y 0.000000 1.811400 0.000000 
#    z 0.000000 0.000000 1.762470 
# 
# From -- ./inp_files/21439.got.cif
#   From: 2010.05.17/outbox.cif.g08.bks.cpg/sg59_11_cif.got.tgz:21439.got - 2010.06.03 14:40:33.
