data_PCOD9449719
_publ_section_title
;
Structure prediction by ZEFSAII (Michael W. Deem and Ramdas Pophale) SiO2 
 PCOD9449719
Probable space group: P M M N
;
_chemical_formula_sum "Si O2"
_cell_formula_units_Z 48
_cell_length_a 7.480902
_cell_length_b 9.283427
_cell_length_c 31.837039
_cell_angle_alpha 90.000000
_cell_angle_beta 90.000000
_cell_angle_gamma 90.000000
_cell_volume 2211.031662
_symmetry_space_group_name_H-M "P M M N"
_symmetry_group_IT_number 59
_space_group.IT_coordinate_system_code '2'
_symmetry_cell_setting 'orthorhombic'
loop_
_space_group_symop_operation_xyz
x,y,z
1/2-x,1/2-y,z
1/2+x,-y,-z
-x,1/2+y,-z
-x,-y,-z
1/2+x,1/2+y,-z
1/2-x,y,z
x,1/2-y,z
loop_
_atom_site_type_symbol
_atom_site_label
_atom_site_fract_x
_atom_site_fract_y
_atom_site_fract_z
Si Si1 0.035828 0.913559 0.623623
Si Si2 0.464157 0.086285 0.042567
Si Si3 0.035696 0.913786 0.291260
Si Si4 0.031441 0.083841 0.208838
Si Si5 0.035665 0.413639 0.542555
Si Si6 0.968574 0.083836 0.875055
O O1 0.250000 0.904459 0.619076
O O2 0.966735 0.750000 0.625734
O O3 0.966840 0.999926 0.583092
O O4 0.001122 0.000328 0.666160
O O5 0.250000 0.094951 0.046934
O O6 0.532975 0.250000 0.040674
O O7 0.529573 0.999384 0.083252
O O8 0.500000 0.000000 0.000000
O O9 0.250000 0.905454 0.287075
O O10 0.967198 0.750000 0.293010
O O11 0.970582 0.000729 0.250556
O O12 0.250000 0.084304 0.209104
O O13 0.974432 0.250000 0.208633
O O14 0.976171 0.999953 0.166900
O O15 0.250000 0.404853 0.546927
O O16 0.966907 0.250000 0.540591
O O17 0.000000 0.500000 0.500000
O O18 0.750000 0.084321 0.875328
O O19 0.025567 0.250000 0.874882
#
# Coordination Sequence:
#
# PCOD9449719 Si02
#       6
#     8   8   8   8   8   8
#     4  10  21  37  56  77 103 137 174 210 251 301
#     4  10  20  33  50  73 100 131 168 208 251 301
#     4  10  20  33  51  77 106 135 169 209 252 297
#     4   9  16  27  45  70 100 131 164 206 252 295
#     4  10  21  37  57  80 105 135 171 210 253 300
#     4   9  16  27  45  69  97 129 165 205 249 298
#
# _framework density 21.709320999999999
#
# number of rings (size 3 to 8) (size 9 to 14) (size 15 to 20)
#    0.000    2.333    0.000    3.000    0.000    8.667 
#    0.000    0.000    0.000    1.000    0.000    0.000 
#    0.000    0.000    0.000    0.000    0.000    0.000 
#
# Total GULP energy -268343.578301 kJ/mol
# GULP energy per Si atom -5590.491215 kJ/mol
# Density = 2.165991 g / cm^3
# Si number density = 21.709321 Si / 1000 Ang^3
#
#
#
# Elastic Constant Matrix: (Units=GPa)
#
#
# Indices 1 2 3 4 5 6 
#
# 1 62.1198 8.8450 -1.3972 0.0000 0.0000 0.0000
# 2 8.8450 287.5562 173.2884 0.0000 0.0000 0.0000
# 3 -1.3972 173.2884 264.6008 0.0000 0.0000 0.0000
# 4 0.0000 0.0000 0.0000 48.3889 0.0000 0.0000
# 5 0.0000 0.0000 0.0000 0.0000 19.0987 0.0000
# 6 0.0000 0.0000 0.0000 0.0000 0.0000 10.6114
#
#
#
# Elastic Compliance Matrix: (Units=1/GPa)
#
#
# Indices 1 2 3 4 5 6 
#
# 1 0.016243 -0.000911 0.000682 0.000000 0.000000 0.000000
# 2 -0.000911 0.005796 -0.003801 0.000000 0.000000 0.000000
# 3 0.000682 -0.003801 0.006272 0.000000 0.000000 0.000000
# 4 0.000000 0.000000 0.000000 0.020666 0.000000 0.000000
# 5 0.000000 0.000000 0.000000 0.000000 0.052360 0.000000
# 6 0.000000 0.000000 0.000000 0.000000 0.000000 0.094238
#
#
# Mechanical properties :
#
#
# Convention : Reuss Voigt Hill
#
# Bulk Modulus (GPa) = 49.37652 108.41659 78.89655
# Shear Modulus (GPa) = 23.76610 44.52251 34.14431
#
# Velocity S-wave (km/s) = 3.31228 4.53354 3.97015
# Velocity P-wave (km/s) = 6.11735 8.80071 7.57874
#
# Compressibility (1/GPa) = 0.02025254
#
# Stress axis : x y z
#
# Youngs Moduli (GPa) = 61.56522 172.53510 159.44123
#
# Poissons Ratio (x) = 0.15713 -0.10877
# Poissons Ratio (y) = 0.05607 0.60597
# Poissons Ratio (z) = -0.04200 0.65573
#
# Static dielectric constant tensor:
#      x y z
#    x 1.866440 0.000000 0.000000 
#    y 0.000000 1.757250 0.000000 
#    z 0.000000 0.000000 1.721490 
# 
# From -- ./inp_files/31240.got.cif
#   From: 2010.05.17/outbox.cif.g08.bks.cpg/sg59_16_cif.got.tgz:31240.got - 2010.06.03 14:40:33.
