data_PCOD9449226
_publ_section_title
;
Structure prediction by ZEFSAII (Michael W. Deem and Ramdas Pophale) SiO2 
 PCOD9449226
Probable space group: P M M N
;
_chemical_formula_sum "Si O2"
_cell_formula_units_Z 56
_cell_length_a 9.059470
_cell_length_b 16.770548
_cell_length_c 18.884164
_cell_angle_alpha 90.000000
_cell_angle_beta 90.000000
_cell_angle_gamma 90.000000
_cell_volume 2869.114026
_symmetry_space_group_name_H-M "P M M N"
_symmetry_group_IT_number 59
_space_group.IT_coordinate_system_code '2'
_symmetry_cell_setting 'orthorhombic'
loop_
_space_group_symop_operation_xyz
x,y,z
1/2-x,1/2-y,z
1/2+x,-y,-z
-x,1/2+y,-z
-x,-y,-z
1/2+x,1/2+y,-z
1/2-x,y,z
x,1/2-y,z
loop_
_atom_site_type_symbol
_atom_site_label
_atom_site_fract_x
_atom_site_fract_y
_atom_site_fract_z
Si Si1 0.431194 0.750000 0.438443
Si Si2 0.072267 0.597994 0.206991
Si Si3 0.427623 0.006788 0.076294
Si Si4 0.582534 0.988560 0.664969
Si Si5 0.927663 0.750000 0.280809
Si Si6 0.581246 0.421181 0.526537
Si Si7 0.573754 0.839516 0.832678
Si Si8 0.425535 0.663060 0.678254
O O1 0.250000 0.750000 0.432880
O O2 0.500727 0.750000 0.359650
O O3 0.475407 0.831042 0.479402
O O4 0.250000 0.612265 0.211240
O O5 0.034909 0.566771 0.128693
O O6 0.039877 0.523872 0.259413
O O7 0.985426 0.673265 0.237153
O O8 0.250000 0.007881 0.069742
O O9 0.471352 0.089268 0.115450
O O10 0.500000 0.000000 0.000000
O O11 0.750000 0.958514 0.668719
O O12 0.484382 0.915120 0.639599
O O13 0.581202 0.062036 0.611180
O O14 0.750000 0.750000 0.286494
O O15 0.500000 0.500000 0.500000
O O16 0.750000 0.423184 0.500926
O O17 0.750000 0.847791 0.819904
O O18 0.548281 0.750000 0.861774
O O19 0.491566 0.843310 0.757481
O O20 0.250000 0.660738 0.680749
O O21 0.470625 0.750000 0.649794
#
# Coordination Sequence:
#
# PCOD9449226 Si02
#       8
#     4   8   8   8   4   8   8   8
#     4  10  20  42  68  88 120 171 208 237 300 379
#     4  10  20  39  62  83 114 154 196 238 293 369
#     4  10  21  37  57  81 111 151 191 236 294 351
#     4  10  19  36  62  85 109 149 197 239 285 350
#     4  12  24  36  60  98 124 147 192 259 310 341
#     4  10  22  40  64  89 118 158 201 247 298 355
#     4   9  17  33  56  77 101 139 184 223 266 331
#     4  10  20  32  50  81 116 145 178 229 284 330
#
# _framework density 19.518219999999999
#
# number of rings (size 3 to 8) (size 9 to 14) (size 15 to 20)
#    0.000    2.000    2.857    1.071    0.000    3.714 
#    2.571    0.000    0.000    0.000    0.000    0.000 
#    0.000    0.000    0.000    0.000    0.000    0.000 
#
# Total GULP energy -312446.055923 kJ/mol
# GULP energy per Si atom -5579.393856 kJ/mol
# Density = 1.947380 g / cm^3
# Si number density = 19.518220 Si / 1000 Ang^3
#
#
#
# Elastic Constant Matrix: (Units=GPa)
#
#
# Indices 1 2 3 4 5 6 
#
# 1 38.3319 57.0602 16.2347 0.0000 0.0000 0.0000
# 2 57.0602 166.3826 35.7138 0.0000 0.0000 0.0000
# 3 16.2347 35.7138 69.2715 0.0000 0.0000 0.0000
# 4 0.0000 0.0000 0.0000 28.7407 0.0000 0.0000
# 5 0.0000 0.0000 0.0000 0.0000 27.4444 0.0000
# 6 0.0000 0.0000 0.0000 0.0000 0.0000 26.1557
#
#
#
# Elastic Compliance Matrix: (Units=1/GPa)
#
#
# Indices 1 2 3 4 5 6 
#
# 1 0.054038 -0.017782 -0.003497 0.000000 0.000000 0.000000
# 2 -0.017782 0.012609 -0.002334 0.000000 0.000000 0.000000
# 3 -0.003497 -0.002334 0.016459 0.000000 0.000000 0.000000
# 4 0.000000 0.000000 0.000000 0.034794 0.000000 0.000000
# 5 0.000000 0.000000 0.000000 0.000000 0.036437 0.000000
# 6 0.000000 0.000000 0.000000 0.000000 0.000000 0.038233
#
#
# Mechanical properties :
#
#
# Convention : Reuss Voigt Hill
#
# Bulk Modulus (GPa) = 27.86923 54.66706 41.26814
# Shear Modulus (GPa) = 19.86056 27.46663 23.66360
#
# Velocity S-wave (km/s) = 3.19335 3.75538 3.48571
# Velocity P-wave (km/s) = 5.28263 6.84637 6.11470
#
# Compressibility (1/GPa) = 0.03588187
#
# Stress axis : x y z
#
# Youngs Moduli (GPa) = 18.50535 79.30679 60.75846
#
# Poissons Ratio (x) = 1.41020 0.21248
# Poissons Ratio (y) = 0.32905 0.14178
# Poissons Ratio (z) = 0.06472 0.18506
#
# Static dielectric constant tensor:
#      x y z
#    x 1.668090 0.000000 0.000000 
#    y 0.000000 1.722910 0.000000 
#    z 0.000000 0.000000 1.700320 
# 
# From -- ./inp_files/29212.got.cif
#   From: 2010.05.17/outbox.cif.g08.bks.cpg/sg59_15_cif.got.tgz:29212.got - 2010.06.03 14:40:33.
