data_PCOD9449773
_publ_section_title
;
Structure prediction by ZEFSAII (Michael W. Deem and Ramdas Pophale) SiO2 
 PCOD9449773
Probable space group: P M M N
;
_chemical_formula_sum "Si O2"
_cell_formula_units_Z 58
_cell_length_a 9.046969
_cell_length_b 21.874708
_cell_length_c 15.563416
_cell_angle_alpha 90.000000
_cell_angle_beta 90.000000
_cell_angle_gamma 90.000000
_cell_volume 3079.996994
_symmetry_space_group_name_H-M "P M M N"
_symmetry_group_IT_number 59
_space_group.IT_coordinate_system_code '2'
_symmetry_cell_setting 'orthorhombic'
loop_
_space_group_symop_operation_xyz
x,y,z
1/2-x,1/2-y,z
1/2+x,-y,-z
-x,1/2+y,-z
-x,-y,-z
1/2+x,1/2+y,-z
1/2-x,y,z
x,1/2-y,z
loop_
_atom_site_type_symbol
_atom_site_label
_atom_site_fract_x
_atom_site_fract_y
_atom_site_fract_z
Si Si1 0.914291 0.376704 0.399936
Si Si2 0.577698 0.678270 0.268686
Si Si3 0.577447 0.003796 0.140709
Si Si4 0.425831 0.085565 0.574344
Si Si5 0.084976 0.822918 0.094670
Si Si6 0.926196 0.981758 0.682965
Si Si7 0.078345 0.091250 0.016858
Si Si8 0.750000 0.250000 0.380638
O O1 0.750000 0.405924 0.405058
O O2 0.877314 0.305478 0.383454
O O3 0.999287 0.388419 0.488840
O O4 0.007044 0.413898 0.329441
O O5 0.750000 0.672347 0.242908
O O6 0.550529 0.750000 0.288569
O O7 0.553430 0.635923 0.350523
O O8 0.479385 0.659844 0.187638
O O9 0.750000 0.007515 0.163646
O O10 0.483408 0.992951 0.225873
O O11 0.560418 0.952515 0.066997
O O12 0.518771 0.064494 0.093570
O O13 0.250000 0.075974 0.562288
O O14 0.504944 0.024421 0.608477
O O15 0.250000 0.848387 0.083138
O O16 0.091152 0.750000 0.094600
O O17 0.980777 0.845213 0.018541
O O18 0.750000 0.981843 0.678376
O O19 0.250000 0.091305 0.040619
#
# Coordination Sequence:
#
# PCOD9449773 Si02
#       8
#     8   8   8   8   8   8   8   2
#     4  10  22  42  64  87 114 153 198 242 296 352
#     4   9  19  33  50  76 113 156 198 241 289 351
#     4  10  21  37  59  86 116 153 188 236 292 350
#     4  11  22  36  58  90 124 160 197 243 297 356
#     4  10  20  33  50  75 109 150 192 236 287 341
#     4  12  24  39  60  90 124 157 196 246 300 350
#     4  10  20  35  57  84 114 148 191 235 288 352
#     4   8  24  44  70  88 112 160 198 252 300 352
#
# _framework density 18.831187
#
# number of rings (size 3 to 8) (size 9 to 14) (size 15 to 20)
#    0.414    1.379    0.000    4.552    0.966    6.897 
#    0.000    1.034    1.517    0.000    0.000    0.000 
#    0.000    0.000    0.000    0.000    0.000    0.000 
#
# Total GULP energy -323212.684303 kJ/mol
# GULP energy per Si atom -5572.632488 kJ/mol
# Density = 1.878833 g / cm^3
# Si number density = 18.831187 Si / 1000 Ang^3
#
#
#
# Elastic Constant Matrix: (Units=GPa)
#
#
# Indices 1 2 3 4 5 6 
#
# 1 99.1889 37.4779 20.2717 0.0000 0.0000 0.0000
# 2 37.4779 71.4808 7.5978 0.0000 0.0000 0.0000
# 3 20.2717 7.5978 23.1151 0.0000 0.0000 0.0000
# 4 0.0000 0.0000 0.0000 21.2078 0.0000 0.0000
# 5 0.0000 0.0000 0.0000 0.0000 29.6576 0.0000
# 6 0.0000 0.0000 0.0000 0.0000 0.0000 25.5369
#
#
#
# Elastic Compliance Matrix: (Units=1/GPa)
#
#
# Indices 1 2 3 4 5 6 
#
# 1 0.014783 -0.006603 -0.010794 0.000000 0.000000 0.000000
# 2 -0.006603 0.017446 0.000057 0.000000 0.000000 0.000000
# 3 -0.010794 0.000057 0.052709 0.000000 0.000000 0.000000
# 4 0.000000 0.000000 0.000000 0.047152 0.000000 0.000000
# 5 0.000000 0.000000 0.000000 0.000000 0.033718 0.000000
# 6 0.000000 0.000000 0.000000 0.000000 0.000000 0.039159
#
#
# Mechanical properties :
#
#
# Convention : Reuss Voigt Hill
#
# Bulk Modulus (GPa) = 19.89776 36.05329 27.97553
# Shear Modulus (GPa) = 19.50069 23.84295 21.67182
#
# Velocity S-wave (km/s) = 3.22149 3.56215 3.39609
# Velocity P-wave (km/s) = 4.94233 6.00880 5.50147
#
# Compressibility (1/GPa) = 0.05025692
#
# Stress axis : x y z
#
# Youngs Moduli (GPa) = 67.64596 57.31973 18.97199
#
# Poissons Ratio (x) = 0.37851 0.20478
# Poissons Ratio (y) = 0.44670 -0.00108
# Poissons Ratio (z) = 0.73016 -0.00325
#
# Static dielectric constant tensor:
#      x y z
#    x 1.668690 0.000000 0.000000 
#    y 0.000000 1.679860 0.000000 
#    z 0.000000 0.000000 1.644110 
# 
# From -- ./inp_files/21381.got.cif
#   From: 2010.05.17/outbox.cif.g08.bks.cpg/sg59_11_cif.got.tgz:21381.got - 2010.06.03 14:40:33.
