data_PCOD9449142
_publ_section_title
;
Structure prediction by ZEFSAII (Michael W. Deem and Ramdas Pophale) SiO2 
 PCOD9449142
Probable space group: P M M N
;
_chemical_formula_sum "Si O2"
_cell_formula_units_Z 48
_cell_length_a 15.562051
_cell_length_b 8.563198
_cell_length_c 19.531467
_cell_angle_alpha 90.000000
_cell_angle_beta 90.000000
_cell_angle_gamma 90.000000
_cell_volume 2602.781339
_symmetry_space_group_name_H-M "P M M N"
_symmetry_group_IT_number 59
_space_group.IT_coordinate_system_code '2'
_symmetry_cell_setting 'orthorhombic'
loop_
_space_group_symop_operation_xyz
x,y,z
1/2-x,1/2-y,z
1/2+x,-y,-z
-x,1/2+y,-z
-x,-y,-z
1/2+x,1/2+y,-z
1/2-x,y,z
x,1/2-y,z
loop_
_atom_site_type_symbol
_atom_site_label
_atom_site_fract_x
_atom_site_fract_y
_atom_site_fract_z
Si Si1 0.500310 0.435480 0.076720
Si Si2 0.403688 0.440235 0.675462
Si Si3 0.651607 0.438680 0.829331
Si Si4 0.151578 0.061067 0.828820
Si Si5 0.250000 0.063029 0.420279
Si Si6 0.750000 0.559064 0.422538
Si Si7 0.400604 0.938783 0.325513
O O1 0.500965 0.250000 0.074836
O O2 0.416685 0.493023 0.118074
O O3 0.583693 0.495142 0.117718
O O4 0.500000 0.500000 0.000000
O O5 0.403329 0.250000 0.675299
O O6 0.374654 0.487289 0.751733
O O7 0.334334 0.491548 0.619476
O O8 0.501354 0.489875 0.662023
O O9 0.750000 0.485107 0.843284
O O10 0.646650 0.250000 0.832545
O O11 0.626764 0.484104 0.751638
O O12 0.250000 0.014772 0.842477
O O13 0.147241 0.250000 0.830894
O O14 0.250000 0.250000 0.420459
O O15 0.250000 0.007740 0.498937
O O16 0.333420 0.004405 0.379619
O O17 0.750000 0.750000 0.422237
O O18 0.397370 0.750000 0.328341
#
# Coordination Sequence:
#
# PCOD9449142 Si02
#       7
#     8   8   8   8   4   4   8
#     4  12  26  42  61  87 124 159 191 237 291 350
#     4   9  16  31  59  87 111 146 194 239 283 344
#     4  10  20  38  64  90 115 148 196 248 294 346
#     4  10  19  36  65  93 115 148 198 246 289 347
#     4  11  23  35  51  81 124 157 192 243 291 340
#     4   9  18  33  53  85 120 153 190 239 293 338
#     4  10  19  35  60  85 111 150 198 240 287 349
#
# _framework density 18.44181
#
# number of rings (size 3 to 8) (size 9 to 14) (size 15 to 20)
#    0.000    1.833    3.333    1.750    0.000    2.667 
#    0.000    0.000    0.000    3.000    0.000    0.000 
#    0.000    0.000    0.000    0.000    0.000    0.000 
#
# Total GULP energy -268096.018748 kJ/mol
# GULP energy per Si atom -5585.333724 kJ/mol
# Density = 1.839984 g / cm^3
# Si number density = 18.441810 Si / 1000 Ang^3
#
#
#
# Elastic Constant Matrix: (Units=GPa)
#
#
# Indices 1 2 3 4 5 6 
#
# 1 231.8404 45.9171 129.8259 0.0000 0.0000 0.0000
# 2 45.9171 25.5481 39.7019 0.0000 0.0000 0.0000
# 3 129.8259 39.7019 199.0800 0.0000 0.0000 0.0000
# 4 0.0000 0.0000 0.0000 22.3743 0.0000 0.0000
# 5 0.0000 0.0000 0.0000 0.0000 34.2767 0.0000
# 6 0.0000 0.0000 0.0000 0.0000 0.0000 19.2908
#
#
#
# Elastic Compliance Matrix: (Units=1/GPa)
#
#
# Indices 1 2 3 4 5 6 
#
# 1 0.008037 -0.009129 -0.003420 0.000000 0.000000 0.000000
# 2 -0.009129 0.067089 -0.007426 0.000000 0.000000 0.000000
# 3 -0.003420 -0.007426 0.008735 0.000000 0.000000 0.000000
# 4 0.000000 0.000000 0.000000 0.044694 0.000000 0.000000
# 5 0.000000 0.000000 0.000000 0.000000 0.029174 0.000000
# 6 0.000000 0.000000 0.000000 0.000000 0.000000 0.051838
#
#
# Mechanical properties :
#
#
# Convention : Reuss Voigt Hill
#
# Bulk Modulus (GPa) = 22.77404 98.59538 60.68471
# Shear Modulus (GPa) = 18.92829 31.25659 25.09244
#
# Velocity S-wave (km/s) = 3.20719 4.12135 3.69267
# Velocity P-wave (km/s) = 5.10791 8.73078 7.15252
#
# Compressibility (1/GPa) = 0.04390965
#
# Stress axis : x y z
#
# Youngs Moduli (GPa) = 124.42949 14.90552 114.48639
#
# Poissons Ratio (x) = 0.13607 0.39159
# Poissons Ratio (y) = 1.13589 0.85021
# Poissons Ratio (z) = 0.42560 0.11069
#
# Static dielectric constant tensor:
#      x y z
#    x 1.622640 0.000000 0.000000 
#    y 0.000000 1.627680 0.000000 
#    z 0.000000 0.000000 1.604030 
# 
# From -- ./inp_files/27466.got.cif
#   From: 2010.05.17/outbox.cif.g08.bks.cpg/sg59_14_cif.got.tgz:27466.got - 2010.06.03 14:40:33.
