data_PCOD9449604
_publ_section_title
;
Structure prediction by ZEFSAII (Michael W. Deem and Ramdas Pophale) SiO2 
 PCOD9449604
Probable space group: P M M N
;
_chemical_formula_sum "Si O2"
_cell_formula_units_Z 48
_cell_length_a 21.136316
_cell_length_b 8.719464
_cell_length_c 15.542096
_cell_angle_alpha 90.000000
_cell_angle_beta 90.000000
_cell_angle_gamma 90.000000
_cell_volume 2864.367051
_symmetry_space_group_name_H-M "P M M N"
_symmetry_group_IT_number 59
_space_group.IT_coordinate_system_code '2'
_symmetry_cell_setting 'orthorhombic'
loop_
_space_group_symop_operation_xyz
x,y,z
1/2-x,1/2-y,z
1/2+x,-y,-z
-x,1/2+y,-z
-x,-y,-z
1/2+x,1/2+y,-z
1/2-x,y,z
x,1/2-y,z
loop_
_atom_site_type_symbol
_atom_site_label
_atom_site_fract_x
_atom_site_fract_y
_atom_site_fract_z
Si Si1 0.007884 0.928366 0.741869
Si Si2 0.154989 0.927930 0.702135
Si Si3 0.448160 0.434275 0.433328
Si Si4 0.181495 0.433585 0.883903
Si Si5 0.540985 0.933298 0.077345
Si Si6 0.180008 0.564908 0.507633
O O1 0.993001 0.750000 0.760659
O O2 0.078940 0.933612 0.703861
O O3 0.963958 0.985043 0.664298
O O4 0.010809 0.018449 0.831187
O O5 0.173701 0.750000 0.714859
O O6 0.177250 0.978521 0.608578
O O7 0.178130 0.024506 0.782999
O O8 0.500000 0.500000 0.500000
O O9 0.453156 0.250000 0.435236
O O10 0.378715 0.487765 0.460774
O O11 0.250000 0.490616 0.917306
O O12 0.181116 0.250000 0.893183
O O13 0.114549 0.490545 0.922561
O O14 0.542119 0.750000 0.071474
O O15 0.500000 0.000000 0.000000
O O16 0.250000 0.526500 0.473836
O O17 0.172349 0.750000 0.504608
#
# Coordination Sequence:
#
# PCOD9449604 Si02
#       6
#     8   8   8   8   8   8
#     4   9  18  33  52  74 100 132 170 213 254 301
#     4   9  16  29  47  69  99 134 168 200 245 302
#     4  11  21  34  53  75 103 138 180 220 258 307
#     4   9  18  31  47  71 102 131 161 199 246 301
#     4  10  20  34  54  78 103 132 165 207 256 307
#     4  10  20  33  48  70 104 142 178 218 264 309
#
# _framework density 16.757628
#
# number of rings (size 3 to 8) (size 9 to 14) (size 15 to 20)
#    0.000    2.333    1.667    1.500    0.000    4.000 
#    0.000    0.000    0.000    1.000    0.000    2.333 
#    0.000    0.000    0.000    0.000    0.000    0.000 
#
# Total GULP energy -267554.664604 kJ/mol
# GULP energy per Si atom -5574.055513 kJ/mol
# Density = 1.671949 g / cm^3
# Si number density = 16.757628 Si / 1000 Ang^3
#
#
#
# Elastic Constant Matrix: (Units=GPa)
#
#
# Indices 1 2 3 4 5 6 
#
# 1 138.3500 30.2212 75.5927 0.0000 0.0000 0.0000
# 2 30.2212 25.4951 28.0376 0.0000 0.0000 0.0000
# 3 75.5927 28.0376 95.1104 0.0000 0.0000 0.0000
# 4 0.0000 0.0000 0.0000 26.7277 0.0000 0.0000
# 5 0.0000 0.0000 0.0000 0.0000 15.6163 0.0000
# 6 0.0000 0.0000 0.0000 0.0000 0.0000 18.4752
#
#
#
# Elastic Compliance Matrix: (Units=1/GPa)
#
#
# Indices 1 2 3 4 5 6 
#
# 1 0.013402 -0.006174 -0.008832 0.000000 0.000000 0.000000
# 2 -0.006174 0.060883 -0.013041 0.000000 0.000000 0.000000
# 3 -0.008832 -0.013041 0.021378 0.000000 0.000000 0.000000
# 4 0.000000 0.000000 0.000000 0.037414 0.000000 0.000000
# 5 0.000000 0.000000 0.000000 0.000000 0.064036 0.000000
# 6 0.000000 0.000000 0.000000 0.000000 0.000000 0.054127
#
#
# Mechanical properties :
#
#
# Convention : Reuss Voigt Hill
#
# Bulk Modulus (GPa) = 25.27174 58.51760 41.89467
# Shear Modulus (GPa) = 15.59948 20.50410 18.05179
#
# Velocity S-wave (km/s) = 3.05436 3.50175 3.28568
# Velocity P-wave (km/s) = 5.24903 7.16557 6.28083
#
# Compressibility (1/GPa) = 0.03956989
#
# Stress axis : x y z
#
# Youngs Moduli (GPa) = 74.61333 16.42498 46.77716
#
# Poissons Ratio (x) = 0.10141 0.41314
# Poissons Ratio (y) = 0.46067 0.61000
# Poissons Ratio (z) = 0.65899 0.21419
#
# Static dielectric constant tensor:
#      x y z
#    x 1.605840 0.000000 0.000000 
#    y 0.000000 1.574940 0.000000 
#    z 0.000000 0.000000 1.536510 
# 
# From -- ./inp_files/20724.got.cif
#   From: 2010.05.17/outbox.cif.g08.bks.cpg/sg59_11_cif.got.tgz:20724.got - 2010.06.03 14:40:33.
