data_PCOD9449720
_publ_section_title
;
Structure prediction by ZEFSAII (Michael W. Deem and Ramdas Pophale) SiO2 
 PCOD9449720
Probable space group: P M M N
;
_chemical_formula_sum "Si O2"
_cell_formula_units_Z 40
_cell_length_a 8.905936
_cell_length_b 9.302694
_cell_length_c 26.747082
_cell_angle_alpha 90.000000
_cell_angle_beta 90.000000
_cell_angle_gamma 90.000000
_cell_volume 2215.974276
_symmetry_space_group_name_H-M "P M M N"
_symmetry_group_IT_number 59
_space_group.IT_coordinate_system_code '2'
_symmetry_cell_setting 'orthorhombic'
loop_
_space_group_symop_operation_xyz
x,y,z
1/2-x,1/2-y,z
1/2+x,-y,-z
-x,1/2+y,-z
-x,-y,-z
1/2+x,1/2+y,-z
1/2-x,y,z
x,1/2-y,z
loop_
_atom_site_type_symbol
_atom_site_label
_atom_site_fract_x
_atom_site_fract_y
_atom_site_fract_z
Si Si1 0.928270 0.079436 0.140492
Si Si2 0.923347 0.575202 0.755956
Si Si3 0.931428 0.082925 0.546853
Si Si4 0.566929 0.916094 0.646109
Si Si5 0.570267 0.081719 0.952877
O O1 0.750000 0.062540 0.135619
O O2 0.963235 0.250000 0.134972
O O3 0.981911 0.033658 0.195732
O O4 0.010832 0.991070 0.097646
O O5 0.750000 0.529308 0.762450
O O6 0.922897 0.750000 0.753842
O O7 0.980254 0.529764 0.701111
O O8 0.750000 0.073198 0.544556
O O9 0.973541 0.250000 0.545402
O O10 0.980056 0.010374 0.599034
O O11 0.000000 0.000000 0.500000
O O12 0.750000 0.915778 0.647631
O O13 0.519610 0.750000 0.639326
O O14 0.750000 0.070520 0.955093
O O15 0.529349 0.250000 0.954360
O O16 0.500000 0.000000 0.000000
#
# Coordination Sequence:
#
# PCOD9449720 Si02
#       5
#     8   8   8   8   8
#     4  10  20  34  54  81 111 142 175 210 251 301
#     4   8  14  27  49  74  99 132 173 212 251 297
#     4  10  20  33  50  73 100 132 170 211 258 310
#     4   8  14  27  48  71  96 130 171 212 253 299
#     4  11  24  40  58  81 107 137 175 216 259 307
#
# _framework density 18.050751000000002
#
# number of rings (size 3 to 8) (size 9 to 14) (size 15 to 20)
#    0.000    2.600    0.000    3.600    0.000    6.400 
#    0.000    2.000    0.000    7.200    0.000    0.000 
#    0.000    0.000    0.000    0.000    0.000    0.000 
#
# Total GULP energy -223118.920522 kJ/mol
# GULP energy per Si atom -5577.973013 kJ/mol
# Density = 1.800967 g / cm^3
# Si number density = 18.050751 Si / 1000 Ang^3
#
#
#
# Elastic Constant Matrix: (Units=GPa)
#
#
# Indices 1 2 3 4 5 6 
#
# 1 31.0600 44.6351 46.7438 0.0000 0.0000 0.0000
# 2 44.6351 104.3171 95.3928 0.0000 0.0000 0.0000
# 3 46.7438 95.3928 200.6864 0.0000 0.0000 0.0000
# 4 0.0000 0.0000 0.0000 31.7279 0.0000 0.0000
# 5 0.0000 0.0000 0.0000 0.0000 33.5191 0.0000
# 6 0.0000 0.0000 0.0000 0.0000 0.0000 20.5173
#
#
#
# Elastic Compliance Matrix: (Units=1/GPa)
#
#
# Indices 1 2 3 4 5 6 
#
# 1 0.085823 -0.032622 -0.004484 0.000000 0.000000 0.000000
# 2 -0.032622 0.029356 -0.006356 0.000000 0.000000 0.000000
# 3 -0.004484 -0.006356 0.009048 0.000000 0.000000 0.000000
# 4 0.000000 0.000000 0.000000 0.031518 0.000000 0.000000
# 5 0.000000 0.000000 0.000000 0.000000 0.029834 0.000000
# 6 0.000000 0.000000 0.000000 0.000000 0.000000 0.048739
#
#
# Mechanical properties :
#
#
# Convention : Reuss Voigt Hill
#
# Bulk Modulus (GPa) = 26.80583 78.84521 52.82552
# Shear Modulus (GPa) = 14.98456 27.10565 21.04511
#
# Velocity S-wave (km/s) = 2.88433 3.87930 3.41821
# Velocity P-wave (km/s) = 5.09657 7.98998 6.70130
#
# Compressibility (1/GPa) = 0.03730531
#
# Stress axis : x y z
#
# Youngs Moduli (GPa) = 11.65187 34.06408 110.51740
#
# Poissons Ratio (x) = 1.11123 0.49552
# Poissons Ratio (y) = 0.38011 0.70243
# Poissons Ratio (z) = 0.05224 0.21650
#
# Static dielectric constant tensor:
#      x y z
#    x 1.610480 0.000000 0.000000 
#    y 0.000000 1.605240 0.000000 
#    z 0.000000 0.000000 1.616730 
# 
# From -- ./inp_files/31133.got.cif
#   From: 2010.05.17/outbox.cif.g08.bks.cpg/sg59_16_cif.got.tgz:31133.got - 2010.06.03 14:40:33.
