data_PCOD9449871
_publ_section_title
;
Structure prediction by ZEFSAII (Michael W. Deem and Ramdas Pophale) SiO2 
 PCOD9449871
Probable space group: P M M N
;
_chemical_formula_sum "Si O2"
_cell_formula_units_Z 56
_cell_length_a 23.628597
_cell_length_b 7.687899
_cell_length_c 14.872855
_cell_angle_alpha 90.000000
_cell_angle_beta 90.000000
_cell_angle_gamma 90.000000
_cell_volume 2701.717577
_symmetry_space_group_name_H-M "P M M N"
_symmetry_group_IT_number 59
_space_group.IT_coordinate_system_code '2'
_symmetry_cell_setting 'orthorhombic'
loop_
_space_group_symop_operation_xyz
x,y,z
1/2-x,1/2-y,z
1/2+x,-y,-z
-x,1/2+y,-z
-x,-y,-z
1/2+x,1/2+y,-z
1/2-x,y,z
x,1/2-y,z
loop_
_atom_site_type_symbol
_atom_site_label
_atom_site_fract_x
_atom_site_fract_y
_atom_site_fract_z
Si Si1 0.313218 0.039815 0.574176
Si Si2 0.144965 0.956731 0.374737
Si Si3 0.090159 0.460365 0.710036
Si Si4 0.447443 0.544130 0.899308
Si Si5 0.073609 0.048665 0.099086
Si Si6 0.311990 0.046818 0.185487
Si Si7 0.517803 0.041024 0.601850
O O1 0.250000 0.978285 0.594292
O O2 0.313483 0.250000 0.577473
O O3 0.359218 0.977558 0.646248
O O4 0.329976 0.989771 0.473100
O O5 0.144299 0.750000 0.359576
O O6 0.080345 0.024722 0.375655
O O7 0.179369 0.036779 0.292701
O O8 0.090011 0.250000 0.706878
O O9 0.091383 0.514298 0.813286
O O10 0.031231 0.524532 0.667188
O O11 0.452693 0.750000 0.916860
O O12 0.511195 0.474164 0.878323
O O13 0.424755 0.461225 0.990899
O O14 0.072117 0.250000 0.128799
O O15 0.130540 0.970002 0.141801
O O16 0.250000 0.971430 0.162467
O O17 0.310477 0.250000 0.158635
O O18 0.519855 0.250000 0.609449
O O19 0.500000 0.000000 0.500000
#
# Coordination Sequence:
#
# PCOD9449871 Si02
#       7
#     8   8   8   8   8   8   8
#     4  10  21  37  55  73  99 142 190 225 256 306
#     4  11  22  34  52  80 111 142 177 220 273 323
#     4  10  20  35  54  77 106 139 176 220 264 309
#     4  10  20  34  57  85 108 135 171 215 272 328
#     4   9  19  37  58  81 108 137 172 218 266 316
#     4  10  21  37  57  80 107 144 186 221 260 318
#     4  10  20  33  51  77 106 139 177 218 267 315
#
# _framework density 20.727553
#
# number of rings (size 3 to 8) (size 9 to 14) (size 15 to 20)
#    0.000    2.000    1.429    2.143    0.000    5.143 
#    0.000    0.714    0.000    4.286    0.000    0.000 
#    0.000    0.000    0.000    0.000    0.000    0.000 
#
# Total GULP energy -312755.526876 kJ/mol
# GULP energy per Si atom -5584.920123 kJ/mol
# Density = 2.068038 g / cm^3
# Si number density = 20.727553 Si / 1000 Ang^3
#
#
#
# Elastic Constant Matrix: (Units=GPa)
#
#
# Indices 1 2 3 4 5 6 
#
# 1 127.8824 5.7037 48.1005 0.0000 0.0000 0.0000
# 2 5.7037 40.4346 -12.1213 0.0000 0.0000 0.0000
# 3 48.1005 -12.1213 97.4069 0.0000 0.0000 0.0000
# 4 0.0000 0.0000 0.0000 20.3495 0.0000 0.0000
# 5 0.0000 0.0000 0.0000 0.0000 17.3843 0.0000
# 6 0.0000 0.0000 0.0000 0.0000 0.0000 9.1262
#
#
#
# Elastic Compliance Matrix: (Units=1/GPa)
#
#
# Indices 1 2 3 4 5 6 
#
# 1 0.009938 -0.002984 -0.005279 0.000000 0.000000 0.000000
# 2 -0.002984 0.026586 0.004782 0.000000 0.000000 0.000000
# 3 -0.005279 0.004782 0.013468 0.000000 0.000000 0.000000
# 4 0.000000 0.000000 0.000000 0.049141 0.000000 0.000000
# 5 0.000000 0.000000 0.000000 0.000000 0.057523 0.000000
# 6 0.000000 0.000000 0.000000 0.000000 0.000000 0.109575
#
#
# Mechanical properties :
#
#
# Convention : Reuss Voigt Hill
#
# Bulk Modulus (GPa) = 23.23984 38.78774 31.01379
# Shear Modulus (GPa) = 17.38901 24.30806 20.84854
#
# Velocity S-wave (km/s) = 2.89957 3.42825 3.17493
# Velocity P-wave (km/s) = 4.73777 5.86722 5.33248
#
# Compressibility (1/GPa) = 0.04302956
#
# Stress axis : x y z
#
# Youngs Moduli (GPa) = 100.61966 37.61401 74.24920
#
# Poissons Ratio (x) = 0.11226 0.39197
# Poissons Ratio (y) = 0.30029 -0.35507
# Poissons Ratio (z) = 0.53118 -0.17987
#
# Static dielectric constant tensor:
#      x y z
#    x 1.787920 0.000000 0.000000 
#    y 0.000000 1.780520 0.000000 
#    z 0.000000 0.000000 1.701180 
# 
# From -- ./inp_files/24197.got.cif
#   From: 2010.05.17/outbox.cif.g08.bks.cpg/sg59_13_cif.got.tgz:24197.got - 2010.06.03 14:40:33.
