data_PCOD9449731
_publ_section_title
;
Structure prediction by ZEFSAII (Michael W. Deem and Ramdas Pophale) SiO2 
 PCOD9449731
Probable space group: P M M N
;
_chemical_formula_sum "Si O2"
_cell_formula_units_Z 48
_cell_length_a 14.330469
_cell_length_b 7.627217
_cell_length_c 21.426824
_cell_angle_alpha 90.000000
_cell_angle_beta 90.000000
_cell_angle_gamma 90.000000
_cell_volume 2341.986077
_symmetry_space_group_name_H-M "P M M N"
_symmetry_group_IT_number 59
_space_group.IT_coordinate_system_code '2'
_symmetry_cell_setting 'orthorhombic'
loop_
_space_group_symop_operation_xyz
x,y,z
1/2-x,1/2-y,z
1/2+x,-y,-z
-x,1/2+y,-z
-x,-y,-z
1/2+x,1/2+y,-z
1/2-x,y,z
x,1/2-y,z
loop_
_atom_site_type_symbol
_atom_site_label
_atom_site_fract_x
_atom_site_fract_y
_atom_site_fract_z
Si Si1 0.849463 0.962356 0.382914
Si Si2 0.355055 0.956836 0.215799
Si Si3 0.605987 0.540599 0.518117
Si Si4 0.968142 0.458245 0.900506
Si Si5 0.938695 0.956884 0.651615
Si Si6 0.355816 0.037428 0.975273
O O1 0.750000 0.015433 0.353017
O O2 0.852118 0.750000 0.383305
O O3 0.845731 0.024132 0.455209
O O4 0.949268 0.016941 0.354942
O O5 0.250000 0.030815 0.213739
O O6 0.347171 0.750000 0.202056
O O7 0.423509 0.031683 0.162732
O O8 0.398449 0.972046 0.284331
O O9 0.500000 0.500000 0.500000
O O10 0.623063 0.750000 0.520932
O O11 0.612954 0.472028 0.588899
O O12 0.981910 0.250000 0.892009
O O13 0.067690 0.527568 0.925157
O O14 0.895417 0.485180 0.957036
O O15 0.922193 0.750000 0.652090
O O16 0.250000 0.976615 0.965727
O O17 0.355372 0.250000 0.973480
#
# Coordination Sequence:
#
# PCOD9449731 Si02
#       6
#     8   8   8   8   8   8
#     4   9  17  31  52  74  97 129 167 205 248 301
#     4  10  21  36  52  70  96 132 171 207 244 294
#     4   8  15  28  46  68  93 122 157 199 246 292
#     4   9  18  33  52  74 102 135 168 202 240 285
#     4  10  20  33  50  73 102 132 163 206 254 298
#     4   9  17  30  51  79 106 129 158 201 249 292
#
# _framework density 20.495425000000001
#
# number of rings (size 3 to 8) (size 9 to 14) (size 15 to 20)
#    0.000    2.833    0.000    1.000    0.000    3.667 
#    0.000    2.500    0.000    3.000    0.000    0.000 
#    0.000    0.000    0.000    0.000    0.000    0.000 
#
# Total GULP energy -267340.530700 kJ/mol
# GULP energy per Si atom -5569.594390 kJ/mol
# Density = 2.044878 g / cm^3
# Si number density = 20.495425 Si / 1000 Ang^3
#
#
#
# Elastic Constant Matrix: (Units=GPa)
#
#
# Indices 1 2 3 4 5 6 
#
# 1 106.1223 -20.1453 37.7692 0.0000 0.0000 0.0000
# 2 -20.1453 33.5053 -14.5797 0.0000 0.0000 0.0000
# 3 37.7692 -14.5797 118.2994 0.0000 0.0000 0.0000
# 4 0.0000 0.0000 0.0000 11.4056 0.0000 0.0000
# 5 0.0000 0.0000 0.0000 0.0000 14.7629 0.0000
# 6 0.0000 0.0000 0.0000 0.0000 0.0000 6.7521
#
#
#
# Elastic Compliance Matrix: (Units=1/GPa)
#
#
# Indices 1 2 3 4 5 6 
#
# 1 0.011561 0.005648 -0.002995 0.000000 0.000000 0.000000
# 2 0.005648 0.034297 0.002424 0.000000 0.000000 0.000000
# 3 -0.002995 0.002424 0.009708 0.000000 0.000000 0.000000
# 4 0.000000 0.000000 0.000000 0.087676 0.000000 0.000000
# 5 0.000000 0.000000 0.000000 0.000000 0.067737 0.000000
# 6 0.000000 0.000000 0.000000 0.000000 0.000000 0.148102
#
#
# Mechanical properties :
#
#
# Convention : Reuss Voigt Hill
#
# Bulk Modulus (GPa) = 15.21633 29.33505 22.27569
# Shear Modulus (GPa) = 13.48312 23.57633 18.52973
#
# Velocity S-wave (km/s) = 2.56766 3.39532 3.01007
# Velocity P-wave (km/s) = 4.02876 5.45114 4.79301
#
# Compressibility (1/GPa) = 0.06571887
#
# Stress axis : x y z
#
# Youngs Moduli (GPa) = 86.49628 29.15749 103.00738
#
# Poissons Ratio (x) = -0.16468 0.30851
# Poissons Ratio (y) = -0.48853 -0.24965
# Poissons Ratio (z) = 0.25906 -0.07067
#
# Static dielectric constant tensor:
#      x y z
#    x 1.764120 0.000000 0.000000 
#    y 0.000000 1.752870 0.000000 
#    z 0.000000 0.000000 1.723320 
# 
# From -- ./inp_files/25478.got.cif
#   From: 2010.05.17/outbox.cif.g08.bks.cpg/sg59_13_cif.got.tgz:25478.got - 2010.06.03 14:40:33.
