data_PCOD9449397
_publ_section_title
;
Structure prediction by ZEFSAII (Michael W. Deem and Ramdas Pophale) SiO2 
 PCOD9449397
Probable space group: P M M N
;
_chemical_formula_sum "Si O2"
_cell_formula_units_Z 64
_cell_length_a 24.311481
_cell_length_b 9.465726
_cell_length_c 16.621999
_cell_angle_alpha 90.000000
_cell_angle_beta 90.000000
_cell_angle_gamma 90.000000
_cell_volume 3825.151113
_symmetry_space_group_name_H-M "P M M N"
_symmetry_group_IT_number 59
_space_group.IT_coordinate_system_code '2'
_symmetry_cell_setting 'orthorhombic'
loop_
_space_group_symop_operation_xyz
x,y,z
1/2-x,1/2-y,z
1/2+x,-y,-z
-x,1/2+y,-z
-x,-y,-z
1/2+x,1/2+y,-z
1/2-x,y,z
x,1/2-y,z
loop_
_atom_site_type_symbol
_atom_site_label
_atom_site_fract_x
_atom_site_fract_y
_atom_site_fract_z
Si Si1 0.906268 0.582944 0.964446
Si Si2 0.185979 0.581876 0.766481
Si Si3 0.416394 0.918435 0.874692
Si Si4 0.816736 0.911820 0.393729
Si Si5 0.972484 0.583568 0.799079
Si Si6 0.315223 0.581014 0.447007
Si Si7 0.380132 0.917788 0.286343
Si Si8 0.314856 0.915979 0.122293
O O1 0.901842 0.750000 0.977659
O O2 0.945824 0.559747 0.887598
O O3 0.848544 0.513650 0.938196
O O4 0.926003 0.504451 0.044169
O O5 0.250000 0.549928 0.785627
O O6 0.182703 0.750000 0.749309
O O7 0.143622 0.551793 0.838099
O O8 0.168924 0.495076 0.687475
O O9 0.420748 0.750000 0.890955
O O10 0.463585 0.953162 0.809532
O O11 0.750000 0.909402 0.395070
O O12 0.836142 0.750000 0.393523
O O13 0.833062 0.996462 0.473750
O O14 0.967578 0.750000 0.781338
O O15 0.936193 0.497119 0.736108
O O16 0.250000 0.554376 0.432330
O O17 0.320700 0.750000 0.459844
O O18 0.350744 0.540228 0.369159
O O19 0.390098 0.750000 0.289472
O O20 0.338450 0.942984 0.211763
O O21 0.250000 0.940150 0.119680
O O22 0.325317 0.750000 0.103925
#
# Coordination Sequence:
#
# PCOD9449397 Si02
#       8
#     8   8   8   8   8   8   8   8
#     4  10  20  32  47  69  95 123 157 198 241 280
#     4   9  18  33  52  72  93 118 150 190 236 282
#     4  10  20  34  52  71  91 120 159 198 236 284
#     4   9  17  29  46  70  99 127 153 184 227 278
#     4   9  19  34  49  67  94 126 158 195 239 281
#     4   9  16  27  46  72 100 128 158 191 227 271
#     4   9  17  29  47  71  96 124 160 198 231 268
#     4   9  17  30  47  66  93 129 162 191 229 278
#
# _framework density 16.731365
#
# number of rings (size 3 to 8) (size 9 to 14) (size 15 to 20)
#    0.000    2.750    0.000    1.500    0.000    5.750 
#    0.000    1.250    0.000    3.000    0.000    0.000 
#    0.000    0.000    0.000    0.000    0.000    0.000 
#
# Total GULP energy -356734.297246 kJ/mol
# GULP energy per Si atom -5573.973394 kJ/mol
# Density = 1.669328 g / cm^3
# Si number density = 16.731365 Si / 1000 Ang^3
#
#
#
# Elastic Constant Matrix: (Units=GPa)
#
#
# Indices 1 2 3 4 5 6 
#
# 1 56.9831 20.5568 3.1971 0.0000 0.0000 0.0000
# 2 20.5568 32.8686 23.0728 0.0000 0.0000 0.0000
# 3 3.1971 23.0728 33.2544 0.0000 0.0000 0.0000
# 4 0.0000 0.0000 0.0000 21.9234 0.0000 0.0000
# 5 0.0000 0.0000 0.0000 0.0000 14.4437 0.0000
# 6 0.0000 0.0000 0.0000 0.0000 0.0000 20.3467
#
#
#
# Elastic Compliance Matrix: (Units=1/GPa)
#
#
# Indices 1 2 3 4 5 6 
#
# 1 0.027226 -0.029614 0.017929 0.000000 0.000000 0.000000
# 2 -0.029614 0.091522 -0.060653 0.000000 0.000000 0.000000
# 3 0.017929 -0.060653 0.070430 0.000000 0.000000 0.000000
# 4 0.000000 0.000000 0.000000 0.045613 0.000000 0.000000
# 5 0.000000 0.000000 0.000000 0.000000 0.069234 0.000000
# 6 0.000000 0.000000 0.000000 0.000000 0.000000 0.049148
#
#
# Mechanical properties :
#
#
# Convention : Reuss Voigt Hill
#
# Bulk Modulus (GPa) = 22.47034 24.08438 23.27736
# Shear Modulus (GPa) = 9.75259 16.42807 13.09033
#
# Velocity S-wave (km/s) = 2.41694 3.13688 2.80014
# Velocity P-wave (km/s) = 4.60956 5.24843 4.93933
#
# Compressibility (1/GPa) = 0.04450311
#
# Stress axis : x y z
#
# Youngs Moduli (GPa) = 36.72904 10.92633 14.19844
#
# Poissons Ratio (x) = 0.32357 -0.25457
# Poissons Ratio (y) = 1.08769 0.86118
# Poissons Ratio (z) = -0.65853 0.66272
#
# Static dielectric constant tensor:
#      x y z
#    x 1.561840 0.000000 0.000000 
#    y 0.000000 1.558830 0.000000 
#    z 0.000000 0.000000 1.545900 
# 
# From -- ./inp_files/28477.got.cif
#   From: 2010.05.17/outbox.cif.g08.bks.cpg/sg59_15_cif.got.tgz:28477.got - 2010.06.03 14:40:33.
