data_PCOD9449307
_publ_section_title
;
Structure prediction by ZEFSAII (Michael W. Deem and Ramdas Pophale) SiO2 
 PCOD9449307
Probable space group: P M M N
;
_chemical_formula_sum "Si O2"
_cell_formula_units_Z 56
_cell_length_a 9.430060
_cell_length_b 15.033169
_cell_length_c 19.021654
_cell_angle_alpha 90.000000
_cell_angle_beta 90.000000
_cell_angle_gamma 90.000000
_cell_volume 2696.579778
_symmetry_space_group_name_H-M "P M M N"
_symmetry_group_IT_number 59
_space_group.IT_coordinate_system_code '2'
_symmetry_cell_setting 'orthorhombic'
loop_
_space_group_symop_operation_xyz
x,y,z
1/2-x,1/2-y,z
1/2+x,-y,-z
-x,1/2+y,-z
-x,-y,-z
1/2+x,1/2+y,-z
1/2-x,y,z
x,1/2-y,z
loop_
_atom_site_type_symbol
_atom_site_label
_atom_site_fract_x
_atom_site_fract_y
_atom_site_fract_z
Si Si1 0.579461 0.094537 0.510326
Si Si2 0.911565 0.897094 0.354851
Si Si3 0.908220 0.388673 0.356147
Si Si4 0.092976 0.355518 0.220986
Si Si5 0.412477 0.857128 0.216306
Si Si6 0.077225 0.853589 0.063726
Si Si7 0.413991 0.640808 0.911175
O O1 0.750000 0.083501 0.519543
O O2 0.507163 0.135205 0.579551
O O3 0.558071 0.142592 0.435316
O O4 0.500000 0.000000 0.500000
O O5 0.750000 0.863440 0.358204
O O6 0.986807 0.878117 0.281118
O O7 0.904263 0.004202 0.360020
O O8 0.750000 0.357545 0.337012
O O9 0.016622 0.366009 0.295335
O O10 0.250000 0.394515 0.222657
O O11 0.103909 0.250000 0.209102
O O12 0.003268 0.390533 0.155340
O O13 0.250000 0.886971 0.229480
O O14 0.406848 0.750000 0.210208
O O15 0.463496 0.891624 0.139787
O O16 0.250000 0.854369 0.062939
O O17 0.032388 0.750000 0.063626
O O18 0.031745 0.890270 0.987838
O O19 0.250000 0.614887 0.902765
O O20 0.415627 0.750000 0.912611
#
# Coordination Sequence:
#
# PCOD9449307 Si02
#       7
#     8   8   8   8   8   8   8
#     4   9  17  31  51  73  94 119 156 198 236 277
#     4  10  20  33  50  73  98 124 158 197 236 280
#     4   9  19  34  51  70  91 120 158 194 229 276
#     4  10  20  31  45  70 100 124 150 190 238 282
#     4   9  17  30  49  73 100 128 159 195 235 281
#     4   7  11  22  42  67  91 118 156 195 227 268
#     4   8  13  24  44  66  89 121 157 190 227 273
#
# _framework density 20.767047000000002
#
# number of rings (size 3 to 8) (size 9 to 14) (size 15 to 20)
#    0.000    3.143    0.000    3.857    0.000    4.571 
#    0.000    1.429    0.000    4.286    0.000    0.000 
#    0.000    0.000    0.000    0.000    0.000    0.000 
#
# Total GULP energy -312049.394166 kJ/mol
# GULP energy per Si atom -5572.310610 kJ/mol
# Density = 2.071978 g / cm^3
# Si number density = 20.767047 Si / 1000 Ang^3
#
#
#
# Elastic Constant Matrix: (Units=GPa)
#
#
# Indices 1 2 3 4 5 6 
#
# 1 133.0415 5.8038 125.7613 0.0000 0.0000 0.0000
# 2 5.8038 43.5119 -1.2326 0.0000 0.0000 0.0000
# 3 125.7613 -1.2326 221.7526 0.0000 0.0000 0.0000
# 4 0.0000 0.0000 0.0000 20.8854 0.0000 0.0000
# 5 0.0000 0.0000 0.0000 0.0000 15.9775 0.0000
# 6 0.0000 0.0000 0.0000 0.0000 0.0000 11.7614
#
#
#
# Elastic Compliance Matrix: (Units=1/GPa)
#
#
# Indices 1 2 3 4 5 6 
#
# 1 0.016462 -0.002461 -0.009349 0.000000 0.000000 0.000000
# 2 -0.002461 0.023354 0.001525 0.000000 0.000000 0.000000
# 3 -0.009349 0.001525 0.009820 0.000000 0.000000 0.000000
# 4 0.000000 0.000000 0.000000 0.047880 0.000000 0.000000
# 5 0.000000 0.000000 0.000000 0.000000 0.062588 0.000000
# 6 0.000000 0.000000 0.000000 0.000000 0.000000 0.085024
#
#
# Mechanical properties :
#
#
# Convention : Reuss Voigt Hill
#
# Bulk Modulus (GPa) = 34.40446 73.21899 53.81173
# Shear Modulus (GPa) = 18.15633 27.58976 22.87304
#
# Velocity S-wave (km/s) = 2.96004 3.64886 3.32235
# Velocity P-wave (km/s) = 5.31839 7.28602 6.37853
#
# Compressibility (1/GPa) = 0.02906600
#
# Stress axis : x y z
#
# Youngs Moduli (GPa) = 60.74719 42.81996 101.82955
#
# Poissons Ratio (x) = 0.10536 0.95205
# Poissons Ratio (y) = 0.14947 -0.15532
# Poissons Ratio (z) = 0.56796 -0.06531
#
# Static dielectric constant tensor:
#      x y z
#    x 1.721590 0.000000 0.000000 
#    y 0.000000 1.810220 0.000000 
#    z 0.000000 0.000000 1.781340 
# 
# From -- ./inp_files/26084.got.cif
#   From: 2010.05.17/outbox.cif.g08.bks.cpg/sg59_14_cif.got.tgz:26084.got - 2010.06.03 14:40:33.
