data_PCOD9449904
_publ_section_title
;
Structure prediction by ZEFSAII (Michael W. Deem and Ramdas Pophale) SiO2 
 PCOD9449904
Probable space group: P M M N
;
_chemical_formula_sum "Si O2"
_cell_formula_units_Z 56
_cell_length_a 23.506785
_cell_length_b 8.888392
_cell_length_c 15.782742
_cell_angle_alpha 90.000000
_cell_angle_beta 90.000000
_cell_angle_gamma 90.000000
_cell_volume 3297.606968
_symmetry_space_group_name_H-M "P M M N"
_symmetry_group_IT_number 59
_space_group.IT_coordinate_system_code '2'
_symmetry_cell_setting 'orthorhombic'
loop_
_space_group_symop_operation_xyz
x,y,z
1/2-x,1/2-y,z
1/2+x,-y,-z
-x,1/2+y,-z
-x,-y,-z
1/2+x,1/2+y,-z
1/2-x,y,z
x,1/2-y,z
loop_
_atom_site_type_symbol
_atom_site_label
_atom_site_fract_x
_atom_site_fract_y
_atom_site_fract_z
Si Si1 0.180945 0.076520 0.003860
Si Si2 0.815537 0.566601 0.183459
Si Si3 0.368111 0.428863 0.345121
Si Si4 0.683775 0.071542 0.490792
Si Si5 0.608615 0.930641 0.343018
Si Si6 0.682188 0.428015 0.820844
Si Si7 0.004211 0.429459 0.406308
O O1 0.250000 0.077713 0.001444
O O2 0.162441 0.250000 0.014183
O O3 0.164047 0.981398 0.085500
O O4 0.164381 0.019314 0.910412
O O5 0.750000 0.517507 0.197796
O O6 0.814371 0.750000 0.181617
O O7 0.856784 0.521246 0.259299
O O8 0.359114 0.250000 0.352335
O O9 0.330705 0.513378 0.415564
O O10 0.350585 0.485167 0.252701
O O11 0.433895 0.460929 0.367258
O O12 0.750000 0.043900 0.471591
O O13 0.672975 0.250000 0.485582
O O14 0.644221 0.985419 0.424334
O O15 0.604679 0.750000 0.344160
O O16 0.546420 0.001586 0.350827
O O17 0.750000 0.459613 0.812643
O O18 0.674117 0.250000 0.811542
O O19 0.997358 0.250000 0.413067
O O20 0.000000 0.500000 0.500000
#
# Coordination Sequence:
#
# PCOD9449904 Si02
#       7
#     8   8   8   8   8   8   8
#     4   8  14  28  51  76 104 139 175 210 250 304
#     4   8  15  29  51  80 110 139 174 214 256 307
#     4  11  23  37  55  76  99 135 180 221 262 313
#     4  11  23  36  51  75 108 141 171 212 265 314
#     4  11  21  34  55  80 106 140 178 218 262 314
#     4  10  20  33  51  79 112 140 167 208 265 320
#     4  11  23  39  57  76 100 135 181 227 268 311
#
# _framework density 16.982009999999999
#
# number of rings (size 3 to 8) (size 9 to 14) (size 15 to 20)
#    0.000    2.000    1.429    3.857    0.000    6.000 
#    0.000    1.429    0.000    4.286    0.000    0.000 
#    0.000    0.000    0.000    0.000    0.000    0.000 
#
# Total GULP energy -312557.364985 kJ/mol
# GULP energy per Si atom -5581.381518 kJ/mol
# Density = 1.694336 g / cm^3
# Si number density = 16.982010 Si / 1000 Ang^3
#
#
#
# Elastic Constant Matrix: (Units=GPa)
#
#
# Indices 1 2 3 4 5 6 
#
# 1 51.2915 33.3609 16.2057 0.0000 0.0000 0.0000
# 2 33.3609 42.7293 16.1583 0.0000 0.0000 0.0000
# 3 16.2057 16.1583 89.4321 0.0000 0.0000 0.0000
# 4 0.0000 0.0000 0.0000 14.6459 0.0000 0.0000
# 5 0.0000 0.0000 0.0000 0.0000 5.9100 0.0000
# 6 0.0000 0.0000 0.0000 0.0000 0.0000 24.3858
#
#
#
# Elastic Compliance Matrix: (Units=1/GPa)
#
#
# Indices 1 2 3 4 5 6 
#
# 1 0.039856 -0.030468 -0.001717 0.000000 0.000000 0.000000
# 2 -0.030468 0.048411 -0.003226 0.000000 0.000000 0.000000
# 3 -0.001717 -0.003226 0.012076 0.000000 0.000000 0.000000
# 4 0.000000 0.000000 0.000000 0.068278 0.000000 0.000000
# 5 0.000000 0.000000 0.000000 0.000000 0.169206 0.000000
# 6 0.000000 0.000000 0.000000 0.000000 0.000000 0.041007
#
#
# Mechanical properties :
#
#
# Convention : Reuss Voigt Hill
#
# Bulk Modulus (GPa) = 33.87497 34.98919 34.43208
# Shear Modulus (GPa) = 10.88146 16.83688 13.85917
#
# Velocity S-wave (km/s) = 2.53408 3.15215 2.85986
# Velocity P-wave (km/s) = 5.34349 5.82207 5.58791
#
# Compressibility (1/GPa) = 0.02952032
#
# Stress axis : x y z
#
# Youngs Moduli (GPa) = 25.09021 20.65642 82.81125
#
# Poissons Ratio (x) = 0.62937 0.14221
# Poissons Ratio (y) = 0.76446 0.26712
# Poissons Ratio (z) = 0.04309 0.06663
#
# Static dielectric constant tensor:
#      x y z
#    x 1.556800 0.000000 0.000000 
#    y 0.000000 1.567350 0.000000 
#    z 0.000000 0.000000 1.569750 
# 
# From -- ./inp_files/24234.got.cif
#   From: 2010.05.17/outbox.cif.g08.bks.cpg/sg59_13_cif.got.tgz:24234.got - 2010.06.03 14:40:33.
