data_PCOD9449788
_publ_section_title
;
Structure prediction by ZEFSAII (Michael W. Deem and Ramdas Pophale) SiO2 
 PCOD9449788
Probable space group: P M M N
;
_chemical_formula_sum "Si O2"
_cell_formula_units_Z 64
_cell_length_a 10.445110
_cell_length_b 28.668868
_cell_length_c 12.120141
_cell_angle_alpha 90.000000
_cell_angle_beta 90.000000
_cell_angle_gamma 90.000000
_cell_volume 3629.369918
_symmetry_space_group_name_H-M "P M M N"
_symmetry_group_IT_number 59
_space_group.IT_coordinate_system_code '2'
_symmetry_cell_setting 'orthorhombic'
loop_
_space_group_symop_operation_xyz
x,y,z
1/2-x,1/2-y,z
1/2+x,-y,-z
-x,1/2+y,-z
-x,-y,-z
1/2+x,1/2+y,-z
1/2-x,y,z
x,1/2-y,z
loop_
_atom_site_type_symbol
_atom_site_label
_atom_site_fract_x
_atom_site_fract_y
_atom_site_fract_z
Si Si1 0.094251 0.196802 0.882668
Si Si2 0.095234 0.197372 0.297057
Si Si3 0.113010 0.547383 0.548812
Si Si4 0.896048 0.615955 0.275723
Si Si5 0.475627 0.520943 0.308098
Si Si6 0.598101 0.527051 0.918294
Si Si7 0.605741 0.878736 0.537737
Si Si8 0.594906 0.635971 0.907261
O O1 0.250000 0.199296 0.883441
O O2 0.047643 0.250000 0.877961
O O3 0.057798 0.162937 0.782553
O O4 0.054662 0.168694 0.991567
O O5 0.250000 0.200543 0.285729
O O6 0.045468 0.250000 0.288490
O O7 0.070806 0.171075 0.411353
O O8 0.049479 0.161804 0.203077
O O9 0.250000 0.570590 0.563572
O O10 0.104079 0.529529 0.421579
O O11 0.096089 0.505730 0.636372
O O12 0.995287 0.581894 0.569288
O O13 0.750000 0.606657 0.236547
O O14 0.892441 0.623309 0.406409
O O15 0.981874 0.570532 0.258325
O O16 0.416834 0.491892 0.207516
O O17 0.750000 0.522597 0.949430
O O18 0.560617 0.581857 0.918999
O O19 0.500000 0.500000 0.000000
O O20 0.750000 0.890911 0.576878
O O21 0.750000 0.636187 0.905041
#
# Coordination Sequence:
#
# PCOD9449788 Si02
#       8
#     8   8   8   8   8   8   8   8
#     4   9  16  26  42  64  91 123 158 197 244 298
#     4   9  16  27  46  71  98 129 165 206 253 304
#     4  10  20  33  53  77 102 138 178 214 253 304
#     4   9  17  29  45  67  98 132 162 200 250 297
#     4  10  20  33  51  74 103 134 174 215 253 298
#     4  11  23  37  54  76 106 141 173 209 255 306
#     4   9  18  31  47  71 103 134 165 205 253 302
#     4   9  17  29  45  67  96 127 159 200 250 299
#
# _framework density 17.633914999999998
#
# number of rings (size 3 to 8) (size 9 to 14) (size 15 to 20)
#    0.000    2.500    0.000    2.625    0.000    8.500 
#    0.000    2.500    0.000    0.375    0.000    0.000 
#    0.000   21.000    0.000    0.000    0.000    0.000 
#
# Total GULP energy -356423.683039 kJ/mol
# GULP energy per Si atom -5569.120047 kJ/mol
# Density = 1.759378 g / cm^3
# Si number density = 17.633915 Si / 1000 Ang^3
#
#
#
# Elastic Constant Matrix: (Units=GPa)
#
#
# Indices 1 2 3 4 5 6 
#
# 1 54.5020 31.2824 19.9547 0.0000 0.0000 0.0000
# 2 31.2824 149.3966 40.0181 0.0000 0.0000 0.0000
# 3 19.9547 40.0181 34.6562 0.0000 0.0000 0.0000
# 4 0.0000 0.0000 0.0000 19.0482 0.0000 0.0000
# 5 0.0000 0.0000 0.0000 0.0000 3.9105 0.0000
# 6 0.0000 0.0000 0.0000 0.0000 0.0000 16.7538
#
#
#
# Elastic Compliance Matrix: (Units=1/GPa)
#
#
# Indices 1 2 3 4 5 6 
#
# 1 0.023610 -0.001885 -0.011417 0.000000 0.000000 0.000000
# 2 -0.001885 0.009842 -0.010279 0.000000 0.000000 0.000000
# 3 -0.011417 -0.010279 0.047298 0.000000 0.000000 0.000000
# 4 0.000000 0.000000 0.000000 0.052498 0.000000 0.000000
# 5 0.000000 0.000000 0.000000 0.000000 0.255722 0.000000
# 6 0.000000 0.000000 0.000000 0.000000 0.000000 0.059688
#
#
# Mechanical properties :
#
#
# Convention : Reuss Voigt Hill
#
# Bulk Modulus (GPa) = 29.77367 46.78503 38.27935
# Shear Modulus (GPa) = 9.86159 17.76247 13.81203
#
# Velocity S-wave (km/s) = 2.36739 3.17723 2.80172
# Velocity P-wave (km/s) = 4.93900 6.32839 5.67637
#
# Compressibility (1/GPa) = 0.03358672
#
# Stress axis : x y z
#
# Youngs Moduli (GPa) = 42.35418 101.60830 21.14256
#
# Poissons Ratio (x) = 0.19158 0.24139
# Poissons Ratio (y) = 0.07986 0.21732
# Poissons Ratio (z) = 0.48358 1.04441
#
# Static dielectric constant tensor:
#      x y z
#    x 1.612210 0.000000 0.000000 
#    y 0.000000 1.610580 0.000000 
#    z 0.000000 0.000000 1.631460 
# 
# From -- ./inp_files/16329.got.cif
#   From: 2010.05.17/outbox.cif.g08.bks.cpg/sg59_9_cif.got.tgz:16329.got - 2010.06.03 14:40:33.
