data_PCOD9449362
_publ_section_title
;
Structure prediction by ZEFSAII (Michael W. Deem and Ramdas Pophale) SiO2 
 PCOD9449362
Probable space group: P M M N
;
_chemical_formula_sum "Si O2"
_cell_formula_units_Z 64
_cell_length_a 8.832910
_cell_length_b 29.397967
_cell_length_c 16.002160
_cell_angle_alpha 90.000000
_cell_angle_beta 90.000000
_cell_angle_gamma 90.000000
_cell_volume 4155.274433
_symmetry_space_group_name_H-M "P M M N"
_symmetry_group_IT_number 59
_space_group.IT_coordinate_system_code '2'
_symmetry_cell_setting 'orthorhombic'
loop_
_space_group_symop_operation_xyz
x,y,z
1/2-x,1/2-y,z
1/2+x,-y,-z
-x,1/2+y,-z
-x,-y,-z
1/2+x,1/2+y,-z
1/2-x,y,z
x,1/2-y,z
loop_
_atom_site_type_symbol
_atom_site_label
_atom_site_fract_x
_atom_site_fract_y
_atom_site_fract_z
Si Si1 0.432334 0.800719 0.408310
Si Si2 0.931478 0.949700 0.495755
Si Si3 0.430949 0.553090 0.823670
Si Si4 0.431508 0.895846 0.338680
Si Si5 0.567526 0.698980 0.593064
Si Si6 0.568706 0.949386 0.995676
Si Si7 0.431714 0.054048 0.819023
Si Si8 0.068054 0.395392 0.333418
O O1 0.250000 0.801255 0.415089
O O2 0.478342 0.750000 0.379874
O O3 0.476763 0.843037 0.350708
O O4 0.499858 0.807735 0.500708
O O5 0.750000 0.952000 0.487638
O O6 0.966957 0.922720 0.581249
O O7 0.999380 0.923355 0.416631
O O8 0.000000 0.000000 0.500000
O O9 0.250000 0.554601 0.829513
O O10 0.501306 0.570789 0.910788
O O11 0.474331 0.499601 0.812894
O O12 0.489228 0.581230 0.744934
O O13 0.250000 0.899070 0.342297
O O14 0.489904 0.917550 0.253215
O O15 0.750000 0.697252 0.585936
O O16 0.525016 0.750000 0.621386
O O17 0.521732 0.656986 0.651243
O O18 0.750000 0.951942 0.989403
O O19 0.531295 0.929164 0.086878
O O20 0.500000 0.000000 0.000000
O O21 0.250000 0.056343 0.808836
O O22 0.250000 0.397150 0.321769
#
# Coordination Sequence:
#
# PCOD9449362 Si02
#       8
#     8   8   8   8   8   8   8   8
#     4   9  18  32  48  67  92 121 155 196 240 282
#     4  11  22  34  46  63  92 129 164 196 229 272
#     4  10  20  32  48  70  95 126 159 193 232 278
#     4  11  21  31  47  70  94 125 160 194 234 278
#     4   9  17  31  50  69  89 117 156 200 243 282
#     4   9  17  31  50  70  93 122 155 195 237 277
#     4   9  19  33  48  68  95 126 158 192 231 275
#     4  10  20  32  46  67  93 124 158 193 234 279
#
# _framework density 15.402111
#
# number of rings (size 3 to 8) (size 9 to 14) (size 15 to 20)
#    0.000    2.250    1.250    3.000    0.000    7.000 
#    0.000    0.000    0.000    0.000    0.000    0.875 
#    0.000    1.000    0.000    0.000    0.000    0.000 
#
# Total GULP energy -356816.474850 kJ/mol
# GULP energy per Si atom -5575.257420 kJ/mol
# Density = 1.536706 g / cm^3
# Si number density = 15.402111 Si / 1000 Ang^3
#
#
#
# Elastic Constant Matrix: (Units=GPa)
#
#
# Indices 1 2 3 4 5 6 
#
# 1 34.1281 37.8168 51.2248 0.0000 0.0000 0.0000
# 2 37.8168 115.6919 73.6769 0.0000 0.0000 0.0000
# 3 51.2248 73.6769 144.2083 0.0000 0.0000 0.0000
# 4 0.0000 0.0000 0.0000 6.1645 0.0000 0.0000
# 5 0.0000 0.0000 0.0000 0.0000 27.8807 0.0000
# 6 0.0000 0.0000 0.0000 0.0000 0.0000 17.8051
#
#
#
# Elastic Compliance Matrix: (Units=1/GPa)
#
#
# Indices 1 2 3 4 5 6 
#
# 1 0.070449 -0.010512 -0.019654 0.000000 0.000000 0.000000
# 2 -0.010512 0.014381 -0.003613 0.000000 0.000000 0.000000
# 3 -0.019654 -0.003613 0.015762 0.000000 0.000000 0.000000
# 4 0.000000 0.000000 0.000000 0.162218 0.000000 0.000000
# 5 0.000000 0.000000 0.000000 0.000000 0.035867 0.000000
# 6 0.000000 0.000000 0.000000 0.000000 0.000000 0.056164
#
#
# Mechanical properties :
#
#
# Convention : Reuss Voigt Hill
#
# Bulk Modulus (GPa) = 30.27214 68.82948 49.55081
# Shear Modulus (GPa) = 11.53643 19.12406 15.33024
#
# Velocity S-wave (km/s) = 2.73978 3.52753 3.15831
# Velocity P-wave (km/s) = 5.45030 7.83433 6.74842
#
# Compressibility (1/GPa) = 0.03303368
#
# Stress axis : x y z
#
# Youngs Moduli (GPa) = 14.19466 69.53744 63.44432
#
# Poissons Ratio (x) = 0.73095 1.24693
# Poissons Ratio (y) = 0.14921 0.22924
# Poissons Ratio (z) = 0.27898 0.25126
#
# Static dielectric constant tensor:
#      x y z
#    x 1.516400 0.000000 0.000000 
#    y 0.000000 1.521330 0.000000 
#    z 0.000000 0.000000 1.505180 
# 
# From -- ./inp_files/21923.got.cif
#   From: 2010.05.17/outbox.cif.g08.bks.cpg/sg59_11_cif.got.tgz:21923.got - 2010.06.03 14:40:33.
