data_PCOD9449717
_publ_section_title
;
Structure prediction by ZEFSAII (Michael W. Deem and Ramdas Pophale) SiO2 
 PCOD9449717
Probable space group: P M M N
;
_chemical_formula_sum "Si O2"
_cell_formula_units_Z 40
_cell_length_a 8.333030
_cell_length_b 22.282925
_cell_length_c 11.925211
_cell_angle_alpha 90.000000
_cell_angle_beta 90.000000
_cell_angle_gamma 90.000000
_cell_volume 2214.324248
_symmetry_space_group_name_H-M "P M M N"
_symmetry_group_IT_number 59
_space_group.IT_coordinate_system_code '2'
_symmetry_cell_setting 'orthorhombic'
loop_
_space_group_symop_operation_xyz
x,y,z
1/2-x,1/2-y,z
1/2+x,-y,-z
-x,1/2+y,-z
-x,-y,-z
1/2+x,1/2+y,-z
1/2-x,y,z
x,1/2-y,z
loop_
_atom_site_type_symbol
_atom_site_label
_atom_site_fract_x
_atom_site_fract_y
_atom_site_fract_z
Si Si1 0.940043 0.537912 0.824490
Si Si2 0.939206 0.680697 0.231380
Si Si3 0.944313 0.582471 0.055849
Si Si4 0.440253 0.681858 0.478668
Si Si5 0.940076 0.056064 0.425082
O O1 0.750000 0.543528 0.806340
O O2 0.979256 0.473724 0.879775
O O3 0.023487 0.545123 0.705442
O O4 0.991208 0.582704 0.925088
O O5 0.750000 0.669130 0.254127
O O6 0.957285 0.750000 0.201849
O O7 0.989248 0.639947 0.128052
O O8 0.032121 0.670044 0.346712
O O9 0.750000 0.575356 0.058158
O O10 0.250000 0.684739 0.501325
O O11 0.505299 0.750000 0.502187
O O12 0.506042 0.622270 0.540295
O O13 0.750000 0.058174 0.442646
O O14 0.000000 0.000000 0.500000
#
# Coordination Sequence:
#
# PCOD9449717 Si02
#       5
#     8   8   8   8   8
#     4  10  20  33  50  73 100 130 164 202 245 292
#     4   9  17  30  50  74  97 123 158 200 244 289
#     4   9  18  33  51  71  98 130 162 199 244 293
#     4   9  19  35  52  71  98 132 167 203 246 295
#     4  11  22  35  53  76 102 132 167 209 252 297
#
# _framework density 18.064202000000002
#
# number of rings (size 3 to 8) (size 9 to 14) (size 15 to 20)
#    0.000    2.400    0.000    2.400    0.000    6.400 
#    0.000    1.000    0.000    1.200    0.000    0.000 
#    0.000    0.000    0.000    0.000    0.000    0.000 
#
# Total GULP energy -222882.218618 kJ/mol
# GULP energy per Si atom -5572.055465 kJ/mol
# Density = 1.802309 g / cm^3
# Si number density = 18.064202 Si / 1000 Ang^3
#
#
#
# Elastic Constant Matrix: (Units=GPa)
#
#
# Indices 1 2 3 4 5 6 
#
# 1 9.7168 17.3498 7.0566 0.0000 0.0000 0.0000
# 2 17.3498 80.8391 63.1690 0.0000 0.0000 0.0000
# 3 7.0566 63.1690 104.1418 0.0000 0.0000 0.0000
# 4 0.0000 0.0000 0.0000 34.6625 0.0000 0.0000
# 5 0.0000 0.0000 0.0000 0.0000 25.7451 0.0000
# 6 0.0000 0.0000 0.0000 0.0000 0.0000 19.3771
#
#
#
# Elastic Compliance Matrix: (Units=1/GPa)
#
#
# Indices 1 2 3 4 5 6 
#
# 1 0.191508 -0.058861 0.022726 0.000000 0.000000 0.000000
# 2 -0.058861 0.041608 -0.021249 0.000000 0.000000 0.000000
# 3 0.022726 -0.021249 0.020952 0.000000 0.000000 0.000000
# 4 0.000000 0.000000 0.000000 0.028850 0.000000 0.000000
# 5 0.000000 0.000000 0.000000 0.000000 0.038842 0.000000
# 6 0.000000 0.000000 0.000000 0.000000 0.000000 0.051607
#
#
# Mechanical properties :
#
#
# Convention : Reuss Voigt Hill
#
# Bulk Modulus (GPa) = 7.17875 41.09428 24.13652
# Shear Modulus (GPa) = 9.35336 23.09842 16.22589
#
# Velocity S-wave (km/s) = 2.27796 3.57975 3.00031
# Velocity P-wave (km/s) = 3.30173 6.31542 5.03915
#
# Compressibility (1/GPa) = 0.13930003
#
# Stress axis : x y z
#
# Youngs Moduli (GPa) = 5.22171 24.03402 47.72907
#
# Poissons Ratio (x) = 1.41465 -1.08471
# Poissons Ratio (y) = 0.30735 1.01422
# Poissons Ratio (z) = -0.11867 0.51071
#
# Static dielectric constant tensor:
#      x y z
#    x 1.641670 0.000000 0.000000 
#    y 0.000000 1.648860 0.000000 
#    z 0.000000 0.000000 1.598180 
# 
# From -- ./inp_files/14056.got.cif
#   From: 2010.05.17/outbox.cif.g08.bks.cpg/sg59_8_cif.got.tgz:14056.got - 2010.06.03 14:40:33.
