data_PCOD9449657
_publ_section_title
;
Structure prediction by ZEFSAII (Michael W. Deem and Ramdas Pophale) SiO2 
 PCOD9449657
Probable space group: P M M N
;
_chemical_formula_sum "Si O2"
_cell_formula_units_Z 48
_cell_length_a 13.791358
_cell_length_b 9.204923
_cell_length_c 19.145651
_cell_angle_alpha 90.000000
_cell_angle_beta 90.000000
_cell_angle_gamma 90.000000
_cell_volume 2430.509540
_symmetry_space_group_name_H-M "P M M N"
_symmetry_group_IT_number 59
_space_group.IT_coordinate_system_code '2'
_symmetry_cell_setting 'orthorhombic'
loop_
_space_group_symop_operation_xyz
x,y,z
1/2-x,1/2-y,z
1/2+x,-y,-z
-x,1/2+y,-z
-x,-y,-z
1/2+x,1/2+y,-z
1/2-x,y,z
x,1/2-y,z
loop_
_atom_site_type_symbol
_atom_site_label
_atom_site_fract_x
_atom_site_fract_y
_atom_site_fract_z
Si Si1 0.051383 0.574759 0.756253
Si Si2 0.140720 0.073585 0.315290
Si Si3 0.562246 0.576771 0.101745
Si Si4 0.131587 0.417233 0.470327
Si Si5 0.133484 0.583564 0.608213
Si Si6 0.858230 0.423335 0.966016
O O1 0.061607 0.750000 0.763389
O O2 0.088368 0.496207 0.825009
O O3 0.102495 0.527782 0.684147
O O4 0.938487 0.537548 0.742329
O O5 0.250000 0.022173 0.301626
O O6 0.143825 0.250000 0.319540
O O7 0.107000 0.025487 0.392841
O O8 0.574325 0.750000 0.103873
O O9 0.448772 0.543071 0.084327
O O10 0.621958 0.508527 0.037796
O O11 0.250000 0.418612 0.470223
O O12 0.101546 0.250000 0.476661
O O13 0.099090 0.503159 0.538605
O O14 0.250000 0.582413 0.606142
O O15 0.099556 0.750000 0.605125
O O16 0.750000 0.457247 0.939311
O O17 0.862717 0.250000 0.979793
#
# Coordination Sequence:
#
# PCOD9449657 Si02
#       6
#     8   8   8   8   8   8
#     4  10  20  33  49  70  99 136 170 199 242 301
#     4   8  15  29  48  69  93 124 166 213 256 299
#     4  10  21  36  54  81 112 134 163 210 251 290
#     4   8  14  27  47  67  88 119 163 214 259 295
#     4   9  18  31  45  64  93 128 165 204 246 295
#     4   9  19  38  62  82 103 136 170 199 243 302
#
# _framework density 19.748947000000001
#
# number of rings (size 3 to 8) (size 9 to 14) (size 15 to 20)
#    0.000    3.000    0.000    1.500    0.000    3.667 
#    0.000    2.500    0.000    1.000    0.000    0.000 
#    0.000    0.000    0.000    0.000    0.000    0.000 
#
# Total GULP energy -267700.418820 kJ/mol
# GULP energy per Si atom -5577.092059 kJ/mol
# Density = 1.970400 g / cm^3
# Si number density = 19.748947 Si / 1000 Ang^3
#
#
#
# Elastic Constant Matrix: (Units=GPa)
#
#
# Indices 1 2 3 4 5 6 
#
# 1 42.2637 -1.5110 -15.6192 0.0000 0.0000 0.0000
# 2 -1.5110 17.6831 19.7723 0.0000 0.0000 0.0000
# 3 -15.6192 19.7723 76.7821 0.0000 0.0000 0.0000
# 4 0.0000 0.0000 0.0000 21.1906 0.0000 0.0000
# 5 0.0000 0.0000 0.0000 0.0000 13.5587 0.0000
# 6 0.0000 0.0000 0.0000 0.0000 0.0000 15.5000
#
#
#
# Elastic Compliance Matrix: (Units=1/GPa)
#
#
# Indices 1 2 3 4 5 6 
#
# 1 0.025916 -0.005169 0.006603 0.000000 0.000000 0.000000
# 2 -0.005169 0.080449 -0.021768 0.000000 0.000000 0.000000
# 3 0.006603 -0.021768 0.019973 0.000000 0.000000 0.000000
# 4 0.000000 0.000000 0.000000 0.047191 0.000000 0.000000
# 5 0.000000 0.000000 0.000000 0.000000 0.073753 0.000000
# 6 0.000000 0.000000 0.000000 0.000000 0.000000 0.064516
#
#
# Mechanical properties :
#
#
# Convention : Reuss Voigt Hill
#
# Bulk Modulus (GPa) = 11.67258 15.77924 13.72591
# Shear Modulus (GPa) = 13.12259 18.98899 16.05579
#
# Velocity S-wave (km/s) = 2.58053 3.10420 2.85440
# Velocity P-wave (km/s) = 3.84736 4.56677 4.22241
#
# Compressibility (1/GPa) = 0.08567087
#
# Stress axis : x y z
#
# Youngs Moduli (GPa) = 38.58558 12.43023 50.06872
#
# Poissons Ratio (x) = 0.06425 -0.33060
# Poissons Ratio (y) = 0.19943 1.08989
# Poissons Ratio (z) = -0.25478 0.27058
#
# Static dielectric constant tensor:
#      x y z
#    x 1.766110 0.000000 0.000000 
#    y 0.000000 1.654080 0.000000 
#    z 0.000000 0.000000 1.665690 
# 
# From -- ./inp_files/25481.got.cif
#   From: 2010.05.17/outbox.cif.g08.bks.cpg/sg59_13_cif.got.tgz:25481.got - 2010.06.03 14:40:33.
