data_PCOD9449634
_publ_section_title
;
Structure prediction by ZEFSAII (Michael W. Deem and Ramdas Pophale) SiO2 
 PCOD9449634
Probable space group: P M M N
;
_chemical_formula_sum "Si O2"
_cell_formula_units_Z 48
_cell_length_a 14.563934
_cell_length_b 7.461722
_cell_length_c 19.827467
_cell_angle_alpha 90.000000
_cell_angle_beta 90.000000
_cell_angle_gamma 90.000000
_cell_volume 2154.691024
_symmetry_space_group_name_H-M "P M M N"
_symmetry_group_IT_number 59
_space_group.IT_coordinate_system_code '2'
_symmetry_cell_setting 'orthorhombic'
loop_
_space_group_symop_operation_xyz
x,y,z
1/2-x,1/2-y,z
1/2+x,-y,-z
-x,1/2+y,-z
-x,-y,-z
1/2+x,1/2+y,-z
1/2-x,y,z
x,1/2-y,z
loop_
_atom_site_type_symbol
_atom_site_label
_atom_site_fract_x
_atom_site_fract_y
_atom_site_fract_z
Si Si1 0.850115 0.043924 0.356990
Si Si2 0.646067 0.534835 0.513112
Si Si3 0.855597 0.967687 0.020183
Si Si4 0.851644 0.036292 0.776738
Si Si5 0.954243 0.534101 0.643673
Si Si6 0.480168 0.540374 0.108977
O O1 0.750000 0.962208 0.342033
O O2 0.846621 0.250000 0.333980
O O3 0.946245 0.963317 0.333181
O O4 0.860967 0.043354 0.438426
O O5 0.750000 0.499126 0.537400
O O6 0.636649 0.750000 0.506113
O O7 0.576153 0.468838 0.569815
O O8 0.750000 0.026803 0.024640
O O9 0.855866 0.750000 0.020615
O O10 0.905419 0.024694 0.951093
O O11 0.923949 0.032260 0.079609
O O12 0.750000 0.964637 0.791635
O O13 0.848243 0.250000 0.788396
O O14 0.931262 0.962007 0.825214
O O15 0.879023 0.006947 0.699583
O O16 0.961031 0.750000 0.638571
O O17 0.497650 0.750000 0.122043
#
# Coordination Sequence:
#
# PCOD9449634 Si02
#       6
#     8   8   8   8   8   8
#     4   9  18  32  49  69  93 122 157 197 241 286
#     4   9  17  29  46  69  94 119 152 196 243 287
#     4   9  17  30  51  78 103 127 159 198 236 276
#     4  10  21  35  50  70  97 128 160 194 234 282
#     4  10  20  33  49  69  95 127 160 196 238 282
#     4   9  18  33  51  72 101 133 161 193 236 281
#
# _framework density 22.276976000000001
#
# number of rings (size 3 to 8) (size 9 to 14) (size 15 to 20)
#    0.000    2.667    0.000    1.500    0.000    4.000 
#    0.000    2.500    0.000    1.000    0.000    0.000 
#    0.000    0.000    0.000    0.000    0.000    0.000 
#
# Total GULP energy -267837.923839 kJ/mol
# GULP energy per Si atom -5579.956747 kJ/mol
# Density = 2.222627 g / cm^3
# Si number density = 22.276976 Si / 1000 Ang^3
#
#
#
# Elastic Constant Matrix: (Units=GPa)
#
#
# Indices 1 2 3 4 5 6 
#
# 1 102.8587 -8.1413 -7.6831 0.0000 0.0000 0.0000
# 2 -8.1413 65.2990 -15.3251 0.0000 0.0000 0.0000
# 3 -7.6831 -15.3251 26.9373 0.0000 0.0000 0.0000
# 4 0.0000 0.0000 0.0000 13.2101 0.0000 0.0000
# 5 0.0000 0.0000 0.0000 0.0000 28.0321 0.0000
# 6 0.0000 0.0000 0.0000 0.0000 0.0000 8.8218
#
#
#
# Elastic Compliance Matrix: (Units=1/GPa)
#
#
# Indices 1 2 3 4 5 6 
#
# 1 0.010214 0.002259 0.004198 0.000000 0.000000 0.000000
# 2 0.002259 0.018174 0.010983 0.000000 0.000000 0.000000
# 3 0.004198 0.010983 0.044569 0.000000 0.000000 0.000000
# 4 0.000000 0.000000 0.000000 0.075699 0.000000 0.000000
# 5 0.000000 0.000000 0.000000 0.000000 0.035673 0.000000
# 6 0.000000 0.000000 0.000000 0.000000 0.000000 0.113356
#
#
# Mechanical properties :
#
#
# Convention : Reuss Voigt Hill
#
# Bulk Modulus (GPa) = 9.27308 14.75513 12.01411
# Shear Modulus (GPa) = 16.73636 25.09577 20.91606
#
# Velocity S-wave (km/s) = 2.74393 3.36003 3.06749
# Velocity P-wave (km/s) = 3.76969 4.65735 4.23683
#
# Compressibility (1/GPa) = 0.10783900
#
# Stress axis : x y z
#
# Youngs Moduli (GPa) = 97.90034 55.02515 22.43691
#
# Poissons Ratio (x) = -0.12429 -0.09420
# Poissons Ratio (y) = -0.22114 -0.24644
# Poissons Ratio (z) = -0.41103 -0.60437
#
# Static dielectric constant tensor:
#      x y z
#    x 1.878350 0.000000 0.000000 
#    y 0.000000 1.834560 0.000000 
#    z 0.000000 0.000000 1.778630 
# 
# From -- ./inp_files/22395.got.cif
#   From: 2010.05.17/outbox.cif.g08.bks.cpg/sg59_12_cif.got.tgz:22395.got - 2010.06.03 14:40:33.
