data_PCOD9449909
_publ_section_title
;
Structure prediction by ZEFSAII (Michael W. Deem and Ramdas Pophale) SiO2 
 PCOD9449909
Probable space group: P M M N
;
_chemical_formula_sum "Si O2"
_cell_formula_units_Z 48
_cell_length_a 8.891036
_cell_length_b 20.630140
_cell_length_c 12.873087
_cell_angle_alpha 90.000000
_cell_angle_beta 90.000000
_cell_angle_gamma 90.000000
_cell_volume 2361.224323
_symmetry_space_group_name_H-M "P M M N"
_symmetry_group_IT_number 59
_space_group.IT_coordinate_system_code '2'
_symmetry_cell_setting 'orthorhombic'
loop_
_space_group_symop_operation_xyz
x,y,z
1/2-x,1/2-y,z
1/2+x,-y,-z
-x,1/2+y,-z
-x,-y,-z
1/2+x,1/2+y,-z
1/2-x,y,z
x,1/2-y,z
loop_
_atom_site_type_symbol
_atom_site_label
_atom_site_fract_x
_atom_site_fract_y
_atom_site_fract_z
Si Si1 0.571516 0.596715 0.001954
Si Si2 0.568702 0.502618 0.830166
Si Si3 0.582172 0.326050 0.851564
Si Si4 0.083524 0.327762 0.649440
Si Si5 0.431136 0.462835 0.399532
Si Si6 0.427806 0.825842 0.563194
O O1 0.750000 0.601330 0.011807
O O2 0.507607 0.547803 0.090526
O O3 0.490436 0.661619 0.037107
O O4 0.533324 0.570587 0.888239
O O5 0.750000 0.496105 0.835262
O O6 0.524746 0.502982 0.709663
O O7 0.750000 0.353183 0.844673
O O8 0.592764 0.250000 0.833928
O O9 0.477795 0.351831 0.758905
O O10 0.250000 0.353947 0.623900
O O11 0.098647 0.250000 0.657316
O O12 0.963830 0.337314 0.558777
O O13 0.500000 0.500000 0.500000
O O14 0.250000 0.464071 0.408055
O O15 0.486153 0.387790 0.389312
O O16 0.250000 0.830344 0.582846
O O17 0.474367 0.750000 0.586124
#
# Coordination Sequence:
#
# PCOD9449909 Si02
#       6
#     8   8   8   8   8   8
#     4  10  20  36  61  85 109 146 191 237 285 342
#     4   9  21  41  60  82 112 149 191 236 288 344
#     4  10  20  33  51  79 115 151 186 230 286 342
#     4   9  17  30  50  77 109 146 189 234 279 334
#     4  11  24  41  62  88 121 157 198 247 297 352
#     4  10  21  38  59  84 117 157 198 241 294 353
#
# _framework density 20.328436
#
# number of rings (size 3 to 8) (size 9 to 14) (size 15 to 20)
#    0.000    2.167    0.000    2.500    2.333    6.000 
#    0.000    0.833    0.000    5.000    0.000    0.000 
#    0.000    0.000    0.000    0.000    0.000    0.000 
#
# Total GULP energy -267454.659312 kJ/mol
# GULP energy per Si atom -5571.972069 kJ/mol
# Density = 2.028217 g / cm^3
# Si number density = 20.328436 Si / 1000 Ang^3
#
#
#
# Elastic Constant Matrix: (Units=GPa)
#
#
# Indices 1 2 3 4 5 6 
#
# 1 64.5429 8.9810 21.0702 0.0000 0.0000 0.0000
# 2 8.9810 72.4868 23.7123 0.0000 0.0000 0.0000
# 3 21.0702 23.7123 93.3319 0.0000 0.0000 0.0000
# 4 0.0000 0.0000 0.0000 32.0840 0.0000 0.0000
# 5 0.0000 0.0000 0.0000 0.0000 21.3125 0.0000
# 6 0.0000 0.0000 0.0000 0.0000 0.0000 28.5559
#
#
#
# Elastic Compliance Matrix: (Units=1/GPa)
#
#
# Indices 1 2 3 4 5 6 
#
# 1 0.016782 -0.000916 -0.003556 0.000000 0.000000 0.000000
# 2 -0.000916 0.015096 -0.003629 0.000000 0.000000 0.000000
# 3 -0.003556 -0.003629 0.012439 0.000000 0.000000 0.000000
# 4 0.000000 0.000000 0.000000 0.031168 0.000000 0.000000
# 5 0.000000 0.000000 0.000000 0.000000 0.046921 0.000000
# 6 0.000000 0.000000 0.000000 0.000000 0.000000 0.035019
#
#
# Mechanical properties :
#
#
# Convention : Reuss Voigt Hill
#
# Bulk Modulus (GPa) = 35.56682 37.54319 36.55501
# Shear Modulus (GPa) = 27.32270 28.16369 27.74319
#
# Velocity S-wave (km/s) = 3.67012 3.72618 3.69826
# Velocity P-wave (km/s) = 5.95767 6.08448 6.02141
#
# Compressibility (1/GPa) = 0.02811609
#
# Stress axis : x y z
#
# Youngs Moduli (GPa) = 59.58819 66.24226 80.39170
#
# Poissons Ratio (x) = 0.06068 0.28586
# Poissons Ratio (y) = 0.05458 0.29171
# Poissons Ratio (z) = 0.21189 0.24037
#
# Static dielectric constant tensor:
#      x y z
#    x 1.877390 0.000000 0.000000 
#    y 0.000000 1.855450 0.000000 
#    z 0.000000 0.000000 1.713990 
# 
# From -- ./inp_files/14297.got.cif
#   From: 2010.05.17/outbox.cif.g08.bks.cpg/sg59_8_cif.got.tgz:14297.got - 2010.06.03 14:40:33.
