data_PCOD9449013
_publ_section_title
;
Structure prediction by ZEFSAII (Michael W. Deem and Ramdas Pophale) SiO2 
 PCOD9449013
Probable space group: P M M N
;
_chemical_formula_sum "Si O2"
_cell_formula_units_Z 64
_cell_length_a 20.237773
_cell_length_b 8.167980
_cell_length_c 19.022005
_cell_angle_alpha 90.000000
_cell_angle_beta 90.000000
_cell_angle_gamma 90.000000
_cell_volume 3144.370242
_symmetry_space_group_name_H-M "P M M N"
_symmetry_group_IT_number 59
_space_group.IT_coordinate_system_code '2'
_symmetry_cell_setting 'orthorhombic'
loop_
_space_group_symop_operation_xyz
x,y,z
1/2-x,1/2-y,z
1/2+x,-y,-z
-x,1/2+y,-z
-x,-y,-z
1/2+x,1/2+y,-z
1/2-x,y,z
x,1/2-y,z
loop_
_atom_site_type_symbol
_atom_site_label
_atom_site_fract_x
_atom_site_fract_y
_atom_site_fract_z
Si Si1 0.940528 0.055395 0.853552
Si Si2 0.070957 0.552029 0.923472
Si Si3 0.324176 0.947182 0.528539
Si Si4 0.358515 0.433641 0.683160
Si Si5 0.551785 0.446899 0.560637
Si Si6 0.680597 0.439797 0.177061
Si Si7 0.826789 0.050732 0.952313
Si Si8 0.500393 0.561492 0.707572
O O1 0.938672 0.250000 0.843684
O O2 0.869003 0.002120 0.883331
O O3 0.961330 0.975812 0.779675
O O4 0.997813 0.018807 0.911856
O O5 0.062750 0.750000 0.926182
O O6 0.112989 0.495895 0.855165
O O7 0.122567 0.504171 0.984829
O O8 0.250000 0.998489 0.511632
O O9 0.326074 0.750000 0.535043
O O10 0.376980 0.992836 0.470027
O O11 0.344792 0.018450 0.603587
O O12 0.335661 0.250000 0.696447
O O13 0.323329 0.547617 0.739616
O O14 0.435947 0.450158 0.698677
O O15 0.500000 0.500000 0.500000
O O16 0.547168 0.250000 0.568787
O O17 0.539722 0.530192 0.635551
O O18 0.750000 0.514919 0.152207
O O19 0.681880 0.250000 0.155383
O O20 0.750000 0.994668 0.956831
O O21 0.824113 0.250000 0.953998
O O22 0.477790 0.750000 0.710069
#
# Coordination Sequence:
#
# PCOD9449013 Si02
#       8
#     8   8   8   8   8   8   8   8
#     4  11  22  37  60  89 120 153 196 251 301 349
#     4  10  19  34  59  87 118 157 196 236 288 353
#     4  10  22  40  61  86 119 158 195 231 283 355
#     4  12  23  35  55  83 118 155 195 243 294 349
#     4  11  22  38  63  91 120 154 195 241 290 344
#     4  10  20  33  51  78 116 161 200 232 278 347
#     4   9  19  37  61  89 119 155 200 245 294 357
#     4  12  24  40  61  85 116 156 202 249 297 355
#
# _framework density 20.353838
#
# number of rings (size 3 to 8) (size 9 to 14) (size 15 to 20)
#    0.000    1.375    2.500    4.125    0.000    4.000 
#    0.000    1.250    0.000    7.875    0.000    0.000 
#    0.000    0.000    0.000    0.000    0.000    0.000 
#
# Total GULP energy -357288.719745 kJ/mol
# GULP energy per Si atom -5582.636246 kJ/mol
# Density = 2.030751 g / cm^3
# Si number density = 20.353838 Si / 1000 Ang^3
#
#
#
# Elastic Constant Matrix: (Units=GPa)
#
#
# Indices 1 2 3 4 5 6 
#
# 1 133.4579 9.7639 58.3625 0.0000 0.0000 0.0000
# 2 9.7639 27.1603 7.8755 0.0000 0.0000 0.0000
# 3 58.3625 7.8755 89.1577 0.0000 0.0000 0.0000
# 4 0.0000 0.0000 0.0000 20.5673 0.0000 0.0000
# 5 0.0000 0.0000 0.0000 0.0000 13.9102 0.0000
# 6 0.0000 0.0000 0.0000 0.0000 0.0000 18.3767
#
#
#
# Elastic Compliance Matrix: (Units=1/GPa)
#
#
# Indices 1 2 3 4 5 6 
#
# 1 0.010587 -0.001844 -0.006768 0.000000 0.000000 0.000000
# 2 -0.001844 0.038107 -0.002159 0.000000 0.000000 0.000000
# 3 -0.006768 -0.002159 0.015837 0.000000 0.000000 0.000000
# 4 0.000000 0.000000 0.000000 0.048621 0.000000 0.000000
# 5 0.000000 0.000000 0.000000 0.000000 0.071890 0.000000
# 6 0.000000 0.000000 0.000000 0.000000 0.000000 0.054417
#
#
# Mechanical properties :
#
#
# Convention : Reuss Voigt Hill
#
# Bulk Modulus (GPa) = 23.26092 44.64218 33.95155
# Shear Modulus (GPa) = 18.16000 22.15578 20.15789
#
# Velocity S-wave (km/s) = 2.99024 3.30287 3.15043
# Velocity P-wave (km/s) = 4.83478 6.04367 5.47271
#
# Compressibility (1/GPa) = 0.04299056
#
# Stress axis : x y z
#
# Youngs Moduli (GPa) = 94.45132 26.24164 63.14365
#
# Poissons Ratio (x) = 0.04838 0.42734
# Poissons Ratio (y) = 0.17414 0.13634
# Poissons Ratio (z) = 0.63922 0.05666
#
# Static dielectric constant tensor:
#      x y z
#    x 1.768860 0.000000 0.000000 
#    y 0.000000 1.724880 0.000000 
#    z 0.000000 0.000000 1.727670 
# 
# From -- ./inp_files/28233.got.cif
#   From: 2010.05.17/outbox.cif.g08.bks.cpg/sg59_15_cif.got.tgz:28233.got - 2010.06.03 14:40:33.
