data_PCOD9449082
_publ_section_title
;
Structure prediction by ZEFSAII (Michael W. Deem and Ramdas Pophale) SiO2 
 PCOD9449082
Probable space group: P M M N
;
_chemical_formula_sum "Si O2"
_cell_formula_units_Z 64
_cell_length_a 25.719060
_cell_length_b 8.664072
_cell_length_c 14.907590
_cell_angle_alpha 90.000000
_cell_angle_beta 90.000000
_cell_angle_gamma 90.000000
_cell_volume 3321.884929
_symmetry_space_group_name_H-M "P M M N"
_symmetry_group_IT_number 59
_space_group.IT_coordinate_system_code '2'
_symmetry_cell_setting 'orthorhombic'
loop_
_space_group_symop_operation_xyz
x,y,z
1/2-x,1/2-y,z
1/2+x,-y,-z
-x,1/2+y,-z
-x,-y,-z
1/2+x,1/2+y,-z
1/2-x,y,z
x,1/2-y,z
loop_
_atom_site_type_symbol
_atom_site_label
_atom_site_fract_x
_atom_site_fract_y
_atom_site_fract_z
Si Si1 0.557605 0.436948 0.523541
Si Si2 0.834369 0.936123 0.002662
Si Si3 0.807217 0.065377 0.812881
Si Si4 0.980321 0.071208 0.210236
Si Si5 0.891268 0.430679 0.347630
Si Si6 0.909338 0.564635 0.716601
Si Si7 0.052340 0.429573 0.963681
Si Si8 0.809841 0.433864 0.198822
O O1 0.500000 0.500000 0.500000
O O2 0.555327 0.250000 0.521327
O O3 0.598449 0.492852 0.446958
O O4 0.577558 0.492658 0.620037
O O5 0.831189 0.750000 0.997883
O O6 0.807896 0.008104 0.915900
O O7 0.894348 0.990521 0.996389
O O8 0.815961 0.988389 0.101199
O O9 0.750000 0.024669 0.774924
O O10 0.812486 0.250000 0.811365
O O11 0.855810 0.992891 0.760043
O O12 0.977938 0.250000 0.179365
O O13 0.948223 0.063354 0.301883
O O14 0.040167 0.026186 0.222090
O O15 0.949670 0.965722 0.141208
O O16 0.876987 0.250000 0.357561
O O17 0.849362 0.493368 0.275894
O O18 0.908519 0.750000 0.709406
O O19 0.051720 0.250000 0.981477
O O20 0.000000 0.500000 0.000000
O O21 0.750000 0.451851 0.227860
O O22 0.820354 0.250000 0.186150
#
# Coordination Sequence:
#
# PCOD9449082 Si02
#       8
#     8   8   8   8   8   8   8   8
#     4  11  21  37  61  90 122 158 198 245 300 357
#     4  11  23  38  57  85 119 155 195 239 292 349
#     4  11  25  44  64  87 115 153 202 249 293 347
#     4  10  19  35  57  81 115 154 189 233 290 349
#     4   9  18  35  57  83 118 153 189 239 291 339
#     4  11  23  40  62  91 121 154 196 244 302 364
#     4  11  23  35  50  79 115 154 195 236 288 348
#     4  10  20  36  60  86 112 151 200 242 283 337
#
# _framework density 19.266169999999999
#
# number of rings (size 3 to 8) (size 9 to 14) (size 15 to 20)
#    0.000    1.500    2.500    3.000    0.000    8.250 
#    0.000    1.875    0.000    2.250    0.000    0.000 
#    0.000    0.000    0.000    0.000    0.000    0.000 
#
# Total GULP energy -357185.430760 kJ/mol
# GULP energy per Si atom -5581.022356 kJ/mol
# Density = 1.922232 g / cm^3
# Si number density = 19.266170 Si / 1000 Ang^3
#
#
#
# Elastic Constant Matrix: (Units=GPa)
#
#
# Indices 1 2 3 4 5 6 
#
# 1 130.0325 31.2805 41.8168 0.0000 0.0000 0.0000
# 2 31.2805 31.6718 15.0155 0.0000 0.0000 0.0000
# 3 41.8168 15.0155 84.6868 0.0000 0.0000 0.0000
# 4 0.0000 0.0000 0.0000 27.2256 0.0000 0.0000
# 5 0.0000 0.0000 0.0000 0.0000 14.8405 0.0000
# 6 0.0000 0.0000 0.0000 0.0000 0.0000 24.1959
#
#
#
# Elastic Compliance Matrix: (Units=1/GPa)
#
#
# Indices 1 2 3 4 5 6 
#
# 1 0.011142 -0.009167 -0.003876 0.000000 0.000000 0.000000
# 2 -0.009167 0.042013 -0.002923 0.000000 0.000000 0.000000
# 3 -0.003876 -0.002923 0.014241 0.000000 0.000000 0.000000
# 4 0.000000 0.000000 0.000000 0.036730 0.000000 0.000000
# 5 0.000000 0.000000 0.000000 0.000000 0.067383 0.000000
# 6 0.000000 0.000000 0.000000 0.000000 0.000000 0.041329
#
#
# Mechanical properties :
#
#
# Convention : Reuss Voigt Hill
#
# Bulk Modulus (GPa) = 28.19782 46.95740 37.57761
# Shear Modulus (GPa) = 19.48622 23.80428 21.64525
#
# Velocity S-wave (km/s) = 3.18374 3.51885 3.35548
# Velocity P-wave (km/s) = 5.30873 6.39810 5.87870
#
# Compressibility (1/GPa) = 0.03546374
#
# Stress axis : x y z
#
# Youngs Moduli (GPa) = 89.74946 23.80219 70.22182
#
# Poissons Ratio (x) = 0.21819 0.27221
# Poissons Ratio (y) = 0.82270 0.20525
# Poissons Ratio (z) = 0.34791 0.06957
#
# Static dielectric constant tensor:
#      x y z
#    x 1.715250 0.000000 0.000000 
#    y 0.000000 1.663580 0.000000 
#    z 0.000000 0.000000 1.719050 
# 
# From -- ./inp_files/24656.got.cif
#   From: 2010.05.17/outbox.cif.g08.bks.cpg/sg59_13_cif.got.tgz:24656.got - 2010.06.03 14:40:33.
