data_PCOD9449448
_publ_section_title
;
Structure prediction by ZEFSAII (Michael W. Deem and Ramdas Pophale) SiO2 
 PCOD9449448
Probable space group: P M M N
;
_chemical_formula_sum "Si O2"
_cell_formula_units_Z 48
_cell_length_a 9.037976
_cell_length_b 25.742447
_cell_length_c 12.762482
_cell_angle_alpha 90.000000
_cell_angle_beta 90.000000
_cell_angle_gamma 90.000000
_cell_volume 2969.314189
_symmetry_space_group_name_H-M "P M M N"
_symmetry_group_IT_number 59
_space_group.IT_coordinate_system_code '2'
_symmetry_cell_setting 'orthorhombic'
loop_
_space_group_symop_operation_xyz
x,y,z
1/2-x,1/2-y,z
1/2+x,-y,-z
-x,1/2+y,-z
-x,-y,-z
1/2+x,1/2+y,-z
1/2-x,y,z
x,1/2-y,z
loop_
_atom_site_type_symbol
_atom_site_label
_atom_site_fract_x
_atom_site_fract_y
_atom_site_fract_z
Si Si1 0.074045 0.887023 0.876740
Si Si2 0.072890 0.003235 0.885182
Si Si3 0.427008 0.891453 0.125311
Si Si4 0.926282 0.811114 0.714655
Si Si5 0.574086 0.811843 0.281111
Si Si6 0.919947 0.313049 0.501997
O O1 0.250000 0.877805 0.865901
O O2 0.985465 0.845514 0.809712
O O3 0.043758 0.946123 0.838286
O O4 0.039400 0.884683 0.001117
O O5 0.250000 0.009257 0.893722
O O6 0.000662 0.054515 0.836612
O O7 0.000000 0.000000 0.000000
O O8 0.250000 0.894482 0.135510
O O9 0.492961 0.844445 0.191726
O O10 0.750000 0.815484 0.704559
O O11 0.961885 0.750000 0.731076
O O12 0.003096 0.828638 0.606403
O O13 0.750000 0.820333 0.277524
O O14 0.547250 0.750000 0.268505
O O15 0.509570 0.828118 0.394246
O O16 0.750000 0.330682 0.507103
O O17 0.919470 0.250000 0.501370
#
# Coordination Sequence:
#
# PCOD9449448 Si02
#       6
#     8   8   8   8   8   8
#     4   9  19  33  49  71  98 129 163 199 240 287
#     4   9  17  31  50  71  95 125 164 205 243 287
#     4  10  20  33  50  73 100 131 166 202 243 291
#     4  10  20  32  48  72 100 129 162 200 241 286
#     4  10  20  33  50  73 101 131 163 201 244 289
#     4   9  17  31  51  71  93 125 164 202 239 284
#
# _framework density 16.165348999999999
#
# number of rings (size 3 to 8) (size 9 to 14) (size 15 to 20)
#    0.000    2.500    0.000    3.500    0.000    8.667 
#    0.000    3.333    0.000    1.000    0.000    0.000 
#    0.000    0.000    0.000    0.000    0.000    0.000 
#
# Total GULP energy -267500.427422 kJ/mol
# GULP energy per Si atom -5572.925571 kJ/mol
# Density = 1.612856 g / cm^3
# Si number density = 16.165349 Si / 1000 Ang^3
#
#
#
# Elastic Constant Matrix: (Units=GPa)
#
#
# Indices 1 2 3 4 5 6 
#
# 1 90.1258 63.3980 58.1186 0.0000 0.0000 0.0000
# 2 63.3980 82.5421 56.2791 0.0000 0.0000 0.0000
# 3 58.1186 56.2791 86.3982 0.0000 0.0000 0.0000
# 4 0.0000 0.0000 0.0000 -4.5327 0.0000 0.0000
# 5 0.0000 0.0000 0.0000 0.0000 31.0220 0.0000
# 6 0.0000 0.0000 0.0000 0.0000 0.0000 29.4856
#
#
#
# Elastic Compliance Matrix: (Units=1/GPa)
#
#
# Indices 1 2 3 4 5 6 
#
# 1 0.027164 -0.015120 -0.008423 0.000000 0.000000 0.000000
# 2 -0.015120 0.030211 -0.009508 0.000000 0.000000 0.000000
# 3 -0.008423 -0.009508 0.023434 0.000000 0.000000 0.000000
# 4 0.000000 0.000000 0.000000 -0.220618 0.000000 0.000000
# 5 0.000000 0.000000 0.000000 0.000000 0.032235 0.000000
# 6 0.000000 0.000000 0.000000 0.000000 0.000000 0.033915
#
#
# Mechanical properties :
#
#
# Convention : Reuss Voigt Hill
#
# Bulk Modulus (GPa) = 68.00210 68.29527 68.14869
# Shear Modulus (GPa) = -1885.11326 16.61301 -934.25012
#
# Velocity S-wave (km/s) = -34.18590 3.20924 -24.06633
# Velocity P-wave (km/s) = 38.93683 7.48812 27.01856
#
# Compressibility (1/GPa) = 0.01470543
#
# Stress axis : x y z
#
# Youngs Moduli (GPa) = 36.81372 33.09998 42.67283
#
# Poissons Ratio (x) = 0.50049 0.35945
# Poissons Ratio (y) = 0.55664 0.40574
# Poissons Ratio (z) = 0.31009 0.31472
#
# Static dielectric constant tensor:
#      x y z
#    x 1.537270 0.000000 0.000000 
#    y 0.000000 1.556620 0.000000 
#    z 0.000000 0.000000 1.523940 
# 
# From -- ./inp_files/14291.got.cif
#   From: 2010.05.17/outbox.cif.g08.bks.cpg/sg59_8_cif.got.tgz:14291.got - 2010.06.03 14:40:33.
