data_PCOD9449408
_publ_section_title
;
Structure prediction by ZEFSAII (Michael W. Deem and Ramdas Pophale) SiO2 
 PCOD9449408
Probable space group: P M M N
;
_chemical_formula_sum "Si O2"
_cell_formula_units_Z 64
_cell_length_a 9.172253
_cell_length_b 17.881019
_cell_length_c 23.627359
_cell_angle_alpha 90.000000
_cell_angle_beta 90.000000
_cell_angle_gamma 90.000000
_cell_volume 3875.104960
_symmetry_space_group_name_H-M "P M M N"
_symmetry_group_IT_number 59
_space_group.IT_coordinate_system_code '2'
_symmetry_cell_setting 'orthorhombic'
loop_
_space_group_symop_operation_xyz
x,y,z
1/2-x,1/2-y,z
1/2+x,-y,-z
-x,1/2+y,-z
-x,-y,-z
1/2+x,1/2+y,-z
1/2-x,y,z
x,1/2-y,z
loop_
_atom_site_type_symbol
_atom_site_label
_atom_site_fract_x
_atom_site_fract_y
_atom_site_fract_z
Si Si1 0.423575 0.569796 0.469155
Si Si2 0.075245 0.969740 0.756694
Si Si3 0.078679 0.164551 0.181405
Si Si4 0.923824 0.393678 0.073495
Si Si5 0.576663 0.522888 0.637838
Si Si6 0.577517 0.553234 0.130823
Si Si7 0.075076 0.335954 0.442302
Si Si8 0.425072 0.836616 0.049628
O O1 0.500000 0.500000 0.500000
O O2 0.250000 0.569599 0.479109
O O3 0.447018 0.548105 0.403670
O O4 0.495526 0.641084 0.499250
O O5 0.250000 0.964810 0.755752
O O6 0.008004 0.892031 0.778777
O O7 0.011361 0.985564 0.695301
O O8 0.034999 0.029914 0.805433
O O9 0.250000 0.145489 0.180976
O O10 0.062723 0.250000 0.199995
O O11 0.012362 0.154813 0.118749
O O12 0.750000 0.378271 0.079294
O O13 0.947603 0.479258 0.092355
O O14 0.967978 0.375997 0.009505
O O15 0.750000 0.528042 0.649306
O O16 0.536202 0.599983 0.604105
O O17 0.750000 0.568354 0.130328
O O18 0.492692 0.620605 0.102479
O O19 0.250000 0.341783 0.450170
O O20 0.041426 0.250000 0.426175
O O21 0.250000 0.840301 0.052957
O O22 0.468577 0.750000 0.047595
#
# Coordination Sequence:
#
# PCOD9449408 Si02
#       8
#     8   8   8   8   8   8   8   8
#     4   9  17  30  49  73 100 130 164 199 236 280
#     4  10  21  35  51  71  94 125 167 207 243 286
#     4  10  20  32  47  69  97 129 163 197 237 288
#     4   9  18  33  51  71  97 126 157 195 240 292
#     4   9  18  32  50  73 100 131 166 203 242 283
#     4   9  19  34  50  70  95 125 161 200 242 287
#     4   9  18  32  50  75 108 139 163 194 239 286
#     4  10  20  32  49  74  99 124 155 194 245 299
#
# _framework density 16.515682000000002
#
# number of rings (size 3 to 8) (size 9 to 14) (size 15 to 20)
#    0.000    2.625    0.000    3.375    0.000    8.000 
#    0.000    1.250    0.000    0.750    0.000    0.000 
#    0.000    0.000    0.000    0.000    0.000    0.000 
#
# Total GULP energy -356654.225462 kJ/mol
# GULP energy per Si atom -5572.722273 kJ/mol
# Density = 1.647809 g / cm^3
# Si number density = 16.515682 Si / 1000 Ang^3
#
#
#
# Elastic Constant Matrix: (Units=GPa)
#
#
# Indices 1 2 3 4 5 6 
#
# 1 33.2233 23.1450 49.2976 0.0000 0.0000 0.0000
# 2 23.1450 42.2153 44.5900 0.0000 0.0000 0.0000
# 3 49.2976 44.5900 123.7978 0.0000 0.0000 0.0000
# 4 0.0000 0.0000 0.0000 8.4004 0.0000 0.0000
# 5 0.0000 0.0000 0.0000 0.0000 32.2755 0.0000
# 6 0.0000 0.0000 0.0000 0.0000 0.0000 25.9574
#
#
#
# Elastic Compliance Matrix: (Units=1/GPa)
#
#
# Indices 1 2 3 4 5 6 
#
# 1 0.080114 -0.016506 -0.025957 0.000000 0.000000 0.000000
# 2 -0.016506 0.041635 -0.008423 0.000000 0.000000 0.000000
# 3 -0.025957 -0.008423 0.021448 0.000000 0.000000 0.000000
# 4 0.000000 0.000000 0.000000 0.119043 0.000000 0.000000
# 5 0.000000 0.000000 0.000000 0.000000 0.030983 0.000000
# 6 0.000000 0.000000 0.000000 0.000000 0.000000 0.038525
#
#
# Mechanical properties :
#
#
# Convention : Reuss Voigt Hill
#
# Bulk Modulus (GPa) = 24.14066 48.14461 36.14264
# Shear Modulus (GPa) = 11.17746 18.80691 14.99219
#
# Velocity S-wave (km/s) = 2.60432 3.37817 3.01617
# Velocity P-wave (km/s) = 4.86743 6.66560 5.83618
#
# Compressibility (1/GPa) = 0.04142389
#
# Stress axis : x y z
#
# Youngs Moduli (GPa) = 12.48218 24.01825 46.62456
#
# Poissons Ratio (x) = 0.39646 1.21023
# Poissons Ratio (y) = 0.20604 0.39273
# Poissons Ratio (z) = 0.32400 0.20231
#
# Static dielectric constant tensor:
#      x y z
#    x 1.549740 0.000000 0.000000 
#    y 0.000000 1.558030 0.000000 
#    z 0.000000 0.000000 1.558680 
# 
# From -- ./inp_files/31706.got.cif
#   From: 2010.05.17/outbox.cif.g08.bks.cpg/sg59_16_cif.got.tgz:31706.got - 2010.06.03 14:40:33.
