data_PCOD9449999
_publ_section_title
;
Structure prediction by ZEFSAII (Michael W. Deem and Ramdas Pophale) SiO2 
 PCOD9449999
Probable space group: P M M N
;
_chemical_formula_sum "Si O2"
_cell_formula_units_Z 40
_cell_length_a 21.532064
_cell_length_b 16.542453
_cell_length_c 5.162556
_cell_angle_alpha 90.000000
_cell_angle_beta 90.000000
_cell_angle_gamma 90.000000
_cell_volume 1838.867118
_symmetry_space_group_name_H-M "P M M N"
_symmetry_group_IT_number 59
_space_group.IT_coordinate_system_code '2'
_symmetry_cell_setting 'orthorhombic'
loop_
_space_group_symop_operation_xyz
x,y,z
1/2-x,1/2-y,z
1/2+x,-y,-z
-x,1/2+y,-z
-x,-y,-z
1/2+x,1/2+y,-z
1/2-x,y,z
x,1/2-y,z
loop_
_atom_site_type_symbol
_atom_site_label
_atom_site_fract_x
_atom_site_fract_y
_atom_site_fract_z
Si Si1 0.076003 0.935915 0.065687
Si Si2 0.132507 0.160565 0.431401
Si Si3 0.364339 0.506878 0.570865
Si Si4 0.818795 0.159063 0.174168
Si Si5 0.548208 0.840652 0.067515
O O1 0.087051 0.973517 0.344916
O O2 0.125934 0.863475 0.021897
O O3 0.007713 0.902415 0.025305
O O4 0.098879 0.997141 0.842468
O O5 0.162273 0.250000 0.454657
O O6 0.168186 0.077440 0.497979
O O7 0.102159 0.153742 0.148303
O O8 0.077396 0.157926 0.645261
O O9 0.323634 0.587207 0.614320
O O10 0.750000 0.154174 0.055513
O O11 0.827070 0.250000 0.276055
O O12 0.521364 0.750000 0.032232
#
# Coordination Sequence:
#
# PCOD9449999 Si02
#       5
#     8   8   8   8   8
#     4  10  21  35  55  80 112 142 183 223 269 314
#     4  10  21  36  54  79 113 150 181 219 267 315
#     4  10  22  36  56  83 107 145 184 223 265 325
#     4   9  21  40  59  81 110 142 178 225 279 326
#     4  10  20  33  53  80 112 149 185 219 262 320
#
# _framework density 21.752524000000001
#
# number of rings (size 3 to 8) (size 9 to 14) (size 15 to 20)
#    1.200    1.000    0.000    3.000    0.000    7.200 
#    0.000    2.000    0.000    0.600    0.000    0.000 
#    0.000    0.000    0.000    0.000    0.000    0.000 
#
# Total GULP energy -222804.253699 kJ/mol
# GULP energy per Si atom -5570.106342 kJ/mol
# Density = 2.170301 g / cm^3
# Si number density = 21.752524 Si / 1000 Ang^3
#
#
#
# Elastic Constant Matrix: (Units=GPa)
#
#
# Indices 1 2 3 4 5 6 
#
# 1 47.4100 16.7597 0.0122 0.0000 0.0000 0.0000
# 2 16.7597 164.1024 4.5147 0.0000 0.0000 0.0000
# 3 0.0122 4.5147 99.5351 0.0000 0.0000 0.0000
# 4 0.0000 0.0000 0.0000 29.1026 0.0000 0.0000
# 5 0.0000 0.0000 0.0000 0.0000 10.2190 0.0000
# 6 0.0000 0.0000 0.0000 0.0000 0.0000 9.9340
#
#
#
# Elastic Compliance Matrix: (Units=1/GPa)
#
#
# Indices 1 2 3 4 5 6 
#
# 1 0.021884 -0.002238 0.000099 0.000000 0.000000 0.000000
# 2 -0.002238 0.006330 -0.000287 0.000000 0.000000 0.000000
# 3 0.000099 -0.000287 0.010060 0.000000 0.000000 0.000000
# 4 0.000000 0.000000 0.000000 0.034361 0.000000 0.000000
# 5 0.000000 0.000000 0.000000 0.000000 0.097857 0.000000
# 6 0.000000 0.000000 0.000000 0.000000 0.000000 0.100664
#
#
# Mechanical properties :
#
#
# Convention : Reuss Voigt Hill
#
# Bulk Modulus (GPa) = 29.92036 39.29121 34.60579
# Shear Modulus (GPa) = 17.41259 29.16851 23.29055
#
# Velocity S-wave (km/s) = 2.83236 3.66584 3.27571
# Velocity P-wave (km/s) = 4.94784 6.00165 5.50004
#
# Compressibility (1/GPa) = 0.03342205
#
# Stress axis : x y z
#
# Youngs Moduli (GPa) = 45.69626 157.97334 99.40651
#
# Poissons Ratio (x) = 0.35350 -0.00982
# Poissons Ratio (y) = 0.10225 0.02851
# Poissons Ratio (z) = -0.00452 0.04531
#
# Static dielectric constant tensor:
#      x y z
#    x 1.735460 0.000000 0.000000 
#    y 0.000000 1.927150 0.000000 
#    z 0.000000 0.000000 1.748530 
# 
# From -- ./inp_files/4148.got.cif
#   From: 2010.05.17/outbox.cif.g08.bks.cpg/sg59_3_cif.got.tgz:4148.got - 2010.06.03 14:40:33.
