data_PCOD9449916
_publ_section_title
;
Structure prediction by ZEFSAII (Michael W. Deem and Ramdas Pophale) SiO2 
 PCOD9449916
Probable space group: P M M N
;
_chemical_formula_sum "Si O2"
_cell_formula_units_Z 48
_cell_length_a 12.127547
_cell_length_b 14.320413
_cell_length_c 14.887851
_cell_angle_alpha 90.000000
_cell_angle_beta 90.000000
_cell_angle_gamma 90.000000
_cell_volume 2585.595143
_symmetry_space_group_name_H-M "P M M N"
_symmetry_group_IT_number 59
_space_group.IT_coordinate_system_code '2'
_symmetry_cell_setting 'orthorhombic'
loop_
_space_group_symop_operation_xyz
x,y,z
1/2-x,1/2-y,z
1/2+x,-y,-z
-x,1/2+y,-z
-x,-y,-z
1/2+x,1/2+y,-z
1/2-x,y,z
x,1/2-y,z
loop_
_atom_site_type_symbol
_atom_site_label
_atom_site_fract_x
_atom_site_fract_y
_atom_site_fract_z
Si Si1 0.381797 0.464571 0.896092
Si Si2 0.467186 0.105881 0.513230
Si Si3 0.382691 0.056433 0.695429
Si Si4 0.750000 0.637345 0.805123
Si Si5 0.962570 0.862532 0.926636
Si Si6 0.250000 0.359814 0.396746
Si Si7 0.118235 0.847869 0.637945
O O1 0.250000 0.474156 0.902362
O O2 0.408014 0.421917 0.798222
O O3 0.437076 0.567369 0.903494
O O4 0.424320 0.396948 0.974663
O O5 0.356950 0.119487 0.455566
O O6 0.565356 0.155501 0.460798
O O7 0.500000 0.000000 0.500000
O O8 0.441193 0.117349 0.618271
O O9 0.250000 0.063436 0.681355
O O10 0.414099 0.946469 0.681627
O O11 0.750000 0.750000 0.801828
O O12 0.639108 0.613596 0.859638
O O13 0.750000 0.598007 0.703505
O O14 0.983188 0.750000 0.923631
O O15 0.250000 0.250000 0.382570
O O16 0.250000 0.849237 0.633420
O O17 0.083429 0.750000 0.684715
#
# Coordination Sequence:
#
# PCOD9449916 Si02
#       7
#     8   8   8   4   8   4   8
#     4  10  21  37  60  86 111 146 189 230 279 338
#     4  10  20  33  52  75 110 144 178 218 268 321
#     4   9  18  34  53  77 107 141 179 219 271 328
#     4   9  20  36  57  83 108 139 183 229 285 336
#     4  10  21  39  60  84 115 146 183 235 286 333
#     4  11  22  36  55  83 110 141 185 231 273 322
#     4   9  18  32  50  73 104 142 182 227 275 323
#
# _framework density 18.564391000000001
#
# number of rings (size 3 to 8) (size 9 to 14) (size 15 to 20)
#    0.000    2.333    1.667    0.500    5.833    1.000 
#    0.000    3.333    0.000    0.000    0.000    0.000 
#    0.000    0.000    0.000    0.000    0.000    0.000 
#
# Total GULP energy -267280.733910 kJ/mol
# GULP energy per Si atom -5568.348623 kJ/mol
# Density = 1.852214 g / cm^3
# Si number density = 18.564391 Si / 1000 Ang^3
#
#
#
# Elastic Constant Matrix: (Units=GPa)
#
#
# Indices 1 2 3 4 5 6 
#
# 1 19.2296 -4.9845 13.8759 0.0000 0.0000 0.0000
# 2 -4.9845 40.6755 0.5344 0.0000 0.0000 0.0000
# 3 13.8759 0.5344 134.2856 0.0000 0.0000 0.0000
# 4 0.0000 0.0000 0.0000 15.2461 0.0000 0.0000
# 5 0.0000 0.0000 0.0000 0.0000 21.0110 0.0000
# 6 0.0000 0.0000 0.0000 0.0000 0.0000 38.8587
#
#
#
# Elastic Compliance Matrix: (Units=1/GPa)
#
#
# Indices 1 2 3 4 5 6 
#
# 1 0.058237 0.007216 -0.006046 0.000000 0.000000 0.000000
# 2 0.007216 0.025480 -0.000847 0.000000 0.000000 0.000000
# 3 -0.006046 -0.000847 0.008075 0.000000 0.000000 0.000000
# 4 0.000000 0.000000 0.000000 0.065590 0.000000 0.000000
# 5 0.000000 0.000000 0.000000 0.000000 0.047594 0.000000
# 6 0.000000 0.000000 0.000000 0.000000 0.000000 0.025734
#
#
# Mechanical properties :
#
#
# Convention : Reuss Voigt Hill
#
# Bulk Modulus (GPa) = 10.81819 23.67136 17.24477
# Shear Modulus (GPa) = 19.16606 27.34082 23.25344
#
# Velocity S-wave (km/s) = 3.21660 3.84181 3.54302
# Velocity P-wave (km/s) = 4.43118 5.69719 5.10360
#
# Compressibility (1/GPa) = 0.09243691
#
# Stress axis : x y z
#
# Youngs Moduli (GPa) = 17.17133 39.24610 123.83959
#
# Poissons Ratio (x) = -0.28320 0.74878
# Poissons Ratio (y) = -0.12391 0.10490
# Poissons Ratio (z) = 0.10382 0.03324
#
# Static dielectric constant tensor:
#      x y z
#    x 1.635640 0.000000 0.000000 
#    y 0.000000 1.659250 0.000000 
#    z 0.000000 0.000000 1.726600 
# 
# From -- ./inp_files/22429.got.cif
#   From: 2010.05.17/outbox.cif.g08.bks.cpg/sg59_12_cif.got.tgz:22429.got - 2010.06.03 14:40:33.
