data_PCOD9449799
_publ_section_title
;
Structure prediction by ZEFSAII (Michael W. Deem and Ramdas Pophale) SiO2 
 PCOD9449799
Probable space group: P M M N
;
_chemical_formula_sum "Si O2"
_cell_formula_units_Z 64
_cell_length_a 7.893519
_cell_length_b 17.611781
_cell_length_c 22.084558
_cell_angle_alpha 90.000000
_cell_angle_beta 90.000000
_cell_angle_gamma 90.000000
_cell_volume 3070.171577
_symmetry_space_group_name_H-M "P M M N"
_symmetry_group_IT_number 59
_space_group.IT_coordinate_system_code '2'
_symmetry_cell_setting 'orthorhombic'
loop_
_space_group_symop_operation_xyz
x,y,z
1/2-x,1/2-y,z
1/2+x,-y,-z
-x,1/2+y,-z
-x,-y,-z
1/2+x,1/2+y,-z
1/2-x,y,z
x,1/2-y,z
loop_
_atom_site_type_symbol
_atom_site_label
_atom_site_fract_x
_atom_site_fract_y
_atom_site_fract_z
Si Si1 0.954855 0.834108 0.631055
Si Si2 0.955415 0.061788 0.913859
Si Si3 0.440291 0.570346 0.739066
Si Si4 0.557695 0.421909 0.682833
Si Si5 0.542424 0.337447 0.799180
Si Si6 0.454208 0.011183 0.430614
Si Si7 0.056100 0.168104 0.162176
Si Si8 0.552942 0.106712 0.044880
O O1 0.750000 0.833756 0.630660
O O2 0.013163 0.750000 0.613572
O O3 0.015860 0.857360 0.697635
O O4 0.012943 0.905173 0.590478
O O5 0.750000 0.053298 0.910979
O O6 0.011016 0.104498 0.852598
O O7 0.996010 0.109518 0.974531
O O8 0.028212 0.979183 0.930043
O O9 0.250000 0.544723 0.727064
O O10 0.559413 0.501917 0.719177
O O11 0.461370 0.598730 0.806719
O O12 0.750000 0.395753 0.671021
O O13 0.481871 0.364660 0.732483
O O14 0.482051 0.447773 0.617825
O O15 0.750000 0.340598 0.798168
O O16 0.494874 0.250000 0.811104
O O17 0.250000 0.010226 0.424961
O O18 0.500000 0.000000 0.500000
O O19 0.250000 0.164171 0.183200
O O20 0.983746 0.250000 0.178913
O O21 0.049253 0.158608 0.090551
O O22 0.750000 0.126954 0.049485
#
# Coordination Sequence:
#
# PCOD9449799 Si02
#       8
#     8   8   8   8   8   8   8   8
#     4   9  18  34  54  75 102 136 173 211 255 311
#     4   9  18  33  54  77 101 131 166 208 262 320
#     4  11  21  32  51  78 104 130 165 210 257 306
#     4   9  18  34  55  77 103 136 172 208 250 305
#     4   9  17  31  54  80 101 127 169 217 261 307
#     4   9  18  32  51  76 104 137 174 208 247 297
#     4  11  23  36  49  67  97 137 173 204 248 307
#     4  10  20  33  51  75 101 130 169 216 259 306
#
# _framework density 20.845739999999999
#
# number of rings (size 3 to 8) (size 9 to 14) (size 15 to 20)
#    0.000    2.375    0.000    3.750    0.000    6.750 
#    0.000    1.875    0.000    2.250    0.000    0.000 
#    0.000    0.000    0.000    0.000    0.000    0.000 
#
# Total GULP energy -356878.185116 kJ/mol
# GULP energy per Si atom -5576.221642 kJ/mol
# Density = 2.079829 g / cm^3
# Si number density = 20.845740 Si / 1000 Ang^3
#
#
#
# Elastic Constant Matrix: (Units=GPa)
#
#
# Indices 1 2 3 4 5 6 
#
# 1 27.4975 -0.7996 3.4442 0.0000 0.0000 0.0000
# 2 -0.7996 45.9711 25.4747 0.0000 0.0000 0.0000
# 3 3.4442 25.4747 128.9667 0.0000 0.0000 0.0000
# 4 0.0000 0.0000 0.0000 21.9062 0.0000 0.0000
# 5 0.0000 0.0000 0.0000 0.0000 23.0835 0.0000
# 6 0.0000 0.0000 0.0000 0.0000 0.0000 -5.4779
#
#
#
# Elastic Compliance Matrix: (Units=1/GPa)
#
#
# Indices 1 2 3 4 5 6 
#
# 1 0.036560 0.001322 -0.001237 0.000000 0.000000 0.000000
# 2 0.001322 0.024474 -0.004870 0.000000 0.000000 0.000000
# 3 -0.001237 -0.004870 0.008749 0.000000 0.000000 0.000000
# 4 0.000000 0.000000 0.000000 0.045649 0.000000 0.000000
# 5 0.000000 0.000000 0.000000 0.000000 0.043321 0.000000
# 6 0.000000 0.000000 0.000000 0.000000 0.000000 -0.182551
#
#
# Mechanical properties :
#
#
# Convention : Reuss Voigt Hill
#
# Bulk Modulus (GPa) = 16.60785 28.74156 22.67470
# Shear Modulus (GPa) = 855.55127 19.52344 437.53736
#
# Velocity S-wave (km/s) = 20.28081 3.06366 14.50340
# Velocity P-wave (km/s) = 23.58812 5.13150 17.06944
#
# Compressibility (1/GPa) = 0.06021250
#
# Stress axis : x y z
#
# Youngs Moduli (GPa) = 27.35206 40.85920 114.30022
#
# Poissons Ratio (x) = -0.05400 0.14144
# Poissons Ratio (y) = -0.03615 0.55661
# Poissons Ratio (z) = 0.03385 0.19897
#
# Static dielectric constant tensor:
#      x y z
#    x 1.736240 0.000000 0.000000 
#    y 0.000000 1.746140 0.000000 
#    z 0.000000 0.000000 1.787050 
# 
# From -- ./inp_files/29618.got.cif
#   From: 2010.05.17/outbox.cif.g08.bks.cpg/sg59_15_cif.got.tgz:29618.got - 2010.06.03 14:40:33.
