data_PCOD9449735
_publ_section_title
;
Structure prediction by ZEFSAII (Michael W. Deem and Ramdas Pophale) SiO2 
 PCOD9449735
Probable space group: P M M N
;
_chemical_formula_sum "Si O2"
_cell_formula_units_Z 56
_cell_length_a 9.517666
_cell_length_b 15.130777
_cell_length_c 19.051568
_cell_angle_alpha 90.000000
_cell_angle_beta 90.000000
_cell_angle_gamma 90.000000
_cell_volume 2743.610246
_symmetry_space_group_name_H-M "P M M N"
_symmetry_group_IT_number 59
_space_group.IT_coordinate_system_code '2'
_symmetry_cell_setting 'orthorhombic'
loop_
_space_group_symop_operation_xyz
x,y,z
1/2-x,1/2-y,z
1/2+x,-y,-z
-x,1/2+y,-z
-x,-y,-z
1/2+x,1/2+y,-z
1/2-x,y,z
x,1/2-y,z
loop_
_atom_site_type_symbol
_atom_site_label
_atom_site_fract_x
_atom_site_fract_y
_atom_site_fract_z
Si Si1 0.409870 0.606294 0.139806
Si Si2 0.920504 0.594466 0.006377
Si Si3 0.086543 0.142348 0.568211
Si Si4 0.414057 0.642290 0.565352
Si Si5 0.909725 0.644094 0.276148
Si Si6 0.409636 0.856150 0.718720
Si Si7 0.406425 0.105660 0.146455
O O1 0.250000 0.640481 0.135581
O O2 0.485141 0.624775 0.213367
O O3 0.400264 0.499980 0.136795
O O4 0.508132 0.636690 0.075054
O O5 0.250000 0.414755 0.986018
O O6 0.947130 0.640295 0.930985
O O7 0.000000 0.500000 0.000000
O O8 0.250000 0.119626 0.559540
O O9 0.077512 0.250000 0.567788
O O10 0.043699 0.112422 0.646459
O O11 0.997584 0.109847 0.502314
O O12 0.250000 0.618635 0.560671
O O13 0.420935 0.750000 0.564008
O O14 0.466836 0.613806 0.642621
O O15 0.750000 0.611683 0.262132
O O16 0.900761 0.750000 0.280963
O O17 0.250000 0.889190 0.725086
O O18 0.404027 0.750000 0.714909
O O19 0.494324 0.877885 0.788183
O O20 0.250000 0.138373 0.162937
#
# Coordination Sequence:
#
# PCOD9449735 Si02
#       7
#     8   8   8   8   8   8   8
#     4  10  20  33  50  73  97 122 158 198 235 281
#     4   9  17  31  50  71  94 121 157 198 236 277
#     4   8  14  25  42  65  91 119 153 190 227 272
#     4   8  14  25  41  63  91 120 151 188 228 270
#     4   9  18  32  49  71  99 127 156 193 237 283
#     4   9  18  31  47  70  98 125 155 192 233 278
#     4   9  19  33  49  71  95 120 154 194 233 276
#
# _framework density 20.411062000000001
#
# number of rings (size 3 to 8) (size 9 to 14) (size 15 to 20)
#    0.000    3.143    0.000    3.429    0.000    5.143 
#    0.000    3.571    0.000    1.714    0.000    0.000 
#    0.000    0.000    0.000    0.000    0.000    0.000 
#
# Total GULP energy -312007.367782 kJ/mol
# GULP energy per Si atom -5571.560139 kJ/mol
# Density = 2.036461 g / cm^3
# Si number density = 20.411062 Si / 1000 Ang^3
#
#
#
# Elastic Constant Matrix: (Units=GPa)
#
#
# Indices 1 2 3 4 5 6 
#
# 1 114.2364 4.2398 130.8365 0.0000 0.0000 0.0000
# 2 4.2398 41.8001 7.2651 0.0000 0.0000 0.0000
# 3 130.8365 7.2651 253.9510 0.0000 0.0000 0.0000
# 4 0.0000 0.0000 0.0000 22.9816 0.0000 0.0000
# 5 0.0000 0.0000 0.0000 0.0000 43.6317 0.0000
# 6 0.0000 0.0000 0.0000 0.0000 0.0000 13.3958
#
#
#
# Elastic Compliance Matrix: (Units=1/GPa)
#
#
# Indices 1 2 3 4 5 6 
#
# 1 0.021357 -0.000255 -0.010996 0.000000 0.000000 0.000000
# 2 -0.000255 0.024046 -0.000556 0.000000 0.000000 0.000000
# 3 -0.010996 -0.000556 0.009619 0.000000 0.000000 0.000000
# 4 0.000000 0.000000 0.000000 0.043513 0.000000 0.000000
# 5 0.000000 0.000000 0.000000 0.000000 0.022919 0.000000
# 6 0.000000 0.000000 0.000000 0.000000 0.000000 0.074650
#
#
# Mechanical properties :
#
#
# Convention : Reuss Voigt Hill
#
# Bulk Modulus (GPa) = 31.84021 77.18558 54.51289
# Shear Modulus (GPa) = 21.72138 33.84491 27.78314
#
# Velocity S-wave (km/s) = 3.26574 4.07647 3.69342
# Velocity P-wave (km/s) = 5.46383 7.74948 6.70477
#
# Compressibility (1/GPa) = 0.03140683
#
# Stress axis : x y z
#
# Youngs Moduli (GPa) = 46.82301 41.58695 103.96281
#
# Poissons Ratio (x) = 0.01061 1.14317
# Poissons Ratio (y) = 0.01195 0.05785
# Poissons Ratio (z) = 0.51486 0.02314
#
# Static dielectric constant tensor:
#      x y z
#    x 1.919540 0.000000 0.000000 
#    y 0.000000 1.802960 0.000000 
#    z 0.000000 0.000000 1.761040 
# 
# From -- ./inp_files/26100.got.cif
#   From: 2010.05.17/outbox.cif.g08.bks.cpg/sg59_14_cif.got.tgz:26100.got - 2010.06.03 14:40:33.
