data_PCOD9449209
_publ_section_title
;
Structure prediction by ZEFSAII (Michael W. Deem and Ramdas Pophale) SiO2 
 PCOD9449209
Probable space group: P M M N
;
_chemical_formula_sum "Si O2"
_cell_formula_units_Z 64
_cell_length_a 7.880310
_cell_length_b 19.295325
_cell_length_c 20.485481
_cell_angle_alpha 90.000000
_cell_angle_beta 90.000000
_cell_angle_gamma 90.000000
_cell_volume 3114.881763
_symmetry_space_group_name_H-M "P M M N"
_symmetry_group_IT_number 59
_space_group.IT_coordinate_system_code '2'
_symmetry_cell_setting 'orthorhombic'
loop_
_space_group_symop_operation_xyz
x,y,z
1/2-x,1/2-y,z
1/2+x,-y,-z
-x,1/2+y,-z
-x,-y,-z
1/2+x,1/2+y,-z
1/2-x,y,z
x,1/2-y,z
loop_
_atom_site_type_symbol
_atom_site_label
_atom_site_fract_x
_atom_site_fract_y
_atom_site_fract_z
Si Si1 0.951636 0.421246 0.982670
Si Si2 0.545024 0.434090 0.215313
Si Si3 0.455870 0.171366 0.712325
Si Si4 0.546369 0.915799 0.165874
Si Si5 0.452532 0.573775 0.408087
Si Si6 0.047776 0.424067 0.366170
Si Si7 0.041915 0.670559 0.896610
Si Si8 0.951926 0.172166 0.478236
O O1 0.750000 0.417522 0.985291
O O2 0.004886 0.403459 0.909328
O O3 0.017336 0.369337 0.038346
O O4 0.000000 0.500000 0.000000
O O5 0.750000 0.435678 0.212934
O O6 0.482740 0.508607 0.188943
O O7 0.494216 0.422932 0.289842
O O8 0.487981 0.373896 0.166227
O O9 0.250000 0.171583 0.711190
O O10 0.514314 0.250000 0.701176
O O11 0.512729 0.141499 0.782344
O O12 0.515728 0.119425 0.656237
O O13 0.750000 0.917870 0.170766
O O14 0.250000 0.566731 0.416932
O O15 0.521017 0.496354 0.396758
O O16 0.522759 0.617127 0.469284
O O17 0.250000 0.423830 0.372937
O O18 0.978993 0.359558 0.406925
O O19 0.250000 0.670533 0.897033
O O20 0.986560 0.750000 0.894603
O O21 0.750000 0.176356 0.489898
O O22 0.021460 0.250000 0.485516
#
# Coordination Sequence:
#
# PCOD9449209 Si02
#       8
#     8   8   8   8   8   8   8   8
#     4  11  21  35  58  85 112 146 187 233 285 340
#     4  10  19  36  60  82 109 151 192 231 282 340
#     4  10  21  36  56  83 116 153 189 230 285 344
#     4  10  20  36  56  82 113 147 188 230 276 337
#     4  10  21  38  60  86 115 150 191 237 284 340
#     4  11  23  37  58  89 119 146 187 241 293 342
#     4   9  19  36  57  82 110 143 190 239 280 329
#     4  10  22  40  60  82 112 153 196 235 284 346
#
# _framework density 20.546527000000001
#
# number of rings (size 3 to 8) (size 9 to 14) (size 15 to 20)
#    0.000    1.875    2.500    1.500    0.000    4.000 
#    0.000    1.250    0.000    2.625    0.000    0.000 
#    0.000    0.000    0.000    0.000    0.000    0.000 
#
# Total GULP energy -357555.160333 kJ/mol
# GULP energy per Si atom -5586.799380 kJ/mol
# Density = 2.049976 g / cm^3
# Si number density = 20.546527 Si / 1000 Ang^3
#
#
#
# Elastic Constant Matrix: (Units=GPa)
#
#
# Indices 1 2 3 4 5 6 
#
# 1 14.7899 -2.2199 -6.6524 0.0000 0.0000 0.0000
# 2 -2.2199 84.6616 28.7282 0.0000 0.0000 0.0000
# 3 -6.6524 28.7282 115.0072 0.0000 0.0000 0.0000
# 4 0.0000 0.0000 0.0000 31.2280 0.0000 0.0000
# 5 0.0000 0.0000 0.0000 0.0000 17.4794 0.0000
# 6 0.0000 0.0000 0.0000 0.0000 0.0000 8.9716
#
#
#
# Elastic Compliance Matrix: (Units=1/GPa)
#
#
# Indices 1 2 3 4 5 6 
#
# 1 0.069439 0.000500 0.003892 0.000000 0.000000 0.000000
# 2 0.000500 0.012909 -0.003196 0.000000 0.000000 0.000000
# 3 0.003892 -0.003196 0.009718 0.000000 0.000000 0.000000
# 4 0.000000 0.000000 0.000000 0.032023 0.000000 0.000000
# 5 0.000000 0.000000 0.000000 0.000000 0.057210 0.000000
# 6 0.000000 0.000000 0.000000 0.000000 0.000000 0.111462
#
#
# Mechanical properties :
#
#
# Convention : Reuss Voigt Hill
#
# Bulk Modulus (GPa) = 10.58659 28.24117 19.41388
# Shear Modulus (GPa) = 15.53490 24.50933 20.02212
#
# Velocity S-wave (km/s) = 2.75268 3.45754 3.12505
# Velocity P-wave (km/s) = 3.90726 5.45108 4.74241
#
# Compressibility (1/GPa) = 0.09445910
#
# Stress axis : x y z
#
# Youngs Moduli (GPa) = 14.40111 77.46384 102.89658
#
# Poissons Ratio (x) = -0.03875 -0.40044
# Poissons Ratio (y) = -0.00720 0.32883
# Poissons Ratio (z) = -0.05604 0.24755
#
# Static dielectric constant tensor:
#      x y z
#    x 1.753520 0.000000 0.000000 
#    y 0.000000 1.720870 0.000000 
#    z 0.000000 0.000000 1.700020 
# 
# From -- ./inp_files/26174.got.cif
#   From: 2010.05.17/outbox.cif.g08.bks.cpg/sg59_14_cif.got.tgz:26174.got - 2010.06.03 14:40:33.
