data_PCOD9449692
_publ_section_title
;
Structure prediction by ZEFSAII (Michael W. Deem and Ramdas Pophale) SiO2 
 PCOD9449692
Probable space group: P M M N
;
_chemical_formula_sum "Si O2"
_cell_formula_units_Z 48
_cell_length_a 14.794274
_cell_length_b 9.527108
_cell_length_c 15.986190
_cell_angle_alpha 90.000000
_cell_angle_beta 90.000000
_cell_angle_gamma 90.000000
_cell_volume 2253.199866
_symmetry_space_group_name_H-M "P M M N"
_symmetry_group_IT_number 59
_space_group.IT_coordinate_system_code '2'
_symmetry_cell_setting 'orthorhombic'
loop_
_space_group_symop_operation_xyz
x,y,z
1/2-x,1/2-y,z
1/2+x,-y,-z
-x,1/2+y,-z
-x,-y,-z
1/2+x,1/2+y,-z
1/2-x,y,z
x,1/2-y,z
loop_
_atom_site_type_symbol
_atom_site_label
_atom_site_fract_x
_atom_site_fract_y
_atom_site_fract_z
Si Si1 0.612414 0.906769 0.671048
Si Si2 0.094580 0.417615 0.513267
Si Si3 0.861060 0.590014 0.984087
Si Si4 0.643518 0.406145 0.829185
Si Si5 0.142151 0.591043 0.858629
Si Si6 0.605384 0.089050 0.329262
O O1 0.642321 0.750000 0.696632
O O2 0.643656 0.934467 0.576104
O O3 0.503444 0.904505 0.667414
O O4 0.636771 0.020983 0.739319
O O5 0.080622 0.250000 0.525218
O O6 0.136577 0.489438 0.595284
O O7 0.000000 0.500000 0.500000
O O8 0.750000 0.592930 0.983559
O O9 0.892041 0.750000 0.983557
O O10 0.892414 0.507257 0.901655
O O11 0.890509 0.508087 0.067282
O O12 0.750000 0.392562 0.847249
O O13 0.603212 0.250000 0.830014
O O14 0.250000 0.601443 0.870065
O O15 0.104499 0.750000 0.863837
O O16 0.127644 0.538704 0.764141
O O17 0.638774 0.250000 0.338752
#
# Coordination Sequence:
#
# PCOD9449692 Si02
#       6
#     8   8   8   8   8   8
#     4   9  18  32  49  70  96 126 159 195 236 281
#     4   9  17  30  49  71  95 126 162 197 234 280
#     4   9  17  30  49  71  95 125 159 194 234 283
#     4  10  20  33  50  72  95 121 157 199 240 284
#     4   9  17  31  51  73  98 128 160 195 235 278
#     4   9  18  32  50  73 100 128 159 196 236 279
#
# _framework density 21.303038000000001
#
# number of rings (size 3 to 8) (size 9 to 14) (size 15 to 20)
#    0.000    2.833    0.000    2.500    0.000    7.000 
#    0.000    1.667    0.000    3.000    0.000    0.000 
#    0.000    0.000    0.000    0.000    0.000    0.000 
#
# Total GULP energy -267800.703536 kJ/mol
# GULP energy per Si atom -5579.181324 kJ/mol
# Density = 2.125455 g / cm^3
# Si number density = 21.303038 Si / 1000 Ang^3
#
#
#
# Elastic Constant Matrix: (Units=GPa)
#
#
# Indices 1 2 3 4 5 6 
#
# 1 44.1227 2.0685 -6.9719 0.0000 0.0000 0.0000
# 2 2.0685 167.0029 131.6259 0.0000 0.0000 0.0000
# 3 -6.9719 131.6259 185.7524 0.0000 0.0000 0.0000
# 4 0.0000 0.0000 0.0000 35.3676 0.0000 0.0000
# 5 0.0000 0.0000 0.0000 0.0000 20.9182 0.0000
# 6 0.0000 0.0000 0.0000 0.0000 0.0000 4.1718
#
#
#
# Elastic Compliance Matrix: (Units=1/GPa)
#
#
# Indices 1 2 3 4 5 6 
#
# 1 0.023151 -0.002201 0.002428 0.000000 0.000000 0.000000
# 2 -0.002201 0.013772 -0.009842 0.000000 0.000000 0.000000
# 3 0.002428 -0.009842 0.012448 0.000000 0.000000 0.000000
# 4 0.000000 0.000000 0.000000 0.028274 0.000000 0.000000
# 5 0.000000 0.000000 0.000000 0.000000 0.047805 0.000000
# 6 0.000000 0.000000 0.000000 0.000000 0.000000 0.239704
#
#
# Mechanical properties :
#
#
# Convention : Reuss Voigt Hill
#
# Bulk Modulus (GPa) = 33.17453 72.25810 52.71632
# Shear Modulus (GPa) = 12.67651 30.10188 21.38919
#
# Velocity S-wave (km/s) = 2.44202 3.76311 3.17210
# Velocity P-wave (km/s) = 4.85364 7.27146 6.18191
#
# Compressibility (1/GPa) = 0.03014361
#
# Stress axis : x y z
#
# Youngs Moduli (GPa) = 43.19481 72.61150 80.33130
#
# Poissons Ratio (x) = 0.15980 -0.19507
# Poissons Ratio (y) = 0.09506 0.79058
# Poissons Ratio (z) = -0.10489 0.71461
#
# Static dielectric constant tensor:
#      x y z
#    x 1.825930 0.000000 0.000000 
#    y 0.000000 1.750670 0.000000 
#    z 0.000000 0.000000 1.769940 
# 
# From -- ./inp_files/20473.got.cif
#   From: 2010.05.17/outbox.cif.g08.bks.cpg/sg59_11_cif.got.tgz:20473.got - 2010.06.03 14:40:33.
