data_PCOD9449684
_publ_section_title
;
Structure prediction by ZEFSAII (Michael W. Deem and Ramdas Pophale) SiO2 
 PCOD9449684
Probable space group: P M M N
;
_chemical_formula_sum "Si O2"
_cell_formula_units_Z 64
_cell_length_a 14.392072
_cell_length_b 9.580902
_cell_length_c 21.080160
_cell_angle_alpha 90.000000
_cell_angle_beta 90.000000
_cell_angle_gamma 90.000000
_cell_volume 2906.722844
_symmetry_space_group_name_H-M "P M M N"
_symmetry_group_IT_number 59
_space_group.IT_coordinate_system_code '2'
_symmetry_cell_setting 'orthorhombic'
loop_
_space_group_symop_operation_xyz
x,y,z
1/2-x,1/2-y,z
1/2+x,-y,-z
-x,1/2+y,-z
-x,-y,-z
1/2+x,1/2+y,-z
1/2-x,y,z
x,1/2-y,z
loop_
_atom_site_type_symbol
_atom_site_label
_atom_site_fract_x
_atom_site_fract_y
_atom_site_fract_z
Si Si1 0.142688 0.907132 0.817191
Si Si2 0.863318 0.089293 0.418495
Si Si3 0.363576 0.410812 0.459360
Si Si4 0.136846 0.589519 0.339553
Si Si5 0.137271 0.588794 0.194735
Si Si6 0.863650 0.908726 0.296660
Si Si7 0.599421 0.592802 0.926846
Si Si8 0.617287 0.091622 0.041299
O O1 0.250000 0.890475 0.797712
O O2 0.100529 0.750000 0.816607
O O3 0.144911 0.960277 0.889057
O O4 0.102957 0.015964 0.767409
O O5 0.750000 0.091993 0.418812
O O6 0.894081 0.250000 0.417206
O O7 0.892240 0.006209 0.481336
O O8 0.890761 0.002704 0.356388
O O9 0.250000 0.410132 0.459377
O O10 0.392939 0.250000 0.465542
O O11 0.393946 0.482898 0.393782
O O12 0.250000 0.588528 0.340387
O O13 0.109504 0.750000 0.353614
O O14 0.110015 0.554152 0.267256
O O15 0.250000 0.583436 0.192265
O O16 0.109940 0.750000 0.182093
O O17 0.101743 0.486981 0.139998
O O18 0.750000 0.902466 0.296396
O O19 0.896614 0.750000 0.301479
O O20 0.635584 0.750000 0.920642
O O21 0.493737 0.600715 0.951241
O O22 0.645834 0.502209 0.982361
O O23 0.650626 0.250000 0.033197
#
# Coordination Sequence:
#
# PCOD9449684 Si02
#       8
#     8   8   8   8   8   8   8   8
#     4   9  17  30  48  67  87 116 153 187 221 268
#     4   9  15  22  33  49  73 110 152 185 214 258
#     4   9  15  21  31  50  77 109 144 182 223 263
#     4   8  14  25  39  55  78 110 146 181 219 265
#     4   9  18  32  49  68  92 123 156 190 230 277
#     4   9  16  25  37  56  84 113 141 180 228 269
#     4  10  20  33  50  71  94 120 151 190 232 272
#     4   9  19  35  51  68  93 123 153 186 227 276
#
# _framework density 22.017921000000001
#
# number of rings (size 3 to 8) (size 9 to 14) (size 15 to 20)
#    0.000    3.000    0.000    2.250    0.000    6.750 
#    0.000    2.500    0.000    0.000    0.000    0.000 
#    0.000    1.000    0.000    3.000    0.000    6.375 
#
# Total GULP energy -357398.838038 kJ/mol
# GULP energy per Si atom -5584.356844 kJ/mol
# Density = 2.196781 g / cm^3
# Si number density = 22.017921 Si / 1000 Ang^3
#
#
#
# Elastic Constant Matrix: (Units=GPa)
#
#
# Indices 1 2 3 4 5 6 
#
# 1 46.4586 -1.6572 -8.8120 0.0000 0.0000 0.0000
# 2 -1.6572 194.4062 153.9956 0.0000 0.0000 0.0000
# 3 -8.8120 153.9956 205.2984 0.0000 0.0000 0.0000
# 4 0.0000 0.0000 0.0000 102.7346 0.0000 0.0000
# 5 0.0000 0.0000 0.0000 0.0000 19.9976 0.0000
# 6 0.0000 0.0000 0.0000 0.0000 0.0000 -19.9032
#
#
#
# Elastic Compliance Matrix: (Units=1/GPa)
#
#
# Indices 1 2 3 4 5 6 
#
# 1 0.021849 -0.001372 0.001967 0.000000 0.000000 0.000000
# 2 -0.001372 0.012761 -0.009631 0.000000 0.000000 0.000000
# 3 0.001967 -0.009631 0.012180 0.000000 0.000000 0.000000
# 4 0.000000 0.000000 0.000000 0.009734 0.000000 0.000000
# 5 0.000000 0.000000 0.000000 0.000000 0.050006 0.000000
# 6 0.000000 0.000000 0.000000 0.000000 0.000000 -0.050243
#
#
# Mechanical properties :
#
#
# Convention : Reuss Voigt Hill
#
# Bulk Modulus (GPa) = 34.82201 81.46844 58.14523
# Shear Modulus (GPa) = 59.57219 40.74158 50.15689
#
# Velocity S-wave (km/s) = 5.20720 4.30627 4.77802
# Velocity P-wave (km/s) = 7.21131 7.86172 7.54353
#
# Compressibility (1/GPa) = 0.02871747
#
# Stress axis : x y z
#
# Youngs Moduli (GPa) = 45.76939 78.36081 82.10249
#
# Poissons Ratio (x) = 0.10748 -0.16147
# Poissons Ratio (y) = 0.06278 0.79076
# Poissons Ratio (z) = -0.09001 0.75472
#
# Static dielectric constant tensor:
#      x y z
#    x 1.909140 0.000000 0.000000 
#    y 0.000000 1.770160 0.000000 
#    z 0.000000 0.000000 1.758310 
# 
# From -- ./inp_files/30667.got.cif
#   From: 2010.05.17/outbox.cif.g08.bks.cpg/sg59_16_cif.got.tgz:30667.got - 2010.06.03 14:40:33.
