data_PCOD9449317
_publ_section_title
;
Structure prediction by ZEFSAII (Michael W. Deem and Ramdas Pophale) SiO2 
 PCOD9449317
Probable space group: P M M N
;
_chemical_formula_sum "Si O2"
_cell_formula_units_Z 56
_cell_length_a 7.363823
_cell_length_b 14.483324
_cell_length_c 22.418719
_cell_angle_alpha 90.000000
_cell_angle_beta 90.000000
_cell_angle_gamma 90.000000
_cell_volume 2391.015441
_symmetry_space_group_name_H-M "P M M N"
_symmetry_group_IT_number 59
_space_group.IT_coordinate_system_code '2'
_symmetry_cell_setting 'orthorhombic'
loop_
_space_group_symop_operation_xyz
x,y,z
1/2-x,1/2-y,z
1/2+x,-y,-z
-x,1/2+y,-z
-x,-y,-z
1/2+x,1/2+y,-z
1/2-x,y,z
x,1/2-y,z
loop_
_atom_site_type_symbol
_atom_site_label
_atom_site_fract_x
_atom_site_fract_y
_atom_site_fract_z
Si Si1 0.960327 0.457234 0.283304
Si Si2 0.469988 0.644077 0.338950
Si Si3 0.471643 0.641618 0.598774
Si Si4 0.531526 0.144008 0.037707
Si Si5 0.526703 0.466880 0.153729
Si Si6 0.536959 0.137563 0.529936
Si Si7 0.036825 0.353210 0.904497
O O1 0.750000 0.428404 0.282473
O O2 0.038886 0.411677 0.343014
O O3 0.035514 0.433136 0.218377
O O4 0.969838 0.567461 0.292371
O O5 0.250000 0.644622 0.340456
O O6 0.527147 0.750000 0.327886
O O7 0.537518 0.612881 0.405022
O O8 0.250000 0.636478 0.596772
O O9 0.517669 0.750000 0.603783
O O10 0.536639 0.605196 0.534002
O O11 0.750000 0.143012 0.038934
O O12 0.469359 0.250000 0.039996
O O13 0.468475 0.091442 0.096383
O O14 0.478512 0.108852 0.972189
O O15 0.750000 0.465919 0.154473
O O16 0.464837 0.571262 0.140857
O O17 0.750000 0.114394 0.531024
O O18 0.525276 0.250000 0.528190
O O19 0.250000 0.345224 0.892297
O O20 0.957919 0.250000 0.902424
#
# Coordination Sequence:
#
# PCOD9449317 Si02
#       7
#     8   8   8   8   8   8   8
#     4  10  20  31  46  71  97 123 158 193 226 270
#     4   9  18  33  50  66  89 123 159 194 235 282
#     4   8  14  26  45  69  95 121 153 194 234 274
#     4   9  17  30  49  71  92 114 144 184 225 261
#     4   9  18  31  45  65  95 125 148 174 218 273
#     4   7  11  23  44  66  87 116 153 190 232 280
#     4   9  17  30  48  67  87 115 150 183 218 263
#
# _framework density 23.421012999999999
#
# number of rings (size 3 to 8) (size 9 to 14) (size 15 to 20)
#    0.000    3.286    0.000    2.143    0.000    2.000 
#    0.000    5.714    0.000    2.143    0.000    2.000 
#    0.000    0.000    0.000    0.000    0.000    0.000 
#
# Total GULP energy -312559.075368 kJ/mol
# GULP energy per Si atom -5581.412060 kJ/mol
# Density = 2.336771 g / cm^3
# Si number density = 23.421013 Si / 1000 Ang^3
#
#
#
# Elastic Constant Matrix: (Units=GPa)
#
#
# Indices 1 2 3 4 5 6 
#
# 1 87.5688 -7.5917 -4.2656 0.0000 0.0000 0.0000
# 2 -7.5917 29.3275 10.0359 0.0000 0.0000 0.0000
# 3 -4.2656 10.0359 82.7427 0.0000 0.0000 0.0000
# 4 0.0000 0.0000 0.0000 17.9554 0.0000 0.0000
# 5 0.0000 0.0000 0.0000 0.0000 -50.8965 0.0000
# 6 0.0000 0.0000 0.0000 0.0000 0.0000 2.7998
#
#
#
# Elastic Compliance Matrix: (Units=1/GPa)
#
#
# Indices 1 2 3 4 5 6 
#
# 1 0.011687 0.002941 0.000246 0.000000 0.000000 0.000000
# 2 0.002941 0.036314 -0.004253 0.000000 0.000000 0.000000
# 3 0.000246 -0.004253 0.012614 0.000000 0.000000 0.000000
# 4 0.000000 0.000000 0.000000 0.055693 0.000000 0.000000
# 5 0.000000 0.000000 0.000000 0.000000 -0.019648 0.000000
# 6 0.000000 0.000000 0.000000 0.000000 0.000000 0.357169
#
#
# Mechanical properties :
#
#
# Convention : Reuss Voigt Hill
#
# Bulk Modulus (GPa) = 17.09902 21.77734 19.43818
# Shear Modulus (GPa) = 10.51621 7.40245 8.95933
#
# Velocity S-wave (km/s) = 2.12128 1.77974 1.95797
# Velocity P-wave (km/s) = 3.64915 3.67990 3.66456
#
# Compressibility (1/GPa) = 0.05848289
#
# Stress axis : x y z
#
# Youngs Moduli (GPa) = 85.56852 27.53724 79.27594
#
# Poissons Ratio (x) = -0.08099 -0.01948
# Poissons Ratio (y) = -0.25166 0.33716
# Poissons Ratio (z) = -0.02103 0.11712
#
# Static dielectric constant tensor:
#      x y z
#    x 1.893570 0.000000 0.000000 
#    y 0.000000 1.878810 0.000000 
#    z 0.000000 0.000000 1.874910 
# 
# From -- ./inp_files/29156.got.cif
#   From: 2010.05.17/outbox.cif.g08.bks.cpg/sg59_15_cif.got.tgz:29156.got - 2010.06.03 14:40:33.
