data_PCOD9449298
_publ_section_title
;
Structure prediction by ZEFSAII (Michael W. Deem and Ramdas Pophale) SiO2 
 PCOD9449298
Probable space group: P M M N
;
_chemical_formula_sum "Si O2"
_cell_formula_units_Z 40
_cell_length_a 29.891484
_cell_length_b 11.050320
_cell_length_c 4.990111
_cell_angle_alpha 90.000000
_cell_angle_beta 90.000000
_cell_angle_gamma 90.000000
_cell_volume 1648.285877
_symmetry_space_group_name_H-M "P M M N"
_symmetry_group_IT_number 59
_space_group.IT_coordinate_system_code '2'
_symmetry_cell_setting 'orthorhombic'
loop_
_space_group_symop_operation_xyz
x,y,z
1/2-x,1/2-y,z
1/2+x,-y,-z
-x,1/2+y,-z
-x,-y,-z
1/2+x,1/2+y,-z
1/2-x,y,z
x,1/2-y,z
loop_
_atom_site_type_symbol
_atom_site_label
_atom_site_fract_x
_atom_site_fract_y
_atom_site_fract_z
Si Si1 0.918635 0.612203 0.877877
Si Si2 0.197901 0.116687 0.974576
Si Si3 0.198501 0.538879 0.469710
Si Si4 0.489533 0.883865 0.683097
Si Si5 0.893342 0.460973 0.356236
O O1 0.909424 0.750000 0.802367
O O2 0.906686 0.523596 0.635472
O O3 0.972719 0.607837 0.914696
O O4 0.892009 0.568894 0.137955
O O5 0.250000 0.126891 0.048735
O O6 0.178806 0.250000 0.019757
O O7 0.185840 0.006336 0.173484
O O8 0.198123 0.077940 0.664731
O O9 0.250000 0.588555 0.478723
O O10 0.154236 0.604017 0.591546
O O11 0.497501 0.750000 0.556364
O O12 0.500000 0.000000 0.500000
O O13 0.436777 0.888086 0.745483
#
# Coordination Sequence:
#
# PCOD9449298 Si02
#       5
#     8   8   8   8   8
#     4  10  21  36  56  83 115 149 190 241 295 352
#     4   9  17  29  44  64  95 139 188 235 282 331
#     4  10  20  31  45  68 102 143 186 232 279 330
#     4   9  20  40  64  91 121 154 193 240 296 355
#     4  11  21  35  55  81 112 151 194 237 289 346
#
# _framework density 24.267634999999999
#
# number of rings (size 3 to 8) (size 9 to 14) (size 15 to 20)
#    0.000    2.200    0.000    3.000    0.000    8.000 
#    0.000    8.000    0.000    0.600    0.000    0.000 
#    0.000   11.200    0.000    0.000    0.000    1.600 
#
# Total GULP energy -222741.929479 kJ/mol
# GULP energy per Si atom -5568.548237 kJ/mol
# Density = 2.421240 g / cm^3
# Si number density = 24.267635 Si / 1000 Ang^3
#
#
#
# Elastic Constant Matrix: (Units=GPa)
#
#
# Indices 1 2 3 4 5 6 
#
# 1 172.9762 14.8028 1.9275 0.0000 0.0000 0.0000
# 2 14.8028 79.4558 -4.3295 0.0000 0.0000 0.0000
# 3 1.9275 -4.3295 72.2688 0.0000 0.0000 0.0000
# 4 0.0000 0.0000 0.0000 3.9300 0.0000 0.0000
# 5 0.0000 0.0000 0.0000 0.0000 33.4947 0.0000
# 6 0.0000 0.0000 0.0000 0.0000 0.0000 -5.2776
#
#
#
# Elastic Compliance Matrix: (Units=1/GPa)
#
#
# Indices 1 2 3 4 5 6 
#
# 1 0.005878 -0.001107 -0.000223 0.000000 0.000000 0.000000
# 2 -0.001107 0.012835 0.000798 0.000000 0.000000 0.000000
# 3 -0.000223 0.000798 0.013891 0.000000 0.000000 0.000000
# 4 0.000000 0.000000 0.000000 0.254450 0.000000 0.000000
# 5 0.000000 0.000000 0.000000 0.000000 0.029856 0.000000
# 6 0.000000 0.000000 0.000000 0.000000 0.000000 -0.189481
#
#
# Mechanical properties :
#
#
# Convention : Reuss Voigt Hill
#
# Bulk Modulus (GPa) = 31.70485 38.83359 35.26922
# Shear Modulus (GPa) = 35.96958 27.24944 31.60951
#
# Velocity S-wave (km/s) = 3.85412 3.35456 3.61298
# Velocity P-wave (km/s) = 5.73573 5.57145 5.65419
#
# Compressibility (1/GPa) = 0.03154092
#
# Stress axis : x y z
#
# Youngs Moduli (GPa) = 170.11466 77.90941 71.98901
#
# Poissons Ratio (x) = 0.08627 0.01606
# Poissons Ratio (y) = 0.18837 -0.05748
# Poissons Ratio (z) = 0.03796 -0.06221
#
# Static dielectric constant tensor:
#      x y z
#    x 2.189960 0.000000 0.000000 
#    y 0.000000 1.935600 0.000000 
#    z 0.000000 0.000000 1.864190 
# 
# From -- ./inp_files/4487.got.cif
#   From: 2010.05.17/outbox.cif.g08.bks.cpg/sg59_3_cif.got.tgz:4487.got - 2010.06.03 14:40:33.
