data_PCOD9449762
_publ_section_title
;
Structure prediction by ZEFSAII (Michael W. Deem and Ramdas Pophale) SiO2 
 PCOD9449762
Probable space group: P M M N
;
_chemical_formula_sum "Si O2"
_cell_formula_units_Z 64
_cell_length_a 7.666153
_cell_length_b 28.337161
_cell_length_c 12.556549
_cell_angle_alpha 90.000000
_cell_angle_beta 90.000000
_cell_angle_gamma 90.000000
_cell_volume 2727.747183
_symmetry_space_group_name_H-M "P M M N"
_symmetry_group_IT_number 59
_space_group.IT_coordinate_system_code '2'
_symmetry_cell_setting 'orthorhombic'
loop_
_space_group_symop_operation_xyz
x,y,z
1/2-x,1/2-y,z
1/2+x,-y,-z
-x,1/2+y,-z
-x,-y,-z
1/2+x,1/2+y,-z
1/2-x,y,z
x,1/2-y,z
loop_
_atom_site_type_symbol
_atom_site_label
_atom_site_fract_x
_atom_site_fract_y
_atom_site_fract_z
Si Si1 0.541733 0.099226 0.754104
Si Si2 0.455529 0.303963 0.480127
Si Si3 0.052087 0.451135 0.193270
Si Si4 0.539290 0.593356 0.015191
Si Si5 0.952425 0.350745 0.264811
Si Si6 0.539852 0.483448 0.618707
Si Si7 0.048766 0.800958 0.278019
Si Si8 0.957074 0.802394 0.944936
O O1 0.750000 0.104466 0.740407
O O2 0.509089 0.075817 0.867935
O O3 0.477856 0.068432 0.654939
O O4 0.463331 0.151523 0.763657
O O5 0.250000 0.311982 0.496701
O O6 0.479986 0.250000 0.443890
O O7 0.523239 0.336468 0.386551
O O8 0.545895 0.307621 0.594308
O O9 0.250000 0.468633 0.177078
O O10 0.971824 0.482531 0.286978
O O11 0.056243 0.398060 0.239521
O O12 0.971606 0.441488 0.077242
O O13 0.750000 0.594730 0.005533
O O14 0.475782 0.647908 0.995709
O O15 0.750000 0.360070 0.243919
O O16 0.013404 0.310910 0.181374
O O17 0.500000 0.500000 0.500000
O O18 0.750000 0.483682 0.624831
O O19 0.250000 0.798892 0.242185
O O20 0.967113 0.750000 0.253959
O O21 0.750000 0.801429 0.965396
O O22 0.026464 0.750000 0.975682
#
# Coordination Sequence:
#
# PCOD9449762 Si02
#       8
#     8   8   8   8   8   8   8   8
#     4  10  22  39  59  86 120 152 189 242 298 348
#     4  10  20  33  50  74 106 147 194 239 285 343
#     4   9  20  40  60  81 114 154 193 239 291 344
#     4   9  19  36  58  84 113 151 200 242 286 344
#     4  11  21  31  50  80 113 149 191 241 292 347
#     4  10  23  42  63  89 119 151 191 243 299 355
#     4   9  19  36  55  78 113 154 190 230 286 347
#     4   9  18  34  54  78 114 157 198 242 290 341
#
# _framework density 23.462585000000001
#
# number of rings (size 3 to 8) (size 9 to 14) (size 15 to 20)
#    0.000    2.375    0.000    2.625    1.750    7.000 
#    0.000    0.000    0.000    0.000    0.000    0.000 
#    0.000    0.000    0.000    0.000    0.000    0.000 
#
# Total GULP energy -357221.478936 kJ/mol
# GULP energy per Si atom -5581.585608 kJ/mol
# Density = 2.340918 g / cm^3
# Si number density = 23.462585 Si / 1000 Ang^3
#
#
#
# Elastic Constant Matrix: (Units=GPa)
#
#
# Indices 1 2 3 4 5 6 
#
# 1 49.3327 10.3494 -9.6910 0.0000 0.0000 0.0000
# 2 10.3494 87.1938 61.3414 0.0000 0.0000 0.0000
# 3 -9.6910 61.3414 110.1894 0.0000 0.0000 0.0000
# 4 0.0000 0.0000 0.0000 -12.6115 0.0000 0.0000
# 5 0.0000 0.0000 0.0000 0.0000 16.7612 0.0000
# 6 0.0000 0.0000 0.0000 0.0000 0.0000 -8.7254
#
#
#
# Elastic Compliance Matrix: (Units=1/GPa)
#
#
# Indices 1 2 3 4 5 6 
#
# 1 0.022827 -0.006775 0.005779 0.000000 0.000000 0.000000
# 2 -0.006775 0.020863 -0.012210 0.000000 0.000000 0.000000
# 3 0.005779 -0.012210 0.016381 0.000000 0.000000 0.000000
# 4 0.000000 0.000000 0.000000 -0.079292 0.000000 0.000000
# 5 0.000000 0.000000 0.000000 0.000000 0.059661 0.000000
# 6 0.000000 0.000000 0.000000 0.000000 0.000000 -0.114609
#
#
# Mechanical properties :
#
#
# Convention : Reuss Voigt Hill
#
# Bulk Modulus (GPa) = 29.70984 41.19062 35.45023
# Shear Modulus (GPa) = -136.84497 11.39928 -62.72285
#
# Velocity S-wave (km/s) = -7.64535 2.20659 -5.17602
# Velocity P-wave (km/s) = 8.07744 4.90775 4.53646
#
# Compressibility (1/GPa) = 0.03365888
#
# Stress axis : x y z
#
# Youngs Moduli (GPa) = 43.80740 47.93259 61.04740
#
# Poissons Ratio (x) = 0.32476 -0.35281
# Poissons Ratio (y) = 0.29681 0.74538
# Poissons Ratio (z) = -0.25318 0.58525
#
# Static dielectric constant tensor:
#      x y z
#    x 1.866920 0.000000 0.000000 
#    y 0.000000 1.963720 0.000000 
#    z 0.000000 0.000000 1.866150 
# 
# From -- ./inp_files/14989.got.cif
#   From: 2010.05.17/outbox.cif.g08.bks.cpg/sg59_8_cif.got.tgz:14989.got - 2010.06.03 14:40:33.
