data_PCOD9449900
_publ_section_title
;
Structure prediction by ZEFSAII (Michael W. Deem and Ramdas Pophale) SiO2 
 PCOD9449900
Probable space group: P M M N
;
_chemical_formula_sum "Si O2"
_cell_formula_units_Z 48
_cell_length_a 8.312209
_cell_length_b 16.380738
_cell_length_c 17.259914
_cell_angle_alpha 90.000000
_cell_angle_beta 90.000000
_cell_angle_gamma 90.000000
_cell_volume 2350.111924
_symmetry_space_group_name_H-M "P M M N"
_symmetry_group_IT_number 59
_space_group.IT_coordinate_system_code '2'
_symmetry_cell_setting 'orthorhombic'
loop_
_space_group_symop_operation_xyz
x,y,z
1/2-x,1/2-y,z
1/2+x,-y,-z
-x,1/2+y,-z
-x,-y,-z
1/2+x,1/2+y,-z
1/2-x,y,z
x,1/2-y,z
loop_
_atom_site_type_symbol
_atom_site_label
_atom_site_fract_x
_atom_site_fract_y
_atom_site_fract_z
Si Si1 0.553207 0.159031 0.185842
Si Si2 0.939098 0.339044 0.830371
Si Si3 0.438805 0.846092 0.493852
Si Si4 0.439464 0.104581 0.672230
Si Si5 0.054323 0.917048 0.654721
Si Si6 0.558683 0.497210 0.087804
O O1 0.750000 0.158161 0.184635
O O2 0.502068 0.250000 0.161795
O O3 0.504091 0.140586 0.274583
O O4 0.496830 0.083459 0.133019
O O5 0.750000 0.340805 0.847148
O O6 0.003217 0.250000 0.855754
O O7 0.967050 0.347343 0.738362
O O8 0.014042 0.418779 0.869377
O O9 0.250000 0.867553 0.482733
O O10 0.447040 0.750000 0.510633
O O11 0.528195 0.864989 0.414307
O O12 0.503458 0.892755 0.569382
O O13 0.250000 0.110413 0.689805
O O14 0.488290 0.009657 0.674984
O O15 0.250000 0.912788 0.651163
O O16 0.750000 0.490750 0.088042
O O17 0.500000 0.500000 0.000000
#
# Coordination Sequence:
#
# PCOD9449900 Si02
#       6
#     8   8   8   8   8   8
#     4   9  17  33  60  90 118 151 194 242 290 348
#     4  11  24  42  64  89 119 160 209 255 303 360
#     4  10  20  33  51  78 112 152 199 245 290 348
#     4  11  21  35  56  83 116 154 198 248 304 359
#     4   9  17  32  54  82 112 148 196 243 291 350
#     4  11  23  41  65  95 127 159 196 242 300 363
#
# _framework density 20.42456
#
# number of rings (size 3 to 8) (size 9 to 14) (size 15 to 20)
#    0.000    1.833    1.667    3.000    0.000    6.333 
#    0.000    2.500    0.000    1.500    0.000    0.000 
#    0.000    0.000    0.000    0.000    0.000    0.000 
#
# Total GULP energy -268100.328194 kJ/mol
# GULP energy per Si atom -5585.423504 kJ/mol
# Density = 2.037807 g / cm^3
# Si number density = 20.424560 Si / 1000 Ang^3
#
#
#
# Elastic Constant Matrix: (Units=GPa)
#
#
# Indices 1 2 3 4 5 6 
#
# 1 15.5814 15.9022 0.4573 0.0000 0.0000 0.0000
# 2 15.9022 125.9852 47.0127 0.0000 0.0000 0.0000
# 3 0.4573 47.0127 107.3965 0.0000 0.0000 0.0000
# 4 0.0000 0.0000 0.0000 8.0978 0.0000 0.0000
# 5 0.0000 0.0000 0.0000 0.0000 21.9793 0.0000
# 6 0.0000 0.0000 0.0000 0.0000 0.0000 18.7751
#
#
#
# Elastic Compliance Matrix: (Units=1/GPa)
#
#
# Indices 1 2 3 4 5 6 
#
# 1 0.075527 -0.011251 0.004604 0.000000 0.000000 0.000000
# 2 -0.011251 0.011163 -0.004839 0.000000 0.000000 0.000000
# 3 0.004604 -0.004839 0.011410 0.000000 0.000000 0.000000
# 4 0.000000 0.000000 0.000000 0.123491 0.000000 0.000000
# 5 0.000000 0.000000 0.000000 0.000000 0.045497 0.000000
# 6 0.000000 0.000000 0.000000 0.000000 0.000000 0.053262
#
#
# Mechanical properties :
#
#
# Convention : Reuss Voigt Hill
#
# Bulk Modulus (GPa) = 13.31073 41.74527 27.52800
# Shear Modulus (GPa) = 13.57349 22.14316 17.85832
#
# Velocity S-wave (km/s) = 2.58072 3.29621 2.96016
# Velocity P-wave (km/s) = 3.92572 5.91352 5.01902
#
# Compressibility (1/GPa) = 0.07512737
#
# Stress axis : x y z
#
# Youngs Moduli (GPa) = 13.24031 89.57982 87.64351
#
# Poissons Ratio (x) = 1.00787 -0.40347
# Poissons Ratio (y) = 0.14897 0.42409
# Poissons Ratio (z) = -0.06095 0.43346
#
# Static dielectric constant tensor:
#      x y z
#    x 1.600770 0.000000 0.000000 
#    y 0.000000 1.741300 0.000000 
#    z 0.000000 0.000000 1.704390 
# 
# From -- ./inp_files/25431.got.cif
#   From: 2010.05.17/outbox.cif.g08.bks.cpg/sg59_13_cif.got.tgz:25431.got - 2010.06.03 14:40:33.
