data_PCOD9449300
_publ_section_title
;
Structure prediction by ZEFSAII (Michael W. Deem and Ramdas Pophale) SiO2 
 PCOD9449300
Probable space group: P M M N
;
_chemical_formula_sum "Si O2"
_cell_formula_units_Z 64
_cell_length_a 14.429593
_cell_length_b 8.855991
_cell_length_c 26.178995
_cell_angle_alpha 90.000000
_cell_angle_beta 90.000000
_cell_angle_gamma 90.000000
_cell_volume 3345.370464
_symmetry_space_group_name_H-M "P M M N"
_symmetry_group_IT_number 59
_space_group.IT_coordinate_system_code '2'
_symmetry_cell_setting 'orthorhombic'
loop_
_space_group_symop_operation_xyz
x,y,z
1/2-x,1/2-y,z
1/2+x,-y,-z
-x,1/2+y,-z
-x,-y,-z
1/2+x,1/2+y,-z
1/2-x,y,z
x,1/2-y,z
loop_
_atom_site_type_symbol
_atom_site_label
_atom_site_fract_x
_atom_site_fract_y
_atom_site_fract_z
Si Si1 0.548902 0.569832 0.275148
Si Si2 0.962973 0.930413 0.077641
Si Si3 0.399993 0.416849 0.413499
Si Si4 0.144179 0.922497 0.513551
Si Si5 0.608947 0.079422 0.375921
Si Si6 0.640948 0.068822 0.174479
Si Si7 0.141799 0.068595 0.028705
Si Si8 0.851610 0.933919 0.694693
O O1 0.544650 0.750000 0.273945
O O2 0.608867 0.515502 0.324367
O O3 0.597253 0.503860 0.225066
O O4 0.443755 0.504337 0.280579
O O5 0.965837 0.750000 0.084408
O O6 0.916210 0.008362 0.126111
O O7 0.898238 0.963116 0.028113
O O8 0.066481 0.991098 0.065730
O O9 0.361595 0.250000 0.423621
O O10 0.407284 0.498884 0.467303
O O11 0.501581 0.405396 0.390105
O O12 0.348536 0.486314 0.364793
O O13 0.250000 0.919295 0.495440
O O14 0.110419 0.750000 0.519280
O O15 0.146103 0.987880 0.570849
O O16 0.646050 0.250000 0.367762
O O17 0.750000 0.029342 0.169807
O O18 0.633755 0.250000 0.177458
O O19 0.250000 0.022316 0.033793
O O20 0.137921 0.250000 0.036023
O O21 0.750000 0.968195 0.717767
O O22 0.861727 0.750000 0.694107
#
# Coordination Sequence:
#
# PCOD9449300 Si02
#       8
#     8   8   8   8   8   8   8   8
#     4  11  23  38  58  84 111 138 177 232 285 332
#     4  10  20  35  58  90 126 160 200 251 295 333
#     4   9  17  30  49  71  96 128 165 206 255 316
#     4  10  20  31  45  68  96 125 160 207 262 319
#     4   9  19  36  52  67  95 134 173 211 259 325
#     4  11  24  42  64  86 111 149 194 237 284 340
#     4   9  18  34  57  87 127 172 209 241 285 340
#     4   9  18  35  58  81 108 143 179 216 266 332
#
# _framework density 19.130915000000002
#
# number of rings (size 3 to 8) (size 9 to 14) (size 15 to 20)
#    0.000    2.250    0.000    3.750    0.000    6.250 
#    0.000    1.875    0.000    3.750    0.000    0.000 
#    0.000    0.000    0.000    0.000    0.000    0.000 
#
# Total GULP energy -356661.376599 kJ/mol
# GULP energy per Si atom -5572.834009 kJ/mol
# Density = 1.908737 g / cm^3
# Si number density = 19.130915 Si / 1000 Ang^3
#
#
#
# Elastic Constant Matrix: (Units=GPa)
#
#
# Indices 1 2 3 4 5 6 
#
# 1 134.7652 45.4940 62.9017 0.0000 0.0000 0.0000
# 2 45.4940 70.1798 64.6768 0.0000 0.0000 0.0000
# 3 62.9017 64.6768 139.8237 0.0000 0.0000 0.0000
# 4 0.0000 0.0000 0.0000 31.8963 0.0000 0.0000
# 5 0.0000 0.0000 0.0000 0.0000 18.8958 0.0000
# 6 0.0000 0.0000 0.0000 0.0000 0.0000 11.8084
#
#
#
# Elastic Compliance Matrix: (Units=1/GPa)
#
#
# Indices 1 2 3 4 5 6 
#
# 1 0.010021 -0.004081 -0.002620 0.000000 0.000000 0.000000
# 2 -0.004081 0.026499 -0.010421 0.000000 0.000000 0.000000
# 3 -0.002620 -0.010421 0.013151 0.000000 0.000000 0.000000
# 4 0.000000 0.000000 0.000000 0.031352 0.000000 0.000000
# 5 0.000000 0.000000 0.000000 0.000000 0.052922 0.000000
# 6 0.000000 0.000000 0.000000 0.000000 0.000000 0.084685
#
#
# Mechanical properties :
#
#
# Convention : Reuss Voigt Hill
#
# Bulk Modulus (GPa) = 64.82845 76.76819 70.79832
# Shear Modulus (GPa) = 19.37851 23.96651 21.67251
#
# Velocity S-wave (km/s) = 3.18613 3.54328 3.36944
# Velocity P-wave (km/s) = 6.89170 7.54683 7.22669
#
# Compressibility (1/GPa) = 0.01542533
#
# Stress axis : x y z
#
# Youngs Moduli (GPa) = 99.78936 37.73724 76.03919
#
# Poissons Ratio (x) = 0.15402 0.19924
# Poissons Ratio (y) = 0.40728 0.79243
# Poissons Ratio (z) = 0.26147 0.39327
#
# Static dielectric constant tensor:
#      x y z
#    x 1.717050 0.000000 0.000000 
#    y 0.000000 1.685510 0.000000 
#    z 0.000000 0.000000 1.668020 
# 
# From -- ./inp_files/32137.got.cif
#   From: 2010.05.17/outbox.cif.g08.bks.cpg/sg59_17_cif.got.tgz:32137.got - 2010.06.03 14:40:33.
