data_PCOD9449487
_publ_section_title
;
Structure prediction by ZEFSAII (Michael W. Deem and Ramdas Pophale) SiO2 
 PCOD9449487
Probable space group: P M M N
;
_chemical_formula_sum "Si O2"
_cell_formula_units_Z 48
_cell_length_a 21.033828
_cell_length_b 8.516239
_cell_length_c 15.749856
_cell_angle_alpha 90.000000
_cell_angle_beta 90.000000
_cell_angle_gamma 90.000000
_cell_volume 2821.257630
_symmetry_space_group_name_H-M "P M M N"
_symmetry_group_IT_number 59
_space_group.IT_coordinate_system_code '2'
_symmetry_cell_setting 'orthorhombic'
loop_
_space_group_symop_operation_xyz
x,y,z
1/2-x,1/2-y,z
1/2+x,-y,-z
-x,1/2+y,-z
-x,-y,-z
1/2+x,1/2+y,-z
1/2-x,y,z
x,1/2-y,z
loop_
_atom_site_type_symbol
_atom_site_label
_atom_site_fract_x
_atom_site_fract_y
_atom_site_fract_z
Si Si1 0.820004 0.063888 0.114298
Si Si2 0.994238 0.933153 0.262076
Si Si3 0.448124 0.938298 0.432728
Si Si4 0.680056 0.560392 0.487647
Si Si5 0.958322 0.938849 0.077712
Si Si6 0.154305 0.067209 0.703194
O O1 0.750000 0.008072 0.083928
O O2 0.823351 0.250000 0.100902
O O3 0.884111 0.989057 0.075910
O O4 0.823247 0.027270 0.215029
O O5 0.012630 0.750000 0.252020
O O6 0.988634 0.999788 0.166980
O O7 0.922162 0.937313 0.296769
O O8 0.036738 0.000898 0.337761
O O9 0.454038 0.750000 0.430852
O O10 0.500000 0.000000 0.500000
O O11 0.378502 0.986709 0.463106
O O12 0.750000 0.520510 0.521489
O O13 0.673040 0.750000 0.488272
O O14 0.676936 0.512428 0.388522
O O15 0.959423 0.750000 0.079831
O O16 0.000000 0.000000 0.000000
O O17 0.172996 0.250000 0.714868
#
# Coordination Sequence:
#
# PCOD9449487 Si02
#       6
#     8   8   8   8   8   8
#     4  10  20  32  48  75 109 138 168 209 256 310
#     4   8  16  31  51  73  99 131 168 207 252 307
#     4  11  20  33  52  74 102 136 178 217 252 301
#     4  10  20  33  48  69 102 141 178 218 265 310
#     4  10  20  36  57  79 104 134 171 215 264 318
#     4   9  16  30  49  69  98 137 174 205 251 312
#
# _framework density 17.01369
#
# number of rings (size 3 to 8) (size 9 to 14) (size 15 to 20)
#    0.000    2.333    1.667    3.000    0.000    3.000 
#    0.000    2.500    0.000    1.000    0.000    2.333 
#    0.000    0.000    0.000    0.000    0.000    0.000 
#
# Total GULP energy -267510.356908 kJ/mol
# GULP energy per Si atom -5573.132436 kJ/mol
# Density = 1.697497 g / cm^3
# Si number density = 17.013690 Si / 1000 Ang^3
#
#
#
# Elastic Constant Matrix: (Units=GPa)
#
#
# Indices 1 2 3 4 5 6 
#
# 1 132.3957 30.7158 78.4334 0.0000 0.0000 0.0000
# 2 30.7158 33.2399 22.5332 0.0000 0.0000 0.0000
# 3 78.4334 22.5332 105.2066 0.0000 0.0000 0.0000
# 4 0.0000 0.0000 0.0000 22.5564 0.0000 0.0000
# 5 0.0000 0.0000 0.0000 0.0000 17.1135 0.0000
# 6 0.0000 0.0000 0.0000 0.0000 0.0000 22.7585
#
#
#
# Elastic Compliance Matrix: (Units=1/GPa)
#
#
# Indices 1 2 3 4 5 6 
#
# 1 0.014902 -0.007299 -0.009546 0.000000 0.000000 0.000000
# 2 -0.007299 0.038769 -0.002862 0.000000 0.000000 0.000000
# 3 -0.009546 -0.002862 0.017235 0.000000 0.000000 0.000000
# 4 0.000000 0.000000 0.000000 0.044333 0.000000 0.000000
# 5 0.000000 0.000000 0.000000 0.000000 0.058433 0.000000
# 6 0.000000 0.000000 0.000000 0.000000 0.000000 0.043940
#
#
# Mechanical properties :
#
#
# Convention : Reuss Voigt Hill
#
# Bulk Modulus (GPa) = 31.75465 59.35634 45.55549
# Shear Modulus (GPa) = 18.68989 21.76300 20.22645
#
# Velocity S-wave (km/s) = 3.31799 3.58040 3.45169
# Velocity P-wave (km/s) = 5.77784 7.21495 6.53601
#
# Compressibility (1/GPa) = 0.03149145
#
# Stress axis : x y z
#
# Youngs Moduli (GPa) = 67.10574 25.79364 58.02119
#
# Poissons Ratio (x) = 0.18826 0.55389
# Poissons Ratio (y) = 0.48980 0.16607
# Poissons Ratio (z) = 0.64061 0.07383
#
# Static dielectric constant tensor:
#      x y z
#    x 1.587930 0.000000 0.000000 
#    y 0.000000 1.578010 0.000000 
#    z 0.000000 0.000000 1.579110 
# 
# From -- ./inp_files/20698.got.cif
#   From: 2010.05.17/outbox.cif.g08.bks.cpg/sg59_11_cif.got.tgz:20698.got - 2010.06.03 14:40:33.
