data_PCOD9449148
_publ_section_title
;
Structure prediction by ZEFSAII (Michael W. Deem and Ramdas Pophale) SiO2 
 PCOD9449148
Probable space group: P M M N
;
_chemical_formula_sum "Si O2"
_cell_formula_units_Z 48
_cell_length_a 20.712877
_cell_length_b 8.924966
_cell_length_c 14.708427
_cell_angle_alpha 90.000000
_cell_angle_beta 90.000000
_cell_angle_gamma 90.000000
_cell_volume 2719.025158
_symmetry_space_group_name_H-M "P M M N"
_symmetry_group_IT_number 59
_space_group.IT_coordinate_system_code '2'
_symmetry_cell_setting 'orthorhombic'
loop_
_space_group_symop_operation_xyz
x,y,z
1/2-x,1/2-y,z
1/2+x,-y,-z
-x,1/2+y,-z
-x,-y,-z
1/2+x,1/2+y,-z
1/2-x,y,z
x,1/2-y,z
loop_
_atom_site_type_symbol
_atom_site_label
_atom_site_fract_x
_atom_site_fract_y
_atom_site_fract_z
Si Si1 0.630234 0.428183 0.242353
Si Si2 0.175498 0.569897 0.554675
Si Si3 0.439634 0.571805 0.053638
Si Si4 0.524067 0.571898 0.759924
Si Si5 0.559681 0.929429 0.554983
Si Si6 0.324374 0.428087 0.942515
O O1 0.641413 0.250000 0.228628
O O2 0.658077 0.469076 0.340957
O O3 0.553176 0.453246 0.241886
O O4 0.661776 0.517761 0.160081
O O5 0.250000 0.532947 0.536201
O O6 0.167356 0.750000 0.546801
O O7 0.125425 0.489922 0.488414
O O8 0.443244 0.750000 0.045880
O O9 0.445547 0.519239 0.157551
O O10 0.500000 0.500000 0.000000
O O11 0.374671 0.511900 0.007195
O O12 0.533997 0.750000 0.775263
O O13 0.552035 0.532048 0.661281
O O14 0.556067 0.750000 0.547327
O O15 0.500000 0.000000 0.500000
O O16 0.250000 0.460368 0.965613
O O17 0.335013 0.250000 0.948782
#
# Coordination Sequence:
#
# PCOD9449148 Si02
#       6
#     8   8   8   8   8   8
#     4  10  19  35  60  87 119 157 194 237 290 348
#     4  10  21  38  59  86 122 159 196 240 292 347
#     4  12  24  39  62  88 117 154 195 241 289 347
#     4  10  21  38  60  88 118 152 196 243 288 341
#     4  11  22  38  61  86 118 155 197 243 289 345
#     4  11  24  40  59  87 122 156 193 240 293 348
#
# _framework density 17.653383999999999
#
# number of rings (size 3 to 8) (size 9 to 14) (size 15 to 20)
#    0.000    1.333    3.333    3.000    0.000    4.333 
#    0.000    0.833    0.000    1.000    0.000    0.000 
#    0.000    0.000    0.000    0.000    0.000    0.000 
#
# Total GULP energy -268325.158586 kJ/mol
# GULP energy per Si atom -5590.107471 kJ/mol
# Density = 1.761320 g / cm^3
# Si number density = 17.653384 Si / 1000 Ang^3
#
#
#
# Elastic Constant Matrix: (Units=GPa)
#
#
# Indices 1 2 3 4 5 6 
#
# 1 135.6483 82.5027 89.7075 0.0000 0.0000 0.0000
# 2 82.5027 88.4400 82.2915 0.0000 0.0000 0.0000
# 3 89.7075 82.2915 146.8193 0.0000 0.0000 0.0000
# 4 0.0000 0.0000 0.0000 35.8791 0.0000 0.0000
# 5 0.0000 0.0000 0.0000 0.0000 16.7594 0.0000
# 6 0.0000 0.0000 0.0000 0.0000 0.0000 29.3918
#
#
#
# Elastic Compliance Matrix: (Units=1/GPa)
#
#
# Indices 1 2 3 4 5 6 
#
# 1 0.017762 -0.013525 -0.003272 0.000000 0.000000 0.000000
# 2 -0.013525 0.033930 -0.010754 0.000000 0.000000 0.000000
# 3 -0.003272 -0.010754 0.014838 0.000000 0.000000 0.000000
# 4 0.000000 0.000000 0.000000 0.027871 0.000000 0.000000
# 5 0.000000 0.000000 0.000000 0.000000 0.059668 0.000000
# 6 0.000000 0.000000 0.000000 0.000000 0.000000 0.034023
#
#
# Mechanical properties :
#
#
# Convention : Reuss Voigt Hill
#
# Bulk Modulus (GPa) = 87.50189 97.76788 92.63488
# Shear Modulus (GPa) = 20.24263 24.16647 22.20455
#
# Velocity S-wave (km/s) = 3.38993 3.70394 3.55040
# Velocity P-wave (km/s) = 8.06203 8.59036 8.33039
#
# Compressibility (1/GPa) = 0.01142832
#
# Stress axis : x y z
#
# Youngs Moduli (GPa) = 56.30058 29.47208 67.39532
#
# Poissons Ratio (x) = 0.39861 0.22051
# Poissons Ratio (y) = 0.76146 0.72477
# Poissons Ratio (z) = 0.18421 0.31694
#
# Static dielectric constant tensor:
#      x y z
#    x 1.578730 0.000000 0.000000 
#    y 0.000000 1.592140 0.000000 
#    z 0.000000 0.000000 1.579800 
# 
# From -- ./inp_files/20465.got.cif
#   From: 2010.05.17/outbox.cif.g08.bks.cpg/sg59_11_cif.got.tgz:20465.got - 2010.06.03 14:40:33.
