data_PCOD9449938
_publ_section_title
;
Structure prediction by ZEFSAII (Michael W. Deem and Ramdas Pophale) SiO2 
 PCOD9449938
Probable space group: P M M N
;
_chemical_formula_sum "Si O2"
_cell_formula_units_Z 56
_cell_length_a 9.250575
_cell_length_b 14.699577
_cell_length_c 22.260445
_cell_angle_alpha 90.000000
_cell_angle_beta 90.000000
_cell_angle_gamma 90.000000
_cell_volume 3026.965060
_symmetry_space_group_name_H-M "P M M N"
_symmetry_group_IT_number 59
_space_group.IT_coordinate_system_code '2'
_symmetry_cell_setting 'orthorhombic'
loop_
_space_group_symop_operation_xyz
x,y,z
1/2-x,1/2-y,z
1/2+x,-y,-z
-x,1/2+y,-z
-x,-y,-z
1/2+x,1/2+y,-z
1/2-x,y,z
x,1/2-y,z
loop_
_atom_site_type_symbol
_atom_site_label
_atom_site_fract_x
_atom_site_fract_y
_atom_site_fract_z
Si Si1 0.584977 0.639090 0.513091
Si Si2 0.921188 0.858274 0.913167
Si Si3 0.074115 0.354438 0.951706
Si Si4 0.577412 0.970277 0.290231
Si Si5 0.078508 0.644979 0.634706
Si Si6 0.424389 0.489097 0.846094
Si Si7 0.081205 0.859782 0.392905
O O1 0.750000 0.606916 0.510934
O O2 0.586564 0.750000 0.511874
O O3 0.507653 0.615344 0.575356
O O4 0.497280 0.609958 0.454304
O O5 0.750000 0.877746 0.908319
O O6 0.939613 0.750000 0.907106
O O7 0.970716 0.883170 0.981123
O O8 0.008569 0.914959 0.864760
O O9 0.250000 0.354639 0.952410
O O10 0.028682 0.250000 0.942220
O O11 0.027145 0.418596 0.897615
O O12 0.750000 0.953482 0.295028
O O13 0.533741 0.959979 0.220978
O O14 0.494761 0.905040 0.335909
O O15 0.550916 0.073663 0.312411
O O16 0.250000 0.642575 0.621178
O O17 0.041073 0.750000 0.649146
O O18 0.250000 0.494454 0.847289
O O19 0.250000 0.883292 0.395181
O O20 0.069146 0.750000 0.389247
#
# Coordination Sequence:
#
# PCOD9449938 Si02
#       7
#     8   8   8   8   8   8   8
#     4   9  17  31  54  81 103 126 164 215 265 308
#     4   9  18  33  53  76 103 137 173 209 256 311
#     4   8  15  30  52  77 104 134 170 212 259 310
#     4  10  22  36  51  76 106 139 177 211 252 305
#     4   9  18  34  53  72 100 136 171 210 257 309
#     4  10  20  33  52  78 105 135 173 216 258 300
#     4  10  21  37  56  77 103 136 172 211 257 307
#
# _framework density 18.500378999999999
#
# number of rings (size 3 to 8) (size 9 to 14) (size 15 to 20)
#    0.000    2.714    0.000    2.143    0.000    5.714 
#    0.000    2.857    0.000    3.000    0.000    0.000 
#    0.000    0.000    0.000    0.000    0.000    0.000 
#
# Total GULP energy -312466.814813 kJ/mol
# GULP energy per Si atom -5579.764550 kJ/mol
# Density = 1.845827 g / cm^3
# Si number density = 18.500379 Si / 1000 Ang^3
#
#
#
# Elastic Constant Matrix: (Units=GPa)
#
#
# Indices 1 2 3 4 5 6 
#
# 1 21.4089 9.5958 8.7358 0.0000 0.0000 0.0000
# 2 9.5958 22.0509 -5.4700 0.0000 0.0000 0.0000
# 3 8.7358 -5.4700 45.1241 0.0000 0.0000 0.0000
# 4 0.0000 0.0000 0.0000 12.6078 0.0000 0.0000
# 5 0.0000 0.0000 0.0000 0.0000 21.9971 0.0000
# 6 0.0000 0.0000 0.0000 0.0000 0.0000 23.9513
#
#
#
# Elastic Compliance Matrix: (Units=1/GPa)
#
#
# Indices 1 2 3 4 5 6 
#
# 1 0.069398 -0.034572 -0.017626 0.000000 0.000000 0.000000
# 2 -0.034572 0.063978 0.014449 0.000000 0.000000 0.000000
# 3 -0.017626 0.014449 0.027325 0.000000 0.000000 0.000000
# 4 0.000000 0.000000 0.000000 0.079316 0.000000 0.000000
# 5 0.000000 0.000000 0.000000 0.000000 0.045461 0.000000
# 6 0.000000 0.000000 0.000000 0.000000 0.000000 0.041751
#
#
# Mechanical properties :
#
#
# Convention : Reuss Voigt Hill
#
# Bulk Modulus (GPa) = 11.73677 12.70078 12.21877
# Shear Modulus (GPa) = 11.59748 16.75938 14.17843
#
# Velocity S-wave (km/s) = 2.50647 3.01307 2.77137
# Velocity P-wave (km/s) = 3.83854 4.35716 4.10605
#
# Compressibility (1/GPa) = 0.08520231
#
# Stress axis : x y z
#
# Youngs Moduli (GPa) = 14.40973 15.63026 36.59668
#
# Poissons Ratio (x) = 0.54037 0.64505
# Poissons Ratio (y) = 0.49817 -0.52877
# Poissons Ratio (z) = 0.25398 -0.22583
#
# Static dielectric constant tensor:
#      x y z
#    x 1.615680 0.000000 0.000000 
#    y 0.000000 1.655240 0.000000 
#    z 0.000000 0.000000 1.611820 
# 
# From -- ./inp_files/28997.got.cif
#   From: 2010.05.17/outbox.cif.g08.bks.cpg/sg59_15_cif.got.tgz:28997.got - 2010.06.03 14:40:33.
