data_PCOD9449531
_publ_section_title
;
Structure prediction by ZEFSAII (Michael W. Deem and Ramdas Pophale) SiO2 
 PCOD9449531
Probable space group: P M M N
;
_chemical_formula_sum "Si O2"
_cell_formula_units_Z 64
_cell_length_a 15.698449
_cell_length_b 14.621064
_cell_length_c 16.044274
_cell_angle_alpha 90.000000
_cell_angle_beta 90.000000
_cell_angle_gamma 90.000000
_cell_volume 3682.610564
_symmetry_space_group_name_H-M "P M M N"
_symmetry_group_IT_number 59
_space_group.IT_coordinate_system_code '2'
_symmetry_cell_setting 'orthorhombic'
loop_
_space_group_symop_operation_xyz
x,y,z
1/2-x,1/2-y,z
1/2+x,-y,-z
-x,1/2+y,-z
-x,-y,-z
1/2+x,1/2+y,-z
1/2-x,y,z
x,1/2-y,z
loop_
_atom_site_type_symbol
_atom_site_label
_atom_site_fract_x
_atom_site_fract_y
_atom_site_fract_z
Si Si1 0.153467 0.641507 0.797714
Si Si2 0.007652 0.024809 0.154380
Si Si3 0.007652 0.524810 0.345620
Si Si4 0.153467 0.358493 0.702286
Si Si5 0.587628 0.854527 0.111389
Si Si6 0.345843 0.642905 0.429330
Si Si7 0.587628 0.145474 0.388611
Si Si8 0.654157 0.642904 0.929330
O O1 0.250000 0.612829 0.818035
O O2 0.145067 0.750000 0.815397
O O3 0.137644 0.630265 0.698182
O O4 0.079582 0.584299 0.842315
O O5 0.082621 0.081611 0.113006
O O6 0.028617 1.000000 0.250000
O O7 0.985960 0.930080 0.108682
O O8 0.082621 0.581611 0.386994
O O9 0.920418 0.584300 0.342315
O O10 0.985960 0.430080 0.391317
O O11 0.250000 0.387171 0.681966
O O12 0.145067 0.250000 0.684604
O O13 0.137644 0.369735 0.801818
O O14 0.555254 0.750000 0.113653
O O15 0.644229 0.864002 0.029276
O O16 0.250000 0.617021 0.404991
O O17 0.359109 0.750000 0.407951
O O18 0.355771 0.635998 0.529276
O O19 0.555254 0.250000 0.386347
O O20 0.750000 0.617020 0.904990
O O21 0.640892 0.750000 0.907951
#
# Coordination Sequence:
#
# PCOD9449531 Si02
#       8
#     8   8   8   8   8   8   8   8
#     4   9  17  30  49  74 102 128 155 192 240 290
#     4  10  20  32  50  73  99 128 158 196 241 288
#     4  10  20  32  50  73  99 128 158 196 241 288
#     4   9  17  30  49  74 102 128 155 192 240 290
#     4   9  18  32  50  72  97 126 160 198 239 281
#     4  10  20  34  52  72  95 126 164 202 236 276
#     4   9  18  32  50  72  97 126 160 198 239 281
#     4  10  20  34  52  72  95 126 164 202 236 276
#
# _framework density 17.378975000000001
#
# number of rings (size 3 to 8) (size 9 to 14) (size 15 to 20)
#    0.000    2.500    0.000    2.250    0.000   10.000 
#    0.000    0.000    0.000    0.750    0.000    0.000 
#    0.000    0.000    0.000    0.000    0.000    0.000 
#
# Total GULP energy -356980.770329 kJ/mol
# GULP energy per Si atom -5577.824536 kJ/mol
# Density = 1.733942 g / cm^3
# Si number density = 17.378975 Si / 1000 Ang^3
#
#
#
# Elastic Constant Matrix: (Units=GPa)
#
#
# Indices 1 2 3 4 5 6 
#
# 1 147.1519 89.5897 40.3597 0.0000 0.0000 0.0000
# 2 89.5897 95.9643 29.9538 0.0000 0.0000 0.0000
# 3 40.3597 29.9538 27.2268 0.0000 0.0000 0.0000
# 4 0.0000 0.0000 0.0000 17.1024 0.0000 0.0000
# 5 0.0000 0.0000 0.0000 0.0000 7.3879 0.0000
# 6 0.0000 0.0000 0.0000 0.0000 0.0000 20.7322
#
#
#
# Elastic Compliance Matrix: (Units=1/GPa)
#
#
# Indices 1 2 3 4 5 6 
#
# 1 0.018209 -0.013058 -0.012626 0.000000 0.000000 0.000000
# 2 -0.013058 0.025235 -0.008406 0.000000 0.000000 0.000000
# 3 -0.012626 -0.008406 0.064691 0.000000 0.000000 0.000000
# 4 0.000000 0.000000 0.000000 0.058471 0.000000 0.000000
# 5 0.000000 0.000000 0.000000 0.000000 0.135356 0.000000
# 6 0.000000 0.000000 0.000000 0.000000 0.000000 0.048234
#
#
# Mechanical properties :
#
#
# Convention : Reuss Voigt Hill
#
# Bulk Modulus (GPa) = 25.02730 65.57216 45.29973
# Shear Modulus (GPa) = 11.58226 16.40715 13.99470
#
# Velocity S-wave (km/s) = 2.58437 3.07592 2.84080
# Velocity P-wave (km/s) = 4.83089 7.10125 6.07310
#
# Compressibility (1/GPa) = 0.03995637
#
# Stress axis : x y z
#
# Youngs Moduli (GPa) = 54.91851 39.62727 15.45801
#
# Poissons Ratio (x) = 0.51747 0.19517
# Poissons Ratio (y) = 0.71715 0.12993
# Poissons Ratio (z) = 0.69338 0.33309
#
# Static dielectric constant tensor:
#      x y z
#    x 1.565790 0.000000 0.000000 
#    y 0.000000 1.613510 0.000000 
#    z 0.000000 0.000000 1.586290 
# 
# From -- ./inp_files/27107.got.cif
#   From: 2010.05.17/outbox.cif.g08.bks.cpg/sg59_14_cif.got.tgz:27107.got - 2010.06.03 14:40:33.
