data_PCOD9449243
_publ_section_title
;
Structure prediction by ZEFSAII (Michael W. Deem and Ramdas Pophale) SiO2 
 PCOD9449243
Probable space group: P M M N
;
_chemical_formula_sum "Si O2"
_cell_formula_units_Z 40
_cell_length_a 9.809608
_cell_length_b 16.411329
_cell_length_c 11.824232
_cell_angle_alpha 90.000000
_cell_angle_beta 90.000000
_cell_angle_gamma 90.000000
_cell_volume 1903.567788
_symmetry_space_group_name_H-M "P M M N"
_symmetry_group_IT_number 59
_space_group.IT_coordinate_system_code '2'
_symmetry_cell_setting 'orthorhombic'
loop_
_space_group_symop_operation_xyz
x,y,z
1/2-x,1/2-y,z
1/2+x,-y,-z
-x,1/2+y,-z
-x,-y,-z
1/2+x,1/2+y,-z
1/2-x,y,z
x,1/2-y,z
loop_
_atom_site_type_symbol
_atom_site_label
_atom_site_fract_x
_atom_site_fract_y
_atom_site_fract_z
Si Si1 0.906518 0.877043 0.563024
Si Si2 0.592021 0.842582 0.294680
Si Si3 0.086023 0.250000 0.077743
Si Si4 0.597394 0.487731 0.729458
Si Si5 0.085872 0.750000 0.692434
Si Si6 0.405020 0.071755 0.041694
O O1 0.750000 0.852846 0.596916
O O2 0.914206 0.859956 0.429871
O O3 0.024256 0.826104 0.623586
O O4 0.921701 0.969052 0.608597
O O5 0.750000 0.847111 0.260266
O O6 0.544068 0.750000 0.273873
O O7 0.506422 0.916082 0.243187
O O8 0.250000 0.250000 0.105749
O O9 0.059661 0.335046 0.013958
O O10 0.988388 0.250000 0.186328
O O11 0.750000 0.453461 0.734186
O O12 0.590357 0.559780 0.821998
O O13 0.250000 0.750000 0.699777
O O14 0.250000 0.056587 0.005097
O O15 0.500000 0.000000 0.000000
#
# Coordination Sequence:
#
# PCOD9449243 Si02
#       6
#     8   8   4   8   4   8
#     4  10  19  37  59  79 115 159 196 234 285 348
#     4  10  21  36  56  81 115 161 201 237 282 339
#     4  10  20  42  68  85 114 159 196 231 298 374
#     4  10  21  37  60  85 113 152 191 240 298 345
#     4  12  22  30  54  93 120 145 190 251 292 322
#     4  10  22  41  66  91 117 152 193 242 298 355
#
# _framework density 21.013172000000001
#
# number of rings (size 3 to 8) (size 9 to 14) (size 15 to 20)
#    0.000    1.800    3.000    1.500    0.000    3.600 
#    1.800    0.000    0.000    0.000    0.000    0.000 
#    0.000    0.000    0.000    0.000    0.000    0.000 
#
# Total GULP energy -223277.881682 kJ/mol
# GULP energy per Si atom -5581.947042 kJ/mol
# Density = 2.096534 g / cm^3
# Si number density = 21.013172 Si / 1000 Ang^3
#
#
#
# Elastic Constant Matrix: (Units=GPa)
#
#
# Indices 1 2 3 4 5 6 
#
# 1 100.1338 70.9528 14.6645 0.0000 0.0000 0.0000
# 2 70.9528 160.5631 7.9510 0.0000 0.0000 0.0000
# 3 14.6645 7.9510 34.3301 0.0000 0.0000 0.0000
# 4 0.0000 0.0000 0.0000 33.2125 0.0000 0.0000
# 5 0.0000 0.0000 0.0000 0.0000 24.6113 0.0000
# 6 0.0000 0.0000 0.0000 0.0000 0.0000 38.4702
#
#
#
# Elastic Compliance Matrix: (Units=1/GPa)
#
#
# Indices 1 2 3 4 5 6 
#
# 1 0.015357 -0.006536 -0.005046 0.000000 0.000000 0.000000
# 2 -0.006536 0.009082 0.000689 0.000000 0.000000 0.000000
# 3 -0.005046 0.000689 0.031125 0.000000 0.000000 0.000000
# 4 0.000000 0.000000 0.000000 0.030109 0.000000 0.000000
# 5 0.000000 0.000000 0.000000 0.000000 0.040632 0.000000
# 6 0.000000 0.000000 0.000000 0.000000 0.000000 0.025994
#
#
# Mechanical properties :
#
#
# Convention : Reuss Voigt Hill
#
# Bulk Modulus (GPa) = 29.60626 53.57375 41.59000
# Shear Modulus (GPa) = 26.97644 32.68936 29.83290
#
# Velocity S-wave (km/s) = 3.58688 3.94847 3.77201
# Velocity P-wave (km/s) = 5.59234 6.80719 6.22945
#
# Compressibility (1/GPa) = 0.03377664
#
# Stress axis : x y z
#
# Youngs Moduli (GPa) = 65.11568 110.10235 32.12847
#
# Poissons Ratio (x) = 0.71968 0.16213
# Poissons Ratio (y) = 0.42563 -0.02212
# Poissons Ratio (z) = 0.32859 -0.07582
#
# Static dielectric constant tensor:
#      x y z
#    x 1.716470 0.000000 0.000000 
#    y 0.000000 1.762960 0.000000 
#    z 0.000000 0.000000 1.822040 
# 
# From -- ./inp_files/19898.got.cif
#   From: 2010.05.17/outbox.cif.g08.bks.cpg/sg59_10_cif.got.tgz:19898.got - 2010.06.03 14:40:33.
