data_PCOD9449175
_publ_section_title
;
Structure prediction by ZEFSAII (Michael W. Deem and Ramdas Pophale) SiO2 
 PCOD9449175
Probable space group: P M M N
;
_chemical_formula_sum "Si O2"
_cell_formula_units_Z 48
_cell_length_a 8.771994
_cell_length_b 10.410524
_cell_length_c 29.761401
_cell_angle_alpha 90.000000
_cell_angle_beta 90.000000
_cell_angle_gamma 90.000000
_cell_volume 2717.842510
_symmetry_space_group_name_H-M "P M M N"
_symmetry_group_IT_number 59
_space_group.IT_coordinate_system_code '2'
_symmetry_cell_setting 'orthorhombic'
loop_
_space_group_symop_operation_xyz
x,y,z
1/2-x,1/2-y,z
1/2+x,-y,-z
-x,1/2+y,-z
-x,-y,-z
1/2+x,1/2+y,-z
1/2-x,y,z
x,1/2-y,z
loop_
_atom_site_type_symbol
_atom_site_label
_atom_site_fract_x
_atom_site_fract_y
_atom_site_fract_z
Si Si1 0.935281 0.250000 0.554180
Si Si2 0.433270 0.750000 0.549695
Si Si3 0.931971 0.100977 0.203189
Si Si4 0.067348 0.397916 0.965346
Si Si5 0.567467 0.102293 0.866259
Si Si6 0.434802 0.490393 0.396572
Si Si7 0.069633 0.097790 0.299652
O O1 0.750000 0.250000 0.553861
O O2 0.984386 0.250000 0.502339
O O3 0.983261 0.377113 0.580565
O O4 0.250000 0.750000 0.550778
O O5 0.496233 0.626016 0.575241
O O6 0.750000 0.095546 0.199102
O O7 0.980295 0.250000 0.195119
O O8 0.981153 0.068054 0.254057
O O9 0.006096 0.001644 0.168754
O O10 0.250000 0.407971 0.964509
O O11 0.027314 0.250000 0.977617
O O12 0.002546 0.421195 0.915487
O O13 0.000000 0.500000 0.000000
O O14 0.750000 0.093939 0.868933
O O15 0.527467 0.250000 0.853425
O O16 0.250000 0.480787 0.398002
O O17 0.478877 0.477244 0.344305
O O18 0.250000 0.075660 0.292006
O O19 0.050139 0.250000 0.309216
#
# Coordination Sequence:
#
# PCOD9449175 Si02
#       7
#     4   4   8   8   8   8   8
#     4   9  20  35  53  79 109 137 175 223 268 319
#     4  11  21  33  53  81 107 139 179 219 266 321
#     4  10  21  36  56  82 111 143 178 223 277 329
#     4  10  21  37  58  84 115 152 192 234 280 329
#     4  10  21  38  59  83 112 148 189 231 276 327
#     4  10  19  36  57  77 104 141 179 219 267 322
#     4   9  17  32  54  78 101 134 181 224 264 317
#
# _framework density 17.661066999999999
#
# number of rings (size 3 to 8) (size 9 to 14) (size 15 to 20)
#    0.000    2.167    0.833    2.250    0.000    4.333 
#    1.500    1.250    0.000    0.000    0.000    0.000 
#    0.000    0.000    0.000    0.000    0.000    0.000 
#
# Total GULP energy -267935.982541 kJ/mol
# GULP energy per Si atom -5581.999636 kJ/mol
# Density = 1.762087 g / cm^3
# Si number density = 17.661067 Si / 1000 Ang^3
#
#
#
# Elastic Constant Matrix: (Units=GPa)
#
#
# Indices 1 2 3 4 5 6 
#
# 1 44.6967 50.4481 54.3890 0.0000 0.0000 0.0000
# 2 50.4481 152.7164 117.1884 0.0000 0.0000 0.0000
# 3 54.3890 117.1884 158.8333 0.0000 0.0000 0.0000
# 4 0.0000 0.0000 0.0000 26.5357 0.0000 0.0000
# 5 0.0000 0.0000 0.0000 0.0000 31.6626 0.0000
# 6 0.0000 0.0000 0.0000 0.0000 0.0000 11.6654
#
#
#
# Elastic Compliance Matrix: (Units=1/GPa)
#
#
# Indices 1 2 3 4 5 6 
#
# 1 0.040875 -0.006366 -0.009299 0.000000 0.000000 0.000000
# 2 -0.006366 0.016085 -0.009688 0.000000 0.000000 0.000000
# 3 -0.009299 -0.009688 0.016628 0.000000 0.000000 0.000000
# 4 0.000000 0.000000 0.000000 0.037685 0.000000 0.000000
# 5 0.000000 0.000000 0.000000 0.000000 0.031583 0.000000
# 6 0.000000 0.000000 0.000000 0.000000 0.000000 0.085724
#
#
# Mechanical properties :
#
#
# Convention : Reuss Voigt Hill
#
# Bulk Modulus (GPa) = 43.70520 88.92197 66.31358
# Shear Modulus (GPa) = 17.42685 22.92078 20.17382
#
# Velocity S-wave (km/s) = 3.14465 3.60643 3.38342
# Velocity P-wave (km/s) = 6.16323 8.23409 7.27274
#
# Compressibility (1/GPa) = 0.02288057
#
# Stress axis : x y z
#
# Youngs Moduli (GPa) = 24.46506 62.16944 60.13995
#
# Poissons Ratio (x) = 0.39580 0.55926
# Poissons Ratio (y) = 0.15576 0.58261
# Poissons Ratio (z) = 0.22751 0.60227
#
# Static dielectric constant tensor:
#      x y z
#    x 1.600950 0.000000 0.000000 
#    y 0.000000 1.590910 0.000000 
#    z 0.000000 0.000000 1.573540 
# 
# From -- ./inp_files/32971.got.cif
#   From: 2010.05.17/outbox.cif.g08.bks.cpg/sg59_17_cif.got.tgz:32971.got - 2010.06.03 14:40:33.
