data_PCOD9449163
_publ_section_title
;
Structure prediction by ZEFSAII (Michael W. Deem and Ramdas Pophale) SiO2 
 PCOD9449163
Probable space group: P M M N
;
_chemical_formula_sum "Si O2"
_cell_formula_units_Z 56
_cell_length_a 8.694902
_cell_length_b 18.325272
_cell_length_c 17.823263
_cell_angle_alpha 90.000000
_cell_angle_beta 90.000000
_cell_angle_gamma 90.000000
_cell_volume 2839.895350
_symmetry_space_group_name_H-M "P M M N"
_symmetry_group_IT_number 59
_space_group.IT_coordinate_system_code '2'
_symmetry_cell_setting 'orthorhombic'
loop_
_space_group_symop_operation_xyz
x,y,z
1/2-x,1/2-y,z
1/2+x,-y,-z
-x,1/2+y,-z
-x,-y,-z
1/2+x,1/2+y,-z
1/2-x,y,z
x,1/2-y,z
loop_
_atom_site_type_symbol
_atom_site_label
_atom_site_fract_x
_atom_site_fract_y
_atom_site_fract_z
Si Si1 0.431509 0.925632 0.464958
Si Si2 0.932295 0.589037 0.299979
Si Si3 0.937040 0.667408 0.878283
Si Si4 0.065458 0.078274 0.975651
Si Si5 0.931974 0.665453 0.594509
Si Si6 0.934690 0.933629 0.740360
Si Si7 0.065990 0.667002 0.161264
O O1 0.250000 0.935028 0.455593
O O2 0.505212 0.908563 0.384627
O O3 0.471358 0.862941 0.524502
O O4 0.500000 0.000000 0.500000
O O5 0.750000 0.597466 0.299930
O O6 0.997586 0.609244 0.102407
O O7 0.979852 0.509735 0.268230
O O8 0.750000 0.669342 0.875064
O O9 0.992297 0.750000 0.867094
O O10 0.985061 0.612362 0.812734
O O11 0.007850 0.647270 0.244193
O O12 0.250000 0.073957 0.972334
O O13 0.020598 0.135273 0.041088
O O14 0.000000 0.000000 0.000000
O O15 0.750000 0.657847 0.576604
O O16 0.961494 0.750000 0.611881
O O17 0.962218 0.615219 0.666621
O O18 0.750000 0.947010 0.745431
O O19 0.250000 0.662167 0.159217
O O20 0.019835 0.750000 0.141298
#
# Coordination Sequence:
#
# PCOD9449163 Si02
#       7
#     8   8   8   8   8   8   8
#     4  12  24  41  64  90 123 164 210 260 315 375
#     4  12  25  41  65  93 123 161 206 258 315 382
#     4   9  18  33  56  87 120 157 200 245 297 358
#     4  11  22  38  63  93 128 168 214 264 317 379
#     4  10  21  37  60  91 126 165 207 253 309 373
#     4  10  19  35  61  90 124 162 203 252 303 367
#     4  11  25  45  67  92 126 168 216 272 331 388
#
# _framework density 19.719035999999999
#
# number of rings (size 3 to 8) (size 9 to 14) (size 15 to 20)
#    0.000    1.286    1.429    5.143    0.000    5.429 
#    0.000    0.714    0.000    3.000    0.000    0.000 
#    0.000    0.000    0.000    0.000    0.000    0.000 
#
# Total GULP energy -313209.184558 kJ/mol
# GULP energy per Si atom -5593.021153 kJ/mol
# Density = 1.967415 g / cm^3
# Si number density = 19.719036 Si / 1000 Ang^3
#
#
#
# Elastic Constant Matrix: (Units=GPa)
#
#
# Indices 1 2 3 4 5 6 
#
# 1 62.6346 29.3101 28.6624 0.0000 0.0000 0.0000
# 2 29.3101 65.1025 5.4837 0.0000 0.0000 0.0000
# 3 28.6624 5.4837 103.2554 0.0000 0.0000 0.0000
# 4 0.0000 0.0000 0.0000 24.9496 0.0000 0.0000
# 5 0.0000 0.0000 0.0000 0.0000 28.3783 0.0000
# 6 0.0000 0.0000 0.0000 0.0000 0.0000 27.5838
#
#
#
# Elastic Compliance Matrix: (Units=1/GPa)
#
#
# Indices 1 2 3 4 5 6 
#
# 1 0.023384 -0.010026 -0.005959 0.000000 0.000000 0.000000
# 2 -0.010026 0.019728 0.001735 0.000000 0.000000 0.000000
# 3 -0.005959 0.001735 0.011247 0.000000 0.000000 0.000000
# 4 0.000000 0.000000 0.000000 0.040081 0.000000 0.000000
# 5 0.000000 0.000000 0.000000 0.000000 0.035238 0.000000
# 6 0.000000 0.000000 0.000000 0.000000 0.000000 0.036253
#
#
# Mechanical properties :
#
#
# Convention : Reuss Voigt Hill
#
# Bulk Modulus (GPa) = 38.66943 39.76722 39.21832
# Shear Modulus (GPa) = 24.62455 27.35143 25.98799
#
# Velocity S-wave (km/s) = 3.53763 3.72836 3.63425
# Velocity P-wave (km/s) = 6.02820 6.22454 6.12716
#
# Compressibility (1/GPa) = 0.02586022
#
# Stress axis : x y z
#
# Youngs Moduli (GPa) = 42.76418 50.68928 88.91572
#
# Poissons Ratio (x) = 0.50821 0.52982
# Poissons Ratio (y) = 0.42875 -0.15430
# Poissons Ratio (z) = 0.25482 -0.08796
#
# Static dielectric constant tensor:
#      x y z
#    x 1.676420 0.000000 0.000000 
#    y 0.000000 1.680980 0.000000 
#    z 0.000000 0.000000 1.676560 
# 
# From -- ./inp_files/20983.got.cif
#   From: 2010.05.17/outbox.cif.g08.bks.cpg/sg59_11_cif.got.tgz:20983.got - 2010.06.03 14:40:33.
