data_PCOD9449566
_publ_section_title
;
Structure prediction by ZEFSAII (Michael W. Deem and Ramdas Pophale) SiO2 
 PCOD9449566
Probable space group: P M M N
;
_chemical_formula_sum "Si O2"
_cell_formula_units_Z 40
_cell_length_a 20.985626
_cell_length_b 22.254507
_cell_length_c 5.038143
_cell_angle_alpha 90.000000
_cell_angle_beta 90.000000
_cell_angle_gamma 90.000000
_cell_volume 2352.937529
_symmetry_space_group_name_H-M "P M M N"
_symmetry_group_IT_number 59
_space_group.IT_coordinate_system_code '2'
_symmetry_cell_setting 'orthorhombic'
loop_
_space_group_symop_operation_xyz
x,y,z
1/2-x,1/2-y,z
1/2+x,-y,-z
-x,1/2+y,-z
-x,-y,-z
1/2+x,1/2+y,-z
1/2-x,y,z
x,1/2-y,z
loop_
_atom_site_type_symbol
_atom_site_label
_atom_site_fract_x
_atom_site_fract_y
_atom_site_fract_z
Si Si1 0.902530 0.250000 0.873914
Si Si2 0.024960 0.117022 0.368829
Si Si3 0.443780 0.044009 0.894699
Si Si4 0.992432 0.250000 0.378611
Si Si5 0.824074 0.127556 0.825605
Si Si6 0.118025 0.929961 0.678133
O O1 0.959887 0.250000 0.665599
O O2 0.860479 0.191012 0.822541
O O3 0.935158 0.250000 0.162792
O O4 0.034241 0.087902 0.658250
O O5 0.031334 0.188397 0.354186
O O6 0.951086 0.102250 0.296363
O O7 0.069542 0.083791 0.154047
O O8 0.392826 0.998628 0.766775
O O9 0.500000 0.000000 0.000000
O O10 0.750000 0.134917 0.762542
O O11 0.857470 0.082541 0.617058
O O12 0.834228 0.100943 0.117518
#
# Coordination Sequence:
#
# PCOD9449566 Si02
#       6
#     4   8   8   4   8   8
#     4  12  21  38  46  68 100 142 180 216 253 272
#     4  11  19  34  50  76  96 131 167 203 258 302
#     4  10  20  32  53  72  96 125 166 211 255 313
#     4  12  22  32  55  70 106 134 169 216 242 296
#     4  12  23  35  51  70  97 137 182 221 251 279
#     4  11  20  36  50  71  96 129 170 219 254 295
#
# _framework density 17.000025999999998
#
# number of rings (size 3 to 8) (size 9 to 14) (size 15 to 20)
#    0.000    0.800    4.000    8.100    0.000    0.000 
#    0.000    3.000    0.000    0.000    0.000    0.000 
#    0.000    0.000    0.000   63.000    0.000    0.000 
#
# Total GULP energy -223282.456742 kJ/mol
# GULP energy per Si atom -5582.061419 kJ/mol
# Density = 1.696133 g / cm^3
# Si number density = 17.000026 Si / 1000 Ang^3
#
#
#
# Elastic Constant Matrix: (Units=GPa)
#
#
# Indices 1 2 3 4 5 6 
#
# 1 11.5133 -0.0324 -0.5738 0.0000 0.0000 0.0000
# 2 -0.0324 75.8713 23.7535 0.0000 0.0000 0.0000
# 3 -0.5738 23.7535 76.9974 0.0000 0.0000 0.0000
# 4 0.0000 0.0000 0.0000 9.5856 0.0000 0.0000
# 5 0.0000 0.0000 0.0000 0.0000 6.5418 0.0000
# 6 0.0000 0.0000 0.0000 0.0000 0.0000 4.3075
#
#
#
# Elastic Compliance Matrix: (Units=1/GPa)
#
#
# Indices 1 2 3 4 5 6 
#
# 1 0.086891 -0.000183 0.000704 0.000000 0.000000 0.000000
# 2 -0.000183 0.014590 -0.004502 0.000000 0.000000 0.000000
# 3 0.000704 -0.004502 0.014382 0.000000 0.000000 0.000000
# 4 0.000000 0.000000 0.000000 0.104323 0.000000 0.000000
# 5 0.000000 0.000000 0.000000 0.000000 0.152862 0.000000
# 6 0.000000 0.000000 0.000000 0.000000 0.000000 0.232151
#
#
# Mechanical properties :
#
#
# Convention : Reuss Voigt Hill
#
# Bulk Modulus (GPa) = 9.26791 23.40851 16.33821
# Shear Modulus (GPa) = 7.70265 13.50264 10.60265
#
# Velocity S-wave (km/s) = 2.13091 2.82134 2.50008
# Velocity P-wave (km/s) = 3.39381 4.94094 4.23856
#
# Compressibility (1/GPa) = 0.10789920
#
# Stress axis : x y z
#
# Youngs Moduli (GPa) = 11.50868 68.54159 69.53313
#
# Poissons Ratio (x) = 0.01257 -0.04895
# Poissons Ratio (y) = 0.00211 0.31306
# Poissons Ratio (z) = -0.00810 0.30859
#
# Static dielectric constant tensor:
#      x y z
#    x 1.543690 0.000000 0.000000 
#    y 0.000000 1.617080 0.000000 
#    z 0.000000 0.000000 1.598970 
# 
# From -- ./inp_files/2766.got.cif
#   From: 2010.05.17/outbox.cif.g08.bks.cpg/sg59_2_cif.got.tgz:2766.got - 2010.06.03 14:40:33.
