data_PCOD9449934
_publ_section_title
;
Structure prediction by ZEFSAII (Michael W. Deem and Ramdas Pophale) SiO2 
 PCOD9449934
Probable space group: P M M N
;
_chemical_formula_sum "Si O2"
_cell_formula_units_Z 40
_cell_length_a 8.916647
_cell_length_b 13.879507
_cell_length_c 18.830802
_cell_angle_alpha 90.000000
_cell_angle_beta 90.000000
_cell_angle_gamma 90.000000
_cell_volume 2330.474906
_symmetry_space_group_name_H-M "P M M N"
_symmetry_group_IT_number 59
_space_group.IT_coordinate_system_code '2'
_symmetry_cell_setting 'orthorhombic'
loop_
_space_group_symop_operation_xyz
x,y,z
1/2-x,1/2-y,z
1/2+x,-y,-z
-x,1/2+y,-z
-x,-y,-z
1/2+x,1/2+y,-z
1/2-x,y,z
x,1/2-y,z
loop_
_atom_site_type_symbol
_atom_site_label
_atom_site_fract_x
_atom_site_fract_y
_atom_site_fract_z
Si Si1 0.429191 0.052076 0.891199
Si Si2 0.070356 0.858745 0.969352
Si Si3 0.429599 0.863070 0.250726
Si Si4 0.571111 0.956208 0.390186
Si Si5 0.930038 0.860789 0.541227
O O1 0.250000 0.060680 0.885499
O O2 0.505038 0.086392 0.819136
O O3 0.467049 0.941752 0.912676
O O4 0.488184 0.115121 0.957374
O O5 0.250000 0.864363 0.981759
O O6 0.034030 0.750000 0.946965
O O7 0.250000 0.870133 0.250568
O O8 0.470912 0.750000 0.249771
O O9 0.494758 0.912213 0.321084
O O10 0.750000 0.957345 0.381308
O O11 0.511194 0.062703 0.408411
O O12 0.535650 0.892061 0.460075
O O13 0.750000 0.869572 0.550052
O O14 0.972747 0.750000 0.553272
#
# Coordination Sequence:
#
# PCOD9449934 Si02
#       5
#     8   8   8   8   8
#     4  10  20  33  52  78 104 132 170 213 254 301
#     4   9  18  34  54  75 102 135 168 205 252 305
#     4  11  23  37  53  74 103 138 172 210 260 313
#     4  10  20  34  54  80 107 135 172 216 258 304
#     4   9  18  34  55  78 106 139 173 211 256 306
#
# _framework density 17.163882999999998
#
# number of rings (size 3 to 8) (size 9 to 14) (size 15 to 20)
#    0.000    2.200    0.000    3.000    0.000    7.200 
#    0.000    1.000    0.000    3.600    0.000    0.000 
#    0.000    0.000    0.000    0.000    0.000    0.000 
#
# Total GULP energy -223294.254544 kJ/mol
# GULP energy per Si atom -5582.356364 kJ/mol
# Density = 1.712482 g / cm^3
# Si number density = 17.163883 Si / 1000 Ang^3
#
#
#
# Elastic Constant Matrix: (Units=GPa)
#
#
# Indices 1 2 3 4 5 6 
#
# 1 48.1615 60.6781 61.1462 0.0000 0.0000 0.0000
# 2 60.6781 166.2570 89.4318 0.0000 0.0000 0.0000
# 3 61.1462 89.4318 141.7893 0.0000 0.0000 0.0000
# 4 0.0000 0.0000 0.0000 13.6578 0.0000 0.0000
# 5 0.0000 0.0000 0.0000 0.0000 33.6877 0.0000
# 6 0.0000 0.0000 0.0000 0.0000 0.0000 28.1833
#
#
#
# Elastic Compliance Matrix: (Units=1/GPa)
#
#
# Indices 1 2 3 4 5 6 
#
# 1 0.057664 -0.011607 -0.017547 0.000000 0.000000 0.000000
# 2 -0.011607 0.011440 -0.002210 0.000000 0.000000 0.000000
# 3 -0.017547 -0.002210 0.016014 0.000000 0.000000 0.000000
# 4 0.000000 0.000000 0.000000 0.073218 0.000000 0.000000
# 5 0.000000 0.000000 0.000000 0.000000 0.029684 0.000000
# 6 0.000000 0.000000 0.000000 0.000000 0.000000 0.035482
#
#
# Mechanical properties :
#
#
# Convention : Reuss Voigt Hill
#
# Bulk Modulus (GPa) = 44.66201 86.52444 65.59322
# Shear Modulus (GPa) = 17.02464 24.76921 20.89693
#
# Velocity S-wave (km/s) = 3.15284 3.80294 3.49305
# Velocity P-wave (km/s) = 6.27147 8.35484 7.38697
#
# Compressibility (1/GPa) = 0.02239039
#
# Stress axis : x y z
#
# Youngs Moduli (GPa) = 17.34185 87.41492 62.44715
#
# Poissons Ratio (x) = 1.01461 1.09573
# Poissons Ratio (y) = 0.20128 0.13801
# Poissons Ratio (z) = 0.30429 0.19319
#
# Static dielectric constant tensor:
#      x y z
#    x 1.572460 0.000000 0.000000 
#    y 0.000000 1.581900 0.000000 
#    z 0.000000 0.000000 1.539430 
# 
# From -- ./inp_files/19892.got.cif
#   From: 2010.05.17/outbox.cif.g08.bks.cpg/sg59_10_cif.got.tgz:19892.got - 2010.06.03 14:40:33.
