data_PCOD9449242
_publ_section_title
;
Structure prediction by ZEFSAII (Michael W. Deem and Ramdas Pophale) SiO2 
 PCOD9449242
Probable space group: P M M N
;
_chemical_formula_sum "Si O2"
_cell_formula_units_Z 36
_cell_length_a 14.055021
_cell_length_b 9.814134
_cell_length_c 15.647065
_cell_angle_alpha 90.000000
_cell_angle_beta 90.000000
_cell_angle_gamma 90.000000
_cell_volume 2158.322653
_symmetry_space_group_name_H-M "P M M N"
_symmetry_group_IT_number 59
_space_group.IT_coordinate_system_code '2'
_symmetry_cell_setting 'orthorhombic'
loop_
_space_group_symop_operation_xyz
x,y,z
1/2-x,1/2-y,z
1/2+x,-y,-z
-x,1/2+y,-z
-x,-y,-z
1/2+x,1/2+y,-z
1/2-x,y,z
x,1/2-y,z
loop_
_atom_site_type_symbol
_atom_site_label
_atom_site_fract_x
_atom_site_fract_y
_atom_site_fract_z
Si Si1 0.636735 0.250000 0.585768
Si Si2 0.484581 0.911806 0.133406
Si Si3 0.138951 0.409336 0.011094
Si Si4 0.363246 0.250000 0.585534
Si Si5 0.999579 0.965385 0.331462
Si Si6 0.500631 0.250000 0.427341
O O1 0.750000 0.250000 0.586474
O O2 0.590355 0.119595 0.633183
O O3 0.591452 0.250000 0.490981
O O4 0.464568 0.750000 0.135984
O O5 0.498774 0.962576 0.229437
O O6 0.402564 0.994153 0.084502
O O7 0.578121 0.932603 0.074860
O O8 0.250000 0.433298 0.996937
O O9 0.125472 0.250000 0.034712
O O10 0.250000 0.250000 0.584841
O O11 0.408831 0.119759 0.633736
O O12 0.410052 0.250000 0.491340
O O13 0.999560 0.114715 0.371018
#
# Coordination Sequence:
#
# PCOD9449242 Si02
#       6
#     4   8   8   4   8   4
#     4  10  20  38  58  79 110 146 186 227 276 328
#     4  10  19  37  57  79 109 145 179 218 271 318
#     4   9  20  36  57  82 108 139 177 222 271 323
#     4  10  20  38  60  81 106 146 190 225 272 330
#     4  10  21  37  56  85 109 146 185 226 274 322
#     4  10  22  36  56  80 116 144 180 230 278 324
#
# _framework density 16.67962
#
# number of rings (size 3 to 8) (size 9 to 14) (size 15 to 20)
#    0.000    2.444    2.222    2.667    1.556    5.778 
#    0.000    0.000    0.000    0.000    0.000    0.000 
#    0.000    0.000    0.000    0.000    0.000    0.000 
#
# Total GULP energy -200812.147563 kJ/mol
# GULP energy per Si atom -5578.115210 kJ/mol
# Density = 1.664166 g / cm^3
# Si number density = 16.679620 Si / 1000 Ang^3
#
#
#
# Elastic Constant Matrix: (Units=GPa)
#
#
# Indices 1 2 3 4 5 6 
#
# 1 146.8576 57.1945 54.6726 0.0000 0.0000 0.0000
# 2 57.1945 113.8633 87.4390 0.0000 0.0000 0.0000
# 3 54.6726 87.4390 154.7605 0.0000 0.0000 0.0000
# 4 0.0000 0.0000 0.0000 9.4327 0.0000 0.0000
# 5 0.0000 0.0000 0.0000 0.0000 3.1257 0.0000
# 6 0.0000 0.0000 0.0000 0.0000 0.0000 11.7487
#
#
#
# Elastic Compliance Matrix: (Units=1/GPa)
#
#
# Indices 1 2 3 4 5 6 
#
# 1 0.008561 -0.003494 -0.001051 0.000000 0.000000 0.000000
# 2 -0.003494 0.016939 -0.008336 0.000000 0.000000 0.000000
# 3 -0.001051 -0.008336 0.011543 0.000000 0.000000 0.000000
# 4 0.000000 0.000000 0.000000 0.106014 0.000000 0.000000
# 5 0.000000 0.000000 0.000000 0.000000 0.319928 0.000000
# 6 0.000000 0.000000 0.000000 0.000000 0.000000 0.085116
#
#
# Mechanical properties :
#
#
# Convention : Reuss Voigt Hill
#
# Bulk Modulus (GPa) = 88.63703 90.45484 89.54594
# Shear Modulus (GPa) = 8.65618 19.27311 13.96464
#
# Velocity S-wave (km/s) = 2.28056 3.40294 2.89663
# Velocity P-wave (km/s) = 7.75828 8.35395 8.06162
#
# Compressibility (1/GPa) = 0.01128197
#
# Stress axis : x y z
#
# Youngs Moduli (GPa) = 116.80901 59.03547 86.63498
#
# Poissons Ratio (x) = 0.20624 0.09101
# Poissons Ratio (y) = 0.40808 0.72221
# Poissons Ratio (z) = 0.12271 0.49214
#
# Static dielectric constant tensor:
#      x y z
#    x 1.540170 0.000000 0.000000 
#    y 0.000000 1.558660 0.000000 
#    z 0.000000 0.000000 1.541800 
# 
# From -- ./inp_files/22933.got.cif
#   From: 2010.05.17/outbox.cif.g08.bks.cpg/sg59_12_cif.got.tgz:22933.got - 2010.06.03 14:40:33.
