data_PCOD9449414
_publ_section_title
;
Structure prediction by ZEFSAII (Michael W. Deem and Ramdas Pophale) SiO2 
 PCOD9449414
Probable space group: P M M N
;
_chemical_formula_sum "Si O2"
_cell_formula_units_Z 48
_cell_length_a 15.505893
_cell_length_b 7.609204
_cell_length_c 18.423276
_cell_angle_alpha 90.000000
_cell_angle_beta 90.000000
_cell_angle_gamma 90.000000
_cell_volume 2173.716333
_symmetry_space_group_name_H-M "P M M N"
_symmetry_group_IT_number 59
_space_group.IT_coordinate_system_code '2'
_symmetry_cell_setting 'orthorhombic'
loop_
_space_group_symop_operation_xyz
x,y,z
1/2-x,1/2-y,z
1/2+x,-y,-z
-x,1/2+y,-z
-x,-y,-z
1/2+x,1/2+y,-z
1/2-x,y,z
x,1/2-y,z
loop_
_atom_site_type_symbol
_atom_site_label
_atom_site_fract_x
_atom_site_fract_y
_atom_site_fract_z
Si Si1 0.152119 0.537239 0.039646
Si Si2 0.525893 0.042674 0.835811
Si Si3 0.156873 0.037439 0.626031
Si Si4 0.903299 0.539788 0.526473
Si Si5 0.962660 0.957709 0.676488
Si Si6 0.655307 0.545207 0.127527
O O1 0.250000 0.493643 0.061548
O O2 0.146568 0.750000 0.034103
O O3 0.085173 0.471963 0.099669
O O4 0.138755 0.463960 0.959013
O O5 0.517100 0.250000 0.851372
O O6 0.429363 0.965361 0.836536
O O7 0.562245 0.026013 0.755281
O O8 0.250000 0.980354 0.657535
O O9 0.156954 0.250000 0.626843
O O10 0.152514 0.976354 0.541606
O O11 0.065218 0.988762 0.661744
O O12 0.889438 0.750000 0.530155
O O13 0.000000 0.500000 0.500000
O O14 0.906004 0.470842 0.608884
O O15 0.950717 0.750000 0.677250
O O16 0.750000 0.466614 0.140985
O O17 0.660525 0.750000 0.149681
#
# Coordination Sequence:
#
# PCOD9449414 Si02
#       6
#     8   8   8   8   8   8
#     4   9  18  33  52  72  94 123 162 207 250 292
#     4  10  20  33  49  70  99 134 166 197 241 298
#     4   9  17  31  52  73  93 123 161 198 241 295
#     4   8  15  29  47  66  88 116 151 189 228 272
#     4  10  20  32  47  70 100 129 159 199 243 286
#     4   9  18  32  50  72  96 123 159 202 244 290
#
# _framework density 22.082000000000001
#
# number of rings (size 3 to 8) (size 9 to 14) (size 15 to 20)
#    0.000    2.833    0.000    1.000    0.000    3.000 
#    0.000    2.500    0.000    1.000    0.000    0.000 
#    0.000    0.000    0.000    0.000    0.000    0.000 
#
# Total GULP energy -267519.947485 kJ/mol
# GULP energy per Si atom -5573.332239 kJ/mol
# Density = 2.203174 g / cm^3
# Si number density = 22.082000 Si / 1000 Ang^3
#
#
#
# Elastic Constant Matrix: (Units=GPa)
#
#
# Indices 1 2 3 4 5 6 
#
# 1 22.7327 6.1230 5.8048 0.0000 0.0000 0.0000
# 2 6.1230 45.2388 -10.7232 0.0000 0.0000 0.0000
# 3 5.8048 -10.7232 48.6594 0.0000 0.0000 0.0000
# 4 0.0000 0.0000 0.0000 17.6549 0.0000 0.0000
# 5 0.0000 0.0000 0.0000 0.0000 7.5156 0.0000
# 6 0.0000 0.0000 0.0000 0.0000 0.0000 4.1539
#
#
#
# Elastic Compliance Matrix: (Units=1/GPa)
#
#
# Indices 1 2 3 4 5 6 
#
# 1 0.048164 -0.008315 -0.007578 0.000000 0.000000 0.000000
# 2 -0.008315 0.024759 0.006448 0.000000 0.000000 0.000000
# 3 -0.007578 0.006448 0.022876 0.000000 0.000000 0.000000
# 4 0.000000 0.000000 0.000000 0.056642 0.000000 0.000000
# 5 0.000000 0.000000 0.000000 0.000000 0.133057 0.000000
# 6 0.000000 0.000000 0.000000 0.000000 0.000000 0.240739
#
#
# Mechanical properties :
#
#
# Convention : Reuss Voigt Hill
#
# Bulk Modulus (GPa) = 13.00246 13.22667 13.11457
# Shear Modulus (GPa) = 8.76019 13.55995 11.16007
#
# Velocity S-wave (km/s) = 1.99392 2.48074 2.25053
# Velocity P-wave (km/s) = 3.34694 3.76938 3.56442
#
# Compressibility (1/GPa) = 0.07690853
#
# Stress axis : x y z
#
# Youngs Moduli (GPa) = 20.76229 40.38961 43.71387
#
# Poissons Ratio (x) = 0.33585 0.33127
# Poissons Ratio (y) = 0.17264 -0.28187
# Poissons Ratio (z) = 0.15734 -0.26044
#
# Static dielectric constant tensor:
#      x y z
#    x 1.836270 0.000000 0.000000 
#    y 0.000000 1.811650 0.000000 
#    z 0.000000 0.000000 1.824420 
# 
# From -- ./inp_files/20373.got.cif
#   From: 2010.05.17/outbox.cif.g08.bks.cpg/sg59_11_cif.got.tgz:20373.got - 2010.06.03 14:40:33.
