data_PCOD9449396
_publ_section_title
;
Structure prediction by ZEFSAII (Michael W. Deem and Ramdas Pophale) SiO2 
 PCOD9449396
Probable space group: P M M N
;
_chemical_formula_sum "Si O2"
_cell_formula_units_Z 48
_cell_length_a 9.436966
_cell_length_b 7.522124
_cell_length_c 32.360299
_cell_angle_alpha 90.000000
_cell_angle_beta 90.000000
_cell_angle_gamma 90.000000
_cell_volume 2297.129105
_symmetry_space_group_name_H-M "P M M N"
_symmetry_group_IT_number 59
_space_group.IT_coordinate_system_code '2'
_symmetry_cell_setting 'orthorhombic'
loop_
_space_group_symop_operation_xyz
x,y,z
1/2-x,1/2-y,z
1/2+x,-y,-z
-x,1/2+y,-z
-x,-y,-z
1/2+x,1/2+y,-z
1/2-x,y,z
x,1/2-y,z
loop_
_atom_site_type_symbol
_atom_site_label
_atom_site_fract_x
_atom_site_fract_y
_atom_site_fract_z
Si Si1 0.077486 0.543993 0.789948
Si Si2 0.414331 0.531976 0.880123
Si Si3 0.089852 0.036795 0.040896
Si Si4 0.412073 0.535580 0.700179
Si Si5 0.589803 0.462214 0.618868
Si Si6 0.910861 0.536630 0.458920
O O1 0.250000 0.543306 0.789962
O O2 0.030849 0.750000 0.790086
O O3 0.036509 0.469069 0.834645
O O4 0.037714 0.467485 0.745251
O O5 0.250000 0.480845 0.886344
O O6 0.415870 0.750000 0.879085
O O7 0.509693 0.471426 0.918126
O O8 0.250000 0.968287 0.037322
O O9 0.097369 0.250000 0.044899
O O10 0.000000 0.000000 0.000000
O O11 0.250000 0.474015 0.692515
O O12 0.406001 0.750000 0.703419
O O13 0.513002 0.491808 0.662379
O O14 0.750000 0.533102 0.618241
O O15 0.599082 0.250000 0.613084
O O16 0.494072 0.532457 0.581277
O O17 0.750000 0.468202 0.461668
O O18 0.901782 0.750000 0.454882
O O19 0.000000 0.500000 0.500000
#
# Coordination Sequence:
#
# PCOD9449396 Si02
#       6
#     8   8   8   8   8   8
#     4   7  11  22  42  68  95 121 152 192 236 281
#     4   8  13  24  44  67  91 121 155 192 236 284
#     4  10  20  32  47  69  95 123 157 196 238 286
#     4   9  17  30  50  76 102 127 159 200 242 283
#     4  10  21  36  52  71  99 135 170 202 238 282
#     4  10  21  37  57  79 101 128 163 201 242 288
#
# _framework density 20.895647
#
# number of rings (size 3 to 8) (size 9 to 14) (size 15 to 20)
#    0.000    3.000    0.000    3.500    0.000    4.000 
#    0.000    0.833    0.000    4.000    0.000    2.333 
#    0.000    0.000    0.000    0.000    0.000    0.000 
#
# Total GULP energy -267738.273973 kJ/mol
# GULP energy per Si atom -5577.880708 kJ/mol
# Density = 2.084809 g / cm^3
# Si number density = 20.895647 Si / 1000 Ang^3
#
#
#
# Elastic Constant Matrix: (Units=GPa)
#
#
# Indices 1 2 3 4 5 6 
#
# 1 163.6100 7.5043 130.1765 0.0000 0.0000 0.0000
# 2 7.5043 54.0998 1.5525 0.0000 0.0000 0.0000
# 3 130.1765 1.5525 244.8444 0.0000 0.0000 0.0000
# 4 0.0000 0.0000 0.0000 16.5877 0.0000 0.0000
# 5 0.0000 0.0000 0.0000 0.0000 34.4731 0.0000
# 6 0.0000 0.0000 0.0000 0.0000 0.0000 12.6160
#
#
#
# Elastic Compliance Matrix: (Units=1/GPa)
#
#
# Indices 1 2 3 4 5 6 
#
# 1 0.010687 -0.001320 -0.005673 0.000000 0.000000 0.000000
# 2 -0.001320 0.018651 0.000583 0.000000 0.000000 0.000000
# 3 -0.005673 0.000583 0.007097 0.000000 0.000000 0.000000
# 4 0.000000 0.000000 0.000000 0.060286 0.000000 0.000000
# 5 0.000000 0.000000 0.000000 0.000000 0.029008 0.000000
# 6 0.000000 0.000000 0.000000 0.000000 0.000000 0.079265
#
#
# Mechanical properties :
#
#
# Convention : Reuss Voigt Hill
#
# Bulk Modulus (GPa) = 42.34610 82.33563 62.34087
# Shear Modulus (GPa) = 22.15490 34.29008 28.22249
#
# Velocity S-wave (km/s) = 3.25970 4.05534 3.67909
# Velocity P-wave (km/s) = 5.87172 7.83687 6.92436
#
# Compressibility (1/GPa) = 0.02361492
#
# Stress axis : x y z
#
# Youngs Moduli (GPa) = 93.57431 53.61740 140.90608
#
# Poissons Ratio (x) = 0.07075 0.79942
# Poissons Ratio (y) = 0.12348 -0.08219
# Poissons Ratio (z) = 0.53089 -0.03128
#
# Static dielectric constant tensor:
#      x y z
#    x 1.721060 0.000000 0.000000 
#    y 0.000000 1.832430 0.000000 
#    z 0.000000 0.000000 1.749990 
# 
# From -- ./inp_files/31248.got.cif
#   From: 2010.05.17/outbox.cif.g08.bks.cpg/sg59_16_cif.got.tgz:31248.got - 2010.06.03 14:40:33.
