data_PCOD9449423
_publ_section_title
;
Structure prediction by ZEFSAII (Michael W. Deem and Ramdas Pophale) SiO2 
 PCOD9449423
Probable space group: P M M N
;
_chemical_formula_sum "Si O2"
_cell_formula_units_Z 64
_cell_length_a 14.866003
_cell_length_b 9.327939
_cell_length_c 21.495619
_cell_angle_alpha 90.000000
_cell_angle_beta 90.000000
_cell_angle_gamma 90.000000
_cell_volume 2980.779627
_symmetry_space_group_name_H-M "P M M N"
_symmetry_group_IT_number 59
_space_group.IT_coordinate_system_code '2'
_symmetry_cell_setting 'orthorhombic'
loop_
_space_group_symop_operation_xyz
x,y,z
1/2-x,1/2-y,z
1/2+x,-y,-z
-x,1/2+y,-z
-x,-y,-z
1/2+x,1/2+y,-z
1/2-x,y,z
x,1/2-y,z
loop_
_atom_site_type_symbol
_atom_site_label
_atom_site_fract_x
_atom_site_fract_y
_atom_site_fract_z
Si Si1 0.108886 0.586823 0.192633
Si Si2 0.909712 0.920994 0.063910
Si Si3 0.900108 0.919590 0.927880
Si Si4 0.607712 0.910440 0.198357
Si Si5 0.640044 0.914212 0.439234
Si Si6 0.356852 0.411536 0.317657
Si Si7 0.860020 0.414846 0.562279
Si Si8 0.642831 0.410899 0.319995
O O1 0.141849 0.750000 0.196475
O O2 0.139585 0.507948 0.129632
O O3 0.130877 0.496895 0.253810
O O4 0.000261 0.592757 0.190931
O O5 0.936514 0.750000 0.064193
O O6 0.858307 0.944304 0.128760
O O7 0.862349 0.943909 0.997495
O O8 0.996747 0.024142 0.066250
O O9 0.896964 0.750000 0.914401
O O10 0.637986 0.750000 0.216208
O O11 0.628442 0.020314 0.252622
O O12 0.750000 0.912976 0.438989
O O13 0.610705 0.750000 0.443513
O O14 0.612472 0.005165 0.499312
O O15 0.609069 0.988195 0.375466
O O16 0.250000 0.400005 0.327437
O O17 0.393214 0.250000 0.313755
O O18 0.391598 0.500076 0.376749
O O19 0.750000 0.414166 0.562826
O O20 0.888850 0.250000 0.563422
O O21 0.750000 0.402121 0.328979
O O22 0.606369 0.250000 0.323829
#
# Coordination Sequence:
#
# PCOD9449423 Si02
#       8
#     8   8   8   8   8   8   8   8
#     4  10  20  33  49  71  99 128 159 196 239 287
#     4   8  15  27  43  66  94 121 154 196 238 281
#     4   9  15  25  44  68  93 121 155 196 239 280
#     4   9  18  32  49  70  96 126 159 194 234 283
#     4   9  16  27  45  68  93 122 157 196 235 276
#     4  10  20  33  50  73  99 127 161 198 235 280
#     4   9  16  27  45  69  96 124 155 194 237 277
#     4  10  20  32  47  70  98 126 158 197 239 282
#
# _framework density 21.470894000000001
#
# number of rings (size 3 to 8) (size 9 to 14) (size 15 to 20)
#    0.000    2.750    0.000    3.000    0.000    7.500 
#    0.000    0.000    0.000    1.500    0.000    1.750 
#    0.000    0.000    0.000    0.000    0.000    0.000 
#
# Total GULP energy -357208.369538 kJ/mol
# GULP energy per Si atom -5581.380774 kJ/mol
# Density = 2.142202 g / cm^3
# Si number density = 21.470894 Si / 1000 Ang^3
#
#
#
# Elastic Constant Matrix: (Units=GPa)
#
#
# Indices 1 2 3 4 5 6 
#
# 1 60.6898 6.4781 -0.9964 0.0000 0.0000 0.0000
# 2 6.4781 199.9565 131.0457 0.0000 0.0000 0.0000
# 3 -0.9964 131.0457 211.3617 0.0000 0.0000 0.0000
# 4 0.0000 0.0000 0.0000 40.1379 0.0000 0.0000
# 5 0.0000 0.0000 0.0000 0.0000 17.6267 0.0000
# 6 0.0000 0.0000 0.0000 0.0000 0.0000 7.1956
#
#
#
# Elastic Compliance Matrix: (Units=1/GPa)
#
#
# Indices 1 2 3 4 5 6 
#
# 1 0.016594 -0.000992 0.000693 0.000000 0.000000 0.000000
# 2 -0.000992 0.008483 -0.005264 0.000000 0.000000 0.000000
# 3 0.000693 -0.005264 0.007998 0.000000 0.000000 0.000000
# 4 0.000000 0.000000 0.000000 0.024914 0.000000 0.000000
# 5 0.000000 0.000000 0.000000 0.000000 0.056732 0.000000
# 6 0.000000 0.000000 0.000000 0.000000 0.000000 0.138973
#
#
# Mechanical properties :
#
#
# Convention : Reuss Voigt Hill
#
# Bulk Modulus (GPa) = 45.55794 82.78476 64.17135
# Shear Modulus (GPa) = 18.37298 35.35742 26.86520
#
# Velocity S-wave (km/s) = 2.92843 4.06243 3.54112
# Velocity P-wave (km/s) = 5.71829 7.78748 6.83168
#
# Compressibility (1/GPa) = 0.02195007
#
# Stress axis : x y z
#
# Youngs Moduli (GPa) = 60.26097 117.87758 125.02387
#
# Poissons Ratio (x) = 0.11693 -0.08667
# Poissons Ratio (y) = 0.05978 0.65818
# Poissons Ratio (z) = -0.04178 0.62056
#
# Static dielectric constant tensor:
#      x y z
#    x 1.855670 0.000000 0.000000 
#    y 0.000000 1.744970 0.000000 
#    z 0.000000 0.000000 1.774510 
# 
# From -- ./inp_files/30997.got.cif
#   From: 2010.05.17/outbox.cif.g08.bks.cpg/sg59_16_cif.got.tgz:30997.got - 2010.06.03 14:40:33.
