data_PCOD9449129
_publ_section_title
;
Structure prediction by ZEFSAII (Michael W. Deem and Ramdas Pophale) SiO2 
 PCOD9449129
Probable space group: P M M N
;
_chemical_formula_sum "Si O2"
_cell_formula_units_Z 56
_cell_length_a 13.697260
_cell_length_b 32.210229
_cell_length_c 6.723511
_cell_angle_alpha 90.000000
_cell_angle_beta 90.000000
_cell_angle_gamma 90.000000
_cell_volume 2966.358467
_symmetry_space_group_name_H-M "P M M N"
_symmetry_group_IT_number 59
_space_group.IT_coordinate_system_code '2'
_symmetry_cell_setting 'orthorhombic'
loop_
_space_group_symop_operation_xyz
x,y,z
1/2-x,1/2-y,z
1/2+x,-y,-z
-x,1/2+y,-z
-x,-y,-z
1/2+x,1/2+y,-z
1/2-x,y,z
x,1/2-y,z
loop_
_atom_site_type_symbol
_atom_site_label
_atom_site_fract_x
_atom_site_fract_y
_atom_site_fract_z
Si Si1 0.980986 0.151644 0.611500
Si Si2 0.135946 0.135824 0.951381
Si Si3 0.966206 0.008354 0.280133
Si Si4 0.636905 0.170988 0.994044
Si Si5 0.863578 0.541903 0.979217
Si Si6 0.634890 0.096468 0.298896
Si Si7 0.962720 0.703049 0.766511
O O1 0.929331 0.116702 0.475547
O O2 0.020340 0.185362 0.454317
O O3 0.901485 0.168514 0.769075
O O4 0.069063 0.137581 0.754898
O O5 0.250000 0.139587 0.901676
O O6 0.121050 0.090828 0.052022
O O7 0.103426 0.171708 0.103910
O O8 0.903937 0.050487 0.259121
O O9 0.066044 0.015041 0.158562
O O10 0.000000 0.000000 0.500000
O O11 0.901094 0.970861 0.197141
O O12 0.750000 0.182178 0.003640
O O13 0.624219 0.126224 0.105223
O O14 0.567046 0.200675 0.120907
O O15 0.750000 0.532381 0.953401
O O16 0.750000 0.096181 0.350522
O O17 0.925875 0.750000 0.765070
#
# Coordination Sequence:
#
# PCOD9449129 Si02
#       7
#     8   8   8   8   8   8   8
#     4  10  19  35  59  85 111 142 184 229 278 336
#     4  10  22  41  62  80 106 147 189 230 278 331
#     4  11  22  36  56  84 116 150 191 237 282 331
#     4   9  19  36  58  83 114 152 187 221 270 334
#     4  10  22  39  57  81 113 149 190 234 280 330
#     4  10  20  35  56  84 118 153 188 231 282 335
#     4  10  22  38  56  82 114 143 177 227 281 333
#
# _framework density 18.878366
#
# number of rings (size 3 to 8) (size 9 to 14) (size 15 to 20)
#    0.000    2.000    0.000    4.286    0.000    6.286 
#    0.000    3.571    0.000    0.000    0.000    0.000 
#    0.000    0.000    0.000    0.000    0.000    0.000 
#
# Total GULP energy -312555.860884 kJ/mol
# GULP energy per Si atom -5581.354659 kJ/mol
# Density = 1.883540 g / cm^3
# Si number density = 18.878366 Si / 1000 Ang^3
#
#
#
# Elastic Constant Matrix: (Units=GPa)
#
#
# Indices 1 2 3 4 5 6 
#
# 1 108.7781 24.1954 18.8833 0.0000 0.0000 0.0000
# 2 24.1954 78.1440 5.8334 0.0000 0.0000 0.0000
# 3 18.8833 5.8334 79.4389 0.0000 0.0000 0.0000
# 4 0.0000 0.0000 0.0000 4.7407 0.0000 0.0000
# 5 0.0000 0.0000 0.0000 0.0000 16.9739 0.0000
# 6 0.0000 0.0000 0.0000 0.0000 0.0000 16.5823
#
#
#
# Elastic Compliance Matrix: (Units=1/GPa)
#
#
# Indices 1 2 3 4 5 6 
#
# 1 0.010246 -0.003007 -0.002215 0.000000 0.000000 0.000000
# 2 -0.003007 0.013750 -0.000295 0.000000 0.000000 0.000000
# 3 -0.002215 -0.000295 0.013136 0.000000 0.000000 0.000000
# 4 0.000000 0.000000 0.000000 0.210940 0.000000 0.000000
# 5 0.000000 0.000000 0.000000 0.000000 0.058914 0.000000
# 6 0.000000 0.000000 0.000000 0.000000 0.000000 0.060305
#
#
# Mechanical properties :
#
#
# Convention : Reuss Voigt Hill
#
# Bulk Modulus (GPa) = 38.31560 40.46502 39.39031
# Shear Modulus (GPa) = 12.91903 22.15595 17.53749
#
# Velocity S-wave (km/s) = 2.61881 3.42952 3.05121
# Velocity P-wave (km/s) = 5.42994 6.09617 5.77268
#
# Compressibility (1/GPa) = 0.02609903
#
# Stress axis : x y z
#
# Youngs Moduli (GPa) = 97.59523 72.72720 76.12416
#
# Poissons Ratio (x) = 0.21871 0.16860
# Poissons Ratio (y) = 0.29349 0.02245
# Poissons Ratio (z) = 0.21616 0.02144
#
# Static dielectric constant tensor:
#      x y z
#    x 1.646270 0.000000 0.000000 
#    y 0.000000 1.659640 0.000000 
#    z 0.000000 0.000000 1.699210 
# 
# From -- ./inp_files/2295.got.cif
#   From: 2010.05.17/outbox.cif.g08.bks.cpg/sg59_2_cif.got.tgz:2295.got - 2010.06.03 14:40:33.
