data_PCOD9449532
_publ_section_title
;
Structure prediction by ZEFSAII (Michael W. Deem and Ramdas Pophale) SiO2 
 PCOD9449532
Probable space group: P M M N
;
_chemical_formula_sum "Si O2"
_cell_formula_units_Z 58
_cell_length_a 10.506077
_cell_length_b 15.080140
_cell_length_c 18.120569
_cell_angle_alpha 90.000000
_cell_angle_beta 90.000000
_cell_angle_gamma 90.000000
_cell_volume 2870.898138
_symmetry_space_group_name_H-M "P M M N"
_symmetry_group_IT_number 59
_space_group.IT_coordinate_system_code '2'
_symmetry_cell_setting 'orthorhombic'
loop_
_space_group_symop_operation_xyz
x,y,z
1/2-x,1/2-y,z
1/2+x,-y,-z
-x,1/2+y,-z
-x,-y,-z
1/2+x,1/2+y,-z
1/2-x,y,z
x,1/2-y,z
loop_
_atom_site_type_symbol
_atom_site_label
_atom_site_fract_x
_atom_site_fract_y
_atom_site_fract_z
Si Si1 0.394384 0.141618 0.554330
Si Si2 0.961782 0.595037 0.866541
Si Si3 0.390619 0.857391 0.727319
Si Si4 0.398646 0.647164 0.007518
Si Si5 0.607006 0.858250 0.615748
Si Si6 0.103488 0.643409 0.329746
Si Si7 0.395373 0.602438 0.167290
Si Si8 0.750000 0.750000 0.855756
O O1 0.250000 0.114614 0.575007
O O2 0.395525 0.250000 0.555722
O O3 0.416230 0.115766 0.468998
O O4 0.505699 0.110024 0.608348
O O5 0.900326 0.502035 0.845513
O O6 0.860838 0.672923 0.856523
O O7 0.076110 0.612422 0.809426
O O8 0.016925 0.595045 0.949079
O O9 0.250000 0.886276 0.704555
O O10 0.393143 0.750000 0.726161
O O11 0.500652 0.889650 0.672304
O O12 0.250000 0.617614 0.007701
O O13 0.400562 0.750000 0.984151
O O14 0.449415 0.641765 0.091373
O O15 0.750000 0.885006 0.638002
O O16 0.605675 0.750000 0.617449
O O17 0.250000 0.610082 0.337148
O O18 0.109725 0.750000 0.337013
O O19 0.050940 0.623746 0.247723
O O20 0.250000 0.636022 0.171381
#
# Coordination Sequence:
#
# PCOD9449532 Si02
#       8
#     8   8   8   8   8   8   8   2
#     4   8  14  27  47  74 108 144 180 219 267 324
#     4  12  22  37  55  78 110 141 186 219 271 313
#     4  10  20  32  50  76 108 140 180 227 274 320
#     4  10  20  37  60  81 106 140 175 217 271 325
#     4   8  15  26  46  74 105 140 180 222 265 318
#     4   9  17  31  53  79 106 139 180 222 268 320
#     4  10  21  35  55  81 107 139 180 225 265 318
#     4  12  24  36  58  80 102 152 180 232 256 320
#
# _framework density 20.202736999999999
#
# number of rings (size 3 to 8) (size 9 to 14) (size 15 to 20)
#    0.000    2.345    2.069    2.069    0.966    3.310 
#    0.000    4.138    1.517    0.828    0.000    0.000 
#    0.000    0.000    0.000    0.000    0.000    0.000 
#
# Total GULP energy -323105.739542 kJ/mol
# GULP energy per Si atom -5570.788613 kJ/mol
# Density = 2.015676 g / cm^3
# Si number density = 20.202737 Si / 1000 Ang^3
#
#
#
# Elastic Constant Matrix: (Units=GPa)
#
#
# Indices 1 2 3 4 5 6 
#
# 1 101.8352 4.1866 72.4298 0.0000 0.0000 0.0000
# 2 4.1866 42.7206 -1.2619 0.0000 0.0000 0.0000
# 3 72.4298 -1.2619 114.7183 0.0000 0.0000 0.0000
# 4 0.0000 0.0000 0.0000 97.2637 0.0000 0.0000
# 5 0.0000 0.0000 0.0000 0.0000 -19.9754 0.0000
# 6 0.0000 0.0000 0.0000 0.0000 0.0000 7.8386
#
#
#
# Elastic Compliance Matrix: (Units=1/GPa)
#
#
# Indices 1 2 3 4 5 6 
#
# 1 0.018010 -0.002102 -0.011394 0.000000 0.000000 0.000000
# 2 -0.002102 0.023661 0.001587 0.000000 0.000000 0.000000
# 3 -0.011394 0.001587 0.015929 0.000000 0.000000 0.000000
# 4 0.000000 0.000000 0.000000 0.010281 0.000000 0.000000
# 5 0.000000 0.000000 0.000000 0.000000 -0.050062 0.000000
# 6 0.000000 0.000000 0.000000 0.000000 0.000000 0.127574
#
#
# Mechanical properties :
#
#
# Convention : Reuss Voigt Hill
#
# Bulk Modulus (GPa) = 29.60149 45.55369 37.57759
# Shear Modulus (GPa) = 27.70523 29.28668 28.49595
#
# Velocity S-wave (km/s) = 3.70721 3.81154 3.75974
# Velocity P-wave (km/s) = 5.74530 6.47825 6.12275
#
# Compressibility (1/GPa) = 0.03378208
#
# Stress axis : x y z
#
# Youngs Moduli (GPa) = 55.52359 42.26407 62.78046
#
# Poissons Ratio (x) = 0.08882 0.71534
# Poissons Ratio (y) = 0.11669 -0.09964
# Poissons Ratio (z) = 0.63265 -0.06708
#
# Static dielectric constant tensor:
#      x y z
#    x 1.708700 0.000000 0.000000 
#    y 0.000000 1.724560 0.000000 
#    z 0.000000 0.000000 1.724500 
# 
# From -- ./inp_files/22680.got.cif
#   From: 2010.05.17/outbox.cif.g08.bks.cpg/sg59_12_cif.got.tgz:22680.got - 2010.06.03 14:40:33.
