data_PCOD9449829
_publ_section_title
;
Structure prediction by ZEFSAII (Michael W. Deem and Ramdas Pophale) SiO2 
 PCOD9449829
Probable space group: P M M N
;
_chemical_formula_sum "Si O2"
_cell_formula_units_Z 64
_cell_length_a 9.511195
_cell_length_b 14.342724
_cell_length_c 24.696478
_cell_angle_alpha 90.000000
_cell_angle_beta 90.000000
_cell_angle_gamma 90.000000
_cell_volume 3369.005728
_symmetry_space_group_name_H-M "P M M N"
_symmetry_group_IT_number 59
_space_group.IT_coordinate_system_code '2'
_symmetry_cell_setting 'orthorhombic'
loop_
_space_group_symop_operation_xyz
x,y,z
1/2-x,1/2-y,z
1/2+x,-y,-z
-x,1/2+y,-z
-x,-y,-z
1/2+x,1/2+y,-z
1/2-x,y,z
x,1/2-y,z
loop_
_atom_site_type_symbol
_atom_site_label
_atom_site_fract_x
_atom_site_fract_y
_atom_site_fract_z
Si Si1 0.087279 0.864046 0.974690
Si Si2 0.915497 0.138036 0.146654
Si Si3 0.084440 0.857061 0.184333
Si Si4 0.588123 0.362297 0.458640
Si Si5 0.419657 0.040621 0.364052
Si Si6 0.420670 0.644914 0.420177
Si Si7 0.083114 0.458570 0.242583
Si Si8 0.910083 0.636320 0.077806
O O1 0.250000 0.890792 0.983573
O O2 0.085423 0.750000 0.974661
O O3 0.042343 0.892926 0.914183
O O4 0.988918 0.895430 0.023616
O O5 0.750000 0.116729 0.152627
O O6 0.930627 0.250000 0.148674
O O7 0.002837 0.093667 0.194906
O O8 0.250000 0.859701 0.169730
O O9 0.049968 0.750000 0.198535
O O10 0.994593 0.886515 0.132172
O O11 0.062509 0.931118 0.231782
O O12 0.750000 0.394912 0.452572
O O13 0.590187 0.250000 0.457244
O O14 0.492760 0.400132 0.410727
O O15 0.535801 0.386277 0.519274
O O16 0.250000 0.048869 0.367543
O O17 0.462521 0.066972 0.303194
O O18 0.457981 0.933217 0.376953
O O19 0.250000 0.648979 0.422218
O O20 0.470890 0.750000 0.409278
O O21 0.250000 0.440116 0.238147
O O22 0.750000 0.603261 0.080026
O O23 0.907927 0.750000 0.075888
#
# Coordination Sequence:
#
# PCOD9449829 Si02
#       8
#     8   8   8   8   8   8   8   8
#     4   8  14  27  48  72  96 123 158 200 247 301
#     4   9  19  36  56  75  97 131 172 209 249 300
#     4   9  18  34  53  70  95 133 170 205 248 298
#     4   9  18  33  53  77 104 135 170 204 243 297
#     4  10  20  33  51  76 104 133 167 210 255 294
#     4   8  15  30  53  79 105 133 166 205 249 297
#     4  10  22  36  50  74 103 131 170 214 252 293
#     4   9  16  26  45  75 103 125 156 200 251 305
#
# _framework density 18.996703
#
# number of rings (size 3 to 8) (size 9 to 14) (size 15 to 20)
#    0.000    3.000    0.000    2.250    0.000    4.500 
#    0.000    6.875    0.000    1.125    0.000    1.750 
#    0.000    0.000    0.000    0.000    0.000    0.000 
#
# Total GULP energy -356996.172391 kJ/mol
# GULP energy per Si atom -5578.065194 kJ/mol
# Density = 1.895347 g / cm^3
# Si number density = 18.996703 Si / 1000 Ang^3
#
#
#
# Elastic Constant Matrix: (Units=GPa)
#
#
# Indices 1 2 3 4 5 6 
#
# 1 28.3166 5.1495 25.1896 0.0000 0.0000 0.0000
# 2 5.1495 21.4473 1.0971 0.0000 0.0000 0.0000
# 3 25.1896 1.0971 75.6213 0.0000 0.0000 0.0000
# 4 0.0000 0.0000 0.0000 17.6122 0.0000 0.0000
# 5 0.0000 0.0000 0.0000 0.0000 27.3859 0.0000
# 6 0.0000 0.0000 0.0000 0.0000 0.0000 18.1413
#
#
#
# Elastic Compliance Matrix: (Units=1/GPa)
#
#
# Indices 1 2 3 4 5 6 
#
# 1 0.053028 -0.011837 -0.017492 0.000000 0.000000 0.000000
# 2 -0.011837 0.049303 0.003228 0.000000 0.000000 0.000000
# 3 -0.017492 0.003228 0.019004 0.000000 0.000000 0.000000
# 4 0.000000 0.000000 0.000000 0.056779 0.000000 0.000000
# 5 0.000000 0.000000 0.000000 0.000000 0.036515 0.000000
# 6 0.000000 0.000000 0.000000 0.000000 0.000000 0.055123
#
#
# Mechanical properties :
#
#
# Convention : Reuss Voigt Hill
#
# Bulk Modulus (GPa) = 14.46519 20.91751 17.69135
# Shear Modulus (GPa) = 14.49283 18.89116 16.69199
#
# Velocity S-wave (km/s) = 2.76508 3.15690 2.96747
# Velocity P-wave (km/s) = 4.22201 4.93184 4.59067
#
# Compressibility (1/GPa) = 0.06913146
#
# Stress axis : x y z
#
# Youngs Moduli (GPa) = 18.85795 20.28279 52.62158
#
# Poissons Ratio (x) = 0.24009 0.92046
# Poissons Ratio (y) = 0.22323 -0.16985
# Poissons Ratio (z) = 0.32986 -0.06547
#
# Static dielectric constant tensor:
#      x y z
#    x 1.632370 0.000000 0.000000 
#    y 0.000000 1.705810 0.000000 
#    z 0.000000 0.000000 1.633390 
# 
# From -- ./inp_files/31437.got.cif
#   From: 2010.05.17/outbox.cif.g08.bks.cpg/sg59_16_cif.got.tgz:31437.got - 2010.06.03 14:40:33.
