data_PCOD9449484
_publ_section_title
;
Structure prediction by ZEFSAII (Michael W. Deem and Ramdas Pophale) SiO2 
 PCOD9449484
Probable space group: P M M N
;
_chemical_formula_sum "Si O2"
_cell_formula_units_Z 48
_cell_length_a 8.868275
_cell_length_b 27.008899
_cell_length_c 11.814557
_cell_angle_alpha 90.000000
_cell_angle_beta 90.000000
_cell_angle_gamma 90.000000
_cell_volume 2829.850383
_symmetry_space_group_name_H-M "P M M N"
_symmetry_group_IT_number 59
_space_group.IT_coordinate_system_code '2'
_symmetry_cell_setting 'orthorhombic'
loop_
_space_group_symop_operation_xyz
x,y,z
1/2-x,1/2-y,z
1/2+x,-y,-z
-x,1/2+y,-z
-x,-y,-z
1/2+x,1/2+y,-z
1/2-x,y,z
x,1/2-y,z
loop_
_atom_site_type_symbol
_atom_site_label
_atom_site_fract_x
_atom_site_fract_y
_atom_site_fract_z
Si Si1 0.923194 0.866067 0.674241
Si Si2 0.075827 0.876408 0.301270
Si Si3 0.431189 0.446141 0.518106
Si Si4 0.571043 0.306677 0.131323
Si Si5 0.915990 0.807258 0.456917
Si Si6 0.069467 0.306788 0.883487
O O1 0.750000 0.875709 0.709215
O O2 0.971343 0.910908 0.590306
O O3 0.923227 0.819608 0.588431
O O4 0.019549 0.848587 0.780474
O O5 0.250000 0.887771 0.280703
O O6 0.993968 0.921785 0.365734
O O7 0.051643 0.833558 0.394547
O O8 0.000399 0.850482 0.192563
O O9 0.500000 0.500000 0.500000
O O10 0.250000 0.447886 0.522723
O O11 0.750000 0.309826 0.112847
O O12 0.538088 0.250000 0.171747
O O13 0.486336 0.312447 0.012044
O O14 0.750000 0.827282 0.417732
O O15 0.917220 0.750000 0.434430
O O16 0.250000 0.309239 0.877208
O O17 0.025552 0.250000 0.847482
#
# Coordination Sequence:
#
# PCOD9449484 Si02
#       6
#     8   8   8   8   8   8
#     4   9  18  32  50  72  99 132 168 205 248 302
#     4  11  21  32  49  74 103 133 167 209 256 305
#     4  10  21  38  58  79 102 130 168 213 262 313
#     4  10  20  32  48  74 107 140 175 213 249 291
#     4   9  17  29  45  67  98 134 169 205 247 298
#     4  10  20  34  52  73 102 142 181 213 249 297
#
# _framework density 16.962028
#
# number of rings (size 3 to 8) (size 9 to 14) (size 15 to 20)
#    0.000    2.167    0.000    5.000    0.000    8.333 
#    0.000    0.000    0.000    1.000    0.000    0.000 
#    0.000    0.000    0.000    0.000    0.000    0.000 
#
# Total GULP energy -267372.850502 kJ/mol
# GULP energy per Si atom -5570.267719 kJ/mol
# Density = 1.692342 g / cm^3
# Si number density = 16.962028 Si / 1000 Ang^3
#
#
#
# Elastic Constant Matrix: (Units=GPa)
#
#
# Indices 1 2 3 4 5 6 
#
# 1 74.4565 37.5490 41.2646 0.0000 0.0000 0.0000
# 2 37.5490 77.7141 43.7087 0.0000 0.0000 0.0000
# 3 41.2646 43.7087 84.7136 0.0000 0.0000 0.0000
# 4 0.0000 0.0000 0.0000 20.9104 0.0000 0.0000
# 5 0.0000 0.0000 0.0000 0.0000 -23.3342 0.0000
# 6 0.0000 0.0000 0.0000 0.0000 0.0000 24.9083
#
#
#
# Elastic Compliance Matrix: (Units=1/GPa)
#
#
# Indices 1 2 3 4 5 6 
#
# 1 0.020176 -0.005947 -0.006760 0.000000 0.000000 0.000000
# 2 -0.005947 0.019881 -0.007361 0.000000 0.000000 0.000000
# 3 -0.006760 -0.007361 0.018895 0.000000 0.000000 0.000000
# 4 0.000000 0.000000 0.000000 0.047823 0.000000 0.000000
# 5 0.000000 0.000000 0.000000 0.000000 -0.042855 0.000000
# 6 0.000000 0.000000 0.000000 0.000000 0.000000 0.040147
#
#
# Mechanical properties :
#
#
# Convention : Reuss Voigt Hill
#
# Bulk Modulus (GPa) = 53.14239 53.54765 53.34502
# Shear Modulus (GPa) = 33.22833 12.12101 22.67467
#
# Velocity S-wave (km/s) = 4.43084 2.67609 3.66018
# Velocity P-wave (km/s) = 7.58780 6.41766 7.02713
#
# Compressibility (1/GPa) = 0.01881737
#
# Stress axis : x y z
#
# Youngs Moduli (GPa) = 49.56438 50.29923 52.92347
#
# Poissons Ratio (x) = 0.29910 0.35774
# Poissons Ratio (y) = 0.29473 0.38958
# Poissons Ratio (z) = 0.33504 0.37026
#
# Static dielectric constant tensor:
#      x y z
#    x 1.565880 0.000000 0.000000 
#    y 0.000000 1.581560 0.000000 
#    z 0.000000 0.000000 1.577590 
# 
# From -- ./inp_files/14482.got.cif
#   From: 2010.05.17/outbox.cif.g08.bks.cpg/sg59_8_cif.got.tgz:14482.got - 2010.06.03 14:40:33.
