data_PCOD9449554
_publ_section_title
;
Structure prediction by ZEFSAII (Michael W. Deem and Ramdas Pophale) SiO2 
 PCOD9449554
Probable space group: P M M N
;
_chemical_formula_sum "Si O2"
_cell_formula_units_Z 64
_cell_length_a 8.029558
_cell_length_b 14.905534
_cell_length_c 25.186637
_cell_angle_alpha 90.000000
_cell_angle_beta 90.000000
_cell_angle_gamma 90.000000
_cell_volume 3014.458866
_symmetry_space_group_name_H-M "P M M N"
_symmetry_group_IT_number 59
_space_group.IT_coordinate_system_code '2'
_symmetry_cell_setting 'orthorhombic'
loop_
_space_group_symop_operation_xyz
x,y,z
1/2-x,1/2-y,z
1/2+x,-y,-z
-x,1/2+y,-z
-x,-y,-z
1/2+x,1/2+y,-z
1/2-x,y,z
x,1/2-y,z
loop_
_atom_site_type_symbol
_atom_site_label
_atom_site_fract_x
_atom_site_fract_y
_atom_site_fract_z
Si Si1 0.939131 0.846478 0.369077
Si Si2 0.048913 0.648005 0.087800
Si Si3 0.048264 0.854235 0.647304
Si Si4 0.444801 0.548305 0.754289
Si Si5 0.047488 0.853838 0.967718
Si Si6 0.549581 0.034880 0.132471
Si Si7 0.059832 0.849373 0.254450
Si Si8 0.946011 0.991883 0.560801
O O1 0.750000 0.850960 0.347736
O O2 0.958656 0.750000 0.396650
O O3 0.057933 0.848112 0.318598
O O4 0.966622 0.928570 0.407146
O O5 0.250000 0.648431 0.087889
O O6 0.994829 0.750000 0.099870
O O7 0.989561 0.570237 0.126333
O O8 0.991282 0.624651 0.027618
O O9 0.250000 0.858518 0.646834
O O10 0.999191 0.750000 0.650738
O O11 0.988924 0.901737 0.593309
O O12 0.986908 0.909189 0.699711
O O13 0.250000 0.572234 0.753918
O O14 0.515361 0.575431 0.811965
O O15 0.462110 0.440585 0.756067
O O16 0.250000 0.859775 0.968530
O O17 0.005643 0.750000 0.957477
O O18 0.984584 0.915905 0.920303
O O19 0.750000 0.044756 0.133052
O O20 0.250000 0.858014 0.234906
O O21 0.997075 0.750000 0.237659
O O22 0.750000 0.005484 0.563710
O O23 0.000000 0.000000 0.500000
#
# Coordination Sequence:
#
# PCOD9449554 Si02
#       8
#     8   8   8   8   8   8   8   8
#     4  10  20  36  60  88 118 149 182 227 282 336
#     4   9  18  33  52  74 104 146 188 229 286 350
#     4  10  22  42  65  87 116 156 199 241 287 342
#     4  10  21  36  55  81 115 151 188 233 287 342
#     4   8  15  30  52  76 104 139 183 234 287 344
#     4  10  20  32  51  81 110 141 185 237 287 335
#     4  10  20  34  55  82 109 143 186 227 274 335
#     4  12  25  41  64  92 123 157 194 238 286 338
#
# _framework density 21.231009
#
# number of rings (size 3 to 8) (size 9 to 14) (size 15 to 20)
#    0.000    2.125    1.250    3.000    0.000    4.000 
#    0.000    5.000    0.000    1.125    0.000    1.750 
#    0.000    0.000    0.000    0.000    0.000    0.000 
#
# Total GULP energy -357092.131431 kJ/mol
# GULP energy per Si atom -5579.564554 kJ/mol
# Density = 2.118269 g / cm^3
# Si number density = 21.231009 Si / 1000 Ang^3
#
#
#
# Elastic Constant Matrix: (Units=GPa)
#
#
# Indices 1 2 3 4 5 6 
#
# 1 33.6415 -0.0106 3.1361 0.0000 0.0000 0.0000
# 2 -0.0106 83.8834 53.4018 0.0000 0.0000 0.0000
# 3 3.1361 53.4018 135.0700 0.0000 0.0000 0.0000
# 4 0.0000 0.0000 0.0000 0.0636 0.0000 0.0000
# 5 0.0000 0.0000 0.0000 0.0000 12.1602 0.0000
# 6 0.0000 0.0000 0.0000 0.0000 0.0000 17.1973
#
#
#
# Elastic Compliance Matrix: (Units=1/GPa)
#
#
# Indices 1 2 3 4 5 6 
#
# 1 0.029812 0.000594 -0.000927 0.000000 0.000000 0.000000
# 2 0.000594 0.015943 -0.006317 0.000000 0.000000 0.000000
# 3 -0.000927 -0.006317 0.009923 0.000000 0.000000 0.000000
# 4 0.000000 0.000000 0.000000 15.720658 0.000000 0.000000
# 5 0.000000 0.000000 0.000000 0.000000 0.082236 0.000000
# 6 0.000000 0.000000 0.000000 0.000000 0.000000 0.058149
#
#
# Mechanical properties :
#
#
# Convention : Reuss Voigt Hill
#
# Bulk Modulus (GPa) = 23.59764 40.62771 32.11267
# Shear Modulus (GPa) = 0.31359 18.95540 9.63449
#
# Velocity S-wave (km/s) = 0.38474 2.99125 2.13255
# Velocity P-wave (km/s) = 3.36693 5.57742 4.60673
#
# Compressibility (1/GPa) = 0.04237712
#
# Stress axis : x y z
#
# Youngs Moduli (GPa) = 33.54375 62.72366 100.77980
#
# Poissons Ratio (x) = -0.03725 0.09342
# Poissons Ratio (y) = -0.01992 0.63663
# Poissons Ratio (z) = 0.03109 0.39623
#
# Static dielectric constant tensor:
#      x y z
#    x 1.782430 0.000000 0.000000 
#    y 0.000000 1.775220 0.000000 
#    z 0.000000 0.000000 1.764110 
# 
# From -- ./inp_files/31607.got.cif
#   From: 2010.05.17/outbox.cif.g08.bks.cpg/sg59_16_cif.got.tgz:31607.got - 2010.06.03 14:40:33.
