data_PCOD9449990
_publ_section_title
;
Structure prediction by ZEFSAII (Michael W. Deem and Ramdas Pophale) SiO2 
 PCOD9449990
Probable space group: P M M N
;
_chemical_formula_sum "Si O2"
_cell_formula_units_Z 64
_cell_length_a 12.895597
_cell_length_b 19.182883
_cell_length_c 15.385507
_cell_angle_alpha 90.000000
_cell_angle_beta 90.000000
_cell_angle_gamma 90.000000
_cell_volume 3805.985616
_symmetry_space_group_name_H-M "P M M N"
_symmetry_group_IT_number 59
_space_group.IT_coordinate_system_code '2'
_symmetry_cell_setting 'orthorhombic'
loop_
_space_group_symop_operation_xyz
x,y,z
1/2-x,1/2-y,z
1/2+x,-y,-z
-x,1/2+y,-z
-x,-y,-z
1/2+x,1/2+y,-z
1/2-x,y,z
x,1/2-y,z
loop_
_atom_site_type_symbol
_atom_site_label
_atom_site_fract_x
_atom_site_fract_y
_atom_site_fract_z
Si Si1 0.127192 0.828415 0.360322
Si Si2 0.508334 0.169446 0.821150
Si Si3 0.872982 0.833010 0.777648
Si Si4 0.625880 0.828396 0.578860
Si Si5 0.972556 0.932614 0.443821
Si Si6 0.374421 0.927112 0.047401
Si Si7 0.496032 0.947794 0.871114
Si Si8 0.626472 0.548392 0.254905
O O1 0.250000 0.835380 0.360999
O O2 0.099894 0.750000 0.391749
O O3 0.084514 0.833235 0.262195
O O4 0.073371 0.889078 0.414507
O O5 0.478649 0.250000 0.835488
O O6 0.569861 0.136238 0.901786
O O7 0.413703 0.118908 0.793493
O O8 0.750000 0.848357 0.788627
O O9 0.885877 0.750000 0.790940
O O10 0.902905 0.848606 0.677350
O O11 0.943582 0.879979 0.838535
O O12 0.750000 0.825447 0.578720
O O13 0.586737 0.750000 0.561940
O O14 0.590287 0.881352 0.506397
O O15 0.910562 0.948873 0.355101
O O16 0.000000 0.000000 0.500000
O O17 0.250000 0.923200 0.051208
O O18 0.418757 0.996592 0.094379
O O19 0.417748 0.930984 0.949583
O O20 0.432338 0.985897 0.794625
O O21 0.750000 0.542218 0.249255
#
# Coordination Sequence:
#
# PCOD9449990 Si02
#       8
#     8   8   8   8   8   8   8   8
#     4   9  18  33  51  70  98 135 168 202 251 308
#     4   9  19  35  54  78 103 128 166 214 258 304
#     4   9  18  34  56  78 100 130 168 212 260 303
#     4   9  18  33  52  73  98 129 166 208 252 298
#     4  11  21  32  49  76 105 133 170 215 255 294
#     4  10  20  33  53  77 102 138 175 209 254 304
#     4  10  20  35  53  75 106 137 172 212 252 306
#     4  10  21  36  53  74 104 143 176 206 255 311
#
# _framework density 16.815619000000002
#
# number of rings (size 3 to 8) (size 9 to 14) (size 15 to 20)
#    0.000    2.375    0.000    3.375    0.000    3.000 
#    0.000    3.750    0.000    1.125    0.000    1.750 
#    0.000    0.000    0.000    0.000    0.000    0.000 
#
# Total GULP energy -356908.615132 kJ/mol
# GULP energy per Si atom -5576.697111 kJ/mol
# Density = 1.677735 g / cm^3
# Si number density = 16.815619 Si / 1000 Ang^3
#
#
#
# Elastic Constant Matrix: (Units=GPa)
#
#
# Indices 1 2 3 4 5 6 
#
# 1 95.6401 39.9687 48.5958 0.0000 0.0000 0.0000
# 2 39.9687 79.7256 54.7791 0.0000 0.0000 0.0000
# 3 48.5958 54.7791 88.5906 0.0000 0.0000 0.0000
# 4 0.0000 0.0000 0.0000 30.4686 0.0000 0.0000
# 5 0.0000 0.0000 0.0000 0.0000 18.1525 0.0000
# 6 0.0000 0.0000 0.0000 0.0000 0.0000 15.3620
#
#
#
# Elastic Compliance Matrix: (Units=1/GPa)
#
#
# Indices 1 2 3 4 5 6 
#
# 1 0.014962 -0.003237 -0.006206 0.000000 0.000000 0.000000
# 2 -0.003237 0.022509 -0.012143 0.000000 0.000000 0.000000
# 3 -0.006206 -0.012143 0.022200 0.000000 0.000000 0.000000
# 4 0.000000 0.000000 0.000000 0.032821 0.000000 0.000000
# 5 0.000000 0.000000 0.000000 0.000000 0.055089 0.000000
# 6 0.000000 0.000000 0.000000 0.000000 0.000000 0.065096
#
#
# Mechanical properties :
#
#
# Convention : Reuss Voigt Hill
#
# Bulk Modulus (GPa) = 60.60391 61.18261 60.89326
# Shear Modulus (GPa) = 19.13168 20.83746 19.98457
#
# Velocity S-wave (km/s) = 3.37669 3.52401 3.45113
# Velocity P-wave (km/s) = 7.16388 7.28159 7.22298
#
# Compressibility (1/GPa) = 0.01650058
#
# Stress axis : x y z
#
# Youngs Moduli (GPa) = 66.83707 44.42692 45.04451
#
# Poissons Ratio (x) = 0.14380 0.27953
# Poissons Ratio (y) = 0.21634 0.54696
# Poissons Ratio (z) = 0.41477 0.53946
#
# Static dielectric constant tensor:
#      x y z
#    x 1.534340 0.000000 0.000000 
#    y 0.000000 1.567470 0.000000 
#    z 0.000000 0.000000 1.564000 
# 
# From -- ./inp_files/22699.got.cif
#   From: 2010.05.17/outbox.cif.g08.bks.cpg/sg59_12_cif.got.tgz:22699.got - 2010.06.03 14:40:33.
