data_PCOD9449852
_publ_section_title
;
Structure prediction by ZEFSAII (Michael W. Deem and Ramdas Pophale) SiO2 
 PCOD9449852
Probable space group: P M M N
;
_chemical_formula_sum "Si O2"
_cell_formula_units_Z 64
_cell_length_a 9.141425
_cell_length_b 27.437901
_cell_length_c 14.262685
_cell_angle_alpha 90.000000
_cell_angle_beta 90.000000
_cell_angle_gamma 90.000000
_cell_volume 3577.388248
_symmetry_space_group_name_H-M "P M M N"
_symmetry_group_IT_number 59
_space_group.IT_coordinate_system_code '2'
_symmetry_cell_setting 'orthorhombic'
loop_
_space_group_symop_operation_xyz
x,y,z
1/2-x,1/2-y,z
1/2+x,-y,-z
-x,1/2+y,-z
-x,-y,-z
1/2+x,1/2+y,-z
1/2-x,y,z
x,1/2-y,z
loop_
_atom_site_type_symbol
_atom_site_label
_atom_site_fract_x
_atom_site_fract_y
_atom_site_fract_z
Si Si1 0.075631 0.612252 0.194157
Si Si2 0.077685 0.307833 0.349486
Si Si3 0.928257 0.305970 0.951624
Si Si4 0.082894 0.809147 0.841396
Si Si5 0.922834 0.467811 0.276805
Si Si6 0.425004 0.606494 0.560435
Si Si7 0.077103 0.073045 0.627823
Si Si8 0.422882 0.506822 0.099386
O O1 0.250000 0.616394 0.212586
O O2 0.027515 0.657478 0.130103
O O3 0.053496 0.562127 0.136422
O O4 0.989423 0.607135 0.290971
O O5 0.250000 0.317381 0.356391
O O6 0.053128 0.250000 0.361729
O O7 0.017892 0.321327 0.246079
O O8 0.989242 0.339904 0.423376
O O9 0.750000 0.305392 0.953750
O O10 0.976617 0.250000 0.938013
O O11 0.971049 0.324312 0.055601
O O12 0.250000 0.826642 0.825578
O O13 0.089477 0.750000 0.846345
O O14 0.750000 0.463931 0.255429
O O15 0.964566 0.424623 0.346904
O O16 0.945181 0.518025 0.334579
O O17 0.010500 0.472341 0.180279
O O18 0.250000 0.606954 0.552398
O O19 0.495134 0.582241 0.469172
O O20 0.250000 0.080984 0.616663
O O21 0.250000 0.498886 0.090602
O O22 0.500000 0.500000 0.000000
#
# Coordination Sequence:
#
# PCOD9449852 Si02
#       8
#     8   8   8   8   8   8   8   8
#     4   9  18  33  52  74 101 135 173 211 254 304
#     4  10  21  36  52  74 107 141 171 208 256 309
#     4   8  14  27  50  77 101 129 170 215 251 289
#     4   8  14  27  48  72  98 131 170 209 251 298
#     4   9  20  37  56  79 105 134 172 217 261 309
#     4  11  22  36  57  81 102 130 173 220 262 310
#     4  10  20  36  56  77 104 135 167 210 266 316
#     4  10  20  33  51  76 109 144 174 209 255 311
#
# _framework density 17.890146999999999
#
# number of rings (size 3 to 8) (size 9 to 14) (size 15 to 20)
#    0.000    2.625    0.000    2.625    0.000    3.750 
#    0.000    3.750    0.000    3.375    0.000    0.000 
#    0.000    0.000    0.000    0.000    0.000    0.000 
#
# Total GULP energy -357035.695127 kJ/mol
# GULP energy per Si atom -5578.682736 kJ/mol
# Density = 1.784943 g / cm^3
# Si number density = 17.890147 Si / 1000 Ang^3
#
#
#
# Elastic Constant Matrix: (Units=GPa)
#
#
# Indices 1 2 3 4 5 6 
#
# 1 71.2244 38.3415 69.9283 0.0000 0.0000 0.0000
# 2 38.3415 37.0096 37.7520 0.0000 0.0000 0.0000
# 3 69.9283 37.7520 121.8635 0.0000 0.0000 0.0000
# 4 0.0000 0.0000 0.0000 18.9838 0.0000 0.0000
# 5 0.0000 0.0000 0.0000 0.0000 33.2915 0.0000
# 6 0.0000 0.0000 0.0000 0.0000 0.0000 18.5692
#
#
#
# Elastic Compliance Matrix: (Units=1/GPa)
#
#
# Indices 1 2 3 4 5 6 
#
# 1 0.049728 -0.032764 -0.018386 0.000000 0.000000 0.000000
# 2 -0.032764 0.061090 -0.000124 0.000000 0.000000 0.000000
# 3 -0.018386 -0.000124 0.018794 0.000000 0.000000 0.000000
# 4 0.000000 0.000000 0.000000 0.052676 0.000000 0.000000
# 5 0.000000 0.000000 0.000000 0.000000 0.030038 0.000000
# 6 0.000000 0.000000 0.000000 0.000000 0.000000 0.053853
#
#
# Mechanical properties :
#
#
# Convention : Reuss Voigt Hill
#
# Bulk Modulus (GPa) = 36.94745 58.01564 47.48155
# Shear Modulus (GPa) = 13.23634 19.77396 16.50515
#
# Velocity S-wave (km/s) = 2.72300 3.32821 3.04070
# Velocity P-wave (km/s) = 5.53024 6.87521 6.23907
#
# Compressibility (1/GPa) = 0.02706547
#
# Stress axis : x y z
#
# Youngs Moduli (GPa) = 20.10923 16.36940 53.20709
#
# Poissons Ratio (x) = 0.53632 0.97824
# Poissons Ratio (y) = 0.65885 0.00661
# Poissons Ratio (z) = 0.36972 0.00203
#
# Static dielectric constant tensor:
#      x y z
#    x 1.594700 0.000000 0.000000 
#    y 0.000000 1.625400 0.000000 
#    z 0.000000 0.000000 1.595190 
# 
# From -- ./inp_files/15017.got.cif
#   From: 2010.05.17/outbox.cif.g08.bks.cpg/sg59_8_cif.got.tgz:15017.got - 2010.06.03 14:40:33.
