data_PCOD9449884
_publ_section_title
;
Structure prediction by ZEFSAII (Michael W. Deem and Ramdas Pophale) SiO2 
 PCOD9449884
Probable space group: P M M N
;
_chemical_formula_sum "Si O2"
_cell_formula_units_Z 56
_cell_length_a 20.766709
_cell_length_b 7.708474
_cell_length_c 15.426781
_cell_angle_alpha 90.000000
_cell_angle_beta 90.000000
_cell_angle_gamma 90.000000
_cell_volume 2469.513493
_symmetry_space_group_name_H-M "P M M N"
_symmetry_group_IT_number 59
_space_group.IT_coordinate_system_code '2'
_symmetry_cell_setting 'orthorhombic'
loop_
_space_group_symop_operation_xyz
x,y,z
1/2-x,1/2-y,z
1/2+x,-y,-z
-x,1/2+y,-z
-x,-y,-z
1/2+x,1/2+y,-z
1/2-x,y,z
x,1/2-y,z
loop_
_atom_site_type_symbol
_atom_site_label
_atom_site_fract_x
_atom_site_fract_y
_atom_site_fract_z
Si Si1 0.319659 0.047401 0.805251
Si Si2 0.458192 0.550813 0.583081
Si Si3 0.582879 0.044570 0.849477
Si Si4 0.678609 0.460333 0.994280
Si Si5 0.456798 0.450157 0.769158
Si Si6 0.822861 0.959590 0.694510
Si Si7 0.822946 0.540002 0.494275
O O1 0.250000 0.970912 0.780481
O O2 0.317777 0.250000 0.778075
O O3 0.385990 0.967459 0.771933
O O4 0.324641 0.035602 0.909407
O O5 0.500000 0.500000 0.500000
O O6 0.471001 0.750000 0.602324
O O7 0.477826 0.450392 0.669384
O O8 0.382873 0.523363 0.561632
O O9 0.575204 0.250000 0.864805
O O10 0.623021 0.974627 0.930686
O O11 0.512506 0.970217 0.828441
O O12 0.626391 0.024722 0.763870
O O13 0.750000 0.501556 0.958499
O O14 0.674764 0.250000 0.001317
O O15 0.448853 0.250000 0.797313
O O16 0.750000 0.014291 0.717467
O O17 0.824772 0.750000 0.695639
O O18 0.834365 0.012441 0.594710
O O19 0.750000 0.485480 0.469743
O O20 0.823790 0.750000 0.491004
#
# Coordination Sequence:
#
# PCOD9449884 Si02
#       7
#     8   8   8   8   8   8   8
#     4   9  19  37  59  81 107 142 183 225 272 327
#     4  12  25  40  59  83 113 149 190 234 282 339
#     4  10  20  33  51  77 109 144 182 223 269 324
#     4   9  18  33  53  78 109 143 177 217 269 325
#     4  10  22  39  57  80 109 142 183 231 281 331
#     4   9  18  32  51  77 108 141 177 218 265 320
#     4   9  19  37  59  82 110 144 183 231 287 341
#
# _framework density 22.676531000000001
#
# number of rings (size 3 to 8) (size 9 to 14) (size 15 to 20)
#    0.000    2.286    0.000    3.429    0.000    6.857 
#    0.000    4.286    0.000    0.000    0.000    0.000 
#    0.000    0.000    0.000    0.000    0.000    0.000 
#
# Total GULP energy -312789.002582 kJ/mol
# GULP energy per Si atom -5585.517903 kJ/mol
# Density = 2.262492 g / cm^3
# Si number density = 22.676531 Si / 1000 Ang^3
#
#
#
# Elastic Constant Matrix: (Units=GPa)
#
#
# Indices 1 2 3 4 5 6 
#
# 1 112.7785 3.2685 21.3535 0.0000 0.0000 0.0000
# 2 3.2685 45.5612 -11.6509 0.0000 0.0000 0.0000
# 3 21.3535 -11.6509 35.0857 0.0000 0.0000 0.0000
# 4 0.0000 0.0000 0.0000 18.4715 0.0000 0.0000
# 5 0.0000 0.0000 0.0000 0.0000 35.8876 0.0000
# 6 0.0000 0.0000 0.0000 0.0000 0.0000 11.9266
#
#
#
# Elastic Compliance Matrix: (Units=1/GPa)
#
#
# Indices 1 2 3 4 5 6 
#
# 1 0.010287 -0.002556 -0.007110 0.000000 0.000000 0.000000
# 2 -0.002556 0.024620 0.009731 0.000000 0.000000 0.000000
# 3 -0.007110 0.009731 0.036060 0.000000 0.000000 0.000000
# 4 0.000000 0.000000 0.000000 0.054137 0.000000 0.000000
# 5 0.000000 0.000000 0.000000 0.000000 0.027865 0.000000
# 6 0.000000 0.000000 0.000000 0.000000 0.000000 0.083846
#
#
# Mechanical properties :
#
#
# Convention : Reuss Voigt Hill
#
# Bulk Modulus (GPa) = 14.06492 24.37417 19.21955
# Shear Modulus (GPa) = 19.20240 25.28744 22.24492
#
# Velocity S-wave (km/s) = 2.91313 3.34299 3.13544
# Velocity P-wave (km/s) = 4.18700 5.06683 4.64778
#
# Compressibility (1/GPa) = 0.07109888
#
# Stress axis : x y z
#
# Youngs Moduli (GPa) = 97.20856 40.61676 27.73147
#
# Poissons Ratio (x) = 0.10382 0.19716
# Poissons Ratio (y) = 0.24847 -0.26986
# Poissons Ratio (z) = 0.69112 -0.39526
#
# Static dielectric constant tensor:
#      x y z
#    x 1.894120 0.000000 0.000000 
#    y 0.000000 1.827830 0.000000 
#    z 0.000000 0.000000 1.826920 
# 
# From -- ./inp_files/24247.got.cif
#   From: 2010.05.17/outbox.cif.g08.bks.cpg/sg59_13_cif.got.tgz:24247.got - 2010.06.03 14:40:33.
