data_PCOD9449603
_publ_section_title
;
Structure prediction by ZEFSAII (Michael W. Deem and Ramdas Pophale) SiO2 
 PCOD9449603
Probable space group: P M M N
;
_chemical_formula_sum "Si O2"
_cell_formula_units_Z 56
_cell_length_a 15.043095
_cell_length_b 9.394149
_cell_length_c 19.089416
_cell_angle_alpha 90.000000
_cell_angle_beta 90.000000
_cell_angle_gamma 90.000000
_cell_volume 2697.660449
_symmetry_space_group_name_H-M "P M M N"
_symmetry_group_IT_number 59
_space_group.IT_coordinate_system_code '2'
_symmetry_cell_setting 'orthorhombic'
loop_
_space_group_symop_operation_xyz
x,y,z
1/2-x,1/2-y,z
1/2+x,-y,-z
-x,1/2+y,-z
-x,-y,-z
1/2+x,1/2+y,-z
1/2-x,y,z
x,1/2-y,z
loop_
_atom_site_type_symbol
_atom_site_label
_atom_site_fract_x
_atom_site_fract_y
_atom_site_fract_z
Si Si1 0.911345 0.578621 0.575177
Si Si2 0.356976 0.913923 0.138404
Si Si3 0.358779 0.584348 0.984315
Si Si4 0.900509 0.590892 0.725255
Si Si5 0.144701 0.409042 0.851947
Si Si6 0.886414 0.412027 0.287555
Si Si7 0.399974 0.081088 0.578230
O O1 0.934566 0.750000 0.577020
O O2 0.863123 0.547515 0.648859
O O3 0.863640 0.557602 0.500523
O O4 0.998791 0.478884 0.574168
O O5 0.250000 0.916276 0.137908
O O6 0.385370 0.750000 0.142743
O O7 0.385659 0.995143 0.207549
O O8 0.385543 0.969088 0.061666
O O9 0.250000 0.583696 0.982715
O O10 0.384868 0.750000 0.976535
O O11 0.392167 0.490826 0.919701
O O12 0.868483 0.750000 0.741187
O O13 0.006315 0.594714 0.712185
O O14 0.250000 0.395853 0.864250
O O15 0.107487 0.250000 0.843536
O O16 0.135777 0.500930 0.781963
O O17 0.853689 0.250000 0.285264
O O18 0.857762 0.494636 0.357697
O O19 0.398721 0.250000 0.592898
#
# Coordination Sequence:
#
# PCOD9449603 Si02
#       7
#     8   8   8   8   8   8   8
#     4   8  15  27  42  64  94 124 156 194 235 280
#     4   9  18  32  50  72  96 123 157 195 234 278
#     4   8  15  30  50  69  91 121 155 190 231 278
#     4   9  18  31  47  70  98 126 157 193 232 276
#     4  10  20  33  51  75  97 118 153 197 235 277
#     4  10  20  33  48  69  99 129 157 191 235 286
#     4   9  15  25  44  67  91 121 158 198 236 273
#
# _framework density 20.758728999999999
#
# number of rings (size 3 to 8) (size 9 to 14) (size 15 to 20)
#    0.000    3.000    0.000    3.000    0.000    5.143 
#    0.000    2.143    0.000    0.857    0.000    2.000 
#    0.000    0.000    0.000    0.000    0.000    0.000 
#
# Total GULP energy -312082.574142 kJ/mol
# GULP energy per Si atom -5572.903110 kJ/mol
# Density = 2.071148 g / cm^3
# Si number density = 20.758729 Si / 1000 Ang^3
#
#
#
# Elastic Constant Matrix: (Units=GPa)
#
#
# Indices 1 2 3 4 5 6 
#
# 1 40.0497 6.4748 7.1112 0.0000 0.0000 0.0000
# 2 6.4748 122.4767 115.6295 0.0000 0.0000 0.0000
# 3 7.1112 115.6295 244.3654 0.0000 0.0000 0.0000
# 4 0.0000 0.0000 0.0000 44.0247 0.0000 0.0000
# 5 0.0000 0.0000 0.0000 0.0000 24.5832 0.0000
# 6 0.0000 0.0000 0.0000 0.0000 0.0000 10.4760
#
#
#
# Elastic Compliance Matrix: (Units=1/GPa)
#
#
# Indices 1 2 3 4 5 6 
#
# 1 0.025189 -0.001156 -0.000186 0.000000 0.000000 0.000000
# 2 -0.001156 0.014810 -0.006974 0.000000 0.000000 0.000000
# 3 -0.000186 -0.006974 0.007398 0.000000 0.000000 0.000000
# 4 0.000000 0.000000 0.000000 0.022714 0.000000 0.000000
# 5 0.000000 0.000000 0.000000 0.000000 0.040678 0.000000
# 6 0.000000 0.000000 0.000000 0.000000 0.000000 0.095456
#
#
# Mechanical properties :
#
#
# Convention : Reuss Voigt Hill
#
# Bulk Modulus (GPa) = 32.50523 73.92475 53.21499
# Shear Modulus (GPa) = 21.44695 34.32854 27.88774
#
# Velocity S-wave (km/s) = 3.21776 4.07097 3.66925
# Velocity P-wave (km/s) = 5.43119 7.60170 6.60620
#
# Compressibility (1/GPa) = 0.03076428
#
# Stress axis : x y z
#
# Youngs Moduli (GPa) = 39.70006 67.52001 135.17509
#
# Poissons Ratio (x) = 0.07805 0.02514
# Poissons Ratio (y) = 0.04589 0.94277
# Poissons Ratio (z) = 0.00738 0.47091
#
# Static dielectric constant tensor:
#      x y z
#    x 1.803930 0.000000 0.000000 
#    y 0.000000 1.725790 0.000000 
#    z 0.000000 0.000000 1.781800 
# 
# From -- ./inp_files/28055.got.cif
#   From: 2010.05.17/outbox.cif.g08.bks.cpg/sg59_15_cif.got.tgz:28055.got - 2010.06.03 14:40:33.
