data_PCOD9449672
_publ_section_title
;
Structure prediction by ZEFSAII (Michael W. Deem and Ramdas Pophale) SiO2 
 PCOD9449672
Probable space group: P M M N
;
_chemical_formula_sum "Si O2"
_cell_formula_units_Z 64
_cell_length_a 24.449250
_cell_length_b 8.939538
_cell_length_c 15.753039
_cell_angle_alpha 90.000000
_cell_angle_beta 90.000000
_cell_angle_gamma 90.000000
_cell_volume 3443.062960
_symmetry_space_group_name_H-M "P M M N"
_symmetry_group_IT_number 59
_space_group.IT_coordinate_system_code '2'
_symmetry_cell_setting 'orthorhombic'
loop_
_space_group_symop_operation_xyz
x,y,z
1/2-x,1/2-y,z
1/2+x,-y,-z
-x,1/2+y,-z
-x,-y,-z
1/2+x,1/2+y,-z
1/2-x,y,z
x,1/2-y,z
loop_
_atom_site_type_symbol
_atom_site_label
_atom_site_fract_x
_atom_site_fract_y
_atom_site_fract_z
Si Si1 0.371954 0.079745 0.855190
Si Si2 0.816032 0.074330 0.983873
Si Si3 0.499198 0.420798 0.910319
Si Si4 0.972966 0.583388 0.750569
Si Si5 0.560486 0.571715 0.481471
Si Si6 0.597484 0.418426 0.309308
Si Si7 0.891316 0.074110 0.641518
Si Si8 0.186640 0.932085 0.204980
O O1 0.353454 0.250000 0.843575
O O2 0.436472 0.083058 0.878567
O O3 0.341980 0.007756 0.935918
O O4 0.367108 0.991299 0.766229
O O5 0.750000 0.063289 0.986771
O O6 0.830503 0.250000 0.989721
O O7 0.832630 0.018827 0.889184
O O8 0.519609 0.250000 0.913429
O O9 0.532858 0.521510 0.844883
O O10 0.500000 0.500000 0.000000
O O11 0.949164 0.750000 0.738043
O O12 0.948013 0.459318 0.689423
O O13 0.036685 0.594597 0.729751
O O14 0.500000 0.500000 0.500000
O O15 0.446112 0.250000 0.517674
O O16 0.586830 0.515109 0.393467
O O17 0.601678 0.517455 0.555431
O O18 0.616296 0.250000 0.330417
O O19 0.883890 0.250000 0.624383
O O20 0.847563 0.022192 0.712377
O O21 0.250000 0.975245 0.214332
O O22 0.184383 0.750000 0.202824
#
# Coordination Sequence:
#
# PCOD9449672 Si02
#       8
#     8   8   8   8   8   8   8   8
#     4  10  21  35  52  78 109 142 178 223 276 329
#     4   9  18  35  59  84 109 142 186 231 274 326
#     4  10  21  34  47  68 102 143 183 219 263 321
#     4  10  20  33  49  72 105 141 179 223 267 317
#     4  12  23  36  55  80 112 148 185 229 275 329
#     4  10  20  36  56  77 106 144 182 225 270 322
#     4  11  21  33  55  83 109 144 185 229 278 328
#     4   8  17  35  57  82 110 142 184 230 273 320
#
# _framework density 18.588100000000001
#
# number of rings (size 3 to 8) (size 9 to 14) (size 15 to 20)
#    0.000    2.000    1.250    3.750    1.750    2.750 
#    0.000    0.625    0.000    3.750    0.000    1.750 
#    0.000    0.000    0.000    0.000    0.000    0.000 
#
# Total GULP energy -356841.438273 kJ/mol
# GULP energy per Si atom -5575.647473 kJ/mol
# Density = 1.854579 g / cm^3
# Si number density = 18.588100 Si / 1000 Ang^3
#
#
#
# Elastic Constant Matrix: (Units=GPa)
#
#
# Indices 1 2 3 4 5 6 
#
# 1 34.3786 23.3121 29.8697 0.0000 0.0000 0.0000
# 2 23.3121 109.0796 70.0000 0.0000 0.0000 0.0000
# 3 29.8697 70.0000 165.9982 0.0000 0.0000 0.0000
# 4 0.0000 0.0000 0.0000 30.3108 0.0000 0.0000
# 5 0.0000 0.0000 0.0000 0.0000 24.8866 0.0000
# 6 0.0000 0.0000 0.0000 0.0000 0.0000 15.1735
#
#
#
# Elastic Compliance Matrix: (Units=1/GPa)
#
#
# Indices 1 2 3 4 5 6 
#
# 1 0.036284 -0.004887 -0.004468 0.000000 0.000000 0.000000
# 2 -0.004887 0.013227 -0.004698 0.000000 0.000000 0.000000
# 3 -0.004468 -0.004698 0.008809 0.000000 0.000000 0.000000
# 4 0.000000 0.000000 0.000000 0.032992 0.000000 0.000000
# 5 0.000000 0.000000 0.000000 0.000000 0.040182 0.000000
# 6 0.000000 0.000000 0.000000 0.000000 0.000000 0.065904
#
#
# Mechanical properties :
#
#
# Convention : Reuss Voigt Hill
#
# Bulk Modulus (GPa) = 33.09799 61.75776 47.42788
# Shear Modulus (GPa) = 21.22450 26.49250 23.85850
#
# Velocity S-wave (km/s) = 3.38277 3.77933 3.58653
# Velocity P-wave (km/s) = 5.75345 7.23470 6.53617
#
# Compressibility (1/GPa) = 0.03021331
#
# Stress axis : x y z
#
# Youngs Moduli (GPa) = 27.56041 75.60179 113.51488
#
# Poissons Ratio (x) = 0.36948 0.50719
# Poissons Ratio (y) = 0.13469 0.53334
# Poissons Ratio (z) = 0.12314 0.35521
#
# Static dielectric constant tensor:
#      x y z
#    x 1.649760 0.000000 0.000000 
#    y 0.000000 1.664200 0.000000 
#    z 0.000000 0.000000 1.567110 
# 
# From -- ./inp_files/21864.got.cif
#   From: 2010.05.17/outbox.cif.g08.bks.cpg/sg59_11_cif.got.tgz:21864.got - 2010.06.03 14:40:33.
