data_PCOD9449382
_publ_section_title
;
Structure prediction by ZEFSAII (Michael W. Deem and Ramdas Pophale) SiO2 
 PCOD9449382
Probable space group: P M M N
;
_chemical_formula_sum "Si O2"
_cell_formula_units_Z 56
_cell_length_a 7.319434
_cell_length_b 12.811820
_cell_length_c 26.800669
_cell_angle_alpha 90.000000
_cell_angle_beta 90.000000
_cell_angle_gamma 90.000000
_cell_volume 2513.239996
_symmetry_space_group_name_H-M "P M M N"
_symmetry_group_IT_number 59
_space_group.IT_coordinate_system_code '2'
_symmetry_cell_setting 'orthorhombic'
loop_
_space_group_symop_operation_xyz
x,y,z
1/2-x,1/2-y,z
1/2+x,-y,-z
-x,1/2+y,-z
-x,-y,-z
1/2+x,1/2+y,-z
1/2-x,y,z
x,1/2-y,z
loop_
_atom_site_type_symbol
_atom_site_label
_atom_site_fract_x
_atom_site_fract_y
_atom_site_fract_z
Si Si1 0.027175 0.518557 0.262124
Si Si2 0.971738 0.585181 0.931944
Si Si3 0.472402 0.750000 0.405081
Si Si4 0.027207 0.371426 0.355442
Si Si5 0.037877 0.858999 0.043973
Si Si6 0.528106 0.250000 0.711461
Si Si7 0.967483 0.025186 0.557522
Si Si8 0.027696 0.137086 0.178310
O O1 0.250000 0.520723 0.262692
O O2 0.973615 0.445003 0.308799
O O3 0.966973 0.638756 0.266367
O O4 0.968123 0.458754 0.212218
O O5 0.750000 0.588565 0.933253
O O6 0.030000 0.630558 0.879244
O O7 0.030898 0.635722 0.983817
O O8 0.038305 0.466088 0.935500
O O9 0.250000 0.750000 0.408230
O O10 0.519984 0.750000 0.346876
O O11 0.536485 0.858785 0.429022
O O12 0.250000 0.368165 0.355043
O O13 0.967857 0.250000 0.352917
O O14 0.967244 0.433947 0.405146
O O15 0.250000 0.859062 0.058675
O O16 0.955238 0.750000 0.060537
O O17 0.750000 0.250000 0.714602
O O18 0.750000 0.029058 0.565629
O O19 0.000000 0.000000 0.500000
O O20 0.250000 0.134345 0.178019
O O21 0.974318 0.250000 0.199537
#
# Coordination Sequence:
#
# PCOD9449382 Si02
#       8
#     8   8   4   8   8   4   8   8
#     4   9  15  24  38  59  85 114 144 176 217 264
#     4   9  17  29  44  64  89 118 150 181 220 268
#     4   9  16  30  47  63  89 123 153 181 218 265
#     4   9  16  26  41  61  86 115 146 180 217 258
#     4   9  17  29  44  62  87 118 151 186 221 259
#     4   9  14  24  40  57  83 119 151 173 206 267
#     4  10  20  32  47  67  92 120 150 184 222 262
#     4   9  16  25  38  59  86 112 141 180 223 263
#
# _framework density 22.281994999999998
#
# number of rings (size 3 to 8) (size 9 to 14) (size 15 to 20)
#    0.000    2.857    1.429    0.857    1.000    2.571 
#    1.286    0.000    0.000    0.000    0.000    1.000 
#    0.000    2.286    0.000    0.000    0.000    0.000 
#
# Total GULP energy -312556.762634 kJ/mol
# GULP energy per Si atom -5581.370761 kJ/mol
# Density = 2.223128 g / cm^3
# Si number density = 22.281995 Si / 1000 Ang^3
#
#
#
# Elastic Constant Matrix: (Units=GPa)
#
#
# Indices 1 2 3 4 5 6 
#
# 1 88.3554 3.6125 -9.2345 0.0000 0.0000 0.0000
# 2 3.6125 232.4416 61.7036 0.0000 0.0000 0.0000
# 3 -9.2345 61.7036 86.6974 0.0000 0.0000 0.0000
# 4 0.0000 0.0000 0.0000 -133.3411 0.0000 0.0000
# 5 0.0000 0.0000 0.0000 0.0000 8.5250 0.0000
# 6 0.0000 0.0000 0.0000 0.0000 0.0000 -12.8875
#
#
#
# Elastic Compliance Matrix: (Units=1/GPa)
#
#
# Indices 1 2 3 4 5 6 
#
# 1 0.011518 -0.000622 0.001670 0.000000 0.000000 0.000000
# 2 -0.000622 0.005338 -0.003865 0.000000 0.000000 0.000000
# 3 0.001670 -0.003865 0.014463 0.000000 0.000000 0.000000
# 4 0.000000 0.000000 0.000000 -0.007500 0.000000 0.000000
# 5 0.000000 0.000000 0.000000 0.000000 0.117302 0.000000
# 6 0.000000 0.000000 0.000000 0.000000 0.000000 -0.077595
#
#
# Mechanical properties :
#
#
# Convention : Reuss Voigt Hill
#
# Bulk Modulus (GPa) = 38.93593 57.73973 48.33783
# Shear Modulus (GPa) = 64.33057 -4.11320 30.10868
#
# Velocity S-wave (km/s) = 5.37901 -1.36014 3.67993
# Velocity P-wave (km/s) = 7.48936 4.84797 6.30846
#
# Compressibility (1/GPa) = 0.02568322
#
# Stress axis : x y z
#
# Youngs Moduli (GPa) = 86.82157 187.33912 69.14087
#
# Poissons Ratio (x) = 0.11657 -0.11544
# Poissons Ratio (y) = 0.05402 0.26725
# Poissons Ratio (z) = -0.14496 0.72413
#
# Static dielectric constant tensor:
#      x y z
#    x 1.964630 0.000000 0.000000 
#    y 0.000000 1.839300 0.000000 
#    z 0.000000 0.000000 1.763870 
# 
# From -- ./inp_files/31931.got.cif
#   From: 2010.05.17/outbox.cif.g08.bks.cpg/sg59_16_cif.got.tgz:31931.got - 2010.06.03 14:40:33.
