data_PCOD9449472
_publ_section_title
;
Structure prediction by ZEFSAII (Michael W. Deem and Ramdas Pophale) SiO2 
 PCOD9449472
Probable space group: P M M N
;
_chemical_formula_sum "Si O2"
_cell_formula_units_Z 40
_cell_length_a 18.722144
_cell_length_b 8.810207
_cell_length_c 13.969715
_cell_angle_alpha 90.000000
_cell_angle_beta 90.000000
_cell_angle_gamma 90.000000
_cell_volume 2304.248109
_symmetry_space_group_name_H-M "P M M N"
_symmetry_group_IT_number 59
_space_group.IT_coordinate_system_code '2'
_symmetry_cell_setting 'orthorhombic'
loop_
_space_group_symop_operation_xyz
x,y,z
1/2-x,1/2-y,z
1/2+x,-y,-z
-x,1/2+y,-z
-x,-y,-z
1/2+x,1/2+y,-z
1/2-x,y,z
x,1/2-y,z
loop_
_atom_site_type_symbol
_atom_site_label
_atom_site_fract_x
_atom_site_fract_y
_atom_site_fract_z
Si Si1 0.472224 0.569358 0.098661
Si Si2 0.108357 0.068873 0.389297
Si Si3 0.668746 0.433022 0.416338
Si Si4 0.962154 0.433296 0.288971
Si Si5 0.668863 0.567708 0.818644
O O1 0.475404 0.750000 0.095513
O O2 0.518540 0.507723 0.188083
O O3 0.391547 0.514505 0.120187
O O4 0.500000 0.500000 0.000000
O O5 0.111894 0.250000 0.404699
O O6 0.153094 0.033607 0.293153
O O7 0.026647 0.028704 0.362501
O O8 0.138876 0.987171 0.481717
O O9 0.750000 0.486630 0.402306
O O10 0.669168 0.250000 0.415916
O O11 0.612792 0.481238 0.334669
O O12 0.963452 0.250000 0.277306
O O13 0.750000 0.526998 0.842943
O O14 0.660183 0.750000 0.829232
#
# Coordination Sequence:
#
# PCOD9449472 Si02
#       5
#     8   8   8   8   8
#     4  11  22  37  58  80 102 132 173 217 263 314
#     4   9  17  30  50  74 102 138 173 205 248 304
#     4  10  20  32  48  73 105 139 173 212 256 300
#     4   9  19  36  53  71 100 136 174 215 260 310
#     4   9  18  34  55  80 110 139 168 209 261 310
#
# _framework density 17.359242999999999
#
# number of rings (size 3 to 8) (size 9 to 14) (size 15 to 20)
#    0.000    2.400    0.000    4.200    0.000    5.600 
#    0.000    1.000    0.000    3.600    0.000    0.000 
#    0.000    0.000    0.000    0.000    0.000    0.000 
#
# Total GULP energy -223224.969504 kJ/mol
# GULP energy per Si atom -5580.624238 kJ/mol
# Density = 1.731973 g / cm^3
# Si number density = 17.359243 Si / 1000 Ang^3
#
#
#
# Elastic Constant Matrix: (Units=GPa)
#
#
# Indices 1 2 3 4 5 6 
#
# 1 171.3192 58.2677 104.5305 0.0000 0.0000 0.0000
# 2 58.2677 43.9468 47.5105 0.0000 0.0000 0.0000
# 3 104.5305 47.5105 113.3533 0.0000 0.0000 0.0000
# 4 0.0000 0.0000 0.0000 31.8263 0.0000 0.0000
# 5 0.0000 0.0000 0.0000 0.0000 16.7005 0.0000
# 6 0.0000 0.0000 0.0000 0.0000 0.0000 22.9306
#
#
#
# Elastic Compliance Matrix: (Units=1/GPa)
#
#
# Indices 1 2 3 4 5 6 
#
# 1 0.015099 -0.009081 -0.010117 0.000000 0.000000 0.000000
# 2 -0.009081 0.047071 -0.011355 0.000000 0.000000 0.000000
# 3 -0.010117 -0.011355 0.022911 0.000000 0.000000 0.000000
# 4 0.000000 0.000000 0.000000 0.031421 0.000000 0.000000
# 5 0.000000 0.000000 0.000000 0.000000 0.059878 0.000000
# 6 0.000000 0.000000 0.000000 0.000000 0.000000 0.043610
#
#
# Mechanical properties :
#
#
# Convention : Reuss Voigt Hill
#
# Bulk Modulus (GPa) = 41.71168 83.24851 62.48009
# Shear Modulus (GPa) = 17.29584 22.17886 19.73735
#
# Velocity S-wave (km/s) = 3.15992 3.57829 3.37559
# Velocity P-wave (km/s) = 6.11508 8.07048 7.15984
#
# Compressibility (1/GPa) = 0.02397410
#
# Stress axis : x y z
#
# Youngs Moduli (GPa) = 66.23066 21.24461 43.64740
#
# Poissons Ratio (x) = 0.19293 0.44159
# Poissons Ratio (y) = 0.60146 0.49560
# Poissons Ratio (z) = 0.67007 0.24122
#
# Static dielectric constant tensor:
#      x y z
#    x 1.605880 0.000000 0.000000 
#    y 0.000000 1.583590 0.000000 
#    z 0.000000 0.000000 1.549770 
# 
# From -- ./inp_files/14079.got.cif
#   From: 2010.05.17/outbox.cif.g08.bks.cpg/sg59_8_cif.got.tgz:14079.got - 2010.06.03 14:40:33.
