data_PCOD9449387
_publ_section_title
;
Structure prediction by ZEFSAII (Michael W. Deem and Ramdas Pophale) SiO2 
 PCOD9449387
Probable space group: P M M N
;
_chemical_formula_sum "Si O2"
_cell_formula_units_Z 56
_cell_length_a 14.867428
_cell_length_b 9.147077
_cell_length_c 21.378324
_cell_angle_alpha 90.000000
_cell_angle_beta 90.000000
_cell_angle_gamma 90.000000
_cell_volume 2907.313291
_symmetry_space_group_name_H-M "P M M N"
_symmetry_group_IT_number 59
_space_group.IT_coordinate_system_code '2'
_symmetry_cell_setting 'orthorhombic'
loop_
_space_group_symop_operation_xyz
x,y,z
1/2-x,1/2-y,z
1/2+x,-y,-z
-x,1/2+y,-z
-x,-y,-z
1/2+x,1/2+y,-z
1/2-x,y,z
x,1/2-y,z
loop_
_atom_site_type_symbol
_atom_site_label
_atom_site_fract_x
_atom_site_fract_y
_atom_site_fract_z
Si Si1 0.597321 0.087094 0.598452
Si Si2 0.647435 0.918457 0.480613
Si Si3 0.355502 0.573724 0.029505
Si Si4 0.024193 0.924564 0.909894
Si Si5 0.466940 0.575826 0.768718
Si Si6 0.896731 0.915475 0.347095
Si Si7 0.651852 0.072843 0.730537
O O1 0.629570 0.250000 0.582995
O O2 0.499470 0.094705 0.629388
O O3 0.653573 0.028975 0.657111
O O4 0.594188 0.997878 0.534965
O O5 0.750000 0.919589 0.502879
O O6 0.616711 0.750000 0.475123
O O7 0.647205 0.979581 0.409998
O O8 0.250000 0.528621 0.034793
O O9 0.357182 0.750000 0.036630
O O10 0.428844 0.503507 0.076463
O O11 0.400934 0.537210 0.962064
O O12 0.008728 0.750000 0.914485
O O13 0.058692 0.956335 0.840213
O O14 0.471126 0.750000 0.759554
O O15 0.401639 0.506163 0.716508
O O16 0.566552 0.507035 0.759837
O O17 0.862846 0.750000 0.335876
O O18 0.750000 0.040920 0.758778
O O19 0.638754 0.250000 0.732398
#
# Coordination Sequence:
#
# PCOD9449387 Si02
#       7
#     8   8   8   8   8   8   8
#     4   9  17  30  48  67  88 118 155 196 244 296
#     4  10  20  32  47  68  92 118 152 199 252 297
#     4   9  18  34  57  82 106 136 173 206 239 289
#     4   9  19  35  53  77 110 139 164 205 255 293
#     4  10  20  33  50  72  98 130 166 201 240 285
#     4   9  19  35  50  65  91 126 161 197 239 290
#     4   9  18  32  48  68  97 131 165 202 247 299
#
# _framework density 19.261769000000001
#
# number of rings (size 3 to 8) (size 9 to 14) (size 15 to 20)
#    0.000    2.714    0.000    2.143    0.000    6.000 
#    0.000    3.571    0.000    0.857    0.000    0.000 
#    0.000    0.000    0.000    0.000    0.000    0.000 
#
# Total GULP energy -311809.205620 kJ/mol
# GULP energy per Si atom -5568.021529 kJ/mol
# Density = 1.921793 g / cm^3
# Si number density = 19.261769 Si / 1000 Ang^3
#
#
#
# Elastic Constant Matrix: (Units=GPa)
#
#
# Indices 1 2 3 4 5 6 
#
# 1 39.5868 -2.7923 -8.7274 0.0000 0.0000 0.0000
# 2 -2.7923 30.0753 34.2048 0.0000 0.0000 0.0000
# 3 -8.7274 34.2048 103.8854 0.0000 0.0000 0.0000
# 4 0.0000 0.0000 0.0000 29.0736 0.0000 0.0000
# 5 0.0000 0.0000 0.0000 0.0000 12.9837 0.0000
# 6 0.0000 0.0000 0.0000 0.0000 0.0000 12.8181
#
#
#
# Elastic Compliance Matrix: (Units=1/GPa)
#
#
# Indices 1 2 3 4 5 6 
#
# 1 0.025738 -0.000111 0.002199 0.000000 0.000000 0.000000
# 2 -0.000111 0.053155 -0.017511 0.000000 0.000000 0.000000
# 3 0.002199 -0.017511 0.015576 0.000000 0.000000 0.000000
# 4 0.000000 0.000000 0.000000 0.034396 0.000000 0.000000
# 5 0.000000 0.000000 0.000000 0.000000 0.077019 0.000000
# 6 0.000000 0.000000 0.000000 0.000000 0.000000 0.078015
#
#
# Mechanical properties :
#
#
# Convention : Reuss Voigt Hill
#
# Bulk Modulus (GPa) = 15.71768 24.32417 20.02093
# Shear Modulus (GPa) = 14.88308 21.03258 17.95783
#
# Velocity S-wave (km/s) = 2.78272 3.30803 3.05668
# Velocity P-wave (km/s) = 4.30145 5.21980 4.78272
#
# Compressibility (1/GPa) = 0.06362260
#
# Stress axis : x y z
#
# Youngs Moduli (GPa) = 38.85321 18.81302 64.20038
#
# Poissons Ratio (x) = 0.00209 -0.14117
# Poissons Ratio (y) = 0.00432 1.12420
# Poissons Ratio (z) = -0.08543 0.32943
#
# Static dielectric constant tensor:
#      x y z
#    x 1.717170 0.000000 0.000000 
#    y 0.000000 1.673950 0.000000 
#    z 0.000000 0.000000 1.706920 
# 
# From -- ./inp_files/30581.got.cif
#   From: 2010.05.17/outbox.cif.g08.bks.cpg/sg59_16_cif.got.tgz:30581.got - 2010.06.03 14:40:33.
