data_PCOD9449809
_publ_section_title
;
Structure prediction by ZEFSAII (Michael W. Deem and Ramdas Pophale) SiO2 
 PCOD9449809
Probable space group: P M M N
;
_chemical_formula_sum "Si O2"
_cell_formula_units_Z 64
_cell_length_a 7.597912
_cell_length_b 21.941624
_cell_length_c 17.250314
_cell_angle_alpha 90.000000
_cell_angle_beta 90.000000
_cell_angle_gamma 90.000000
_cell_volume 2875.808960
_symmetry_space_group_name_H-M "P M M N"
_symmetry_group_IT_number 59
_space_group.IT_coordinate_system_code '2'
_symmetry_cell_setting 'orthorhombic'
loop_
_space_group_symop_operation_xyz
x,y,z
1/2-x,1/2-y,z
1/2+x,-y,-z
-x,1/2+y,-z
-x,-y,-z
1/2+x,1/2+y,-z
1/2-x,y,z
x,1/2-y,z
loop_
_atom_site_type_symbol
_atom_site_label
_atom_site_fract_x
_atom_site_fract_y
_atom_site_fract_z
Si Si1 0.958332 0.185488 0.211501
Si Si2 0.964412 0.440577 0.279202
Si Si3 0.963501 0.631750 0.950134
Si Si4 0.545944 0.997069 0.880194
Si Si5 0.456333 0.819715 0.454522
Si Si6 0.043057 0.177288 0.721639
Si Si7 0.949855 0.867821 0.115908
Si Si8 0.461396 0.938498 0.545947
O O1 0.750000 0.186479 0.227146
O O2 0.034815 0.250000 0.235574
O O3 0.027648 0.126461 0.254295
O O4 0.983554 0.174738 0.120301
O O5 0.750000 0.443544 0.275825
O O6 0.023412 0.449844 0.366499
O O7 0.031602 0.484135 0.211597
O O8 0.750000 0.630015 0.952937
O O9 0.021445 0.563326 0.924496
O O10 0.029458 0.653022 0.034102
O O11 0.750000 0.005738 0.901052
O O12 0.446488 0.059394 0.895223
O O13 0.250000 0.814972 0.473718
O O14 0.529941 0.750000 0.463253
O O15 0.468694 0.837141 0.363313
O O16 0.529111 0.875923 0.505667
O O17 0.250000 0.161155 0.716696
O O18 0.025613 0.250000 0.731377
O O19 0.969189 0.147398 0.800400
O O20 0.750000 0.843244 0.119650
O O21 0.250000 0.931733 0.549591
O O22 0.500000 0.000000 0.500000
#
# Coordination Sequence:
#
# PCOD9449809 Si02
#       8
#     8   8   8   8   8   8   8   8
#     4   9  18  33  54  78 104 136 174 217 262 309
#     4   9  19  36  54  75 105 139 173 210 259 318
#     4   9  19  34  50  73 104 138 175 216 262 312
#     4  10  20  33  51  75 104 136 173 215 262 311
#     4   9  19  37  58  79 106 140 178 220 268 321
#     4   9  19  35  53  74 100 132 172 214 256 308
#     4  10  20  33  52  75 100 135 177 216 258 311
#     4  10  22  37  56  83 112 142 177 222 274 324
#
# _framework density 22.254607
#
# number of rings (size 3 to 8) (size 9 to 14) (size 15 to 20)
#    0.000    2.625    0.000    0.750    1.750    3.750 
#    0.000    3.750    0.000    1.500    0.000    3.500 
#    0.000    0.000    0.000    0.000    0.000    0.000 
#
# Total GULP energy -357054.250972 kJ/mol
# GULP energy per Si atom -5578.972671 kJ/mol
# Density = 2.220395 g / cm^3
# Si number density = 22.254607 Si / 1000 Ang^3
#
#
#
# Elastic Constant Matrix: (Units=GPa)
#
#
# Indices 1 2 3 4 5 6 
#
# 1 51.4866 -3.3882 -6.5220 0.0000 0.0000 0.0000
# 2 -3.3882 40.0681 19.8688 0.0000 0.0000 0.0000
# 3 -6.5220 19.8688 115.1636 0.0000 0.0000 0.0000
# 4 0.0000 0.0000 0.0000 5.2188 0.0000 0.0000
# 5 0.0000 0.0000 0.0000 0.0000 19.6012 0.0000
# 6 0.0000 0.0000 0.0000 0.0000 0.0000 136.6635
#
#
#
# Elastic Compliance Matrix: (Units=1/GPa)
#
#
# Indices 1 2 3 4 5 6 
#
# 1 0.019616 0.001212 0.000902 0.000000 0.000000 0.000000
# 2 0.001212 0.027367 -0.004653 0.000000 0.000000 0.000000
# 3 0.000902 -0.004653 0.009537 0.000000 0.000000 0.000000
# 4 0.000000 0.000000 0.000000 0.191616 0.000000 0.000000
# 5 0.000000 0.000000 0.000000 0.000000 0.051017 0.000000
# 6 0.000000 0.000000 0.000000 0.000000 0.000000 0.007317
#
#
# Mechanical properties :
#
#
# Convention : Reuss Voigt Hill
#
# Bulk Modulus (GPa) = 19.43941 25.18173 22.31057
# Shear Modulus (GPa) = 15.21156 45.41403 30.31279
#
# Velocity S-wave (km/s) = 2.61727 4.52226 3.69466
# Velocity P-wave (km/s) = 4.22935 6.21351 5.31484
#
# Compressibility (1/GPa) = 0.05144190
#
# Stress axis : x y z
#
# Youngs Moduli (GPa) = 50.97750 36.54002 104.85327
#
# Poissons Ratio (x) = -0.04427 -0.09457
# Poissons Ratio (y) = -0.06176 0.48788
# Poissons Ratio (z) = -0.04598 0.17002
#
# Static dielectric constant tensor:
#      x y z
#    x 1.858550 0.000000 0.000000 
#    y 0.000000 1.818820 0.000000 
#    z 0.000000 0.000000 1.829900 
# 
# From -- ./inp_files/21530.got.cif
#   From: 2010.05.17/outbox.cif.g08.bks.cpg/sg59_11_cif.got.tgz:21530.got - 2010.06.03 14:40:33.
