data_PCOD9449109
_publ_section_title
;
Structure prediction by ZEFSAII (Michael W. Deem and Ramdas Pophale) SiO2 
 PCOD9449109
Probable space group: P M M N
;
_chemical_formula_sum "Si O2"
_cell_formula_units_Z 48
_cell_length_a 8.619794
_cell_length_b 15.933866
_cell_length_c 19.452703
_cell_angle_alpha 90.000000
_cell_angle_beta 90.000000
_cell_angle_gamma 90.000000
_cell_volume 2671.763445
_symmetry_space_group_name_H-M "P M M N"
_symmetry_group_IT_number 59
_space_group.IT_coordinate_system_code '2'
_symmetry_cell_setting 'orthorhombic'
loop_
_space_group_symop_operation_xyz
x,y,z
1/2-x,1/2-y,z
1/2+x,-y,-z
-x,1/2+y,-z
-x,-y,-z
1/2+x,1/2+y,-z
1/2-x,y,z
x,1/2-y,z
loop_
_atom_site_type_symbol
_atom_site_label
_atom_site_fract_x
_atom_site_fract_y
_atom_site_fract_z
Si Si1 0.072659 0.750000 0.787189
Si Si2 0.065803 0.846018 0.429863
Si Si3 0.437762 0.931490 0.947900
Si Si4 0.073266 0.750000 0.954062
Si Si5 0.065702 0.494557 0.662483
Si Si6 0.065393 0.429639 0.205678
Si Si7 0.435237 0.345442 0.417151
O O1 0.250000 0.750000 0.761740
O O2 0.079552 0.750000 0.870761
O O3 0.987044 0.836309 0.769890
O O4 0.250000 0.856582 0.441778
O O5 0.039833 0.750000 0.405746
O O6 0.978301 0.855096 0.502546
O O7 0.007262 0.915856 0.377300
O O8 0.250000 0.929897 0.946743
O O9 0.497251 0.839454 0.972122
O O10 0.496542 0.944285 0.870173
O O11 0.500000 0.000000 0.000000
O O12 0.250000 0.750000 0.980274
O O13 0.250000 0.486893 0.663503
O O14 0.000236 0.505282 0.739170
O O15 0.017846 0.580012 0.623146
O O16 0.250000 0.432710 0.203068
O O17 0.250000 0.352806 0.407874
O O18 0.481773 0.250000 0.396760
#
# Coordination Sequence:
#
# PCOD9449109 Si02
#       7
#     4   8   8   4   8   8   8
#     4   9  17  33  53  77 111 147 178 217 272 335
#     4  10  21  39  61  82 107 143 189 236 284 337
#     4  10  19  35  58  84 114 149 187 230 278 330
#     4   7  14  29  51  77 107 141 176 211 260 321
#     4  12  24  37  56  81 114 150 187 233 284 337
#     4  11  22  36  55  82 114 149 189 231 279 336
#     4  10  21  37  57  83 115 148 187 231 278 334
#
# _framework density 17.965661000000001
#
# number of rings (size 3 to 8) (size 9 to 14) (size 15 to 20)
#    0.000    1.833    0.000    6.250    1.167    2.000 
#    0.000    1.250    1.833    0.000    0.000    0.000 
#    0.000    0.000    0.000    0.000    0.000    0.000 
#
# Total GULP energy -268044.911653 kJ/mol
# GULP energy per Si atom -5584.268993 kJ/mol
# Density = 1.792477 g / cm^3
# Si number density = 17.965661 Si / 1000 Ang^3
#
#
#
# Elastic Constant Matrix: (Units=GPa)
#
#
# Indices 1 2 3 4 5 6 
#
# 1 81.9148 22.7830 11.8155 0.0000 0.0000 0.0000
# 2 22.7830 105.3220 54.9964 0.0000 0.0000 0.0000
# 3 11.8155 54.9964 70.1821 0.0000 0.0000 0.0000
# 4 0.0000 0.0000 0.0000 27.5991 0.0000 0.0000
# 5 0.0000 0.0000 0.0000 0.0000 29.2592 0.0000
# 6 0.0000 0.0000 0.0000 0.0000 0.0000 24.6752
#
#
#
# Elastic Compliance Matrix: (Units=1/GPa)
#
#
# Indices 1 2 3 4 5 6 
#
# 1 0.012989 -0.002823 0.000025 0.000000 0.000000 0.000000
# 2 -0.002823 0.016684 -0.012599 0.000000 0.000000 0.000000
# 3 0.000025 -0.012599 0.024117 0.000000 0.000000 0.000000
# 4 0.000000 0.000000 0.000000 0.036233 0.000000 0.000000
# 5 0.000000 0.000000 0.000000 0.000000 0.034177 0.000000
# 6 0.000000 0.000000 0.000000 0.000000 0.000000 0.040527
#
#
# Mechanical properties :
#
#
# Convention : Reuss Voigt Hill
#
# Bulk Modulus (GPa) = 43.48278 48.51207 45.99743
# Shear Modulus (GPa) = 24.60795 27.49497 26.05146
#
# Velocity S-wave (km/s) = 3.70499 3.91630 3.81211
# Velocity P-wave (km/s) = 6.52368 6.89283 6.71080
#
# Compressibility (1/GPa) = 0.02299761
#
# Stress axis : x y z
#
# Youngs Moduli (GPa) = 76.98632 59.93710 41.46430
#
# Poissons Ratio (x) = 0.16921 -0.00105
# Poissons Ratio (y) = 0.21734 0.52240
# Poissons Ratio (z) = -0.00196 0.75514
#
# Static dielectric constant tensor:
#      x y z
#    x 1.600900 0.000000 0.000000 
#    y 0.000000 1.624920 0.000000 
#    z 0.000000 0.000000 1.602470 
# 
# From -- ./inp_files/25534.got.cif
#   From: 2010.05.17/outbox.cif.g08.bks.cpg/sg59_13_cif.got.tgz:25534.got - 2010.06.03 14:40:33.
