data_PCOD9449024
_publ_section_title
;
Structure prediction by ZEFSAII (Michael W. Deem and Ramdas Pophale) SiO2 
 PCOD9449024
Probable space group: P M M N
;
_chemical_formula_sum "Si O2"
_cell_formula_units_Z 64
_cell_length_a 15.891533
_cell_length_b 8.666064
_cell_length_c 24.360822
_cell_angle_alpha 90.000000
_cell_angle_beta 90.000000
_cell_angle_gamma 90.000000
_cell_volume 3354.900347
_symmetry_space_group_name_H-M "P M M N"
_symmetry_group_IT_number 59
_space_group.IT_coordinate_system_code '2'
_symmetry_cell_setting 'orthorhombic'
loop_
_space_group_symop_operation_xyz
x,y,z
1/2-x,1/2-y,z
1/2+x,-y,-z
-x,1/2+y,-z
-x,-y,-z
1/2+x,1/2+y,-z
1/2-x,y,z
x,1/2-y,z
loop_
_atom_site_type_symbol
_atom_site_label
_atom_site_fract_x
_atom_site_fract_y
_atom_site_fract_z
Si Si1 0.500030 0.933382 0.938862
Si Si2 0.897806 0.433992 0.244822
Si Si3 0.155687 0.434318 0.870497
Si Si4 0.915553 0.065094 0.751644
Si Si5 0.498034 0.064805 0.438788
Si Si6 0.845390 0.435922 0.632024
Si Si7 0.155504 0.564288 0.129626
Si Si8 0.343169 0.937861 0.633581
O O1 0.499720 0.750000 0.940821
O O2 0.417818 0.990590 0.906186
O O3 0.582626 0.990477 0.906622
O O4 0.500000 0.000000 0.000000
O O5 0.887144 0.250000 0.239225
O O6 0.857171 0.515468 0.192518
O O7 0.859510 0.483050 0.303289
O O8 0.996238 0.476782 0.245996
O O9 0.250000 0.479220 0.888300
O O10 0.147859 0.250000 0.874311
O O11 0.932305 0.250000 0.751707
O O12 0.867798 0.027693 0.695333
O O13 0.863089 0.030200 0.806381
O O14 0.499649 0.250000 0.440368
O O15 0.580221 0.010187 0.404675
O O16 0.500000 0.000000 0.500000
O O17 0.415111 0.009949 0.406814
O O18 0.750000 0.484640 0.619474
O O19 0.849684 0.250000 0.626356
O O20 0.250000 0.514334 0.114970
O O21 0.150894 0.750000 0.123471
O O22 0.250000 0.988190 0.615894
O O23 0.344296 0.750000 0.632760
#
# Coordination Sequence:
#
# PCOD9449024 Si02
#       8
#     8   8   8   8   8   8   8   8
#     4  12  26  44  66  90 121 161 207 256 305 357
#     4  11  20  34  60  92 124 158 196 242 300 364
#     4  11  24  42  64  92 126 162 201 249 304 361
#     4  10  19  34  60  90 125 161 197 242 295 359
#     4  11  23  40  60  84 115 154 204 254 304 357
#     4  10  21  38  61  89 121 160 202 244 297 359
#     4  10  21  39  64  93 126 164 202 243 296 357
#     4   9  19  36  58  84 116 153 192 238 295 358
#
# _framework density 19.076571000000001
#
# number of rings (size 3 to 8) (size 9 to 14) (size 15 to 20)
#    0.000    1.500    2.500    3.000    0.000    4.500 
#    0.000    1.250    0.000    5.625    0.000    0.000 
#    0.000    0.000    0.000    0.000    0.000    0.000 
#
# Total GULP energy -357712.977198 kJ/mol
# GULP energy per Si atom -5589.265269 kJ/mol
# Density = 1.903315 g / cm^3
# Si number density = 19.076571 Si / 1000 Ang^3
#
#
#
# Elastic Constant Matrix: (Units=GPa)
#
#
# Indices 1 2 3 4 5 6 
#
# 1 197.4981 57.0780 93.3849 0.0000 0.0000 0.0000
# 2 57.0780 48.6723 47.8352 0.0000 0.0000 0.0000
# 3 93.3849 47.8352 158.5786 0.0000 0.0000 0.0000
# 4 0.0000 0.0000 0.0000 31.0170 0.0000 0.0000
# 5 0.0000 0.0000 0.0000 0.0000 -3.3261 0.0000
# 6 0.0000 0.0000 0.0000 0.0000 0.0000 18.2421
#
#
#
# Elastic Compliance Matrix: (Units=1/GPa)
#
#
# Indices 1 2 3 4 5 6 
#
# 1 0.008467 -0.007148 -0.002830 0.000000 0.000000 0.000000
# 2 -0.007148 0.035238 -0.006420 0.000000 0.000000 0.000000
# 3 -0.002830 -0.006420 0.009909 0.000000 0.000000 0.000000
# 4 0.000000 0.000000 0.000000 0.032240 0.000000 0.000000
# 5 0.000000 0.000000 0.000000 0.000000 -0.300648 0.000000
# 6 0.000000 0.000000 0.000000 0.000000 0.000000 0.054818
#
#
# Mechanical properties :
#
#
# Convention : Reuss Voigt Hill
#
# Bulk Modulus (GPa) = 48.03568 89.03836 68.53702
# Shear Modulus (GPa) = -41.58376 22.94998 -9.31689
#
# Velocity S-wave (km/s) = -4.67393 3.47226 -2.21236
# Velocity P-wave (km/s) = 1.97292 7.92786 5.42948
#
# Compressibility (1/GPa) = 0.02081786
#
# Stress axis : x y z
#
# Youngs Moduli (GPa) = 118.09977 28.37845 100.91659
#
# Poissons Ratio (x) = 0.20286 0.28560
# Poissons Ratio (y) = 0.84422 0.64788
# Poissons Ratio (z) = 0.33423 0.18219
#
# Static dielectric constant tensor:
#      x y z
#    x 1.656390 0.000000 0.000000 
#    y 0.000000 1.649790 0.000000 
#    z 0.000000 0.000000 1.634870 
# 
# From -- ./inp_files/32190.got.cif
#   From: 2010.05.17/outbox.cif.g08.bks.cpg/sg59_17_cif.got.tgz:32190.got - 2010.06.03 14:40:33.
