data_PCOD9449047
_publ_section_title
;
Structure prediction by ZEFSAII (Michael W. Deem and Ramdas Pophale) SiO2 
 PCOD9449047
Probable space group: P M M N
;
_chemical_formula_sum "Si O2"
_cell_formula_units_Z 40
_cell_length_a 10.412685
_cell_length_b 8.902124
_cell_length_c 25.401956
_cell_angle_alpha 90.000000
_cell_angle_beta 90.000000
_cell_angle_gamma 90.000000
_cell_volume 2354.634643
_symmetry_space_group_name_H-M "P M M N"
_symmetry_group_IT_number 59
_space_group.IT_coordinate_system_code '2'
_symmetry_cell_setting 'orthorhombic'
loop_
_space_group_symop_operation_xyz
x,y,z
1/2-x,1/2-y,z
1/2+x,-y,-z
-x,1/2+y,-z
-x,-y,-z
1/2+x,1/2+y,-z
1/2-x,y,z
x,1/2-y,z
loop_
_atom_site_type_symbol
_atom_site_label
_atom_site_fract_x
_atom_site_fract_y
_atom_site_fract_z
Si Si1 0.900530 0.932302 0.458579
Si Si2 0.250000 0.569392 0.066333
Si Si3 0.100513 0.569663 0.767027
Si Si4 0.501687 0.567757 0.879228
Si Si5 0.750000 0.067912 0.055329
Si Si6 0.594166 0.577140 0.340906
O O1 0.750000 0.974231 0.467720
O O2 0.905178 0.750000 0.459702
O O3 0.939517 0.980573 0.399115
O O4 0.000000 0.000000 0.500000
O O5 0.250000 0.750000 0.067244
O O6 0.374408 0.505864 0.095453
O O7 0.250000 0.518785 0.005194
O O8 0.250000 0.522052 0.773715
O O9 0.100508 0.750000 0.765630
O O10 0.022310 0.522886 0.818601
O O11 0.051665 0.509934 0.711062
O O12 0.511919 0.750000 0.881021
O O13 0.377001 0.522223 0.913157
O O14 0.750000 0.250000 0.055365
O O15 0.750000 0.575205 0.340481
O O16 0.552823 0.750000 0.336716
#
# Coordination Sequence:
#
# PCOD9449047 Si02
#       6
#     8   4   8   8   4   8
#     4   9  18  32  50  74 104 136 169 205 248 296
#     4  11  23  35  49  75 107 135 166 205 248 301
#     4   9  16  28  50  77  98 121 163 211 248 291
#     4  10  19  35  56  75  99 134 168 204 253 302
#     4   9  18  35  57  77  99 129 168 211 252 295
#     4   8  15  28  46  70 101 132 160 200 253 297
#
# _framework density 16.987773000000001
#
# number of rings (size 3 to 8) (size 9 to 14) (size 15 to 20)
#    0.000    2.800    1.000    2.100    0.000    2.000 
#    0.000    3.500    2.200    0.000    0.000    0.000 
#    0.000    0.000    0.000    0.000    0.000    0.000 
#
# Total GULP energy -222849.600422 kJ/mol
# GULP energy per Si atom -5571.240011 kJ/mol
# Density = 1.694911 g / cm^3
# Si number density = 16.987773 Si / 1000 Ang^3
#
#
#
# Elastic Constant Matrix: (Units=GPa)
#
#
# Indices 1 2 3 4 5 6 
#
# 1 102.4543 26.9580 83.3776 0.0000 0.0000 0.0000
# 2 26.9580 17.6561 42.4916 0.0000 0.0000 0.0000
# 3 83.3776 42.4916 204.6072 0.0000 0.0000 0.0000
# 4 0.0000 0.0000 0.0000 30.4978 0.0000 0.0000
# 5 0.0000 0.0000 0.0000 0.0000 23.4514 0.0000
# 6 0.0000 0.0000 0.0000 0.0000 0.0000 16.1729
#
#
#
# Elastic Compliance Matrix: (Units=1/GPa)
#
#
# Indices 1 2 3 4 5 6 
#
# 1 0.017256 -0.018841 -0.003119 0.000000 0.000000 0.000000
# 2 -0.018841 0.133800 -0.020109 0.000000 0.000000 0.000000
# 3 -0.003119 -0.020109 0.010335 0.000000 0.000000 0.000000
# 4 0.000000 0.000000 0.000000 0.032789 0.000000 0.000000
# 5 0.000000 0.000000 0.000000 0.000000 0.042641 0.000000
# 6 0.000000 0.000000 0.000000 0.000000 0.000000 0.061832
#
#
# Mechanical properties :
#
#
# Convention : Reuss Voigt Hill
#
# Bulk Modulus (GPa) = 12.94455 70.04134 41.49295
# Shear Modulus (GPa) = 12.23861 25.48377 18.86119
#
# Velocity S-wave (km/s) = 2.68701 3.87735 3.33570
# Velocity P-wave (km/s) = 4.15489 7.83358 6.27009
#
# Compressibility (1/GPa) = 0.07725259
#
# Stress axis : x y z
#
# Youngs Moduli (GPa) = 57.94970 7.47383 96.76211
#
# Poissons Ratio (x) = 0.14081 0.30182
# Poissons Ratio (y) = 1.09183 1.94580
# Poissons Ratio (z) = 0.18076 0.15029
#
# Static dielectric constant tensor:
#      x y z
#    x 1.549870 0.000000 0.000000 
#    y 0.000000 1.576570 0.000000 
#    z 0.000000 0.000000 1.589270 
# 
# From -- ./inp_files/32440.got.cif
#   From: 2010.05.17/outbox.cif.g08.bks.cpg/sg59_17_cif.got.tgz:32440.got - 2010.06.03 14:40:33.
