data_PCOD9449367
_publ_section_title
;
Structure prediction by ZEFSAII (Michael W. Deem and Ramdas Pophale) SiO2 
 PCOD9449367
Probable space group: P M M N
;
_chemical_formula_sum "Si O2"
_cell_formula_units_Z 64
_cell_length_a 17.837761
_cell_length_b 7.664117
_cell_length_c 22.084379
_cell_angle_alpha 90.000000
_cell_angle_beta 90.000000
_cell_angle_gamma 90.000000
_cell_volume 3019.170632
_symmetry_space_group_name_H-M "P M M N"
_symmetry_group_IT_number 59
_space_group.IT_coordinate_system_code '2'
_symmetry_cell_setting 'orthorhombic'
loop_
_space_group_symop_operation_xyz
x,y,z
1/2-x,1/2-y,z
1/2+x,-y,-z
-x,1/2+y,-z
-x,-y,-z
1/2+x,1/2+y,-z
1/2-x,y,z
x,1/2-y,z
loop_
_atom_site_type_symbol
_atom_site_label
_atom_site_fract_x
_atom_site_fract_y
_atom_site_fract_z
Si Si1 0.011933 0.955575 0.430364
Si Si2 0.577560 0.550246 0.317461
Si Si3 0.832594 0.958753 0.630569
Si Si4 0.557648 0.951044 0.094746
Si Si5 0.425813 0.461861 0.254676
Si Si6 0.830490 0.539777 0.852538
Si Si7 0.093906 0.545191 0.032082
Si Si8 0.163888 0.464373 0.796925
O O1 0.004036 0.750000 0.423518
O O2 0.952081 0.031253 0.381070
O O3 0.097088 0.998303 0.411831
O O4 0.000000 0.000000 0.500000
O O5 0.601248 0.750000 0.329540
O O6 0.501660 0.546657 0.277584
O O7 0.638179 0.475432 0.270319
O O8 0.750000 0.029545 0.615760
O O9 0.827230 0.750000 0.630032
O O10 0.860723 0.007597 0.697505
O O11 0.541624 0.750000 0.110129
O O12 0.479332 0.028177 0.068607
O O13 0.604428 0.024635 0.151456
O O14 0.605853 0.959246 0.032868
O O15 0.435634 0.250000 0.255680
O O16 0.398224 0.521427 0.189512
O O17 0.750000 0.483603 0.827913
O O18 0.832382 0.750000 0.850695
O O19 0.840185 0.480386 0.920750
O O20 0.081356 0.750000 0.021425
O O21 0.250000 0.514261 0.809725
O O22 0.161390 0.250000 0.797070
#
# Coordination Sequence:
#
# PCOD9449367 Si02
#       8
#     8   8   8   8   8   8   8   8
#     4  10  20  34  53  77 107 141 175 210 250 300
#     4   9  18  33  53  77 102 128 162 205 249 293
#     4   9  17  31  52  77 104 133 168 210 254 301
#     4   9  18  33  52  72  94 123 161 204 251 304
#     4   9  17  30  50  74  99 130 165 200 243 297
#     4  10  20  32  46  67  97 130 162 197 240 294
#     4  10  20  33  49  69  95 127 164 208 253 299
#     4   9  17  31  53  77  98 124 163 210 256 302
#
# _framework density 21.197873999999999
#
# number of rings (size 3 to 8) (size 9 to 14) (size 15 to 20)
#    0.000    2.625    0.000    1.875    0.000    5.000 
#    0.000    2.500    0.000    5.625    0.000    0.000 
#    0.000    0.000    0.000    0.000    0.000    0.000 
#
# Total GULP energy -356705.807318 kJ/mol
# GULP energy per Si atom -5573.528239 kJ/mol
# Density = 2.114963 g / cm^3
# Si number density = 21.197874 Si / 1000 Ang^3
#
#
#
# Elastic Constant Matrix: (Units=GPa)
#
#
# Indices 1 2 3 4 5 6 
#
# 1 54.9062 4.8880 37.2314 0.0000 0.0000 0.0000
# 2 4.8880 38.0057 -5.8713 0.0000 0.0000 0.0000
# 3 37.2314 -5.8713 127.6430 0.0000 0.0000 0.0000
# 4 0.0000 0.0000 0.0000 10.6243 0.0000 0.0000
# 5 0.0000 0.0000 0.0000 0.0000 59.4198 0.0000
# 6 0.0000 0.0000 0.0000 0.0000 0.0000 9.4517
#
#
#
# Elastic Compliance Matrix: (Units=1/GPa)
#
#
# Indices 1 2 3 4 5 6 
#
# 1 0.023314 -0.004078 -0.006988 0.000000 0.000000 0.000000
# 2 -0.004078 0.027213 0.002441 0.000000 0.000000 0.000000
# 3 -0.006988 0.002441 0.009985 0.000000 0.000000 0.000000
# 4 0.000000 0.000000 0.000000 0.094124 0.000000 0.000000
# 5 0.000000 0.000000 0.000000 0.000000 0.016829 0.000000
# 6 0.000000 0.000000 0.000000 0.000000 0.000000 0.105801
#
#
# Mechanical properties :
#
#
# Convention : Reuss Voigt Hill
#
# Bulk Modulus (GPa) = 23.11435 32.56123 27.83779
# Shear Modulus (GPa) = 16.18449 28.18629 22.18539
#
# Velocity S-wave (km/s) = 2.76614 3.65043 3.23861
# Velocity P-wave (km/s) = 4.59672 5.75860 5.21015
#
# Compressibility (1/GPa) = 0.04326316
#
# Stress axis : x y z
#
# Youngs Moduli (GPa) = 42.89184 36.74653 100.15090
#
# Poissons Ratio (x) = 0.14986 0.69986
# Poissons Ratio (y) = 0.17492 -0.24450
# Poissons Ratio (z) = 0.29973 -0.08971
#
# Static dielectric constant tensor:
#      x y z
#    x 1.800150 0.000000 0.000000 
#    y 0.000000 1.809790 0.000000 
#    z 0.000000 0.000000 1.768850 
# 
# From -- ./inp_files/30650.got.cif
#   From: 2010.05.17/outbox.cif.g08.bks.cpg/sg59_16_cif.got.tgz:30650.got - 2010.06.03 14:40:33.
