data_PCOD9449839
_publ_section_title
;
Structure prediction by ZEFSAII (Michael W. Deem and Ramdas Pophale) SiO2 
 PCOD9449839
Probable space group: P M M N
;
_chemical_formula_sum "Si O2"
_cell_formula_units_Z 48
_cell_length_a 8.789026
_cell_length_b 9.543772
_cell_length_c 31.605406
_cell_angle_alpha 90.000000
_cell_angle_beta 90.000000
_cell_angle_gamma 90.000000
_cell_volume 2651.076002
_symmetry_space_group_name_H-M "P M M N"
_symmetry_group_IT_number 59
_space_group.IT_coordinate_system_code '2'
_symmetry_cell_setting 'orthorhombic'
loop_
_space_group_symop_operation_xyz
x,y,z
1/2-x,1/2-y,z
1/2+x,-y,-z
-x,1/2+y,-z
-x,-y,-z
1/2+x,1/2+y,-z
1/2-x,y,z
x,1/2-y,z
loop_
_atom_site_type_symbol
_atom_site_label
_atom_site_fract_x
_atom_site_fract_y
_atom_site_fract_z
Si Si1 0.931005 0.415693 0.038977
Si Si2 0.432990 0.085040 0.284235
Si Si3 0.435097 0.410434 0.380362
Si Si4 0.565723 0.412401 0.538922
Si Si5 0.432144 0.086001 0.129603
Si Si6 0.067899 0.087123 0.792828
O O1 0.750000 0.435791 0.040769
O O2 0.961955 0.250000 0.033294
O O3 0.003692 0.457403 0.083871
O O4 0.000000 0.500000 0.000000
O O5 0.250000 0.068513 0.281373
O O6 0.465547 0.250000 0.276835
O O7 0.480908 0.051888 0.332508
O O8 0.510944 0.989709 0.249413
O O9 0.250000 0.409745 0.380153
O O10 0.483358 0.250000 0.389225
O O11 0.484063 0.515055 0.417145
O O12 0.500000 0.500000 0.500000
O O13 0.750000 0.417779 0.537396
O O14 0.519507 0.250000 0.536819
O O15 0.250000 0.076856 0.129377
O O16 0.474097 0.250000 0.136269
O O17 0.498564 0.992811 0.167003
O O18 0.250000 0.079807 0.795026
O O19 0.021786 0.250000 0.792697
#
# Coordination Sequence:
#
# PCOD9449839 Si02
#       6
#     8   8   8   8   8   8
#     4  10  21  37  58  84 113 146 182 220 266 318
#     4   9  18  34  57  82 104 131 171 215 260 314
#     4   8  15  30  52  76 102 132 168 212 260 310
#     4  10  20  33  51  76 104 136 175 216 260 312
#     4  10  21  38  60  83 106 137 180 225 267 315
#     4  11  24  38  52  76 110 144 177 215 261 312
#
# _framework density 18.105857
#
# number of rings (size 3 to 8) (size 9 to 14) (size 15 to 20)
#    0.000    2.333    0.000    3.500    0.000    8.000 
#    0.000    2.500    0.000    1.000    0.000    0.000 
#    0.000    0.000    0.000    0.000    0.000    0.000 
#
# Total GULP energy -267973.565686 kJ/mol
# GULP energy per Si atom -5582.782618 kJ/mol
# Density = 1.806465 g / cm^3
# Si number density = 18.105857 Si / 1000 Ang^3
#
#
#
# Elastic Constant Matrix: (Units=GPa)
#
#
# Indices 1 2 3 4 5 6 
#
# 1 27.5712 47.2096 49.8663 0.0000 0.0000 0.0000
# 2 47.2096 129.3561 129.2554 0.0000 0.0000 0.0000
# 3 49.8663 129.2554 196.8921 0.0000 0.0000 0.0000
# 4 0.0000 0.0000 0.0000 39.2808 0.0000 0.0000
# 5 0.0000 0.0000 0.0000 0.0000 33.2899 0.0000
# 6 0.0000 0.0000 0.0000 0.0000 0.0000 27.0421
#
#
#
# Elastic Compliance Matrix: (Units=1/GPa)
#
#
# Indices 1 2 3 4 5 6 
#
# 1 0.097709 -0.031777 -0.003885 0.000000 0.000000 0.000000
# 2 -0.031777 0.032805 -0.013488 0.000000 0.000000 0.000000
# 3 -0.003885 -0.013488 0.014917 0.000000 0.000000 0.000000
# 4 0.000000 0.000000 0.000000 0.025458 0.000000 0.000000
# 5 0.000000 0.000000 0.000000 0.000000 0.030039 0.000000
# 6 0.000000 0.000000 0.000000 0.000000 0.000000 0.036979
#
#
# Mechanical properties :
#
#
# Convention : Reuss Voigt Hill
#
# Bulk Modulus (GPa) = 21.21770 89.60910 55.41340
# Shear Modulus (GPa) = 14.20784 28.42176 21.31480
#
# Velocity S-wave (km/s) = 2.80431 3.96631 3.43480
# Velocity P-wave (km/s) = 4.71483 8.40088 6.81191
#
# Compressibility (1/GPa) = 0.04713046
#
# Stress axis : x y z
#
# Youngs Moduli (GPa) = 10.23452 30.48288 67.03591
#
# Poissons Ratio (x) = 0.96866 0.26045
# Poissons Ratio (y) = 0.32523 0.90417
# Poissons Ratio (z) = 0.03976 0.41115
#
# Static dielectric constant tensor:
#      x y z
#    x 1.612080 0.000000 0.000000 
#    y 0.000000 1.605410 0.000000 
#    z 0.000000 0.000000 1.596170 
# 
# From -- ./inp_files/32848.got.cif
#   From: 2010.05.17/outbox.cif.g08.bks.cpg/sg59_17_cif.got.tgz:32848.got - 2010.06.03 14:40:33.
