data_PCOD9449857
_publ_section_title
;
Structure prediction by ZEFSAII (Michael W. Deem and Ramdas Pophale) SiO2 
 PCOD9449857
Probable space group: P M M N
;
_chemical_formula_sum "Si O2"
_cell_formula_units_Z 64
_cell_length_a 15.524625
_cell_length_b 8.604590
_cell_length_c 24.222324
_cell_angle_alpha 90.000000
_cell_angle_beta 90.000000
_cell_angle_gamma 90.000000
_cell_volume 3235.691507
_symmetry_space_group_name_H-M "P M M N"
_symmetry_group_IT_number 59
_space_group.IT_coordinate_system_code '2'
_symmetry_cell_setting 'orthorhombic'
loop_
_space_group_symop_operation_xyz
x,y,z
1/2-x,1/2-y,z
1/2+x,-y,-z
-x,1/2+y,-z
-x,-y,-z
1/2+x,1/2+y,-z
1/2-x,y,z
x,1/2-y,z
loop_
_atom_site_type_symbol
_atom_site_label
_atom_site_fract_x
_atom_site_fract_y
_atom_site_fract_z
Si Si1 0.973481 0.438167 0.257162
Si Si2 0.019776 0.937551 0.865804
Si Si3 0.151900 0.562411 0.085884
Si Si4 0.849060 0.420552 0.580913
Si Si5 0.350595 0.437939 0.646445
Si Si6 0.347856 0.560803 0.958681
Si Si7 0.848793 0.935826 0.694434
Si Si8 0.088445 0.435427 0.525065
O O1 0.972087 0.250000 0.260454
O O2 0.909750 0.501503 0.303924
O O3 0.948973 0.485095 0.195016
O O4 0.072739 0.490155 0.267279
O O5 0.020026 0.750000 0.867233
O O6 0.082330 0.994919 0.914649
O O7 0.923013 0.993512 0.876950
O O8 0.250000 0.515471 0.100217
O O9 0.148695 0.750000 0.087889
O O10 0.135219 0.514133 0.022024
O O11 0.750000 0.400104 0.595138
O O12 0.891738 0.250000 0.578467
O O13 0.881014 0.519435 0.632640
O O14 0.849157 0.502146 0.522150
O O15 0.250000 0.485471 0.651210
O O16 0.352697 0.250000 0.646882
O O17 0.387946 0.489105 0.586614
O O18 0.250000 0.513968 0.944432
O O19 0.349352 0.750000 0.958202
O O20 0.750000 0.991765 0.705698
O O21 0.844549 0.750000 0.697606
O O22 0.088739 0.250000 0.525118
O O23 0.000000 0.500000 0.500000
#
# Coordination Sequence:
#
# PCOD9449857 Si02
#       8
#     8   8   8   8   8   8   8   8
#     4  10  22  37  54  80 109 140 183 230 273 318
#     4  10  20  33  53  81 109 139 178 225 274 320
#     4   9  18  33  53  78 109 145 181 216 262 323
#     4  10  20  33  51  77 104 128 162 209 258 312
#     4  10  23  42  60  78 106 148 191 227 268 319
#     4   8  15  30  52  77 107 142 178 218 267 323
#     4   9  18  34  54  74 103 144 182 219 271 333
#     4  11  22  36  56  81 108 136 170 215 269 328
#
# _framework density 19.779389999999999
#
# number of rings (size 3 to 8) (size 9 to 14) (size 15 to 20)
#    0.000    2.375    0.000    3.000    0.000    6.750 
#    0.000    2.500    0.000    2.625    0.000    0.000 
#    0.000    0.000    0.000    0.000    0.000    0.000 
#
# Total GULP energy -356736.574355 kJ/mol
# GULP energy per Si atom -5574.008974 kJ/mol
# Density = 1.973437 g / cm^3
# Si number density = 19.779390 Si / 1000 Ang^3
#
#
#
# Elastic Constant Matrix: (Units=GPa)
#
#
# Indices 1 2 3 4 5 6 
#
# 1 95.2340 9.9326 39.8284 0.0000 0.0000 0.0000
# 2 9.9326 5.1471 3.5779 0.0000 0.0000 0.0000
# 3 39.8284 3.5779 75.8975 0.0000 0.0000 0.0000
# 4 0.0000 0.0000 0.0000 16.7686 0.0000 0.0000
# 5 0.0000 0.0000 0.0000 0.0000 18.1337 0.0000
# 6 0.0000 0.0000 0.0000 0.0000 0.0000 24.6775
#
#
#
# Elastic Compliance Matrix: (Units=1/GPa)
#
#
# Indices 1 2 3 4 5 6 
#
# 1 0.016313 -0.026395 -0.007316 0.000000 0.000000 0.000000
# 2 -0.026395 0.243574 0.002369 0.000000 0.000000 0.000000
# 3 -0.007316 0.002369 0.016903 0.000000 0.000000 0.000000
# 4 0.000000 0.000000 0.000000 0.059635 0.000000 0.000000
# 5 0.000000 0.000000 0.000000 0.000000 0.055146 0.000000
# 6 0.000000 0.000000 0.000000 0.000000 0.000000 0.040523
#
#
# Mechanical properties :
#
#
# Convention : Reuss Voigt Hill
#
# Bulk Modulus (GPa) = 4.67059 31.43962 18.05510
# Shear Modulus (GPa) = 8.83162 20.11195 14.47179
#
# Velocity S-wave (km/s) = 2.11536 3.19221 2.70786
# Velocity P-wave (km/s) = 2.88666 5.43292 4.35025
#
# Compressibility (1/GPa) = 0.21410590
#
# Stress axis : x y z
#
# Youngs Moduli (GPa) = 61.30023 4.10553 59.15990
#
# Poissons Ratio (x) = 0.10836 0.43283
# Poissons Ratio (y) = 1.61801 -0.14014
# Poissons Ratio (z) = 0.44849 -0.00973
#
# Static dielectric constant tensor:
#      x y z
#    x 1.640950 0.000000 0.000000 
#    y 0.000000 1.711700 0.000000 
#    z 0.000000 0.000000 1.673480 
# 
# From -- ./inp_files/32229.got.cif
#   From: 2010.05.17/outbox.cif.g08.bks.cpg/sg59_17_cif.got.tgz:32229.got - 2010.06.03 14:40:33.
