data_PCOD9449545
_publ_section_title
;
Structure prediction by ZEFSAII (Michael W. Deem and Ramdas Pophale) SiO2 
 PCOD9449545
Probable space group: P M M N
;
_chemical_formula_sum "Si O2"
_cell_formula_units_Z 64
_cell_length_a 29.018080
_cell_length_b 9.490369
_cell_length_c 12.376707
_cell_angle_alpha 90.000000
_cell_angle_beta 90.000000
_cell_angle_gamma 90.000000
_cell_volume 3408.449645
_symmetry_space_group_name_H-M "P M M N"
_symmetry_group_IT_number 59
_space_group.IT_coordinate_system_code '2'
_symmetry_cell_setting 'orthorhombic'
loop_
_space_group_symop_operation_xyz
x,y,z
1/2-x,1/2-y,z
1/2+x,-y,-z
-x,1/2+y,-z
-x,-y,-z
1/2+x,1/2+y,-z
1/2-x,y,z
x,1/2-y,z
loop_
_atom_site_type_symbol
_atom_site_label
_atom_site_fract_x
_atom_site_fract_y
_atom_site_fract_z
Si Si1 0.964019 0.915863 0.742857
Si Si2 0.823285 0.410835 0.873238
Si Si3 0.430641 0.588662 0.064332
Si Si4 0.611874 0.084767 0.155800
Si Si5 0.608930 0.583571 0.559426
Si Si6 0.301442 0.082867 0.918353
Si Si7 0.302675 0.917461 0.377329
Si Si8 0.055982 0.915347 0.623422
O O1 0.971119 0.750000 0.763468
O O2 0.917294 0.933976 0.674063
O O3 0.005869 0.962038 0.665635
O O4 0.960895 0.995707 0.855916
O O5 0.808457 0.250000 0.898105
O O6 0.878626 0.413873 0.886810
O O7 0.808490 0.442181 0.751368
O O8 0.804104 0.518436 0.961106
O O9 0.447015 0.750000 0.063914
O O10 0.422865 0.540378 0.940876
O O11 0.622441 0.250000 0.133507
O O12 0.588487 0.074998 0.271450
O O13 0.658166 0.995034 0.146060
O O14 0.613186 0.750000 0.538837
O O15 0.658258 0.507752 0.564312
O O16 0.577080 0.509457 0.470336
O O17 0.250000 0.056578 0.875101
O O18 0.309327 0.250000 0.921339
O O19 0.250000 0.950214 0.408345
O O20 0.310565 0.750000 0.395000
O O21 0.053420 0.750000 0.590498
#
# Coordination Sequence:
#
# PCOD9449545 Si02
#       8
#     8   8   8   8   8   8   8   8
#     4  10  21  36  57  86 115 145 181 228 284 337
#     4   9  17  31  52  79 112 148 184 223 265 320
#     4   9  17  31  54  83 114 144 176 220 273 326
#     4   9  20  38  57  79 108 145 189 233 274 323
#     4  11  23  38  57  84 117 147 183 232 285 335
#     4  10  20  32  50  79 112 145 181 224 277 333
#     4  10  20  35  57  83 111 148 190 226 270 330
#     4  10  22  41  61  79 106 147 195 239 277 328
#
# _framework density 18.776865999999998
#
# number of rings (size 3 to 8) (size 9 to 14) (size 15 to 20)
#    0.000    2.250    1.250    2.250    0.000    6.250 
#    0.000    0.625    0.000    0.750    0.000    0.000 
#    0.000    0.000    0.000    0.000    0.000    0.000 
#
# Total GULP energy -357246.298151 kJ/mol
# GULP energy per Si atom -5581.973409 kJ/mol
# Density = 1.873413 g / cm^3
# Si number density = 18.776866 Si / 1000 Ang^3
#
#
#
# Elastic Constant Matrix: (Units=GPa)
#
#
# Indices 1 2 3 4 5 6 
#
# 1 69.8320 34.3795 -6.2549 0.0000 0.0000 0.0000
# 2 34.3795 53.3308 19.9887 0.0000 0.0000 0.0000
# 3 -6.2549 19.9887 28.9055 0.0000 0.0000 0.0000
# 4 0.0000 0.0000 0.0000 20.8920 0.0000 0.0000
# 5 0.0000 0.0000 0.0000 0.0000 22.3901 0.0000
# 6 0.0000 0.0000 0.0000 0.0000 0.0000 76.1738
#
#
#
# Elastic Compliance Matrix: (Units=1/GPa)
#
#
# Indices 1 2 3 4 5 6 
#
# 1 0.032722 -0.032057 0.029248 0.000000 0.000000 0.000000
# 2 -0.032057 0.056716 -0.046157 0.000000 0.000000 0.000000
# 3 0.029248 -0.046157 0.072843 0.000000 0.000000 0.000000
# 4 0.000000 0.000000 0.000000 0.047865 0.000000 0.000000
# 5 0.000000 0.000000 0.000000 0.000000 0.044663 0.000000
# 6 0.000000 0.000000 0.000000 0.000000 0.000000 0.013128
#
#
# Mechanical properties :
#
#
# Convention : Reuss Voigt Hill
#
# Bulk Modulus (GPa) = 15.53981 27.58832 21.56407
# Shear Modulus (GPa) = 12.90932 30.82151 21.86542
#
# Velocity S-wave (km/s) = 2.62489 4.05589 3.41616
# Velocity P-wave (km/s) = 4.18100 6.05461 5.20284
#
# Compressibility (1/GPa) = 0.06435085
#
# Stress axis : x y z
#
# Youngs Moduli (GPa) = 30.56062 17.63172 13.72812
#
# Poissons Ratio (x) = 0.56521 -0.40153
# Poissons Ratio (y) = 0.97967 0.63365
# Poissons Ratio (z) = -0.89385 0.81383
#
# Static dielectric constant tensor:
#      x y z
#    x 1.668870 0.000000 0.000000 
#    y 0.000000 1.629960 0.000000 
#    z 0.000000 0.000000 1.635700 
# 
# From -- ./inp_files/19384.got.cif
#   From: 2010.05.17/outbox.cif.g08.bks.cpg/sg59_10_cif.got.tgz:19384.got - 2010.06.03 14:40:33.
