data_PCOD9449431
_publ_section_title
;
Structure prediction by ZEFSAII (Michael W. Deem and Ramdas Pophale) SiO2 
 PCOD9449431
Probable space group: P M M N
;
_chemical_formula_sum "Si O2"
_cell_formula_units_Z 56
_cell_length_a 7.602614
_cell_length_b 20.257892
_cell_length_c 18.105973
_cell_angle_alpha 90.000000
_cell_angle_beta 90.000000
_cell_angle_gamma 90.000000
_cell_volume 2788.554013
_symmetry_space_group_name_H-M "P M M N"
_symmetry_group_IT_number 59
_space_group.IT_coordinate_system_code '2'
_symmetry_cell_setting 'orthorhombic'
loop_
_space_group_symop_operation_xyz
x,y,z
1/2-x,1/2-y,z
1/2+x,-y,-z
-x,1/2+y,-z
-x,-y,-z
1/2+x,1/2+y,-z
1/2-x,y,z
x,1/2-y,z
loop_
_atom_site_type_symbol
_atom_site_label
_atom_site_fract_x
_atom_site_fract_y
_atom_site_fract_z
Si Si1 0.464201 0.403800 0.273434
Si Si2 0.962648 0.078413 0.858809
Si Si3 0.040014 0.949150 0.304259
Si Si4 0.458264 0.325278 0.986963
Si Si5 0.964755 0.570217 0.891964
Si Si6 0.465933 0.176090 0.411516
Si Si7 0.957411 0.927435 0.469447
O O1 0.250000 0.403469 0.273059
O O2 0.522071 0.474892 0.304661
O O3 0.516978 0.401343 0.188195
O O4 0.521690 0.348588 0.330589
O O5 0.750000 0.077363 0.859292
O O6 0.023553 0.081328 0.773294
O O7 0.019537 0.140065 0.907715
O O8 0.020805 0.007064 0.892778
O O9 0.250000 0.951646 0.297380
O O10 0.003968 0.918424 0.383699
O O11 0.250000 0.320489 0.001948
O O12 0.528417 0.250000 0.991022
O O13 0.529095 0.379881 0.045034
O O14 0.750000 0.568514 0.895154
O O15 0.250000 0.174921 0.411472
O O16 0.522123 0.250000 0.426208
O O17 0.531480 0.126304 0.474114
O O18 0.750000 0.921166 0.473518
O O19 0.000000 0.000000 0.500000
#
# Coordination Sequence:
#
# PCOD9449431 Si02
#       7
#     8   8   8   8   8   8   8
#     4   8  13  25  46  71  97 122 153 199 246 291
#     4   9  18  33  54  74  96 129 168 212 254 300
#     4   9  17  32  52  75  97 121 163 212 252 292
#     4  10  20  32  47  72 105 134 164 207 254 300
#     4   8  15  28  48  73 100 128 161 201 250 297
#     4   9  17  28  44  70 101 130 161 199 243 291
#     4  11  20  31  51  76 102 132 168 207 247 293
#
# _framework density 20.082090999999998
#
# number of rings (size 3 to 8) (size 9 to 14) (size 15 to 20)
#    0.000    2.857    1.429    2.571    0.000    1.429 
#    0.000    3.571    0.000    5.143    0.000    0.000 
#    0.000    0.000    0.000    0.000    0.000    0.000 
#
# Total GULP energy -312187.528855 kJ/mol
# GULP energy per Si atom -5574.777301 kJ/mol
# Density = 2.003638 g / cm^3
# Si number density = 20.082091 Si / 1000 Ang^3
#
#
#
# Elastic Constant Matrix: (Units=GPa)
#
#
# Indices 1 2 3 4 5 6 
#
# 1 38.2292 -2.1481 -6.2030 0.0000 0.0000 0.0000
# 2 -2.1481 103.2010 54.4438 0.0000 0.0000 0.0000
# 3 -6.2030 54.4438 100.8321 0.0000 0.0000 0.0000
# 4 0.0000 0.0000 0.0000 25.5428 0.0000 0.0000
# 5 0.0000 0.0000 0.0000 0.0000 18.2585 0.0000
# 6 0.0000 0.0000 0.0000 0.0000 0.0000 12.3037
#
#
#
# Elastic Compliance Matrix: (Units=1/GPa)
#
#
# Indices 1 2 3 4 5 6 
#
# 1 0.026435 -0.000430 0.001859 0.000000 0.000000 0.000000
# 2 -0.000430 0.013556 -0.007346 0.000000 0.000000 0.000000
# 3 0.001859 -0.007346 0.013998 0.000000 0.000000 0.000000
# 4 0.000000 0.000000 0.000000 0.039150 0.000000 0.000000
# 5 0.000000 0.000000 0.000000 0.000000 0.054769 0.000000
# 6 0.000000 0.000000 0.000000 0.000000 0.000000 0.081276
#
#
# Mechanical properties :
#
#
# Convention : Reuss Voigt Hill
#
# Bulk Modulus (GPa) = 23.72230 37.16086 30.44158
# Shear Modulus (GPa) = 19.60229 24.29897 21.95063
#
# Velocity S-wave (km/s) = 3.12766 3.48225 3.30971
# Velocity P-wave (km/s) = 4.98812 5.89175 5.45867
#
# Compressibility (1/GPa) = 0.04215443
#
# Stress axis : x y z
#
# Youngs Moduli (GPa) = 37.82804 73.76620 71.43706
#
# Poissons Ratio (x) = 0.03174 -0.13277
# Poissons Ratio (y) = 0.01628 0.52479
# Poissons Ratio (z) = -0.07031 0.54190
#
# Static dielectric constant tensor:
#      x y z
#    x 1.782280 0.000000 0.000000 
#    y 0.000000 1.690740 0.000000 
#    z 0.000000 0.000000 1.720580 
# 
# From -- ./inp_files/26109.got.cif
#   From: 2010.05.17/outbox.cif.g08.bks.cpg/sg59_14_cif.got.tgz:26109.got - 2010.06.03 14:40:33.
