data_PCOD9449643
_publ_section_title
;
Structure prediction by ZEFSAII (Michael W. Deem and Ramdas Pophale) SiO2 
 PCOD9449643
Probable space group: P M M N
;
_chemical_formula_sum "Si O2"
_cell_formula_units_Z 40
_cell_length_a 7.387905
_cell_length_b 9.410908
_cell_length_c 26.830381
_cell_angle_alpha 90.000000
_cell_angle_beta 90.000000
_cell_angle_gamma 90.000000
_cell_volume 1865.433063
_symmetry_space_group_name_H-M "P M M N"
_symmetry_group_IT_number 59
_space_group.IT_coordinate_system_code '2'
_symmetry_cell_setting 'orthorhombic'
loop_
_space_group_symop_operation_xyz
x,y,z
1/2-x,1/2-y,z
1/2+x,-y,-z
-x,1/2+y,-z
-x,-y,-z
1/2+x,1/2+y,-z
1/2-x,y,z
x,1/2-y,z
loop_
_atom_site_type_symbol
_atom_site_label
_atom_site_fract_x
_atom_site_fract_y
_atom_site_fract_z
Si Si1 0.466362 0.088230 0.449931
Si Si2 0.471103 0.413554 0.255497
Si Si3 0.971186 0.085993 0.646498
Si Si4 0.466043 0.589846 0.049064
Si Si5 0.970380 0.415826 0.841306
O O1 0.250000 0.097895 0.444279
O O2 0.535905 0.250000 0.452791
O O3 0.500000 0.000000 0.500000
O O4 0.532735 0.001399 0.401898
O O5 0.250000 0.413566 0.255322
O O6 0.528284 0.250000 0.259233
O O7 0.526918 0.505770 0.303191
O O8 0.531612 0.487682 0.204336
O O9 0.750000 0.086988 0.646101
O O10 0.028937 0.250000 0.645256
O O11 0.250000 0.598298 0.053598
O O12 0.535820 0.750000 0.042457
O O13 0.529598 0.536207 0.103314
O O14 0.500000 0.500000 0.000000
O O15 0.750000 0.418946 0.840124
O O16 0.021638 0.250000 0.835083
#
# Coordination Sequence:
#
# PCOD9449643 Si02
#       5
#     8   8   8   8   8
#     4  10  20  33  49  70  96 125 158 195 232 272
#     4   9  15  22  35  58  86 113 143 181 224 269
#     4   9  16  26  41  61  87 119 151 184 226 273
#     4   9  18  31  46  66  92 121 154 191 229 271
#     4   8  14  25  39  56  82 114 145 179 221 268
#
# _framework density 21.442741999999999
#
# number of rings (size 3 to 8) (size 9 to 14) (size 15 to 20)
#    0.000    3.000    0.000    3.000    0.000    7.200 
#    0.000    2.000    0.000    0.000    0.000    1.400 
#    0.000    4.800    0.000    0.000    0.000    0.000 
#
# Total GULP energy -223323.898896 kJ/mol
# GULP energy per Si atom -5583.097472 kJ/mol
# Density = 2.139394 g / cm^3
# Si number density = 21.442742 Si / 1000 Ang^3
#
#
#
# Elastic Constant Matrix: (Units=GPa)
#
#
# Indices 1 2 3 4 5 6 
#
# 1 72.6391 6.0088 4.4348 0.0000 0.0000 0.0000
# 2 6.0088 202.6238 158.5648 0.0000 0.0000 0.0000
# 3 4.4348 158.5648 264.4477 0.0000 0.0000 0.0000
# 4 0.0000 0.0000 0.0000 46.4351 0.0000 0.0000
# 5 0.0000 0.0000 0.0000 0.0000 13.4164 0.0000
# 6 0.0000 0.0000 0.0000 0.0000 0.0000 1.8906
#
#
#
# Elastic Compliance Matrix: (Units=1/GPa)
#
#
# Indices 1 2 3 4 5 6 
#
# 1 0.013801 -0.000430 0.000026 0.000000 0.000000 0.000000
# 2 -0.000430 0.009312 -0.005576 0.000000 0.000000 0.000000
# 3 0.000026 -0.005576 0.007125 0.000000 0.000000 0.000000
# 4 0.000000 0.000000 0.000000 0.021535 0.000000 0.000000
# 5 0.000000 0.000000 0.000000 0.000000 0.074536 0.000000
# 6 0.000000 0.000000 0.000000 0.000000 0.000000 0.528924
#
#
# Mechanical properties :
#
#
# Convention : Reuss Voigt Hill
#
# Bulk Modulus (GPa) = 54.71216 97.52528 76.11872
# Shear Modulus (GPa) = 7.42629 37.06190 22.24410
#
# Velocity S-wave (km/s) = 1.86302 4.16193 3.22432
# Velocity P-wave (km/s) = 5.49533 8.28710 7.03117
#
# Compressibility (1/GPa) = 0.01827747
#
# Stress axis : x y z
#
# Youngs Moduli (GPa) = 72.46036 107.39255 140.36061
#
# Poissons Ratio (x) = 0.04616 -0.00369
# Poissons Ratio (y) = 0.03115 0.78267
# Poissons Ratio (z) = -0.00191 0.59883
#
# Static dielectric constant tensor:
#      x y z
#    x 1.888600 0.000000 0.000000 
#    y 0.000000 1.742380 0.000000 
#    z 0.000000 0.000000 1.746700 
# 
# From -- ./inp_files/28724.got.cif
#   From: 2010.05.17/outbox.cif.g08.bks.cpg/sg59_15_cif.got.tgz:28724.got - 2010.06.03 14:40:33.
