data_PCOD9449194
_publ_section_title
;
Structure prediction by ZEFSAII (Michael W. Deem and Ramdas Pophale) SiO2 
 PCOD9449194
Probable space group: P M M N
;
_chemical_formula_sum "Si O2"
_cell_formula_units_Z 48
_cell_length_a 10.404002
_cell_length_b 8.803069
_cell_length_c 29.702018
_cell_angle_alpha 90.000000
_cell_angle_beta 90.000000
_cell_angle_gamma 90.000000
_cell_volume 2720.323103
_symmetry_space_group_name_H-M "P M M N"
_symmetry_group_IT_number 59
_space_group.IT_coordinate_system_code '2'
_symmetry_cell_setting 'orthorhombic'
loop_
_space_group_symop_operation_xyz
x,y,z
1/2-x,1/2-y,z
1/2+x,-y,-z
-x,1/2+y,-z
-x,-y,-z
1/2+x,1/2+y,-z
1/2-x,y,z
x,1/2-y,z
loop_
_atom_site_type_symbol
_atom_site_label
_atom_site_fract_x
_atom_site_fract_y
_atom_site_fract_z
Si Si1 0.397951 0.568136 0.366162
Si Si2 0.898193 0.568018 0.534703
Si Si3 0.100777 0.568618 0.703346
Si Si4 0.250000 0.432354 0.056331
Si Si5 0.250000 0.065458 0.952346
Si Si6 0.499258 0.934091 0.103584
Si Si7 0.097858 0.070149 0.799946
O O1 0.250000 0.529477 0.353217
O O2 0.407244 0.750000 0.368959
O O3 0.420955 0.497496 0.415412
O O4 0.501548 0.506061 0.331072
O O5 0.750000 0.529434 0.522308
O O6 0.909250 0.750000 0.535676
O O7 0.000000 0.500000 0.500000
O O8 0.250000 0.521668 0.694991
O O9 0.094275 0.750000 0.699409
O O10 0.068777 0.518568 0.754297
O O11 0.250000 0.250000 0.056731
O O12 0.374409 0.494962 0.081576
O O13 0.250000 0.484166 0.004139
O O14 0.250000 0.250000 0.952197
O O15 0.123205 0.017792 0.925472
O O16 0.491954 0.750000 0.102186
O O17 0.520923 0.977313 0.155661
O O18 0.250000 0.051683 0.809906
O O19 0.076139 0.250000 0.792213
#
# Coordination Sequence:
#
# PCOD9449194 Si02
#       7
#     8   8   8   4   4   8   8
#     4  10  21  38  59  83 112 148 190 233 276 326
#     4  10  21  37  58  84 115 152 192 234 281 331
#     4  10  21  36  56  83 113 143 177 223 277 332
#     4  11  23  35  49  79 117 143 171 219 270 321
#     4   9  18  35  59  81 103 137 183 225 266 319
#     4  10  19  36  59  79 103 140 181 222 268 322
#     4   9  17  33  58  82 102 133 180 228 270 318
#
# _framework density 17.644962
#
# number of rings (size 3 to 8) (size 9 to 14) (size 15 to 20)
#    0.000    2.167    0.833    2.250    0.000    4.333 
#    1.500    1.250    0.000    0.000    0.000    0.000 
#    0.000    0.000    0.000    0.000    0.000    0.000 
#
# Total GULP energy -267952.386576 kJ/mol
# GULP energy per Si atom -5582.341387 kJ/mol
# Density = 1.760480 g / cm^3
# Si number density = 17.644962 Si / 1000 Ang^3
#
#
#
# Elastic Constant Matrix: (Units=GPa)
#
#
# Indices 1 2 3 4 5 6 
#
# 1 154.5151 54.9094 117.3290 0.0000 0.0000 0.0000
# 2 54.9094 48.6552 58.2291 0.0000 0.0000 0.0000
# 3 117.3290 58.2291 155.3891 0.0000 0.0000 0.0000
# 4 0.0000 0.0000 0.0000 31.4152 0.0000 0.0000
# 5 0.0000 0.0000 0.0000 0.0000 32.2528 0.0000
# 6 0.0000 0.0000 0.0000 0.0000 0.0000 21.3277
#
#
#
# Elastic Compliance Matrix: (Units=1/GPa)
#
#
# Indices 1 2 3 4 5 6 
#
# 1 0.016270 -0.006635 -0.009799 0.000000 0.000000 0.000000
# 2 -0.006635 0.039970 -0.009969 0.000000 0.000000 0.000000
# 3 -0.009799 -0.009969 0.017570 0.000000 0.000000 0.000000
# 4 0.000000 0.000000 0.000000 0.031832 0.000000 0.000000
# 5 0.000000 0.000000 0.000000 0.000000 0.031005 0.000000
# 6 0.000000 0.000000 0.000000 0.000000 0.000000 0.046887
#
#
# Mechanical properties :
#
#
# Convention : Reuss Voigt Hill
#
# Bulk Modulus (GPa) = 47.60496 91.05491 69.32994
# Shear Modulus (GPa) = 20.54733 25.53860 23.04296
#
# Velocity S-wave (km/s) = 3.41616 3.80854 3.61768
# Velocity P-wave (km/s) = 6.52672 8.42947 7.53837
#
# Compressibility (1/GPa) = 0.02100621
#
# Stress axis : x y z
#
# Youngs Moduli (GPa) = 61.46182 25.01863 56.91581
#
# Poissons Ratio (x) = 0.16599 0.55771
# Poissons Ratio (y) = 0.40777 0.56737
# Poissons Ratio (z) = 0.60226 0.24940
#
# Static dielectric constant tensor:
#      x y z
#    x 1.585340 0.000000 0.000000 
#    y 0.000000 1.593850 0.000000 
#    z 0.000000 0.000000 1.572680 
# 
# From -- ./inp_files/32948.got.cif
#   From: 2010.05.17/outbox.cif.g08.bks.cpg/sg59_17_cif.got.tgz:32948.got - 2010.06.03 14:40:33.
