data_PCOD9449065
_publ_section_title
;
Structure prediction by ZEFSAII (Michael W. Deem and Ramdas Pophale) SiO2 
 PCOD9449065
Probable space group: P M M N
;
_chemical_formula_sum "Si O2"
_cell_formula_units_Z 48
_cell_length_a 10.169186
_cell_length_b 7.637620
_cell_length_c 29.645369
_cell_angle_alpha 90.000000
_cell_angle_beta 90.000000
_cell_angle_gamma 90.000000
_cell_volume 2302.507737
_symmetry_space_group_name_H-M "P M M N"
_symmetry_group_IT_number 59
_space_group.IT_coordinate_system_code '2'
_symmetry_cell_setting 'orthorhombic'
loop_
_space_group_symop_operation_xyz
x,y,z
1/2-x,1/2-y,z
1/2+x,-y,-z
-x,1/2+y,-z
-x,-y,-z
1/2+x,1/2+y,-z
1/2-x,y,z
x,1/2-y,z
loop_
_atom_site_type_symbol
_atom_site_label
_atom_site_fract_x
_atom_site_fract_y
_atom_site_fract_z
Si Si1 0.100244 0.538608 0.859374
Si Si2 0.521460 0.542014 0.393501
Si Si3 0.600409 0.458208 0.780381
Si Si4 0.397282 0.035288 0.705500
Si Si5 0.603479 0.459802 0.038563
Si Si6 0.250000 0.965683 0.434232
Si Si7 0.750000 0.041292 0.462431
O O1 0.250000 0.480194 0.847470
O O2 0.102643 0.750000 0.859136
O O3 0.071648 0.478350 0.910658
O O4 0.987671 0.483810 0.824883
O O5 0.507191 0.750000 0.387363
O O6 0.574758 0.475842 0.345658
O O7 0.380312 0.473743 0.408711
O O8 0.623893 0.514343 0.433706
O O9 0.750000 0.527828 0.783156
O O10 0.611683 0.250000 0.773398
O O11 0.511312 0.526516 0.739073
O O12 0.250000 0.981013 0.719416
O O13 0.397399 0.250000 0.706054
O O14 0.750000 0.524631 0.026963
O O15 0.609871 0.250000 0.041616
O O16 0.500000 0.500000 0.000000
O O17 0.250000 0.750000 0.434608
O O18 0.250000 0.024035 0.486295
O O19 0.750000 0.250000 0.464544
#
# Coordination Sequence:
#
# PCOD9449065 Si02
#       7
#     8   8   8   8   8   4   4
#     4   9  19  37  57  76 104 145 186 218 256 313
#     4  10  19  35  57  79 101 136 179 215 256 313
#     4  10  21  34  52  81 111 135 165 216 274 316
#     4   9  17  31  53  78 100 129 173 217 255 304
#     4   9  19  35  54  78 108 142 182 225 265 309
#     4   9  20  33  53  81 107 135 173 217 262 309
#     4  11  21  35  51  77 111 139 171 215 260 309
#
# _framework density 20.846834999999999
#
# number of rings (size 3 to 8) (size 9 to 14) (size 15 to 20)
#    0.000    2.500    0.833    2.250    1.167    3.000 
#    0.000    7.083    0.000    0.000    0.000    0.000 
#    0.000    0.000    0.000    0.000    0.000    0.000 
#
# Total GULP energy -267940.182179 kJ/mol
# GULP energy per Si atom -5582.087129 kJ/mol
# Density = 2.079939 g / cm^3
# Si number density = 20.846835 Si / 1000 Ang^3
#
#
#
# Elastic Constant Matrix: (Units=GPa)
#
#
# Indices 1 2 3 4 5 6 
#
# 1 202.5016 7.6830 98.0727 0.0000 0.0000 0.0000
# 2 7.6830 34.0487 6.1644 0.0000 0.0000 0.0000
# 3 98.0727 6.1644 125.8757 0.0000 0.0000 0.0000
# 4 0.0000 0.0000 0.0000 20.1588 0.0000 0.0000
# 5 0.0000 0.0000 0.0000 0.0000 41.2236 0.0000
# 6 0.0000 0.0000 0.0000 0.0000 0.0000 20.5860
#
#
#
# Elastic Compliance Matrix: (Units=1/GPa)
#
#
# Indices 1 2 3 4 5 6 
#
# 1 0.007946 -0.000678 -0.006158 0.000000 0.000000 0.000000
# 2 -0.000678 0.029690 -0.000926 0.000000 0.000000 0.000000
# 3 -0.006158 -0.000926 0.012787 0.000000 0.000000 0.000000
# 4 0.000000 0.000000 0.000000 0.049606 0.000000 0.000000
# 5 0.000000 0.000000 0.000000 0.000000 0.024258 0.000000
# 6 0.000000 0.000000 0.000000 0.000000 0.000000 0.048577
#
#
# Mechanical properties :
#
#
# Convention : Reuss Voigt Hill
#
# Bulk Modulus (GPa) = 28.65277 65.14067 46.89672
# Shear Modulus (GPa) = 24.99727 33.09406 29.04567
#
# Velocity S-wave (km/s) = 3.46655 3.98865 3.73673
# Velocity P-wave (km/s) = 5.45865 7.24759 6.41578
#
# Compressibility (1/GPa) = 0.03490064
#
# Stress axis : x y z
#
# Youngs Moduli (GPa) = 125.84505 33.68101 78.20162
#
# Poissons Ratio (x) = 0.02284 0.48156
# Poissons Ratio (y) = 0.08535 0.07238
# Poissons Ratio (z) = 0.77494 0.03118
#
# Static dielectric constant tensor:
#      x y z
#    x 1.742330 0.000000 0.000000 
#    y 0.000000 1.789880 0.000000 
#    z 0.000000 0.000000 1.726640 
# 
# From -- ./inp_files/33038.got.cif
#   From: 2010.05.17/outbox.cif.g08.bks.cpg/sg59_17_cif.got.tgz:33038.got - 2010.06.03 14:40:33.
