data_PCOD9449017
_publ_section_title
;
Structure prediction by ZEFSAII (Michael W. Deem and Ramdas Pophale) SiO2 
 PCOD9449017
Probable space group: P M M N
;
_chemical_formula_sum "Si O2"
_cell_formula_units_Z 64
_cell_length_a 21.146337
_cell_length_b 14.864075
_cell_length_c 10.051353
_cell_angle_alpha 90.000000
_cell_angle_beta 90.000000
_cell_angle_gamma 90.000000
_cell_volume 3159.348704
_symmetry_space_group_name_H-M "P M M N"
_symmetry_group_IT_number 59
_space_group.IT_coordinate_system_code '2'
_symmetry_cell_setting 'orthorhombic'
loop_
_space_group_symop_operation_xyz
x,y,z
1/2-x,1/2-y,z
1/2+x,-y,-z
-x,1/2+y,-z
-x,-y,-z
1/2+x,1/2+y,-z
1/2-x,y,z
x,1/2-y,z
loop_
_atom_site_type_symbol
_atom_site_label
_atom_site_fract_x
_atom_site_fract_y
_atom_site_fract_z
Si Si1 0.496815 0.613751 0.647648
Si Si2 0.882154 0.646184 0.832764
Si Si3 0.397989 0.858039 0.048636
Si Si4 0.858094 0.350240 0.245619
Si Si5 0.547696 0.909339 0.370299
Si Si6 0.677768 0.469487 0.738898
Si Si7 0.321144 0.494639 0.561795
Si Si8 0.538522 0.644940 0.069584
O O1 0.554773 0.641032 0.741481
O O2 0.430724 0.650653 0.701707
O O3 0.487029 0.505694 0.648808
O O4 0.513610 0.637575 0.495060
O O5 0.860104 0.750000 0.836617
O O6 0.833970 0.574024 0.774214
O O7 0.904501 0.610874 0.978260
O O8 0.399642 0.750000 0.072452
O O9 0.469882 0.892242 0.031116
O O10 0.367291 0.908667 0.171906
O O11 0.361315 0.872153 0.910753
O O12 0.831719 0.250000 0.263736
O O13 0.824350 0.427597 0.328030
O O14 0.620635 0.928216 0.409689
O O15 0.546416 0.864146 0.226749
O O16 0.750000 0.444491 0.765803
O O17 0.665459 0.461280 0.581911
O O18 0.250000 0.455763 0.557655
O O19 0.536457 0.750000 0.033471
#
# Coordination Sequence:
#
# PCOD9449017 Si02
#       8
#     8   8   8   8   8   8   8   8
#     4  10  19  34  59  89 118 149 190 239 298 359
#     4  11  22  39  62  88 119 156 200 249 303 354
#     4  10  22  40  62  93 127 156 192 240 302 370
#     4  10  21  37  60  91 123 154 190 239 298 361
#     4  10  21  36  56  89 118 153 198 241 297 357
#     4  11  25  43  62  85 117 162 208 250 297 348
#     4  10  23  42  58  80 115 156 204 244 287 348
#     4  10  22  37  58  90 123 152 186 241 308 364
#
# _framework density 20.257339999999999
#
# number of rings (size 3 to 8) (size 9 to 14) (size 15 to 20)
#    0.000    1.750    2.500    1.125    7.000    3.750 
#    0.000    2.500    0.000    1.125    0.000    0.000 
#    0.000    0.000    0.000    0.000    0.000    0.000 
#
# Total GULP energy -357469.162761 kJ/mol
# GULP energy per Si atom -5585.455668 kJ/mol
# Density = 2.021123 g / cm^3
# Si number density = 20.257340 Si / 1000 Ang^3
#
#
#
# Elastic Constant Matrix: (Units=GPa)
#
#
# Indices 1 2 3 4 5 6 
#
# 1 39.6243 1.4970 7.1435 0.0000 0.0000 0.0000
# 2 1.4970 41.7579 5.0822 0.0000 0.0000 0.0000
# 3 7.1435 5.0822 84.3064 0.0000 0.0000 0.0000
# 4 0.0000 0.0000 0.0000-3218.9236 0.0000 0.0000
# 5 0.0000 0.0000 0.0000 0.0000 -4.7097 0.0000
# 6 0.0000 0.0000 0.0000 0.0000 0.0000 -4.7371
#
#
#
# Elastic Compliance Matrix: (Units=1/GPa)
#
#
# Indices 1 2 3 4 5 6 
#
# 1 0.025647 -0.000660 -0.002133 0.000000 0.000000 0.000000
# 2 -0.000660 0.024142 -0.001399 0.000000 0.000000 0.000000
# 3 -0.002133 -0.001399 0.012127 0.000000 0.000000 0.000000
# 4 0.000000 0.000000 0.000000 -0.000311 0.000000 0.000000
# 5 0.000000 0.000000 0.000000 0.000000 -0.212328 0.000000
# 6 0.000000 0.000000 0.000000 0.000000 0.000000 -0.211099
#
#
# Mechanical properties :
#
#
# Convention : Reuss Voigt Hill
#
# Bulk Modulus (GPa) = 18.68124 21.45935 20.07029
# Shear Modulus (GPa) = -14.89891 -635.54302 -325.22097
#
# Velocity S-wave (km/s) = -2.71492 -17.73177 -12.68437
# Velocity P-wave (km/s) = 0.76533 20.21397 14.30368
#
# Compressibility (1/GPa) = 0.05352964
#
# Stress axis : x y z
#
# Youngs Moduli (GPa) = 38.99162 41.42240 82.46327
#
# Poissons Ratio (x) = 0.02733 0.17592
# Poissons Ratio (y) = 0.02573 0.11540
# Poissons Ratio (z) = 0.08318 0.05797
#
# Static dielectric constant tensor:
#      x y z
#    x 1.718280 0.000000 0.000000 
#    y 0.000000 1.728360 0.000000 
#    z 0.000000 0.000000 1.715690 
# 
# From -- ./inp_files/12191.got.cif
#   From: 2010.05.17/outbox.cif.g08.bks.cpg/sg59_7_cif.got.tgz:12191.got - 2010.06.03 14:40:33.
