data_PCOD9449621
_publ_section_title
;
Structure prediction by ZEFSAII (Michael W. Deem and Ramdas Pophale) SiO2 
 PCOD9449621
Probable space group: P M M N
;
_chemical_formula_sum "Si O2"
_cell_formula_units_Z 48
_cell_length_a 9.373955
_cell_length_b 7.353032
_cell_length_c 32.193179
_cell_angle_alpha 90.000000
_cell_angle_beta 90.000000
_cell_angle_gamma 90.000000
_cell_volume 2218.978962
_symmetry_space_group_name_H-M "P M M N"
_symmetry_group_IT_number 59
_space_group.IT_coordinate_system_code '2'
_symmetry_cell_setting 'orthorhombic'
loop_
_space_group_symop_operation_xyz
x,y,z
1/2-x,1/2-y,z
1/2+x,-y,-z
-x,1/2+y,-z
-x,-y,-z
1/2+x,1/2+y,-z
1/2-x,y,z
x,1/2-y,z
loop_
_atom_site_type_symbol
_atom_site_label
_atom_site_fract_x
_atom_site_fract_y
_atom_site_fract_z
Si Si1 0.416568 0.971309 0.132343
Si Si2 0.910791 0.033090 0.958874
Si Si3 0.914482 0.028189 0.704782
Si Si4 0.087655 0.967194 0.458071
Si Si5 0.585799 0.972158 0.213396
Si Si6 0.914779 0.972184 0.377354
O O1 0.250000 0.022566 0.137245
O O2 0.419982 0.750000 0.133351
O O3 0.465484 0.030802 0.086250
O O4 0.512029 0.032829 0.170668
O O5 0.750000 0.962896 0.964214
O O6 0.902133 0.250000 0.954971
O O7 0.000000 0.000000 0.000000
O O8 0.750000 0.969832 0.703421
O O9 0.913536 0.250000 0.704782
O O10 0.993936 0.970965 0.746782
O O11 0.002559 0.971671 0.664214
O O12 0.250000 0.037151 0.460339
O O13 0.097477 0.750000 0.453197
O O14 0.000117 0.033927 0.418126
O O15 0.000000 0.000000 0.500000
O O16 0.750000 0.029054 0.216460
O O17 0.585283 0.750000 0.213317
O O18 0.750000 0.029880 0.377720
O O19 0.913837 0.750000 0.377610
#
# Coordination Sequence:
#
# PCOD9449621 Si02
#       6
#     8   8   8   8   8   8
#     4   8  14  25  38  52  75 107 139 172 213 259
#     4   9  18  31  46  65  89 117 150 187 226 269
#     4   9  15  22  33  50  75 108 142 174 212 260
#     4  10  20  33  49  69  93 122 156 192 231 275
#     4   9  15  21  31  50  75 103 137 174 211 255
#     4   9  16  26  40  58  82 112 145 182 223 265
#
# _framework density 21.631571999999998
#
# number of rings (size 3 to 8) (size 9 to 14) (size 15 to 20)
#    0.000    3.000    0.000    3.000    0.000    8.000 
#    0.000    1.667    0.000    0.000    0.000    0.000 
#    0.000    1.333    0.000    9.667    0.000   14.667 
#
# Total GULP energy -268061.050714 kJ/mol
# GULP energy per Si atom -5584.605223 kJ/mol
# Density = 2.158234 g / cm^3
# Si number density = 21.631572 Si / 1000 Ang^3
#
#
#
# Elastic Constant Matrix: (Units=GPa)
#
#
# Indices 1 2 3 4 5 6 
#
# 1 216.0534 6.1585 162.5714 0.0000 0.0000 0.0000
# 2 6.1585 79.3767 4.7837 0.0000 0.0000 0.0000
# 3 162.5714 4.7837 269.7898 0.0000 0.0000 0.0000
# 4 0.0000 0.0000 0.0000 8.3082 0.0000 0.0000
# 5 0.0000 0.0000 0.0000 0.0000 46.5231 0.0000
# 6 0.0000 0.0000 0.0000 0.0000 0.0000 -2.4322
#
#
#
# Elastic Compliance Matrix: (Units=1/GPa)
#
#
# Indices 1 2 3 4 5 6 
#
# 1 0.008478 -0.000350 -0.005102 0.000000 0.000000 0.000000
# 2 -0.000350 0.012626 -0.000013 0.000000 0.000000 0.000000
# 3 -0.005102 -0.000013 0.006781 0.000000 0.000000 0.000000
# 4 0.000000 0.000000 0.000000 0.120363 0.000000 0.000000
# 5 0.000000 0.000000 0.000000 0.000000 0.021495 0.000000
# 6 0.000000 0.000000 0.000000 0.000000 0.000000 -0.411147
#
#
# Mechanical properties :
#
#
# Convention : Reuss Voigt Hill
#
# Bulk Modulus (GPa) = 58.98169 101.36081 80.17125
# Shear Modulus (GPa) = -22.23979 36.59358 7.17689
#
# Velocity S-wave (km/s) = -3.20991 4.11746 1.82346
# Velocity P-wave (km/s) = 3.68615 8.34051 6.44794
#
# Compressibility (1/GPa) = 0.01695441
#
# Stress axis : x y z
#
# Youngs Moduli (GPa) = 117.95487 79.20104 147.46108
#
# Poissons Ratio (x) = 0.02774 0.75241
# Poissons Ratio (y) = 0.04131 0.00189
# Poissons Ratio (z) = 0.60185 0.00102
#
# Static dielectric constant tensor:
#      x y z
#    x 1.738580 0.000000 0.000000 
#    y 0.000000 1.947680 0.000000 
#    z 0.000000 0.000000 1.748730 
# 
# From -- ./inp_files/32466.got.cif
#   From: 2010.05.17/outbox.cif.g08.bks.cpg/sg59_17_cif.got.tgz:32466.got - 2010.06.03 14:40:33.
