data_PCOD9449887
_publ_section_title
;
Structure prediction by ZEFSAII (Michael W. Deem and Ramdas Pophale) SiO2 
 PCOD9449887
Probable space group: P M M N
;
_chemical_formula_sum "Si O2"
_cell_formula_units_Z 64
_cell_length_a 8.364634
_cell_length_b 21.278844
_cell_length_c 17.046929
_cell_angle_alpha 90.000000
_cell_angle_beta 90.000000
_cell_angle_gamma 90.000000
_cell_volume 3034.178495
_symmetry_space_group_name_H-M "P M M N"
_symmetry_group_IT_number 59
_space_group.IT_coordinate_system_code '2'
_symmetry_cell_setting 'orthorhombic'
loop_
_space_group_symop_operation_xyz
x,y,z
1/2-x,1/2-y,z
1/2+x,-y,-z
-x,1/2+y,-z
-x,-y,-z
1/2+x,1/2+y,-z
1/2-x,y,z
x,1/2-y,z
loop_
_atom_site_type_symbol
_atom_site_label
_atom_site_fract_x
_atom_site_fract_y
_atom_site_fract_z
Si Si1 0.561919 0.645254 0.224447
Si Si2 0.936915 0.182890 0.937152
Si Si3 0.556582 0.569873 0.520774
Si Si4 0.058383 0.989293 0.177772
Si Si5 0.054968 0.321255 0.598811
Si Si6 0.933556 0.176663 0.171007
Si Si7 0.439594 0.398782 0.303052
Si Si8 0.066571 0.081884 0.049715
O O1 0.750000 0.659968 0.218314
O O2 0.470579 0.679860 0.154921
O O3 0.531966 0.572184 0.205883
O O4 0.507546 0.662934 0.311781
O O5 0.750000 0.184498 0.952960
O O6 0.006319 0.250000 0.966985
O O7 0.996126 0.118318 0.975779
O O8 0.500000 0.500000 0.500000
O O9 0.750000 0.569508 0.519260
O O10 0.501174 0.623663 0.459922
O O11 0.506296 0.586895 0.609173
O O12 0.250000 0.976584 0.170237
O O13 0.038781 0.041047 0.246297
O O14 0.999968 0.020587 0.095441
O O15 0.250000 0.321881 0.597358
O O16 0.004783 0.250000 0.578273
O O17 0.750000 0.160356 0.150485
O O18 0.956095 0.250000 0.159198
O O19 0.968369 0.157067 0.260022
O O20 0.048493 0.135632 0.116666
O O21 0.250000 0.384586 0.304585
O O22 0.250000 0.068228 0.033347
#
# Coordination Sequence:
#
# PCOD9449887 Si02
#       8
#     8   8   8   8   8   8   8   8
#     4  11  22  36  58  83 107 143 189 235 283 335
#     4  11  24  40  58  81 110 144 182 227 280 335
#     4  10  20  35  58  86 114 147 187 235 290 343
#     4   9  19  36  55  79 113 146 179 224 276 332
#     4   9  19  36  57  83 115 150 192 241 290 341
#     4  10  20  33  51  77 110 146 181 221 272 327
#     4   9  19  34  53  79 109 144 186 227 271 330
#     4  10  21  37  58  83 111 145 183 225 274 329
#
# _framework density 21.093022999999999
#
# number of rings (size 3 to 8) (size 9 to 14) (size 15 to 20)
#    0.000    2.125    0.000    3.750    0.000    8.000 
#    0.000    1.875    0.000    1.875    0.000    0.000 
#    0.000    0.000    0.000    0.000    0.000    0.000 
#
# Total GULP energy -357355.288529 kJ/mol
# GULP energy per Si atom -5583.676383 kJ/mol
# Density = 2.104501 g / cm^3
# Si number density = 21.093023 Si / 1000 Ang^3
#
#
#
# Elastic Constant Matrix: (Units=GPa)
#
#
# Indices 1 2 3 4 5 6 
#
# 1 8.6311 13.1450 8.3213 0.0000 0.0000 0.0000
# 2 13.1450 111.9061 37.5304 0.0000 0.0000 0.0000
# 3 8.3213 37.5304 119.9720 0.0000 0.0000 0.0000
# 4 0.0000 0.0000 0.0000 16.4207 0.0000 0.0000
# 5 0.0000 0.0000 0.0000 0.0000 -1.7179 0.0000
# 6 0.0000 0.0000 0.0000 0.0000 0.0000 23.7450
#
#
#
# Elastic Compliance Matrix: (Units=1/GPa)
#
#
# Indices 1 2 3 4 5 6 
#
# 1 0.144000 -0.015155 -0.005247 0.000000 0.000000 0.000000
# 2 -0.015155 0.011578 -0.002571 0.000000 0.000000 0.000000
# 3 -0.005247 -0.002571 0.009503 0.000000 0.000000 0.000000
# 4 0.000000 0.000000 0.000000 0.060899 0.000000 0.000000
# 5 0.000000 0.000000 0.000000 0.000000 -0.582099 0.000000
# 6 0.000000 0.000000 0.000000 0.000000 0.000000 0.042114
#
#
# Mechanical properties :
#
#
# Convention : Reuss Voigt Hill
#
# Bulk Modulus (GPa) = 8.39377 39.83361 24.11369
# Shear Modulus (GPa) = -21.89660 19.79039 -1.05311
#
# Velocity S-wave (km/s) = -3.22545 3.06640 -0.70736
# Velocity P-wave (km/s) = 3.14377 5.60917 3.28478
#
# Compressibility (1/GPa) = 0.11913596
#
# Stress axis : x y z
#
# Youngs Moduli (GPa) = 6.94444 86.36730 105.22503
#
# Poissons Ratio (x) = 1.30891 0.55211
# Poissons Ratio (y) = 0.10524 0.27052
# Poissons Ratio (z) = 0.03644 0.22204
#
# Static dielectric constant tensor:
#      x y z
#    x 1.744320 0.000000 0.000000 
#    y 0.000000 1.789830 0.000000 
#    z 0.000000 0.000000 1.780330 
# 
# From -- ./inp_files/26269.got.cif
#   From: 2010.05.17/outbox.cif.g08.bks.cpg/sg59_14_cif.got.tgz:26269.got - 2010.06.03 14:40:33.
