data_PCOD9449880
_publ_section_title
;
Structure prediction by ZEFSAII (Michael W. Deem and Ramdas Pophale) SiO2 
 PCOD9449880
Probable space group: P M M N
;
_chemical_formula_sum "Si O2"
_cell_formula_units_Z 64
_cell_length_a 8.935646
_cell_length_b 14.633321
_cell_length_c 26.030205
_cell_angle_alpha 90.000000
_cell_angle_beta 90.000000
_cell_angle_gamma 90.000000
_cell_volume 3403.662133
_symmetry_space_group_name_H-M "P M M N"
_symmetry_group_IT_number 59
_space_group.IT_coordinate_system_code '2'
_symmetry_cell_setting 'orthorhombic'
loop_
_space_group_symop_operation_xyz
x,y,z
1/2-x,1/2-y,z
1/2+x,-y,-z
-x,1/2+y,-z
-x,-y,-z
1/2+x,1/2+y,-z
1/2-x,y,z
x,1/2-y,z
loop_
_atom_site_type_symbol
_atom_site_label
_atom_site_fract_x
_atom_site_fract_y
_atom_site_fract_z
Si Si1 0.432166 0.852935 0.916639
Si Si2 0.080960 0.118229 0.459658
Si Si3 0.074471 0.640561 0.033967
Si Si4 0.579861 0.400383 0.560702
Si Si5 0.571124 0.538936 0.128557
Si Si6 0.069370 0.855993 0.224145
Si Si7 0.930928 0.456978 0.670843
Si Si8 0.428068 0.850226 0.646067
O O1 0.250000 0.850756 0.917244
O O2 0.483452 0.750000 0.904558
O O3 0.477826 0.933401 0.878587
O O4 0.475758 0.876844 0.975333
O O5 0.250000 0.150191 0.451497
O O6 0.020441 0.141625 0.515987
O O7 0.973752 0.149414 0.413966
O O8 0.086644 0.008205 0.453490
O O9 0.250000 0.614680 0.038842
O O10 0.066085 0.750000 0.041605
O O11 0.978817 0.589981 0.076607
O O12 0.750000 0.364626 0.559211
O O13 0.522068 0.402164 0.619204
O O14 0.750000 0.541726 0.133370
O O15 0.497531 0.588767 0.176645
O O16 0.250000 0.858027 0.220764
O O17 0.022468 0.750000 0.222675
O O18 0.026824 0.903623 0.277785
O O19 0.750000 0.463126 0.667772
O O20 0.994910 0.559785 0.669401
O O21 0.250000 0.859105 0.651012
O O22 0.473007 0.750000 0.667178
#
# Coordination Sequence:
#
# PCOD9449880 Si02
#       8
#     8   8   8   8   8   8   8   8
#     4   8  16  32  52  75 106 144 181 213 252 307
#     4   9  16  26  44  71 102 137 172 204 243 297
#     4   9  17  31  52  76 105 144 183 215 254 308
#     4   8  14  26  45  70  98 126 162 209 257 302
#     4  11  21  32  52  81 109 138 174 219 265 304
#     4  10  22  41  61  78 100 133 172 213 260 316
#     4   9  19  36  57  77  98 132 177 221 263 307
#     4  10  20  33  51  77 108 140 173 210 255 308
#
# _framework density 18.803277000000001
#
# number of rings (size 3 to 8) (size 9 to 14) (size 15 to 20)
#    0.000    2.750    0.000    3.375    0.000    6.500 
#    0.000    1.875    0.000    7.500    0.000    0.000 
#    0.000    0.000    0.000    0.000    0.000    0.000 
#
# Total GULP energy -356887.277534 kJ/mol
# GULP energy per Si atom -5576.363711 kJ/mol
# Density = 1.876048 g / cm^3
# Si number density = 18.803277 Si / 1000 Ang^3
#
#
#
# Elastic Constant Matrix: (Units=GPa)
#
#
# Indices 1 2 3 4 5 6 
#
# 1 18.6705 21.3800 26.0353 0.0000 0.0000 0.0000
# 2 21.3800 108.8996 90.1527 0.0000 0.0000 0.0000
# 3 26.0353 90.1527 118.1035 0.0000 0.0000 0.0000
# 4 0.0000 0.0000 0.0000 -12.3245 0.0000 0.0000
# 5 0.0000 0.0000 0.0000 0.0000 19.7679 0.0000
# 6 0.0000 0.0000 0.0000 0.0000 0.0000 13.6852
#
#
#
# Elastic Compliance Matrix: (Units=1/GPa)
#
#
# Indices 1 2 3 4 5 6 
#
# 1 0.077672 -0.002919 -0.014894 0.000000 0.000000 0.000000
# 2 -0.002919 0.025058 -0.018484 0.000000 0.000000 0.000000
# 3 -0.014894 -0.018484 0.025860 0.000000 0.000000 0.000000
# 4 0.000000 0.000000 0.000000 -0.081139 0.000000 0.000000
# 5 0.000000 0.000000 0.000000 0.000000 0.050587 0.000000
# 6 0.000000 0.000000 0.000000 0.000000 0.000000 0.073072
#
#
# Mechanical properties :
#
#
# Convention : Reuss Voigt Hill
#
# Bulk Modulus (GPa) = 17.85856 57.86774 37.86315
# Shear Modulus (GPa) = 19.05701 11.43275 15.24488
#
# Velocity S-wave (km/s) = 3.18700 2.46848 2.85047
# Velocity P-wave (km/s) = 4.80216 6.24233 5.56900
#
# Compressibility (1/GPa) = 0.05599556
#
# Stress axis : x y z
#
# Youngs Moduli (GPa) = 12.87460 39.90731 38.66944
#
# Poissons Ratio (x) = 0.11649 0.57595
# Poissons Ratio (y) = 0.03758 0.71478
# Poissons Ratio (z) = 0.19176 0.73766
#
# Static dielectric constant tensor:
#      x y z
#    x 1.639070 0.000000 0.000000 
#    y 0.000000 1.692970 0.000000 
#    z 0.000000 0.000000 1.636190 
# 
# From -- ./inp_files/31626.got.cif
#   From: 2010.05.17/outbox.cif.g08.bks.cpg/sg59_16_cif.got.tgz:31626.got - 2010.06.03 14:40:33.
