data_PCOD9449676
_publ_section_title
;
Structure prediction by ZEFSAII (Michael W. Deem and Ramdas Pophale) SiO2 
 PCOD9449676
Probable space group: P M M N
;
_chemical_formula_sum "Si O2"
_cell_formula_units_Z 56
_cell_length_a 8.491957
_cell_length_b 15.197964
_cell_length_c 21.411312
_cell_angle_alpha 90.000000
_cell_angle_beta 90.000000
_cell_angle_gamma 90.000000
_cell_volume 2763.353707
_symmetry_space_group_name_H-M "P M M N"
_symmetry_group_IT_number 59
_space_group.IT_coordinate_system_code '2'
_symmetry_cell_setting 'orthorhombic'
loop_
_space_group_symop_operation_xyz
x,y,z
1/2-x,1/2-y,z
1/2+x,-y,-z
-x,1/2+y,-z
-x,-y,-z
1/2+x,1/2+y,-z
1/2-x,y,z
x,1/2-y,z
loop_
_atom_site_type_symbol
_atom_site_label
_atom_site_fract_x
_atom_site_fract_y
_atom_site_fract_z
Si Si1 0.438476 0.345503 0.712350
Si Si2 0.560121 0.147685 0.979576
Si Si3 0.059458 0.471893 0.091280
Si Si4 0.430331 0.601235 0.643863
Si Si5 0.938639 0.972342 0.766695
Si Si6 0.574922 0.849527 0.519926
Si Si7 0.930698 0.074751 0.596152
O O1 0.250000 0.353988 0.705984
O O2 0.472810 0.250000 0.741317
O O3 0.504037 0.429259 0.749377
O O4 0.519127 0.349843 0.644288
O O5 0.750000 0.150917 0.977729
O O6 0.504882 0.250000 0.972217
O O7 0.510420 0.071456 0.929675
O O8 0.507429 0.101544 0.044321
O O9 0.250000 0.469275 0.087291
O O10 0.012546 0.453449 0.162484
O O11 0.250000 0.628956 0.643222
O O12 0.493471 0.593131 0.714143
O O13 0.529524 0.652687 0.592397
O O14 0.453066 0.503141 0.616098
O O15 0.750000 0.970324 0.762808
O O16 0.750000 0.887469 0.512897
O O17 0.576643 0.750000 0.496651
O O18 0.456071 0.900681 0.475443
O O19 0.750000 0.049607 0.608237
#
# Coordination Sequence:
#
# PCOD9449676 Si02
#       7
#     8   8   8   8   8   8   8
#     4  10  20  33  49  73 106 140 176 220 270 322
#     4   9  18  34  57  85 116 148 182 221 265 313
#     4   9  19  35  56  83 114 147 183 224 267 315
#     4  11  22  37  56  76 102 134 172 216 260 312
#     4  10  20  35  55  77 104 141 181 217 260 314
#     4  11  23  38  55  75 101 131 167 216 270 318
#     4  11  21  34  54  77 102 133 172 215 263 321
#
# _framework density 20.265232000000001
#
# number of rings (size 3 to 8) (size 9 to 14) (size 15 to 20)
#    0.000    1.857    0.000    6.429    0.000    6.000 
#    0.000    2.143    0.000    0.857    0.000    0.000 
#    0.000    0.000    0.000    0.000    0.000    0.000 
#
# Total GULP energy -312351.787759 kJ/mol
# GULP energy per Si atom -5577.710496 kJ/mol
# Density = 2.021911 g / cm^3
# Si number density = 20.265232 Si / 1000 Ang^3
#
#
#
# Elastic Constant Matrix: (Units=GPa)
#
#
# Indices 1 2 3 4 5 6 
#
# 1 47.6982 -9.3719 7.8100 0.0000 0.0000 0.0000
# 2 -9.3719 47.1874 -5.2890 0.0000 0.0000 0.0000
# 3 7.8100 -5.2890 111.9229 0.0000 0.0000 0.0000
# 4 0.0000 0.0000 0.0000 14.8094 0.0000 0.0000
# 5 0.0000 0.0000 0.0000 0.0000 28.2577 0.0000
# 6 0.0000 0.0000 0.0000 0.0000 0.0000 17.5335
#
#
#
# Elastic Compliance Matrix: (Units=1/GPa)
#
#
# Indices 1 2 3 4 5 6 
#
# 1 0.022014 0.004222 -0.001337 0.000000 0.000000 0.000000
# 2 0.004222 0.022115 0.000750 0.000000 0.000000 0.000000
# 3 -0.001337 0.000750 0.009063 0.000000 0.000000 0.000000
# 4 0.000000 0.000000 0.000000 0.067525 0.000000 0.000000
# 5 0.000000 0.000000 0.000000 0.000000 0.035389 0.000000
# 6 0.000000 0.000000 0.000000 0.000000 0.000000 0.057034
#
#
# Mechanical properties :
#
#
# Convention : Reuss Voigt Hill
#
# Bulk Modulus (GPa) = 16.53871 21.45630 18.99751
# Shear Modulus (GPa) = 22.12180 26.36407 24.24293
#
# Velocity S-wave (km/s) = 3.30754 3.61078 3.46248
# Velocity P-wave (km/s) = 4.77130 5.29097 5.03784
#
# Compressibility (1/GPa) = 0.06046419
#
# Stress axis : x y z
#
# Youngs Moduli (GPa) = 45.42642 45.21858 110.33325
#
# Poissons Ratio (x) = -0.19093 0.14747
# Poissons Ratio (y) = -0.19181 -0.08279
# Poissons Ratio (z) = 0.06072 -0.03393
#
# Static dielectric constant tensor:
#      x y z
#    x 1.681030 0.000000 0.000000 
#    y 0.000000 1.781200 0.000000 
#    z 0.000000 0.000000 1.730080 
# 
# From -- ./inp_files/29102.got.cif
#   From: 2010.05.17/outbox.cif.g08.bks.cpg/sg59_15_cif.got.tgz:29102.got - 2010.06.03 14:40:33.
