data_PCOD9449305
_publ_section_title
;
Structure prediction by ZEFSAII (Michael W. Deem and Ramdas Pophale) SiO2 
 PCOD9449305
Probable space group: P M M N
;
_chemical_formula_sum "Si O2"
_cell_formula_units_Z 64
_cell_length_a 17.835487
_cell_length_b 9.366214
_cell_length_c 22.301033
_cell_angle_alpha 90.000000
_cell_angle_beta 90.000000
_cell_angle_gamma 90.000000
_cell_volume 3725.409597
_symmetry_space_group_name_H-M "P M M N"
_symmetry_group_IT_number 59
_space_group.IT_coordinate_system_code '2'
_symmetry_cell_setting 'orthorhombic'
loop_
_space_group_symop_operation_xyz
x,y,z
1/2-x,1/2-y,z
1/2+x,-y,-z
-x,1/2+y,-z
-x,-y,-z
1/2+x,1/2+y,-z
1/2-x,y,z
x,1/2-y,z
loop_
_atom_site_type_symbol
_atom_site_label
_atom_site_fract_x
_atom_site_fract_y
_atom_site_fract_z
Si Si1 0.833287 0.417172 0.630600
Si Si2 0.945893 0.082508 0.326049
Si Si3 0.396012 0.083555 0.258699
Si Si4 0.158705 0.084821 0.895171
Si Si5 0.839368 0.078466 0.855267
Si Si6 0.841378 0.414975 0.988872
Si Si7 0.660043 0.918613 0.238683
Si Si8 0.014066 0.579183 0.437686
O O1 0.750000 0.441458 0.605931
O O2 0.839159 0.250000 0.648149
O O3 0.846078 0.511572 0.689422
O O4 0.900119 0.444555 0.584131
O O5 0.934012 0.250000 0.339517
O O6 0.019535 0.071391 0.283817
O O7 0.878829 0.012407 0.289021
O O8 0.963767 0.993011 0.385870
O O9 0.377573 0.250000 0.251705
O O10 0.382975 0.000742 0.197081
O O11 0.250000 0.079525 0.895672
O O12 0.137179 0.250000 0.900581
O O13 0.136175 0.034577 0.828682
O O14 0.131613 0.999817 0.953087
O O15 0.750000 0.050435 0.848507
O O16 0.848948 0.250000 0.851285
O O17 0.863091 0.032864 0.922505
O O18 0.750000 0.419090 0.989159
O O19 0.863311 0.250000 0.994248
O O20 0.750000 0.929393 0.242005
O O21 0.640912 0.750000 0.245137
O O22 0.001450 0.750000 0.441679
O O23 0.000000 0.500000 0.500000
#
# Coordination Sequence:
#
# PCOD9449305 Si02
#       8
#     8   8   8   8   8   8   8   8
#     4   9  18  33  53  76 101 131 168 206 243 286
#     4  10  21  36  53  75 102 131 164 200 240 291
#     4  10  20  31  45  69  99 129 163 204 246 288
#     4   8  14  25  42  65  92 120 151 193 246 298
#     4   9  17  28  42  63  93 128 165 204 246 293
#     4   8  14  24  38  59  88 121 158 199 241 289
#     4   9  18  33  53  77 102 126 158 203 252 300
#     4  10  20  36  58  80 105 138 171 204 244 292
#
# _framework density 17.179319
#
# number of rings (size 3 to 8) (size 9 to 14) (size 15 to 20)
#    0.000    2.875    0.000    3.000    0.000    5.250 
#    0.000    3.125    0.000    3.000    0.000    0.000 
#    0.000    0.000    0.000    0.000    0.000    0.000 
#
# Total GULP energy -356650.185435 kJ/mol
# GULP energy per Si atom -5572.659147 kJ/mol
# Density = 1.714022 g / cm^3
# Si number density = 17.179319 Si / 1000 Ang^3
#
#
#
# Elastic Constant Matrix: (Units=GPa)
#
#
# Indices 1 2 3 4 5 6 
#
# 1 25.8510 32.6604 38.3110 0.0000 0.0000 0.0000
# 2 32.6604 81.4540 84.1984 0.0000 0.0000 0.0000
# 3 38.3110 84.1984 159.6715 0.0000 0.0000 0.0000
# 4 0.0000 0.0000 0.0000 37.0218 0.0000 0.0000
# 5 0.0000 0.0000 0.0000 0.0000 11.4500 0.0000
# 6 0.0000 0.0000 0.0000 0.0000 0.0000 20.7606
#
#
#
# Elastic Compliance Matrix: (Units=1/GPa)
#
#
# Indices 1 2 3 4 5 6 
#
# 1 0.080192 -0.026962 -0.005023 0.000000 0.000000 0.000000
# 2 -0.026962 0.036052 -0.012542 0.000000 0.000000 0.000000
# 3 -0.005023 -0.012542 0.014082 0.000000 0.000000 0.000000
# 4 0.000000 0.000000 0.000000 0.027011 0.000000 0.000000
# 5 0.000000 0.000000 0.000000 0.000000 0.087336 0.000000
# 6 0.000000 0.000000 0.000000 0.000000 0.000000 0.048168
#
#
# Mechanical properties :
#
#
# Convention : Reuss Voigt Hill
#
# Bulk Modulus (GPa) = 24.22979 64.14623 44.18801
# Shear Modulus (GPa) = 12.63734 21.30026 16.96880
#
# Velocity S-wave (km/s) = 2.71516 3.52501 3.14625
# Velocity P-wave (km/s) = 4.89532 7.34764 6.24308
#
# Compressibility (1/GPa) = 0.04127151
#
# Stress axis : x y z
#
# Youngs Moduli (GPa) = 12.47015 27.73744 71.01304
#
# Poissons Ratio (x) = 0.74785 0.35673
# Poissons Ratio (y) = 0.33622 0.89066
# Poissons Ratio (z) = 0.06264 0.34789
#
# Static dielectric constant tensor:
#      x y z
#    x 1.588670 0.000000 0.000000 
#    y 0.000000 1.576940 0.000000 
#    z 0.000000 0.000000 1.571800 
# 
# From -- ./inp_files/30848.got.cif
#   From: 2010.05.17/outbox.cif.g08.bks.cpg/sg59_16_cif.got.tgz:30848.got - 2010.06.03 14:40:33.
