data_PCOD9449147
_publ_section_title
;
Structure prediction by ZEFSAII (Michael W. Deem and Ramdas Pophale) SiO2 
 PCOD9449147
Probable space group: P M M N
;
_chemical_formula_sum "Si O2"
_cell_formula_units_Z 48
_cell_length_a 18.025289
_cell_length_b 14.028401
_cell_length_c 10.049904
_cell_angle_alpha 90.000000
_cell_angle_beta 90.000000
_cell_angle_gamma 90.000000
_cell_volume 2541.278846
_symmetry_space_group_name_H-M "P M M N"
_symmetry_group_IT_number 59
_space_group.IT_coordinate_system_code '2'
_symmetry_cell_setting 'orthorhombic'
loop_
_space_group_symop_operation_xyz
x,y,z
1/2-x,1/2-y,z
1/2+x,-y,-z
-x,1/2+y,-z
-x,-y,-z
1/2+x,1/2+y,-z
1/2-x,y,z
x,1/2-y,z
loop_
_atom_site_type_symbol
_atom_site_label
_atom_site_fract_x
_atom_site_fract_y
_atom_site_fract_z
Si Si1 0.413555 0.635536 0.135827
Si Si2 0.835945 0.637734 0.183739
Si Si3 0.381912 0.504307 0.584507
Si Si4 0.750000 0.136156 0.502248
Si Si5 0.451733 0.363842 0.047171
Si Si6 0.454996 0.025697 0.316876
Si Si7 0.250000 0.864548 0.181034
O O1 0.415535 0.750000 0.152577
O O2 0.445281 0.583361 0.266444
O O3 0.328212 0.603280 0.119992
O O4 0.467736 0.610580 0.014266
O O5 0.750000 0.626707 0.144864
O O6 0.848868 0.750000 0.213539
O O7 0.852572 0.572803 0.310954
O O8 0.890937 0.610957 0.064031
O O9 0.321955 0.586804 0.561584
O O10 0.460773 0.542498 0.637724
O O11 0.401191 0.458682 0.441162
O O12 0.750000 0.250000 0.486091
O O13 0.750000 0.114824 0.661056
O O14 0.449919 0.250000 0.063904
O O15 0.437823 0.413374 0.186808
O O16 0.250000 0.750000 0.167885
#
# Coordination Sequence:
#
# PCOD9449147 Si02
#       7
#     8   8   8   4   8   8   4
#     4  10  19  35  60  87 117 159 206 251 307 368
#     4  10  21  40  64  88 118 158 204 252 306 366
#     4  11  23  38  62  92 122 160 203 250 305 365
#     4  11  22  40  60  86 127 165 198 245 310 366
#     4  10  22  41  61  84 121 163 201 251 312 367
#     4  11  23  38  60  92 122 157 206 251 302 364
#     4   9  18  34  57  86 117 155 205 249 291 364
#
# _framework density 18.888128999999999
#
# number of rings (size 3 to 8) (size 9 to 14) (size 15 to 20)
#    0.000    1.667    4.167    0.500    0.000    1.333 
#    3.000    4.167    0.000    1.000    0.000    0.000 
#    0.000    0.000    0.000    0.000    0.000    0.000 
#
# Total GULP energy -268012.497092 kJ/mol
# GULP energy per Si atom -5583.593689 kJ/mol
# Density = 1.884514 g / cm^3
# Si number density = 18.888129 Si / 1000 Ang^3
#
#
#
# Elastic Constant Matrix: (Units=GPa)
#
#
# Indices 1 2 3 4 5 6 
#
# 1 141.8903 60.5479 64.7461 0.0000 0.0000 0.0000
# 2 60.5479 70.2600 60.6918 0.0000 0.0000 0.0000
# 3 64.7461 60.6918 137.7689 0.0000 0.0000 0.0000
# 4 0.0000 0.0000 0.0000 28.0050 0.0000 0.0000
# 5 0.0000 0.0000 0.0000 0.0000 12.4125 0.0000
# 6 0.0000 0.0000 0.0000 0.0000 0.0000 21.7417
#
#
#
# Elastic Compliance Matrix: (Units=1/GPa)
#
#
# Indices 1 2 3 4 5 6 
#
# 1 0.011377 -0.008371 -0.001659 0.000000 0.000000 0.000000
# 2 -0.008371 0.029136 -0.008901 0.000000 0.000000 0.000000
# 3 -0.001659 -0.008901 0.011959 0.000000 0.000000 0.000000
# 4 0.000000 0.000000 0.000000 0.035708 0.000000 0.000000
# 5 0.000000 0.000000 0.000000 0.000000 0.080564 0.000000
# 6 0.000000 0.000000 0.000000 0.000000 0.000000 0.045995
#
#
# Mechanical properties :
#
#
# Convention : Reuss Voigt Hill
#
# Bulk Modulus (GPa) = 68.44828 80.21011 74.32919
# Shear Modulus (GPa) = 19.41965 23.36073 21.39019
#
# Velocity S-wave (km/s) = 3.20994 3.52062 3.36887
# Velocity P-wave (km/s) = 7.07501 7.68664 7.38716
#
# Compressibility (1/GPa) = 0.01460957
#
# Stress axis : x y z
#
# Youngs Moduli (GPa) = 87.89756 34.32185 83.61613
#
# Poissons Ratio (x) = 0.28732 0.13871
# Poissons Ratio (y) = 0.73582 0.74428
# Poissons Ratio (z) = 0.14581 0.30551
#
# Static dielectric constant tensor:
#      x y z
#    x 1.680890 0.000000 0.000000 
#    y 0.000000 1.663640 0.000000 
#    z 0.000000 0.000000 1.626790 
# 
# From -- ./inp_files/10287.got.cif
#   From: 2010.05.17/outbox.cif.g08.bks.cpg/sg59_6_cif.got.tgz:10287.got - 2010.06.03 14:40:33.
