data_PCOD9449463
_publ_section_title
;
Structure prediction by ZEFSAII (Michael W. Deem and Ramdas Pophale) SiO2 
 PCOD9449463
Probable space group: P M M N
;
_chemical_formula_sum "Si O2"
_cell_formula_units_Z 48
_cell_length_a 7.549314
_cell_length_b 9.794264
_cell_length_c 31.593574
_cell_angle_alpha 90.000000
_cell_angle_beta 90.000000
_cell_angle_gamma 90.000000
_cell_volume 2336.028051
_symmetry_space_group_name_H-M "P M M N"
_symmetry_group_IT_number 59
_space_group.IT_coordinate_system_code '2'
_symmetry_cell_setting 'orthorhombic'
loop_
_space_group_symop_operation_xyz
x,y,z
1/2-x,1/2-y,z
1/2+x,-y,-z
-x,1/2+y,-z
-x,-y,-z
1/2+x,1/2+y,-z
1/2-x,y,z
x,1/2-y,z
loop_
_atom_site_type_symbol
_atom_site_label
_atom_site_fract_x
_atom_site_fract_y
_atom_site_fract_z
Si Si1 0.533611 0.907929 0.366484
Si Si2 0.539326 0.403690 0.290511
Si Si3 0.536716 0.096275 0.787466
Si Si4 0.038045 0.403745 0.539266
Si Si5 0.966201 0.094142 0.883788
Si Si6 0.962627 0.594715 0.959701
O O1 0.750000 0.909461 0.365553
O O2 0.481292 0.750000 0.359504
O O3 0.476684 0.949164 0.413978
O O4 0.468500 0.006764 0.329594
O O5 0.750000 0.393334 0.297179
O O6 0.467414 0.250000 0.288627
O O7 0.514494 0.486182 0.247176
O O8 0.750000 0.100094 0.788494
O O9 0.475120 0.250000 0.776134
O O10 0.477574 0.066020 0.835497
O O11 0.250000 0.395830 0.542376
O O12 0.970555 0.250000 0.531841
O O13 0.000000 0.500000 0.500000
O O14 0.750000 0.092565 0.884140
O O15 0.018799 0.250000 0.894729
O O16 0.028479 0.984611 0.917972
O O17 0.750000 0.603269 0.955955
O O18 0.029961 0.750000 0.964082
O O19 0.000000 0.500000 0.000000
#
# Coordination Sequence:
#
# PCOD9449463 Si02
#       6
#     8   8   8   8   8   8
#     4   8  15  30  50  68  90 125 165 199 233 279
#     4  10  20  32  48  73 101 127 159 199 241 285
#     4   9  18  33  53  75  97 125 162 199 237 286
#     4   9  18  32  50  73  98 124 158 198 238 284
#     4   8  15  30  51  72  95 125 161 199 238 283
#     4  10  20  33  51  75 100 128 163 200 240 287
#
# _framework density 20.547698
#
# number of rings (size 3 to 8) (size 9 to 14) (size 15 to 20)
#    0.000    3.000    0.000    3.000    0.000    4.000 
#    0.000    5.000    0.000    2.000    0.000    0.000 
#    0.000    0.000    0.000    0.000    0.000    0.000 
#
# Total GULP energy -267807.356520 kJ/mol
# GULP energy per Si atom -5579.319928 kJ/mol
# Density = 2.050093 g / cm^3
# Si number density = 20.547698 Si / 1000 Ang^3
#
#
#
# Elastic Constant Matrix: (Units=GPa)
#
#
# Indices 1 2 3 4 5 6 
#
# 1 47.4990 6.1651 2.0799 0.0000 0.0000 0.0000
# 2 6.1651 189.5403 150.3830 0.0000 0.0000 0.0000
# 3 2.0799 150.3830 181.7863 0.0000 0.0000 0.0000
# 4 0.0000 0.0000 0.0000 40.1891 0.0000 0.0000
# 5 0.0000 0.0000 0.0000 0.0000 23.6577 0.0000
# 6 0.0000 0.0000 0.0000 0.0000 0.0000 15.4153
#
#
#
# Elastic Compliance Matrix: (Units=1/GPa)
#
#
# Indices 1 2 3 4 5 6 
#
# 1 0.021199 -0.001447 0.000954 0.000000 0.000000 0.000000
# 2 -0.001447 0.015451 -0.012766 0.000000 0.000000 0.000000
# 3 0.000954 -0.012766 0.016050 0.000000 0.000000 0.000000
# 4 0.000000 0.000000 0.000000 0.024882 0.000000 0.000000
# 5 0.000000 0.000000 0.000000 0.000000 0.042269 0.000000
# 6 0.000000 0.000000 0.000000 0.000000 0.000000 0.064871
#
#
# Mechanical properties :
#
#
# Convention : Reuss Voigt Hill
#
# Bulk Modulus (GPa) = 38.19020 81.78685 59.98852
# Shear Modulus (GPa) = 22.73064 33.19893 27.96478
#
# Velocity S-wave (km/s) = 3.32962 4.02394 3.69313
# Velocity P-wave (km/s) = 5.77999 7.84087 6.88795
#
# Compressibility (1/GPa) = 0.02618473
#
# Stress axis : x y z
#
# Youngs Moduli (GPa) = 47.17197 64.71959 62.30387
#
# Poissons Ratio (x) = 0.09362 -0.05944
# Poissons Ratio (y) = 0.06823 0.79534
# Poissons Ratio (z) = -0.04501 0.82618
#
# Static dielectric constant tensor:
#      x y z
#    x 1.797740 0.000000 0.000000 
#    y 0.000000 1.723850 0.000000 
#    z 0.000000 0.000000 1.712830 
# 
# From -- ./inp_files/31859.got.cif
#   From: 2010.05.17/outbox.cif.g08.bks.cpg/sg59_16_cif.got.tgz:31859.got - 2010.06.03 14:40:33.
