data_PCOD9449895
_publ_section_title
;
Structure prediction by ZEFSAII (Michael W. Deem and Ramdas Pophale) SiO2 
 PCOD9449895
Probable space group: P M M N
;
_chemical_formula_sum "Si O2"
_cell_formula_units_Z 48
_cell_length_a 8.462051
_cell_length_b 19.041339
_cell_length_c 16.884902
_cell_angle_alpha 90.000000
_cell_angle_beta 90.000000
_cell_angle_gamma 90.000000
_cell_volume 2720.643689
_symmetry_space_group_name_H-M "P M M N"
_symmetry_group_IT_number 59
_space_group.IT_coordinate_system_code '2'
_symmetry_cell_setting 'orthorhombic'
loop_
_space_group_symop_operation_xyz
x,y,z
1/2-x,1/2-y,z
1/2+x,-y,-z
-x,1/2+y,-z
-x,-y,-z
1/2+x,1/2+y,-z
1/2-x,y,z
x,1/2-y,z
loop_
_atom_site_type_symbol
_atom_site_label
_atom_site_fract_x
_atom_site_fract_y
_atom_site_fract_z
Si Si1 0.439968 0.042924 0.741973
Si Si2 0.440406 0.669496 0.160157
Si Si3 0.558448 0.099735 0.177888
Si Si4 0.439515 0.170181 0.337124
Si Si5 0.942110 0.331819 0.016469
Si Si6 0.060485 0.531679 0.581839
O O1 0.250000 0.045557 0.741620
O O2 0.503076 0.115954 0.773867
O O3 0.489009 0.979529 0.800409
O O4 0.491988 0.018266 0.654832
O O5 0.250000 0.669757 0.159177
O O6 0.492410 0.750000 0.172811
O O7 0.494919 0.646872 0.071686
O O8 0.750000 0.103109 0.179496
O O9 0.497720 0.148543 0.249275
O O10 0.502032 0.124260 0.091796
O O11 0.250000 0.168192 0.338206
O O12 0.491048 0.250000 0.355477
O O13 0.501919 0.109971 0.396309
O O14 0.750000 0.335225 0.016438
O O15 0.984085 0.250000 0.027523
O O16 0.250000 0.533168 0.581471
O O17 0.000000 0.500000 0.500000
#
# Coordination Sequence:
#
# PCOD9449895 Si02
#       6
#     8   8   8   8   8   8
#     4   9  19  33  49  73 100 125 157 199 249 301
#     4   9  18  32  49  69  94 129 174 214 245 287
#     4   9  17  30  49  72  99 133 171 207 247 299
#     4  10  20  33  51  78 110 138 166 204 248 295
#     4   8  14  26  45  68  95 130 171 211 247 284
#     4  10  21  38  59  80 103 131 164 203 250 307
#
# _framework density 17.642885
#
# number of rings (size 3 to 8) (size 9 to 14) (size 15 to 20)
#    0.000    2.833    0.000    3.500    0.000    6.333 
#    0.000    1.667    0.000    2.000    0.000    0.000 
#    0.000    0.000    0.000    0.000    0.000    0.000 
#
# Total GULP energy -267548.788917 kJ/mol
# GULP energy per Si atom -5573.933102 kJ/mol
# Density = 1.760273 g / cm^3
# Si number density = 17.642885 Si / 1000 Ang^3
#
#
#
# Elastic Constant Matrix: (Units=GPa)
#
#
# Indices 1 2 3 4 5 6 
#
# 1 17.0307 25.9687 21.5274 0.0000 0.0000 0.0000
# 2 25.9687 134.1795 99.2426 0.0000 0.0000 0.0000
# 3 21.5274 99.2426 122.5822 0.0000 0.0000 0.0000
# 4 0.0000 0.0000 0.0000 24.5914 0.0000 0.0000
# 5 0.0000 0.0000 0.0000 0.0000 23.0842 0.0000
# 6 0.0000 0.0000 0.0000 0.0000 0.0000 26.4516
#
#
#
# Elastic Compliance Matrix: (Units=1/GPa)
#
#
# Indices 1 2 3 4 5 6 
#
# 1 0.084066 -0.013336 -0.003966 0.000000 0.000000 0.000000
# 2 -0.013336 0.020692 -0.014410 0.000000 0.000000 0.000000
# 3 -0.003966 -0.014410 0.020521 0.000000 0.000000 0.000000
# 4 0.000000 0.000000 0.000000 0.040665 0.000000 0.000000
# 5 0.000000 0.000000 0.000000 0.000000 0.043320 0.000000
# 6 0.000000 0.000000 0.000000 0.000000 0.000000 0.037805
#
#
# Mechanical properties :
#
#
# Convention : Reuss Voigt Hill
#
# Bulk Modulus (GPa) = 16.16723 63.02996 39.59859
# Shear Modulus (GPa) = 15.10068 23.29571 19.19819
#
# Velocity S-wave (km/s) = 2.92876 3.63768 3.30230
# Velocity P-wave (km/s) = 4.54097 7.31072 6.08551
#
# Compressibility (1/GPa) = 0.06185353
#
# Stress axis : x y z
#
# Youngs Moduli (GPa) = 11.89537 48.32840 48.73144
#
# Poissons Ratio (x) = 0.64453 0.19328
# Poissons Ratio (y) = 0.15864 0.70222
# Poissons Ratio (z) = 0.04718 0.69641
#
# Static dielectric constant tensor:
#      x y z
#    x 1.607480 0.000000 0.000000 
#    y 0.000000 1.592530 0.000000 
#    z 0.000000 0.000000 1.594830 
# 
# From -- ./inp_files/20290.got.cif
#   From: 2010.05.17/outbox.cif.g08.bks.cpg/sg59_11_cif.got.tgz:20290.got - 2010.06.03 14:40:33.
