data_PCOD9449323
_publ_section_title
;
Structure prediction by ZEFSAII (Michael W. Deem and Ramdas Pophale) SiO2 
 PCOD9449323
Probable space group: P M M N
;
_chemical_formula_sum "Si O2"
_cell_formula_units_Z 40
_cell_length_a 14.772656
_cell_length_b 16.955771
_cell_length_c 7.235206
_cell_angle_alpha 90.000000
_cell_angle_beta 90.000000
_cell_angle_gamma 90.000000
_cell_volume 1812.287221
_symmetry_space_group_name_H-M "P M M N"
_symmetry_group_IT_number 59
_space_group.IT_coordinate_system_code '2'
_symmetry_cell_setting 'orthorhombic'
loop_
_space_group_symop_operation_xyz
x,y,z
1/2-x,1/2-y,z
1/2+x,-y,-z
-x,1/2+y,-z
-x,-y,-z
1/2+x,1/2+y,-z
1/2-x,y,z
x,1/2-y,z
loop_
_atom_site_type_symbol
_atom_site_label
_atom_site_fract_x
_atom_site_fract_y
_atom_site_fract_z
Si Si1 0.956891 0.841275 0.816321
Si Si2 0.652873 0.344039 0.110639
Si Si3 0.652328 0.378673 0.693604
Si Si4 0.900807 0.963264 0.529822
Si Si5 0.553491 0.662072 0.258641
O O1 0.939520 0.750000 0.766866
O O2 0.899786 0.903004 0.701781
O O3 0.062871 0.860369 0.776528
O O4 0.947629 0.848236 0.037399
O O5 0.750000 0.357465 0.202209
O O6 0.647410 0.250000 0.062904
O O7 0.651190 0.389856 0.916997
O O8 0.750000 0.337700 0.657849
O O9 0.654590 0.460232 0.583752
O O10 0.551729 0.341531 0.668739
O O11 0.888826 0.906910 0.353250
O O12 0.000000 0.000000 0.500000
O O13 0.587513 0.750000 0.299594
#
# Coordination Sequence:
#
# PCOD9449323 Si02
#       5
#     8   8   8   8   8
#     4   9  17  31  51  70  91 124 162 199 239 281
#     4   8  14  26  46  72 100 129 161 196 236 285
#     4   9  17  29  46  70  99 129 157 190 241 295
#     4  10  20  31  47  71 100 129 160 198 239 291
#     4   9  18  32  52  75  96 125 165 206 244 283
#
# _framework density 22.071556000000001
#
# number of rings (size 3 to 8) (size 9 to 14) (size 15 to 20)
#    0.000    3.000    0.000    2.400    0.000    8.400 
#    0.000    4.000    0.000   13.200    0.000    2.800 
#    0.000    0.000    0.000    0.000    0.000    0.000 
#
# Total GULP energy -222829.988762 kJ/mol
# GULP energy per Si atom -5570.749719 kJ/mol
# Density = 2.202132 g / cm^3
# Si number density = 22.071556 Si / 1000 Ang^3
#
#
#
# Elastic Constant Matrix: (Units=GPa)
#
#
# Indices 1 2 3 4 5 6 
#
# 1 19.9418 2.7108 1.8661 0.0000 0.0000 0.0000
# 2 2.7108 97.1145 39.1762 0.0000 0.0000 0.0000
# 3 1.8661 39.1762 91.0089 0.0000 0.0000 0.0000
# 4 0.0000 0.0000 0.0000 37.3735 0.0000 0.0000
# 5 0.0000 0.0000 0.0000 0.0000 -1.7987 0.0000
# 6 0.0000 0.0000 0.0000 0.0000 0.0000 7.3572
#
#
#
# Elastic Compliance Matrix: (Units=1/GPa)
#
#
# Indices 1 2 3 4 5 6 
#
# 1 0.050357 -0.001197 -0.000517 0.000000 0.000000 0.000000
# 2 -0.001197 0.012489 -0.005352 0.000000 0.000000 0.000000
# 3 -0.000517 -0.005352 0.013302 0.000000 0.000000 0.000000
# 4 0.000000 0.000000 0.000000 0.026757 0.000000 0.000000
# 5 0.000000 0.000000 0.000000 0.000000 -0.555950 0.000000
# 6 0.000000 0.000000 0.000000 0.000000 0.000000 0.135920
#
#
# Mechanical properties :
#
#
# Convention : Reuss Voigt Hill
#
# Bulk Modulus (GPa) = 16.12469 32.84128 24.48298
# Shear Modulus (GPa) = -17.71041 19.54056 0.91507
#
# Velocity S-wave (km/s) = -2.83575 2.97867 0.64459
# Velocity P-wave (km/s) = 1.84405 5.17124 3.41623
#
# Compressibility (1/GPa) = 0.06201671
#
# Stress axis : x y z
#
# Youngs Moduli (GPa) = 19.85822 80.06773 75.17512
#
# Poissons Ratio (x) = 0.09584 0.03889
# Poissons Ratio (y) = 0.02377 0.40232
# Poissons Ratio (z) = 0.01027 0.42850
#
# Static dielectric constant tensor:
#      x y z
#    x 1.478820 0.000000 0.000000 
#    y 0.000000 1.817950 0.000000 
#    z 0.000000 0.000000 1.835790 
# 
# From -- ./inp_files/8811.got.cif
#   From: 2010.05.17/outbox.cif.g08.bks.cpg/sg59_5_cif.got.tgz:8811.got - 2010.06.03 14:40:33.
