data_PCOD9449704
_publ_section_title
;
Structure prediction by ZEFSAII (Michael W. Deem and Ramdas Pophale) SiO2 
 PCOD9449704
Probable space group: P M M N
;
_chemical_formula_sum "Si O2"
_cell_formula_units_Z 64
_cell_length_a 13.537532
_cell_length_b 13.042232
_cell_length_c 20.482734
_cell_angle_alpha 90.000000
_cell_angle_beta 90.000000
_cell_angle_gamma 90.000000
_cell_volume 3616.423999
_symmetry_space_group_name_H-M "P M M N"
_symmetry_group_IT_number 59
_space_group.IT_coordinate_system_code '2'
_symmetry_cell_setting 'orthorhombic'
loop_
_space_group_symop_operation_xyz
x,y,z
1/2-x,1/2-y,z
1/2+x,-y,-z
-x,1/2+y,-z
-x,-y,-z
1/2+x,1/2+y,-z
1/2-x,y,z
x,1/2-y,z
loop_
_atom_site_type_symbol
_atom_site_label
_atom_site_fract_x
_atom_site_fract_y
_atom_site_fract_z
Si Si1 0.053625 0.871606 0.054679
Si Si2 0.945373 0.369809 0.184485
Si Si3 0.367851 0.633182 0.296110
Si Si4 0.867947 0.132632 0.328397
Si Si5 0.134856 0.492550 0.171818
Si Si6 0.557505 0.368970 0.559911
Si Si7 0.364248 0.506197 0.933274
Si Si8 0.863655 0.514815 0.450151
O O1 0.060293 0.750000 0.061265
O O2 0.111166 0.931369 0.112002
O O3 0.100437 0.910959 0.987029
O O4 0.940609 0.912125 0.058644
O O5 0.925216 0.250000 0.172411
O O6 0.921254 0.390561 0.260258
O O7 0.881460 0.441653 0.137085
O O8 0.058740 0.398738 0.169048
O O9 0.250000 0.631504 0.307386
O O10 0.394882 0.750000 0.276975
O O11 0.388391 0.555303 0.237903
O O12 0.419237 0.609049 0.364468
O O13 0.750000 0.129348 0.316544
O O14 0.893008 0.250000 0.347633
O O15 0.888833 0.054593 0.386801
O O16 0.250000 0.464060 0.171311
O O17 0.580618 0.250000 0.547760
O O18 0.443102 0.394786 0.546557
O O19 0.619875 0.442211 0.512778
O O20 0.250000 0.479244 0.942811
O O21 0.750000 0.547485 0.445907
#
# Coordination Sequence:
#
# PCOD9449704 Si02
#       8
#     8   8   8   8   8   8   8   8
#     4  10  21  36  54  77 103 131 165 204 246 293
#     4  10  20  33  50  73 101 133 169 207 246 289
#     4   9  17  30  50  74  97 124 161 203 245 290
#     4   9  17  30  50  74  97 124 161 203 245 290
#     4  10  20  33  50  73 101 133 169 207 246 289
#     4  10  20  33  50  72  98 128 162 201 244 290
#     4  10  21  36  54  77 103 131 165 204 246 293
#     4  10  20  33  50  72  98 128 162 201 244 290
#
# _framework density 17.697040000000001
#
# number of rings (size 3 to 8) (size 9 to 14) (size 15 to 20)
#    0.000    2.250    0.000    3.000    0.000    4.750 
#    0.000    0.000    0.000    4.500    0.000    7.000 
#    0.000    0.000    0.000    0.000    0.000    0.000 
#
# Total GULP energy -357101.870493 kJ/mol
# GULP energy per Si atom -5579.716726 kJ/mol
# Density = 1.765676 g / cm^3
# Si number density = 17.697040 Si / 1000 Ang^3
#
#
#
# Elastic Constant Matrix: (Units=GPa)
#
#
# Indices 1 2 3 4 5 6 
#
# 1 45.0100 -10.4596 -2.0861 0.0000 0.0000 0.0000
# 2 -10.4596 9.1558 -6.3098 0.0000 0.0000 0.0000
# 3 -2.0861 -6.3098 37.8145 0.0000 0.0000 0.0000
# 4 0.0000 0.0000 0.0000 16.8698 0.0000 0.0000
# 5 0.0000 0.0000 0.0000 0.0000 20.9874 0.0000
# 6 0.0000 0.0000 0.0000 0.0000 0.0000 -33.2151
#
#
#
# Elastic Compliance Matrix: (Units=1/GPa)
#
#
# Indices 1 2 3 4 5 6 
#
# 1 0.032809 0.043760 0.009112 0.000000 0.000000 0.000000
# 2 0.043760 0.181779 0.032746 0.000000 0.000000 0.000000
# 3 0.009112 0.032746 0.032412 0.000000 0.000000 0.000000
# 4 0.000000 0.000000 0.000000 0.059278 0.000000 0.000000
# 5 0.000000 0.000000 0.000000 0.000000 0.047648 0.000000
# 6 0.000000 0.000000 0.000000 0.000000 0.000000 -0.030107
#
#
# Mechanical properties :
#
#
# Convention : Reuss Voigt Hill
#
# Bulk Modulus (GPa) = 2.39100 6.02993 4.21046
# Shear Modulus (GPa) = 17.12368 8.31747 12.72057
#
# Velocity S-wave (km/s) = 3.11400 2.17028 2.68395
# Velocity P-wave (km/s) = 3.77933 3.11366 3.46253
#
# Compressibility (1/GPa) = 0.41823576
#
# Stress axis : x y z
#
# Youngs Moduli (GPa) = 30.47974 5.50119 30.85308
#
# Poissons Ratio (x) = -0.24073 -0.28113
# Poissons Ratio (y) = -1.33380 -1.01032
# Poissons Ratio (z) = -0.27773 -0.18014
#
# Static dielectric constant tensor:
#      x y z
#    x 1.600430 0.000000 0.000000 
#    y 0.000000 1.575020 0.000000 
#    z 0.000000 0.000000 1.601170 
# 
# From -- ./inp_files/27689.got.cif
#   From: 2010.05.17/outbox.cif.g08.bks.cpg/sg59_14_cif.got.tgz:27689.got - 2010.06.03 14:40:33.
