data_PCOD9449392
_publ_section_title
;
Structure prediction by ZEFSAII (Michael W. Deem and Ramdas Pophale) SiO2 
 PCOD9449392
Probable space group: P M M N
;
_chemical_formula_sum "Si O2"
_cell_formula_units_Z 64
_cell_length_a 18.331220
_cell_length_b 7.696901
_cell_length_c 23.354428
_cell_angle_alpha 90.000000
_cell_angle_beta 90.000000
_cell_angle_gamma 90.000000
_cell_volume 3295.159985
_symmetry_space_group_name_H-M "P M M N"
_symmetry_group_IT_number 59
_space_group.IT_coordinate_system_code '2'
_symmetry_cell_setting 'orthorhombic'
loop_
_space_group_symop_operation_xyz
x,y,z
1/2-x,1/2-y,z
1/2+x,-y,-z
-x,1/2+y,-z
-x,-y,-z
1/2+x,1/2+y,-z
1/2-x,y,z
x,1/2-y,z
loop_
_atom_site_type_symbol
_atom_site_label
_atom_site_fract_x
_atom_site_fract_y
_atom_site_fract_z
Si Si1 0.669851 0.460522 0.295780
Si Si2 0.571639 0.456429 0.037695
Si Si3 0.470448 0.538883 0.382769
Si Si4 0.470649 0.455065 0.131934
Si Si5 0.627917 0.045442 0.421676
Si Si6 0.487617 0.453857 0.742863
Si Si7 0.830489 0.037318 0.546834
Si Si8 0.831389 0.545613 0.936892
O O1 0.750000 0.514740 0.275405
O O2 0.668047 0.250000 0.296746
O O3 0.658573 0.524285 0.361466
O O4 0.599515 0.517841 0.260331
O O5 0.583891 0.250000 0.039418
O O6 0.543878 0.521650 0.099633
O O7 0.500000 0.500000 0.000000
O O8 0.638917 0.531267 0.001976
O O9 0.472209 0.750000 0.382388
O O10 0.540982 0.477821 0.417970
O O11 0.481082 0.476430 0.317436
O O12 0.396220 0.480762 0.412587
O O13 0.469407 0.250000 0.118430
O O14 0.477943 0.473984 0.199442
O O15 0.396130 0.528367 0.103762
O O16 0.645816 0.250000 0.421518
O O17 0.657103 0.975592 0.481612
O O18 0.502053 0.250000 0.743468
O O19 0.750000 0.986177 0.566493
O O20 0.832985 0.250000 0.545808
O O21 0.750000 0.470933 0.930481
O O22 0.826251 0.750000 0.923395
#
# Coordination Sequence:
#
# PCOD9449392 Si02
#       8
#     8   8   8   8   8   8   8   8
#     4   9  17  30  48  69  92 117 149 193 242 290
#     4   9  17  30  50  75 100 126 156 190 232 281
#     4   9  18  31  45  64  91 122 154 190 236 284
#     4   9  18  33  52  72  96 130 167 197 229 273
#     4   9  16  27  47  71  89 111 148 190 233 287
#     4  10  20  32  47  68  94 126 165 202 234 275
#     4   9  16  27  45  67  90 117 150 189 233 283
#     4   9  18  33  53  78 106 132 159 195 239 283
#
# _framework density 19.422426000000002
#
# number of rings (size 3 to 8) (size 9 to 14) (size 15 to 20)
#    0.000    2.875    0.000    2.250    0.000    5.000 
#    0.000    1.250    0.000    3.750    0.000    0.000 
#    0.000    0.000    0.000    0.000    0.000    0.000 
#
# Total GULP energy -356594.729827 kJ/mol
# GULP energy per Si atom -5571.792654 kJ/mol
# Density = 1.937822 g / cm^3
# Si number density = 19.422426 Si / 1000 Ang^3
#
#
#
# Elastic Constant Matrix: (Units=GPa)
#
#
# Indices 1 2 3 4 5 6 
#
# 1 119.4117 -6.8173 44.3410 0.0000 0.0000 0.0000
# 2 -6.8173 26.6567 -2.4181 0.0000 0.0000 0.0000
# 3 44.3410 -2.4181 68.8942 0.0000 0.0000 0.0000
# 4 0.0000 0.0000 0.0000 10.3253 0.0000 0.0000
# 5 0.0000 0.0000 0.0000 0.0000 16.9101 0.0000
# 6 0.0000 0.0000 0.0000 0.0000 0.0000 16.2375
#
#
#
# Elastic Compliance Matrix: (Units=1/GPa)
#
#
# Indices 1 2 3 4 5 6 
#
# 1 0.011132 0.002204 -0.007087 0.000000 0.000000 0.000000
# 2 0.002204 0.038070 -0.000082 0.000000 0.000000 0.000000
# 3 -0.007087 -0.000082 0.019074 0.000000 0.000000 0.000000
# 4 0.000000 0.000000 0.000000 0.096849 0.000000 0.000000
# 5 0.000000 0.000000 0.000000 0.000000 0.059136 0.000000
# 6 0.000000 0.000000 0.000000 0.000000 0.000000 0.061586
#
#
# Mechanical properties :
#
#
# Convention : Reuss Voigt Hill
#
# Bulk Modulus (GPa) = 17.13956 31.68600 24.41278
# Shear Modulus (GPa) = 15.86162 20.68504 18.27333
#
# Velocity S-wave (km/s) = 2.86084 3.26699 3.07063
# Velocity P-wave (km/s) = 4.44480 5.52996 5.01681
#
# Compressibility (1/GPa) = 0.05834456
#
# Stress axis : x y z
#
# Youngs Moduli (GPa) = 89.83172 26.26724 52.42860
#
# Poissons Ratio (x) = -0.05789 0.37158
# Poissons Ratio (y) = -0.19799 0.00432
# Poissons Ratio (z) = 0.63666 0.00216
#
# Static dielectric constant tensor:
#      x y z
#    x 1.684810 0.000000 0.000000 
#    y 0.000000 1.726170 0.000000 
#    z 0.000000 0.000000 1.677310 
# 
# From -- ./inp_files/29481.got.cif
#   From: 2010.05.17/outbox.cif.g08.bks.cpg/sg59_15_cif.got.tgz:29481.got - 2010.06.03 14:40:33.
