data_PCOD9449076
_publ_section_title
;
Structure prediction by ZEFSAII (Michael W. Deem and Ramdas Pophale) SiO2 
 PCOD9449076
Probable space group: P M M N
;
_chemical_formula_sum "Si O2"
_cell_formula_units_Z 64
_cell_length_a 17.430792
_cell_length_b 13.816393
_cell_length_c 14.649875
_cell_angle_alpha 90.000000
_cell_angle_beta 90.000000
_cell_angle_gamma 90.000000
_cell_volume 3528.139249
_symmetry_space_group_name_H-M "P M M N"
_symmetry_group_IT_number 59
_space_group.IT_coordinate_system_code '2'
_symmetry_cell_setting 'orthorhombic'
loop_
_space_group_symop_operation_xyz
x,y,z
1/2-x,1/2-y,z
1/2+x,-y,-z
-x,1/2+y,-z
-x,-y,-z
1/2+x,1/2+y,-z
1/2-x,y,z
x,1/2-y,z
loop_
_atom_site_type_symbol
_atom_site_label
_atom_site_fract_x
_atom_site_fract_y
_atom_site_fract_z
Si Si1 0.335007 0.635401 0.686975
Si Si2 0.997393 0.552927 0.361947
Si Si3 0.959298 0.140028 0.451767
Si Si4 0.616786 0.861852 0.093170
Si Si5 0.460439 0.548008 0.155829
Si Si6 0.337514 0.363453 0.696663
Si Si7 0.338790 0.553562 0.009923
Si Si8 0.942399 0.362763 0.146178
O O1 0.250000 0.593925 0.695905
O O2 0.329001 0.750000 0.704388
O O3 0.373525 0.626631 0.588095
O O4 0.394258 0.602894 0.764728
O O5 0.005899 0.443050 0.398303
O O6 0.906786 0.578390 0.349941
O O7 0.031488 0.619525 0.441664
O O8 0.035405 0.566937 0.263574
O O9 0.982428 0.250000 0.429558
O O10 0.626799 0.750000 0.065296
O O11 0.526942 0.887246 0.108456
O O12 0.654184 0.874764 0.193728
O O13 0.650406 0.943260 0.026708
O O14 0.380431 0.564131 0.106663
O O15 0.487585 0.437108 0.138698
O O16 0.250000 0.385214 0.669117
O O17 0.351327 0.250000 0.677615
O O18 0.250000 0.578655 0.010708
O O19 0.385997 0.618937 0.938378
O O20 0.963184 0.250000 0.154066
#
# Coordination Sequence:
#
# PCOD9449076 Si02
#       8
#     8   8   8   8   8   8   8   8
#     4   9  17  30  51  80 107 129 162 215 277 328
#     4  10  20  35  54  76 104 141 178 219 267 323
#     4  10  20  35  54  77 103 135 173 217 270 330
#     4   9  18  34  54  76 105 140 178 223 268 313
#     4  10  21  36  53  80 106 140 186 224 263 320
#     4   9  17  30  51  80 109 135 169 215 268 320
#     4  11  23  35  50  76 112 148 184 220 257 310
#     4  10  19  35  57  81 108 141 178 225 281 326
#
# _framework density 18.139873999999999
#
# number of rings (size 3 to 8) (size 9 to 14) (size 15 to 20)
#    0.000    2.250    1.250    2.625    0.000    4.500 
#    0.000    0.625    0.000    0.750    0.000    0.000 
#    0.000    0.000    0.000    0.000    0.000    0.000 
#
# Total GULP energy -357039.600855 kJ/mol
# GULP energy per Si atom -5578.743763 kJ/mol
# Density = 1.809859 g / cm^3
# Si number density = 18.139874 Si / 1000 Ang^3
#
#
#
# Elastic Constant Matrix: (Units=GPa)
#
#
# Indices 1 2 3 4 5 6 
#
# 1 24.9068 -7.4926 29.7399 0.0000 0.0000 0.0000
# 2 -7.4926 81.4908 0.3662 0.0000 0.0000 0.0000
# 3 29.7399 0.3662 86.2688 0.0000 0.0000 0.0000
# 4 0.0000 0.0000 0.0000 19.9224 0.0000 0.0000
# 5 0.0000 0.0000 0.0000 0.0000 11.9158 0.0000
# 6 0.0000 0.0000 0.0000 0.0000 0.0000 8.6517
#
#
#
# Elastic Compliance Matrix: (Units=1/GPa)
#
#
# Indices 1 2 3 4 5 6 
#
# 1 0.071725 0.006706 -0.024755 0.000000 0.000000 0.000000
# 2 0.006706 0.012899 -0.002367 0.000000 0.000000 0.000000
# 3 -0.024755 -0.002367 0.020136 0.000000 0.000000 0.000000
# 4 0.000000 0.000000 0.000000 0.050195 0.000000 0.000000
# 5 0.000000 0.000000 0.000000 0.000000 0.083922 0.000000
# 6 0.000000 0.000000 0.000000 0.000000 0.000000 0.115584
#
#
# Mechanical properties :
#
#
# Convention : Reuss Voigt Hill
#
# Bulk Modulus (GPa) = 15.64237 26.43257 21.03747
# Shear Modulus (GPa) = 12.00190 19.43484 15.71837
#
# Velocity S-wave (km/s) = 2.57501 3.27676 2.94685
# Velocity P-wave (km/s) = 4.18125 5.37767 4.81675
#
# Compressibility (1/GPa) = 0.06392894
#
# Stress axis : x y z
#
# Youngs Moduli (GPa) = 13.94207 77.52817 49.66346
#
# Poissons Ratio (x) = -0.51990 1.22940
# Poissons Ratio (y) = -0.09350 0.11753
# Poissons Ratio (z) = 0.34513 0.18347
#
# Static dielectric constant tensor:
#      x y z
#    x 1.627490 0.000000 0.000000 
#    y 0.000000 1.664910 0.000000 
#    z 0.000000 0.000000 1.621370 
# 
# From -- ./inp_files/24035.got.cif
#   From: 2010.05.17/outbox.cif.g08.bks.cpg/sg59_13_cif.got.tgz:24035.got - 2010.06.03 14:40:33.
