data_PCOD9449411
_publ_section_title
;
Structure prediction by ZEFSAII (Michael W. Deem and Ramdas Pophale) SiO2 
 PCOD9449411
Probable space group: P M M N
;
_chemical_formula_sum "Si O2"
_cell_formula_units_Z 64
_cell_length_a 26.236081
_cell_length_b 8.282353
_cell_length_c 15.982072
_cell_angle_alpha 90.000000
_cell_angle_beta 90.000000
_cell_angle_gamma 90.000000
_cell_volume 3472.848055
_symmetry_space_group_name_H-M "P M M N"
_symmetry_group_IT_number 59
_space_group.IT_coordinate_system_code '2'
_symmetry_cell_setting 'orthorhombic'
loop_
_space_group_symop_operation_xyz
x,y,z
1/2-x,1/2-y,z
1/2+x,-y,-z
-x,1/2+y,-z
-x,-y,-z
1/2+x,1/2+y,-z
1/2-x,y,z
x,1/2-y,z
loop_
_atom_site_type_symbol
_atom_site_label
_atom_site_fract_x
_atom_site_fract_y
_atom_site_fract_z
Si Si1 0.190357 0.055135 0.481995
Si Si2 0.025074 0.433553 0.247774
Si Si3 0.870415 0.562171 0.356673
Si Si4 0.615976 0.433489 0.843024
Si Si5 0.809233 0.054919 0.700850
Si Si6 0.440543 0.058475 0.993940
Si Si7 0.024337 0.564475 0.583052
Si Si8 0.584891 0.553422 0.189014
O O1 0.250000 0.010446 0.485879
O O2 0.186260 0.250000 0.481754
O O3 0.163124 0.993072 0.566806
O O4 0.170690 0.997461 0.390968
O O5 0.038033 0.250000 0.221125
O O6 0.019014 0.438413 0.346637
O O7 0.969601 0.480295 0.214377
O O8 0.066113 0.557108 0.215083
O O9 0.855717 0.750000 0.349607
O O10 0.928279 0.543632 0.388806
O O11 0.874673 0.498541 0.260575
O O12 0.630352 0.250000 0.862793
O O13 0.659489 0.505415 0.781988
O O14 0.594933 0.512129 0.927853
O O15 0.750000 0.004009 0.706025
O O16 0.811259 0.250000 0.702793
O O17 0.444918 0.250000 0.990808
O O18 0.412119 0.005877 0.908246
O O19 0.500000 0.000000 0.000000
O O20 0.042292 0.750000 0.576289
O O21 0.000000 0.500000 0.500000
O O22 0.582971 0.750000 0.193957
#
# Coordination Sequence:
#
# PCOD9449411 Si02
#       8
#     8   8   8   8   8   8   8   8
#     4   9  18  33  55  81 105 131 167 213 263 311
#     4  10  20  32  47  69  98 132 170 211 249 297
#     4   9  18  33  51  72  99 132 167 205 251 305
#     4  11  22  34  52  76 101 135 173 214 267 315
#     4   9  20  38  56  75 101 134 174 217 261 312
#     4  11  21  33  52  77 105 138 177 216 257 305
#     4  10  21  33  45  66  97 135 172 206 248 299
#     4   9  18  33  51  70 100 136 169 207 251 300
#
# _framework density 18.428678000000001
#
# number of rings (size 3 to 8) (size 9 to 14) (size 15 to 20)
#    0.000    2.250    1.250    1.500    1.750    3.500 
#    0.000    0.000    0.000    0.750    0.000    1.750 
#    0.000    0.000    0.000    0.000    0.000    0.000 
#
# Total GULP energy -356289.626955 kJ/mol
# GULP energy per Si atom -5567.025421 kJ/mol
# Density = 1.838673 g / cm^3
# Si number density = 18.428678 Si / 1000 Ang^3
#
#
#
# Elastic Constant Matrix: (Units=GPa)
#
#
# Indices 1 2 3 4 5 6 
#
# 1 43.8870 1.2431 60.8918 0.0000 0.0000 0.0000
# 2 1.2431 15.2960 17.8200 0.0000 0.0000 0.0000
# 3 60.8918 17.8200 176.3890 0.0000 0.0000 0.0000
# 4 0.0000 0.0000 0.0000 18.2836 0.0000 0.0000
# 5 0.0000 0.0000 0.0000 0.0000 30.3793 0.0000
# 6 0.0000 0.0000 0.0000 0.0000 0.0000 13.4792
#
#
#
# Elastic Compliance Matrix: (Units=1/GPa)
#
#
# Indices 1 2 3 4 5 6 
#
# 1 0.047436 0.017253 -0.018119 0.000000 0.000000 0.000000
# 2 0.017253 0.080373 -0.014076 0.000000 0.000000 0.000000
# 3 -0.018119 -0.014076 0.013346 0.000000 0.000000 0.000000
# 4 0.000000 0.000000 0.000000 0.054694 0.000000 0.000000
# 5 0.000000 0.000000 0.000000 0.000000 0.032917 0.000000
# 6 0.000000 0.000000 0.000000 0.000000 0.000000 0.074188
#
#
# Mechanical properties :
#
#
# Convention : Reuss Voigt Hill
#
# Bulk Modulus (GPa) = 8.98693 43.94241 26.46467
# Shear Modulus (GPa) = 13.51617 22.80292 18.15955
#
# Velocity S-wave (km/s) = 2.71113 3.52143 3.14251
# Velocity P-wave (km/s) = 3.83243 6.35848 5.24966
#
# Compressibility (1/GPa) = 0.11127265
#
# Stress axis : x y z
#
# Youngs Moduli (GPa) = 21.08106 12.44199 74.92842
#
# Poissons Ratio (x) = -0.21466 1.35759
# Poissons Ratio (y) = -0.36372 1.05468
# Poissons Ratio (z) = 0.38196 0.17513
#
# Static dielectric constant tensor:
#      x y z
#    x 1.618160 0.000000 0.000000 
#    y 0.000000 1.672690 0.000000 
#    z 0.000000 0.000000 1.701140 
# 
# From -- ./inp_files/24736.got.cif
#   From: 2010.05.17/outbox.cif.g08.bks.cpg/sg59_13_cif.got.tgz:24736.got - 2010.06.03 14:40:33.
