data_PCOD9449597
_publ_section_title
;
Structure prediction by ZEFSAII (Michael W. Deem and Ramdas Pophale) SiO2 
 PCOD9449597
Probable space group: P M M N
;
_chemical_formula_sum "Si O2"
_cell_formula_units_Z 48
_cell_length_a 15.152907
_cell_length_b 8.128390
_cell_length_c 18.826466
_cell_angle_alpha 90.000000
_cell_angle_beta 90.000000
_cell_angle_gamma 90.000000
_cell_volume 2318.832053
_symmetry_space_group_name_H-M "P M M N"
_symmetry_group_IT_number 59
_space_group.IT_coordinate_system_code '2'
_symmetry_cell_setting 'orthorhombic'
loop_
_space_group_symop_operation_xyz
x,y,z
1/2-x,1/2-y,z
1/2+x,-y,-z
-x,1/2+y,-z
-x,-y,-z
1/2+x,1/2+y,-z
1/2-x,y,z
x,1/2-y,z
loop_
_atom_site_type_symbol
_atom_site_label
_atom_site_fract_x
_atom_site_fract_y
_atom_site_fract_z
Si Si1 0.844675 0.449316 0.125412
Si Si2 0.851572 0.950566 0.545808
Si Si3 0.902932 0.447993 0.974884
Si Si4 0.349258 0.051855 0.615439
Si Si5 0.971611 0.555097 0.673517
Si Si6 0.460356 0.945820 0.172720
O O1 0.750000 0.502578 0.157091
O O2 0.847509 0.250000 0.127895
O O3 0.936668 0.508661 0.158655
O O4 0.845576 0.502034 0.042113
O O5 0.750000 0.995156 0.561088
O O6 0.855335 0.750000 0.545201
O O7 0.871667 0.004632 0.465207
O O8 0.916824 0.013607 0.606497
O O9 0.894682 0.250000 0.972360
O O10 0.900772 0.508801 0.893509
O O11 0.000000 0.500000 0.000000
O O12 0.250000 0.994151 0.632731
O O13 0.347192 0.250000 0.614683
O O14 0.426816 0.997719 0.666702
O O15 0.968637 0.750000 0.668354
O O16 0.934279 0.506329 0.749810
O O17 0.455168 0.750000 0.172241
#
# Coordination Sequence:
#
# PCOD9449597 Si02
#       6
#     8   8   8   8   8   8
#     4   9  17  31  52  75  96 120 156 203 250 294
#     4   8  16  33  55  76  98 128 168 211 255 303
#     4   8  15  29  48  67  87 116 152 188 228 274
#     4   9  18  34  55  76 100 132 168 207 253 305
#     4  11  21  32  51  77 104 135 169 208 252 297
#     4  10  20  33  48  68  99 134 164 196 238 294
#
# _framework density 20.700077
#
# number of rings (size 3 to 8) (size 9 to 14) (size 15 to 20)
#    0.000    2.833    0.000    2.500    0.000    2.000 
#    0.000    1.667    0.000    5.000    0.000    0.000 
#    0.000    0.000    0.000    0.000    0.000    0.000 
#
# Total GULP energy -267451.468549 kJ/mol
# GULP energy per Si atom -5571.905595 kJ/mol
# Density = 2.065296 g / cm^3
# Si number density = 20.700077 Si / 1000 Ang^3
#
#
#
# Elastic Constant Matrix: (Units=GPa)
#
#
# Indices 1 2 3 4 5 6 
#
# 1 20.8156 -3.0354 -1.0269 0.0000 0.0000 0.0000
# 2 -3.0354 13.8592 2.2013 0.0000 0.0000 0.0000
# 3 -1.0269 2.2013 73.0917 0.0000 0.0000 0.0000
# 4 0.0000 0.0000 0.0000 22.8129 0.0000 0.0000
# 5 0.0000 0.0000 0.0000 0.0000 13.5702 0.0000
# 6 0.0000 0.0000 0.0000 0.0000 0.0000 10.8688
#
#
#
# Elastic Compliance Matrix: (Units=1/GPa)
#
#
# Indices 1 2 3 4 5 6 
#
# 1 0.049636 0.010812 0.000372 0.000000 0.000000 0.000000
# 2 0.010812 0.074856 -0.002103 0.000000 0.000000 0.000000
# 3 0.000372 -0.002103 0.013750 0.000000 0.000000 0.000000
# 4 0.000000 0.000000 0.000000 0.043835 0.000000 0.000000
# 5 0.000000 0.000000 0.000000 0.000000 0.073691 0.000000
# 6 0.000000 0.000000 0.000000 0.000000 0.000000 0.092007
#
#
# Mechanical properties :
#
#
# Convention : Reuss Voigt Hill
#
# Bulk Modulus (GPa) = 6.39370 11.56051 8.97711
# Shear Modulus (GPa) = 13.09769 16.75888 14.92828
#
# Velocity S-wave (km/s) = 2.51815 2.84844 2.68837
# Velocity P-wave (km/s) = 3.39856 4.05155 3.73934
#
# Compressibility (1/GPa) = 0.15640399
#
# Stress axis : x y z
#
# Youngs Moduli (GPa) = 20.14674 13.35899 72.72729
#
# Poissons Ratio (x) = -0.14444 -0.02703
# Poissons Ratio (y) = -0.21783 0.15291
# Poissons Ratio (z) = -0.00749 0.02809
#
# Static dielectric constant tensor:
#      x y z
#    x 1.753710 0.000000 0.000000 
#    y 0.000000 1.727240 0.000000 
#    z 0.000000 0.000000 1.783480 
# 
# From -- ./inp_files/25500.got.cif
#   From: 2010.05.17/outbox.cif.g08.bks.cpg/sg59_13_cif.got.tgz:25500.got - 2010.06.03 14:40:33.
