data_PCOD9449103
_publ_section_title
;
Structure prediction by ZEFSAII (Michael W. Deem and Ramdas Pophale) SiO2 
 PCOD9449103
Probable space group: P M M N
;
_chemical_formula_sum "Si O2"
_cell_formula_units_Z 56
_cell_length_a 16.322020
_cell_length_b 8.884030
_cell_length_c 20.006796
_cell_angle_alpha 90.000000
_cell_angle_beta 90.000000
_cell_angle_gamma 90.000000
_cell_volume 2901.091763
_symmetry_space_group_name_H-M "P M M N"
_symmetry_group_IT_number 59
_space_group.IT_coordinate_system_code '2'
_symmetry_cell_setting 'orthorhombic'
loop_
_space_group_symop_operation_xyz
x,y,z
1/2-x,1/2-y,z
1/2+x,-y,-z
-x,1/2+y,-z
-x,-y,-z
1/2+x,1/2+y,-z
1/2-x,y,z
x,1/2-y,z
loop_
_atom_site_type_symbol
_atom_site_label
_atom_site_fract_x
_atom_site_fract_y
_atom_site_fract_z
Si Si1 0.848334 0.427630 0.062260
Si Si2 0.340019 0.567336 0.656652
Si Si3 0.159809 0.068929 0.341876
Si Si4 0.594840 0.071683 0.789600
Si Si5 0.917891 0.068278 0.205666
Si Si6 0.849046 0.921326 0.925024
Si Si7 0.999885 0.567365 0.573710
O O1 0.750000 0.444874 0.067930
O O2 0.864898 0.250000 0.052920
O O3 0.887628 0.476638 0.132145
O O4 0.876875 0.516229 0.996757
O O5 0.250000 0.513220 0.635167
O O6 0.339334 0.750000 0.652841
O O7 0.356346 0.529555 0.734289
O O8 0.418134 0.518057 0.613318
O O9 0.250000 0.029117 0.369208
O O10 0.155627 0.250000 0.336249
O O11 0.082535 0.020814 0.386717
O O12 0.149880 0.000608 0.268267
O O13 0.596586 0.250000 0.784287
O O14 0.504089 0.007134 0.778934
O O15 0.622380 0.020260 0.863052
O O16 0.927145 0.250000 0.206018
O O17 0.750000 0.922409 0.925822
O O18 0.877500 0.750000 0.915263
O O19 0.000146 0.750000 0.570862
O O20 0.000000 0.500000 0.500000
#
# Coordination Sequence:
#
# PCOD9449103 Si02
#       7
#     8   8   8   8   8   8   8
#     4   9  18  33  55  83 111 142 187 244 297 344
#     4   9  17  33  60  89 115 149 194 238 282 337
#     4  10  21  40  64  87 115 156 200 238 286 348
#     4  12  24  36  55  83 115 148 191 247 298 341
#     4  10  19  35  58  82 112 149 191 237 289 350
#     4  10  21  37  56  77 107 150 194 237 291 355
#     4  10  21  38  60  89 123 156 191 233 280 339
#
# _framework density 19.303077999999999
#
# number of rings (size 3 to 8) (size 9 to 14) (size 15 to 20)
#    0.000    2.000    1.429    2.571    0.000    6.857 
#    0.000    0.000    0.000    2.143    0.000    0.000 
#    0.000    0.000    0.000    0.000    0.000    0.000 
#
# Total GULP energy -312683.027297 kJ/mol
# GULP energy per Si atom -5583.625487 kJ/mol
# Density = 1.925914 g / cm^3
# Si number density = 19.303078 Si / 1000 Ang^3
#
#
#
# Elastic Constant Matrix: (Units=GPa)
#
#
# Indices 1 2 3 4 5 6 
#
# 1 127.0745 25.3754 64.6788 0.0000 0.0000 0.0000
# 2 25.3754 12.7319 19.4993 0.0000 0.0000 0.0000
# 3 64.6788 19.4993 125.7737 0.0000 0.0000 0.0000
# 4 0.0000 0.0000 0.0000 32.6407 0.0000 0.0000
# 5 0.0000 0.0000 0.0000 0.0000 15.5483 0.0000
# 6 0.0000 0.0000 0.0000 0.0000 0.0000 6.0995
#
#
#
# Elastic Compliance Matrix: (Units=1/GPa)
#
#
# Indices 1 2 3 4 5 6 
#
# 1 0.014378 -0.022729 -0.003870 0.000000 0.000000 0.000000
# 2 -0.022729 0.138929 -0.009850 0.000000 0.000000 0.000000
# 3 -0.003870 -0.009850 0.011468 0.000000 0.000000 0.000000
# 4 0.000000 0.000000 0.000000 0.030637 0.000000 0.000000
# 5 0.000000 0.000000 0.000000 0.000000 0.064316 0.000000
# 6 0.000000 0.000000 0.000000 0.000000 0.000000 0.163948
#
#
# Mechanical properties :
#
#
# Convention : Reuss Voigt Hill
#
# Bulk Modulus (GPa) = 10.88422 53.85411 32.36917
# Shear Modulus (GPa) = 9.48408 21.25948 15.37178
#
# Velocity S-wave (km/s) = 2.21899 3.32226 2.82501
# Velocity P-wave (km/s) = 3.49515 6.53272 5.23891
#
# Compressibility (1/GPa) = 0.09187610
#
# Stress axis : x y z
#
# Youngs Moduli (GPa) = 69.55114 7.19792 87.19827
#
# Poissons Ratio (x) = 0.16360 0.33746
# Poissons Ratio (y) = 1.58082 0.85895
# Poissons Ratio (z) = 0.26917 0.07090
#
# Static dielectric constant tensor:
#      x y z
#    x 1.699260 0.000000 0.000000 
#    y 0.000000 1.642670 0.000000 
#    z 0.000000 0.000000 1.645790 
# 
# From -- ./inp_files/30297.got.cif
#   From: 2010.05.17/outbox.cif.g08.bks.cpg/sg59_16_cif.got.tgz:30297.got - 2010.06.03 14:40:33.
