data_PCOD9449395
_publ_section_title
;
Structure prediction by ZEFSAII (Michael W. Deem and Ramdas Pophale) SiO2 
 PCOD9449395
Probable space group: P M M N
;
_chemical_formula_sum "Si O2"
_cell_formula_units_Z 48
_cell_length_a 9.684615
_cell_length_b 7.652676
_cell_length_c 32.652837
_cell_angle_alpha 90.000000
_cell_angle_beta 90.000000
_cell_angle_gamma 90.000000
_cell_volume 2420.006918
_symmetry_space_group_name_H-M "P M M N"
_symmetry_group_IT_number 59
_space_group.IT_coordinate_system_code '2'
_symmetry_cell_setting 'orthorhombic'
loop_
_space_group_symop_operation_xyz
x,y,z
1/2-x,1/2-y,z
1/2+x,-y,-z
-x,1/2+y,-z
-x,-y,-z
1/2+x,1/2+y,-z
1/2-x,y,z
x,1/2-y,z
loop_
_atom_site_type_symbol
_atom_site_label
_atom_site_fract_x
_atom_site_fract_y
_atom_site_fract_z
Si Si1 0.406769 0.959559 0.038735
Si Si2 0.910039 0.035529 0.384258
Si Si3 0.906105 0.459288 0.206365
Si Si4 0.408107 0.960294 0.128827
Si Si5 0.581866 0.047879 0.294375
Si Si6 0.907492 0.539972 0.539502
O O1 0.250000 0.024691 0.032990
O O2 0.400054 0.750000 0.041092
O O3 0.456985 0.021055 0.083661
O O4 0.500000 0.000000 0.000000
O O5 0.750000 0.984987 0.391854
O O6 0.910477 0.250000 0.383326
O O7 0.953706 0.972829 0.338852
O O8 0.011379 0.976999 0.420141
O O9 0.750000 0.525395 0.199598
O O10 0.897237 0.250000 0.211559
O O11 0.960401 0.528752 0.250353
O O12 0.999093 0.490729 0.167108
O O13 0.250000 0.020977 0.133990
O O14 0.405490 0.750000 0.127895
O O15 0.750000 0.048513 0.293307
O O16 0.534945 0.250000 0.295322
O O17 0.750000 0.474038 0.536048
O O18 0.899985 0.750000 0.542767
O O19 0.000000 0.500000 0.500000
#
# Coordination Sequence:
#
# PCOD9449395 Si02
#       6
#     8   8   8   8   8   8
#     4   9  19  35  52  70  93 121 154 192 233 276
#     4   8  13  24  44  66  88 118 153 187 227 274
#     4   9  17  29  47  73 100 122 150 191 232 269
#     4   9  19  35  50  65  92 129 161 188 224 273
#     4   7  11  22  41  65  92 119 147 183 227 271
#     4  10  20  32  47  69  95 122 154 192 233 277
#
# _framework density 19.834654
#
# number of rings (size 3 to 8) (size 9 to 14) (size 15 to 20)
#    0.000    3.333    0.000    3.500    0.000    3.333 
#    0.000    5.833    0.000    4.000    0.000    2.333 
#    0.000    0.000    0.000    0.000    0.000    0.000 
#
# Total GULP energy -267348.392452 kJ/mol
# GULP energy per Si atom -5569.758176 kJ/mol
# Density = 1.978951 g / cm^3
# Si number density = 19.834654 Si / 1000 Ang^3
#
#
#
# Elastic Constant Matrix: (Units=GPa)
#
#
# Indices 1 2 3 4 5 6 
#
# 1 101.0666 5.6803 116.7403 0.0000 0.0000 0.0000
# 2 5.6803 34.6558 8.1657 0.0000 0.0000 0.0000
# 3 116.7403 8.1657 256.7799 0.0000 0.0000 0.0000
# 4 0.0000 0.0000 0.0000 17.1457 0.0000 0.0000
# 5 0.0000 0.0000 0.0000 0.0000 37.4875 0.0000
# 6 0.0000 0.0000 0.0000 0.0000 0.0000 14.6918
#
#
#
# Elastic Compliance Matrix: (Units=1/GPa)
#
#
# Indices 1 2 3 4 5 6 
#
# 1 0.020885 -0.001195 -0.009457 0.000000 0.000000 0.000000
# 2 -0.001195 0.029141 -0.000383 0.000000 0.000000 0.000000
# 3 -0.009457 -0.000383 0.008206 0.000000 0.000000 0.000000
# 4 0.000000 0.000000 0.000000 0.058324 0.000000 0.000000
# 5 0.000000 0.000000 0.000000 0.000000 0.026676 0.000000
# 6 0.000000 0.000000 0.000000 0.000000 0.000000 0.068065
#
#
# Mechanical properties :
#
#
# Convention : Reuss Voigt Hill
#
# Bulk Modulus (GPa) = 27.65348 72.63055 50.14201
# Shear Modulus (GPa) = 20.37305 31.32608 25.84956
#
# Velocity S-wave (km/s) = 3.20839 3.97843 3.61398
# Velocity P-wave (km/s) = 5.26282 7.60272 6.53830
#
# Compressibility (1/GPa) = 0.03616181
#
# Stress axis : x y z
#
# Youngs Moduli (GPa) = 47.88015 34.31544 121.86022
#
# Poissons Ratio (x) = 0.04101 1.15246
# Poissons Ratio (y) = 0.05721 0.04673
# Poissons Ratio (z) = 0.45281 0.01316
#
# Static dielectric constant tensor:
#      x y z
#    x 1.670390 0.000000 0.000000 
#    y 0.000000 1.769740 0.000000 
#    z 0.000000 0.000000 1.736660 
# 
# From -- ./inp_files/32480.got.cif
#   From: 2010.05.17/outbox.cif.g08.bks.cpg/sg59_17_cif.got.tgz:32480.got - 2010.06.03 14:40:33.
