data_PCOD9449174
_publ_section_title
;
Structure prediction by ZEFSAII (Michael W. Deem and Ramdas Pophale) SiO2 
 PCOD9449174
Probable space group: P M M N
;
_chemical_formula_sum "Si O2"
_cell_formula_units_Z 56
_cell_length_a 14.964378
_cell_length_b 9.540113
_cell_length_c 21.355816
_cell_angle_alpha 90.000000
_cell_angle_beta 90.000000
_cell_angle_gamma 90.000000
_cell_volume 3048.795952
_symmetry_space_group_name_H-M "P M M N"
_symmetry_group_IT_number 59
_space_group.IT_coordinate_system_code '2'
_symmetry_cell_setting 'orthorhombic'
loop_
_space_group_symop_operation_xyz
x,y,z
1/2-x,1/2-y,z
1/2+x,-y,-z
-x,1/2+y,-z
-x,-y,-z
1/2+x,1/2+y,-z
1/2-x,y,z
x,1/2-y,z
loop_
_atom_site_type_symbol
_atom_site_label
_atom_site_fract_x
_atom_site_fract_y
_atom_site_fract_z
Si Si1 0.143743 0.915066 0.491597
Si Si2 0.432479 0.419167 0.709715
Si Si3 0.490176 0.416336 0.404734
Si Si4 0.250000 0.583825 0.730184
Si Si5 0.351212 0.415185 0.079843
Si Si6 0.543023 0.405246 0.835133
Si Si7 0.100532 0.092797 0.943604
Si Si8 0.750000 0.410895 0.119257
O O1 0.250000 0.945877 0.500490
O O2 0.137422 0.750000 0.472667
O O3 0.081004 0.928820 0.553249
O O4 0.093341 0.016607 0.442501
O O5 0.421992 0.250000 0.701811
O O6 0.492636 0.490614 0.656498
O O7 0.338038 0.500549 0.708419
O O8 0.480296 0.443259 0.776821
O O9 0.476952 0.250000 0.392617
O O10 0.250000 0.750000 0.711891
O O11 0.250000 0.577540 0.805798
O O12 0.250000 0.456221 0.063882
O O13 0.355913 0.250000 0.090275
O O14 0.381560 0.488815 0.143338
O O15 0.407772 0.443578 0.016673
O O16 0.579202 0.250000 0.822337
O O17 0.483324 0.399357 0.897885
O O18 0.140854 0.250000 0.943335
O O19 0.165219 0.985133 0.910233
O O20 0.750000 0.250000 0.101948
#
# Coordination Sequence:
#
# PCOD9449174 Si02
#       8
#     8   8   8   4   8   8   8   4
#     4   9  19  38  63  90 124 164 199 238 288 341
#     4  11  23  39  59  84 116 157 196 231 283 347
#     4  10  21  37  60  92 127 159 196 247 291 334
#     4  11  23  37  55  83 117 151 190 237 288 339
#     4  10  21  36  56  78 103 138 179 230 290 344
#     4  10  22  37  56  79 106 143 184 230 279 335
#     4  10  19  36  56  75 107 143 178 224 285 346
#     4  11  21  31  51  83 111 141 180 227 280 337
#
# _framework density 18.367906999999999
#
# number of rings (size 3 to 8) (size 9 to 14) (size 15 to 20)
#    0.000    1.857    2.143    1.714    1.000    4.000 
#    0.000    0.714    0.000    0.857    0.000    0.000 
#    0.000    0.000    0.000    0.000    0.000    0.000 
#
# Total GULP energy -312084.696995 kJ/mol
# GULP energy per Si atom -5572.941018 kJ/mol
# Density = 1.832610 g / cm^3
# Si number density = 18.367907 Si / 1000 Ang^3
#
#
#
# Elastic Constant Matrix: (Units=GPa)
#
#
# Indices 1 2 3 4 5 6 
#
# 1 72.6724 42.7195 28.2071 0.0000 0.0000 0.0000
# 2 42.7195 91.7135 43.4581 0.0000 0.0000 0.0000
# 3 28.2071 43.4581 68.5789 0.0000 0.0000 0.0000
# 4 0.0000 0.0000 0.0000 26.1293 0.0000 0.0000
# 5 0.0000 0.0000 0.0000 0.0000 -8.5527 0.0000
# 6 0.0000 0.0000 0.0000 0.0000 0.0000 32.1455
#
#
#
# Elastic Compliance Matrix: (Units=1/GPa)
#
#
# Indices 1 2 3 4 5 6 
#
# 1 0.019436 -0.007524 -0.003226 0.000000 0.000000 0.000000
# 2 -0.007524 0.018496 -0.008626 0.000000 0.000000 0.000000
# 3 -0.003226 -0.008626 0.021375 0.000000 0.000000 0.000000
# 4 0.000000 0.000000 0.000000 0.038271 0.000000 0.000000
# 5 0.000000 0.000000 0.000000 0.000000 -0.116922 0.000000
# 6 0.000000 0.000000 0.000000 0.000000 0.000000 0.031109
#
#
# Mechanical properties :
#
#
# Convention : Reuss Voigt Hill
#
# Bulk Modulus (GPa) = 48.65258 51.30378 49.97818
# Shear Modulus (GPa) = 87.15811 17.84976 52.50394
#
# Velocity S-wave (km/s) = 6.89596 3.12074 5.35226
# Velocity P-wave (km/s) = 9.48425 6.40134 8.09099
#
# Compressibility (1/GPa) = 0.02055389
#
# Stress axis : x y z
#
# Youngs Moduli (GPa) = 51.45200 54.06701 46.78448
#
# Poissons Ratio (x) = 0.40682 0.15092
# Poissons Ratio (y) = 0.38714 0.40355
# Poissons Ratio (z) = 0.16598 0.46636
#
# Static dielectric constant tensor:
#      x y z
#    x 1.737500 0.000000 0.000000 
#    y 0.000000 1.645480 0.000000 
#    z 0.000000 0.000000 1.620380 
# 
# From -- ./inp_files/30457.got.cif
#   From: 2010.05.17/outbox.cif.g08.bks.cpg/sg59_16_cif.got.tgz:30457.got - 2010.06.03 14:40:33.
