data_PCOD9449565
_publ_section_title
;
Structure prediction by ZEFSAII (Michael W. Deem and Ramdas Pophale) SiO2 
 PCOD9449565
Probable space group: P M M N
;
_chemical_formula_sum "Si O2"
_cell_formula_units_Z 48
_cell_length_a 7.784691
_cell_length_b 17.120210
_cell_length_c 14.144338
_cell_angle_alpha 90.000000
_cell_angle_beta 90.000000
_cell_angle_gamma 90.000000
_cell_volume 1885.094351
_symmetry_space_group_name_H-M "P M M N"
_symmetry_group_IT_number 59
_space_group.IT_coordinate_system_code '2'
_symmetry_cell_setting 'orthorhombic'
loop_
_space_group_symop_operation_xyz
x,y,z
1/2-x,1/2-y,z
1/2+x,-y,-z
-x,1/2+y,-z
-x,-y,-z
1/2+x,1/2+y,-z
1/2-x,y,z
x,1/2-y,z
loop_
_atom_site_type_symbol
_atom_site_label
_atom_site_fract_x
_atom_site_fract_y
_atom_site_fract_z
Si Si1 0.547594 0.899344 0.388669
Si Si2 0.047988 0.750000 0.043366
Si Si3 0.552898 0.665277 0.789921
Si Si4 0.040587 0.250000 0.734983
Si Si5 0.053370 0.662267 0.580158
Si Si6 0.543766 0.417049 0.954954
Si Si7 0.457767 0.999440 0.223286
O O1 0.750000 0.889866 0.399509
O O2 0.483971 0.826187 0.325003
O O3 0.472498 0.895353 0.493301
O O4 0.511180 0.976616 0.328218
O O5 0.250000 0.750000 0.020189
O O6 0.974820 0.666423 0.009304
O O7 0.029451 0.750000 0.157887
O O8 0.750000 0.667200 0.821821
O O9 0.472420 0.750000 0.811416
O O10 0.555309 0.656815 0.675289
O O11 0.472438 0.582085 0.815897
O O12 0.250000 0.250000 0.740790
O O13 0.250000 0.658022 0.612602
O O14 0.021122 0.750000 0.541128
O O15 0.750000 0.410921 0.955365
O O16 0.484205 0.431044 0.846953
O O17 0.500000 0.500000 0.000000
O O18 0.250000 0.003512 0.220340
#
# Coordination Sequence:
#
# PCOD9449565 Si02
#       7
#     8   4   8   4   8   8   8
#     4  11  21  33  53  83 116 149 187 233 285 335
#     4  10  20  38  64  88 117 156 191 230 287 348
#     4   9  19  37  58  77 105 146 192 241 288 334
#     4  10  20  32  52  84 115 146 187 230 279 336
#     4  10  20  33  52  78 110 150 195 238 281 334
#     4  10  22  40  62  90 122 154 190 234 286 347
#     4  10  21  38  59  84 111 145 188 234 286 342
#
# _framework density 25.462917000000001
#
# number of rings (size 3 to 8) (size 9 to 14) (size 15 to 20)
#    0.000    2.000    2.500    1.000    0.000    4.000 
#    1.500    0.000    0.000    0.000    0.000    0.000 
#    0.000    0.000    0.000    0.000    0.000    0.000 
#
# Total GULP energy -268328.154790 kJ/mol
# GULP energy per Si atom -5590.169891 kJ/mol
# Density = 2.540496 g / cm^3
# Si number density = 25.462917 Si / 1000 Ang^3
#
#
#
# Elastic Constant Matrix: (Units=GPa)
#
#
# Indices 1 2 3 4 5 6 
#
# 1 54.1816 10.8656 10.4800 0.0000 0.0000 0.0000
# 2 10.8656 194.8050 34.0238 0.0000 0.0000 0.0000
# 3 10.4800 34.0238 84.0208 0.0000 0.0000 0.0000
# 4 0.0000 0.0000 0.0000 50.1431 0.0000 0.0000
# 5 0.0000 0.0000 0.0000 0.0000 26.6730 0.0000
# 6 0.0000 0.0000 0.0000 0.0000 0.0000 19.5557
#
#
#
# Elastic Compliance Matrix: (Units=1/GPa)
#
#
# Indices 1 2 3 4 5 6 
#
# 1 0.019000 -0.000695 -0.002088 0.000000 0.000000 0.000000
# 2 -0.000695 0.005549 -0.002161 0.000000 0.000000 0.000000
# 3 -0.002088 -0.002161 0.013037 0.000000 0.000000 0.000000
# 4 0.000000 0.000000 0.000000 0.019943 0.000000 0.000000
# 5 0.000000 0.000000 0.000000 0.000000 0.037491 0.000000
# 6 0.000000 0.000000 0.000000 0.000000 0.000000 0.051136
#
#
# Mechanical properties :
#
#
# Convention : Reuss Voigt Hill
#
# Bulk Modulus (GPa) = 36.10298 49.30512 42.70405
# Shear Modulus (GPa) = 30.25219 37.78355 34.01787
#
# Velocity S-wave (km/s) = 3.45060 3.85628 3.65907
# Velocity P-wave (km/s) = 5.48498 6.26365 5.88720
#
# Compressibility (1/GPa) = 0.02769855
#
# Stress axis : x y z
#
# Youngs Moduli (GPa) = 52.63218 180.19789 76.70356
#
# Poissons Ratio (x) = 0.12524 0.16019
# Poissons Ratio (y) = 0.03658 0.16572
# Poissons Ratio (z) = 0.10992 0.38932
#
# Static dielectric constant tensor:
#      x y z
#    x 1.901590 0.000000 0.000000 
#    y 0.000000 2.094640 0.000000 
#    z 0.000000 0.000000 2.026170 
# 
# From -- ./inp_files/25537.got.cif
#   From: 2010.05.17/outbox.cif.g08.bks.cpg/sg59_13_cif.got.tgz:25537.got - 2010.06.03 14:40:33.
