data_PCOD9449457
_publ_section_title
;
Structure prediction by ZEFSAII (Michael W. Deem and Ramdas Pophale) SiO2 
 PCOD9449457
Probable space group: P M M N
;
_chemical_formula_sum "Si O2"
_cell_formula_units_Z 64
_cell_length_a 17.113457
_cell_length_b 14.599686
_cell_length_c 13.991883
_cell_angle_alpha 90.000000
_cell_angle_beta 90.000000
_cell_angle_gamma 90.000000
_cell_volume 3495.887339
_symmetry_space_group_name_H-M "P M M N"
_symmetry_group_IT_number 59
_space_group.IT_coordinate_system_code '2'
_symmetry_cell_setting 'orthorhombic'
loop_
_space_group_symop_operation_xyz
x,y,z
1/2-x,1/2-y,z
1/2+x,-y,-z
-x,1/2+y,-z
-x,-y,-z
1/2+x,1/2+y,-z
1/2-x,y,z
x,1/2-y,z
loop_
_atom_site_type_symbol
_atom_site_label
_atom_site_fract_x
_atom_site_fract_y
_atom_site_fract_z
Si Si1 0.530151 0.646104 0.181043
Si Si2 0.656476 0.144693 0.562500
Si Si3 0.841362 0.943650 0.858800
Si Si4 0.067510 0.576603 0.018072
Si Si5 0.943288 0.002163 0.685680
Si Si6 0.836406 0.642390 0.049781
Si Si7 0.431024 0.642865 0.638327
Si Si8 0.160037 0.860234 0.832981
O O1 0.539076 0.750000 0.217791
O O2 0.496376 0.575238 0.256609
O O3 0.609582 0.607207 0.134307
O O4 0.473940 0.648260 0.087955
O O5 0.750000 0.133278 0.564534
O O6 0.639607 0.250000 0.596566
O O7 0.613912 0.065760 0.623108
O O8 0.623136 0.138265 0.455189
O O9 0.750000 0.935511 0.836398
O O10 0.893477 0.946446 0.764801
O O11 0.864210 0.870619 0.940697
O O12 0.862756 0.035194 0.917528
O O13 0.104856 0.608295 0.919722
O O14 0.000000 0.500000 0.000000
O O15 0.997642 0.928882 0.631720
O O16 0.750000 0.601722 0.053305
O O17 0.832693 0.750000 0.066556
O O18 0.456511 0.750000 0.647991
O O19 0.380869 0.617476 0.732190
O O20 0.250000 0.893637 0.839252
O O21 0.163465 0.750000 0.837462
#
# Coordination Sequence:
#
# PCOD9449457 Si02
#       8
#     8   8   8   8   8   8   8   8
#     4  10  20  33  51  76 110 148 187 231 274 329
#     4  10  21  41  66  87 111 143 181 230 287 346
#     4  10  20  32  48  72 106 144 183 223 264 318
#     4  11  19  31  45  73 104 143 182 231 276 328
#     4  11  22  36  57  85 115 141 185 228 286 338
#     4   9  18  32  48  68 101 148 193 226 260 309
#     4  10  22  38  59  86 113 144 184 234 286 342
#     4  10  20  34  52  75 104 140 182 229 280 332
#
# _framework density 18.307226
#
# number of rings (size 3 to 8) (size 9 to 14) (size 15 to 20)
#    0.000    1.875    1.250    3.750    0.000    2.000 
#    0.000    0.625    0.000    7.125    0.000    0.000 
#    0.000    0.000    0.000    0.000    0.000    0.000 
#
# Total GULP energy -356736.728644 kJ/mol
# GULP energy per Si atom -5574.011385 kJ/mol
# Density = 1.826556 g / cm^3
# Si number density = 18.307226 Si / 1000 Ang^3
#
#
#
# Elastic Constant Matrix: (Units=GPa)
#
#
# Indices 1 2 3 4 5 6 
#
# 1 89.3182 39.4174 34.6174 0.0000 0.0000 0.0000
# 2 39.4174 67.8549 20.1032 0.0000 0.0000 0.0000
# 3 34.6174 20.1032 65.9503 0.0000 0.0000 0.0000
# 4 0.0000 0.0000 0.0000 27.9203 0.0000 0.0000
# 5 0.0000 0.0000 0.0000 0.0000 28.0919 0.0000
# 6 0.0000 0.0000 0.0000 0.0000 0.0000 26.7550
#
#
#
# Elastic Compliance Matrix: (Units=1/GPa)
#
#
# Indices 1 2 3 4 5 6 
#
# 1 0.017346 -0.008112 -0.006632 0.000000 0.000000 0.000000
# 2 -0.008112 0.019994 -0.001837 0.000000 0.000000 0.000000
# 3 -0.006632 -0.001837 0.019204 0.000000 0.000000 0.000000
# 4 0.000000 0.000000 0.000000 0.035816 0.000000 0.000000
# 5 0.000000 0.000000 0.000000 0.000000 0.035597 0.000000
# 6 0.000000 0.000000 0.000000 0.000000 0.000000 0.037376
#
#
# Mechanical properties :
#
#
# Convention : Reuss Voigt Hill
#
# Bulk Modulus (GPa) = 42.76709 45.71105 44.23907
# Shear Modulus (GPa) = 24.23778 25.15248 24.69513
#
# Velocity S-wave (km/s) = 3.64255 3.71065 3.67676
# Velocity P-wave (km/s) = 6.41112 6.58647 6.49939
#
# Compressibility (1/GPa) = 0.02338247
#
# Stress axis : x y z
#
# Youngs Moduli (GPa) = 57.64935 50.01610 52.07192
#
# Poissons Ratio (x) = 0.40571 0.34537
# Poissons Ratio (y) = 0.46763 0.09564
# Poissons Ratio (z) = 0.38236 0.09187
#
# Static dielectric constant tensor:
#      x y z
#    x 1.672470 0.000000 0.000000 
#    y 0.000000 1.675020 0.000000 
#    z 0.000000 0.000000 1.613420 
# 
# From -- ./inp_files/17880.got.cif
#   From: 2010.05.17/outbox.cif.g08.bks.cpg/sg59_9_cif.got.tgz:17880.got - 2010.06.03 14:40:33.
