data_PCOD9449815
_publ_section_title
;
Structure prediction by ZEFSAII (Michael W. Deem and Ramdas Pophale) SiO2 
 PCOD9449815
Probable space group: P M M N
;
_chemical_formula_sum "Si O2"
_cell_formula_units_Z 64
_cell_length_a 9.218202
_cell_length_b 17.847157
_cell_length_c 22.423692
_cell_angle_alpha 90.000000
_cell_angle_beta 90.000000
_cell_angle_gamma 90.000000
_cell_volume 3689.116620
_symmetry_space_group_name_H-M "P M M N"
_symmetry_group_IT_number 59
_space_group.IT_coordinate_system_code '2'
_symmetry_cell_setting 'orthorhombic'
loop_
_space_group_symop_operation_xyz
x,y,z
1/2-x,1/2-y,z
1/2+x,-y,-z
-x,1/2+y,-z
-x,-y,-z
1/2+x,1/2+y,-z
1/2-x,y,z
x,1/2-y,z
loop_
_atom_site_type_symbol
_atom_site_label
_atom_site_fract_x
_atom_site_fract_y
_atom_site_fract_z
Si Si1 0.576431 0.661176 0.632529
Si Si2 0.076788 0.832607 0.870906
Si Si3 0.421910 0.944235 0.174759
Si Si4 0.582665 0.659756 0.262390
Si Si5 0.077856 0.399377 0.240839
Si Si6 0.418475 0.841293 0.381285
Si Si7 0.579437 0.159289 0.486786
Si Si8 0.075376 0.515115 0.937174
O O1 0.750000 0.654911 0.627127
O O2 0.542379 0.750000 0.640071
O O3 0.528937 0.617890 0.692050
O O4 0.505147 0.632808 0.571395
O O5 0.250000 0.835116 0.862468
O O6 0.036494 0.750000 0.893084
O O7 0.040125 0.900322 0.915216
O O8 0.001949 0.848499 0.807744
O O9 0.250000 0.936857 0.163620
O O10 0.487794 0.874126 0.209399
O O11 0.443872 0.015760 0.218585
O O12 0.507403 0.962443 0.114097
O O13 0.750000 0.636112 0.256981
O O14 0.577580 0.750000 0.261061
O O15 0.515354 0.634718 0.325762
O O16 0.250000 0.383561 0.238347
O O17 0.250000 0.863639 0.372649
O O18 0.419809 0.750000 0.381988
O O19 0.468240 0.866462 0.447186
O O20 0.750000 0.142717 0.481380
O O21 0.564543 0.250000 0.486998
O O22 0.250000 0.506879 0.940305
O O23 0.000000 0.500000 0.000000
#
# Coordination Sequence:
#
# PCOD9449815 Si02
#       8
#     8   8   8   8   8   8   8   8
#     4   9  16  25  39  62  93 126 158 196 242 287
#     4   9  18  32  51  76 103 131 166 207 246 284
#     4  10  20  35  55  76  99 130 165 199 240 292
#     4  10  20  33  51  76 102 125 155 201 253 301
#     4   9  18  31  47  69  97 130 166 202 242 289
#     4   8  14  26  44  65  90 121 157 198 245 295
#     4   8  14  24  38  59  88 121 158 199 241 288
#     4  10  20  36  57  79 106 138 171 206 244 292
#
# _framework density 17.348327000000001
#
# number of rings (size 3 to 8) (size 9 to 14) (size 15 to 20)
#    0.000    2.875    0.000    2.250    0.000    3.500 
#    0.000    4.375    0.000    3.000    0.000    0.000 
#    0.000    0.000    0.000    0.000    0.000    0.000 
#
# Total GULP energy -356630.621159 kJ/mol
# GULP energy per Si atom -5572.353456 kJ/mol
# Density = 1.730884 g / cm^3
# Si number density = 17.348327 Si / 1000 Ang^3
#
#
#
# Elastic Constant Matrix: (Units=GPa)
#
#
# Indices 1 2 3 4 5 6 
#
# 1 55.2782 24.3362 60.6515 0.0000 0.0000 0.0000
# 2 24.3362 23.6459 35.6712 0.0000 0.0000 0.0000
# 3 60.6515 35.6712 151.4423 0.0000 0.0000 0.0000
# 4 0.0000 0.0000 0.0000 16.5591 0.0000 0.0000
# 5 0.0000 0.0000 0.0000 0.0000 36.0349 0.0000
# 6 0.0000 0.0000 0.0000 0.0000 0.0000 17.2553
#
#
#
# Elastic Compliance Matrix: (Units=1/GPa)
#
#
# Indices 1 2 3 4 5 6 
#
# 1 0.041048 -0.027063 -0.010065 0.000000 0.000000 0.000000
# 2 -0.027063 0.083443 -0.008816 0.000000 0.000000 0.000000
# 3 -0.010065 -0.008816 0.012711 0.000000 0.000000 0.000000
# 4 0.000000 0.000000 0.000000 0.060390 0.000000 0.000000
# 5 0.000000 0.000000 0.000000 0.000000 0.027751 0.000000
# 6 0.000000 0.000000 0.000000 0.000000 0.000000 0.057953
#
#
# Mechanical properties :
#
#
# Convention : Reuss Voigt Hill
#
# Bulk Modulus (GPa) = 22.06816 52.40936 37.23876
# Shear Modulus (GPa) = 12.81106 21.28368 17.04737
#
# Velocity S-wave (km/s) = 2.72041 3.50643 3.13813
# Velocity P-wave (km/s) = 4.75560 6.83147 5.88578
#
# Compressibility (1/GPa) = 0.04531416
#
# Stress axis : x y z
#
# Youngs Moduli (GPa) = 24.36171 11.98424 78.67416
#
# Poissons Ratio (x) = 0.32433 0.79185
# Poissons Ratio (y) = 0.65930 0.69359
# Poissons Ratio (z) = 0.24520 0.10565
#
# Static dielectric constant tensor:
#      x y z
#    x 1.577760 0.000000 0.000000 
#    y 0.000000 1.603270 0.000000 
#    z 0.000000 0.000000 1.578330 
# 
# From -- ./inp_files/29364.got.cif
#   From: 2010.05.17/outbox.cif.g08.bks.cpg/sg59_15_cif.got.tgz:29364.got - 2010.06.03 14:40:33.
