data_PCOD9449780
_publ_section_title
;
Structure prediction by ZEFSAII (Michael W. Deem and Ramdas Pophale) SiO2 
 PCOD9449780
Probable space group: P M M N
;
_chemical_formula_sum "Si O2"
_cell_formula_units_Z 56
_cell_length_a 21.398247
_cell_length_b 8.420843
_cell_length_c 15.707091
_cell_angle_alpha 90.000000
_cell_angle_beta 90.000000
_cell_angle_gamma 90.000000
_cell_volume 2830.280808
_symmetry_space_group_name_H-M "P M M N"
_symmetry_group_IT_number 59
_space_group.IT_coordinate_system_code '2'
_symmetry_cell_setting 'orthorhombic'
loop_
_space_group_symop_operation_xyz
x,y,z
1/2-x,1/2-y,z
1/2+x,-y,-z
-x,1/2+y,-z
-x,-y,-z
1/2+x,1/2+y,-z
1/2-x,y,z
x,1/2-y,z
loop_
_atom_site_type_symbol
_atom_site_label
_atom_site_fract_x
_atom_site_fract_y
_atom_site_fract_z
Si Si1 0.822436 0.428480 0.644049
Si Si2 0.883622 0.931264 0.799331
Si Si3 0.510491 0.933276 0.238645
Si Si4 0.320426 0.440484 0.546482
Si Si5 0.818083 0.942255 0.969666
Si Si6 0.542490 0.437453 0.420299
Si Si7 0.943594 0.556972 0.060920
O O1 0.750000 0.421773 0.668701
O O2 0.849269 0.250000 0.651513
O O3 0.855554 0.549825 0.706180
O O4 0.824668 0.485840 0.547647
O O5 0.904498 0.750000 0.815435
O O6 0.833240 0.973204 0.870759
O O7 0.941828 0.047892 0.801291
O O8 0.525589 0.750000 0.256014
O O9 0.551823 0.994262 0.159657
O O10 0.512402 0.022785 0.328508
O O11 0.250000 0.486025 0.580146
O O12 0.321039 0.250000 0.542618
O O13 0.386509 0.494470 0.586084
O O14 0.750000 0.004579 0.993866
O O15 0.816501 0.750000 0.978833
O O16 0.877883 0.997969 0.022013
O O17 0.500000 0.500000 0.500000
O O18 0.546912 0.250000 0.432112
O O19 0.945773 0.750000 0.060675
O O20 0.000000 0.500000 0.000000
#
# Coordination Sequence:
#
# PCOD9449780 Si02
#       7
#     8   8   8   8   8   8   8
#     4  10  20  33  50  76 113 153 192 236 293 360
#     4  11  20  32  53  80 113 151 194 243 297 360
#     4  11  23  38  58  86 118 155 201 250 303 364
#     4  10  21  39  62  86 115 154 201 251 306 367
#     4   9  18  33  55  84 116 151 194 244 296 349
#     4  12  25  42  64  90 124 161 204 260 312 369
#     4  10  20  37  61  86 116 154 198 245 293 351
#
# _framework density 19.786024000000001
#
# number of rings (size 3 to 8) (size 9 to 14) (size 15 to 20)
#    0.000    1.571    1.429    4.286    0.000    2.857 
#    0.000    0.714    0.000    3.857    0.000    0.000 
#    0.000    0.000    0.000    0.000    0.000    0.000 
#
# Total GULP energy -312316.005548 kJ/mol
# GULP energy per Si atom -5577.071528 kJ/mol
# Density = 1.974099 g / cm^3
# Si number density = 19.786024 Si / 1000 Ang^3
#
#
#
# Elastic Constant Matrix: (Units=GPa)
#
#
# Indices 1 2 3 4 5 6 
#
# 1 122.1678 16.5819 34.4213 0.0000 0.0000 0.0000
# 2 16.5819 57.1699 13.7732 0.0000 0.0000 0.0000
# 3 34.4213 13.7732 75.4801 0.0000 0.0000 0.0000
# 4 0.0000 0.0000 0.0000 11.2932 0.0000 0.0000
# 5 0.0000 0.0000 0.0000 0.0000 27.9363 0.0000
# 6 0.0000 0.0000 0.0000 0.0000 0.0000 27.3063
#
#
#
# Elastic Compliance Matrix: (Units=1/GPa)
#
#
# Indices 1 2 3 4 5 6 
#
# 1 0.009567 -0.001803 -0.004034 0.000000 0.000000 0.000000
# 2 -0.001803 0.018636 -0.002578 0.000000 0.000000 0.000000
# 3 -0.004034 -0.002578 0.015559 0.000000 0.000000 0.000000
# 4 0.000000 0.000000 0.000000 0.088549 0.000000 0.000000
# 5 0.000000 0.000000 0.000000 0.000000 0.035796 0.000000
# 6 0.000000 0.000000 0.000000 0.000000 0.000000 0.036622
#
#
# Mechanical properties :
#
#
# Convention : Reuss Voigt Hill
#
# Bulk Modulus (GPa) = 37.13201 42.70785 39.91993
# Shear Modulus (GPa) = 21.68877 25.97660 23.83268
#
# Velocity S-wave (km/s) = 3.31443 3.62729 3.47439
# Velocity P-wave (km/s) = 5.78401 6.25897 6.02617
#
# Compressibility (1/GPa) = 0.02693094
#
# Stress axis : x y z
#
# Youngs Moduli (GPa) = 104.52925 53.66010 64.27352
#
# Poissons Ratio (x) = 0.09675 0.25926
# Poissons Ratio (y) = 0.18847 0.16572
# Poissons Ratio (z) = 0.42164 0.13835
#
# Static dielectric constant tensor:
#      x y z
#    x 1.765840 0.000000 0.000000 
#    y 0.000000 1.695620 0.000000 
#    z 0.000000 0.000000 1.689410 
# 
# From -- ./inp_files/24190.got.cif
#   From: 2010.05.17/outbox.cif.g08.bks.cpg/sg59_13_cif.got.tgz:24190.got - 2010.06.03 14:40:33.
