data_PCOD9449394
_publ_section_title
;
Structure prediction by ZEFSAII (Michael W. Deem and Ramdas Pophale) SiO2 
 PCOD9449394
Probable space group: P M M N
;
_chemical_formula_sum "Si O2"
_cell_formula_units_Z 64
_cell_length_a 7.605275
_cell_length_b 18.530552
_cell_length_c 22.658704
_cell_angle_alpha 90.000000
_cell_angle_beta 90.000000
_cell_angle_gamma 90.000000
_cell_volume 3193.289883
_symmetry_space_group_name_H-M "P M M N"
_symmetry_group_IT_number 59
_space_group.IT_coordinate_system_code '2'
_symmetry_cell_setting 'orthorhombic'
loop_
_space_group_symop_operation_xyz
x,y,z
1/2-x,1/2-y,z
1/2+x,-y,-z
-x,1/2+y,-z
-x,-y,-z
1/2+x,1/2+y,-z
1/2-x,y,z
x,1/2-y,z
loop_
_atom_site_type_symbol
_atom_site_label
_atom_site_fract_x
_atom_site_fract_y
_atom_site_fract_z
Si Si1 0.955486 0.012259 0.232035
Si Si2 0.962636 0.828893 0.795876
Si Si3 0.960333 0.067679 0.457595
Si Si4 0.956131 0.173560 0.942725
Si Si5 0.961805 0.967136 0.357660
Si Si6 0.546801 0.475605 0.899170
Si Si7 0.538234 0.331669 0.558277
Si Si8 0.463662 0.369114 0.071701
O O1 0.750000 0.994959 0.225776
O O2 0.973011 0.099167 0.236475
O O3 0.025983 0.973935 0.290736
O O4 0.042828 0.988557 0.170944
O O5 0.750000 0.831116 0.794246
O O6 0.019806 0.750000 0.773928
O O7 0.014758 0.836644 0.864949
O O8 0.750000 0.076618 0.451991
O O9 0.026575 0.136084 0.495139
O O10 0.027530 0.036520 0.395457
O O11 0.000000 0.000000 0.500000
O O12 0.750000 0.174420 0.926128
O O13 0.034045 0.250000 0.923231
O O14 0.035688 0.100201 0.917027
O O15 0.969473 0.168605 0.013357
O O16 0.750000 0.972966 0.355647
O O17 0.999332 0.892481 0.392133
O O18 0.750000 0.473656 0.918480
O O19 0.471508 0.547990 0.927990
O O20 0.750000 0.328571 0.555019
O O21 0.474548 0.250000 0.569703
O O22 0.250000 0.367525 0.070121
#
# Coordination Sequence:
#
# PCOD9449394 Si02
#       8
#     8   8   8   8   8   8   8   8
#     4  10  20  33  50  72  95 123 165 205 232 269
#     4   9  18  33  51  71  97 127 156 189 235 288
#     4   8  14  27  46  67  93 122 150 183 226 275
#     4  10  20  32  47  69  94 118 149 194 245 292
#     4   9  18  32  49  70  97 130 163 195 237 284
#     4   9  19  35  50  65  91 127 161 193 236 288
#     4   9  17  29  48  75 100 123 158 200 236 275
#     4   9  17  30  49  70  91 118 151 186 231 291
#
# _framework density 20.042024999999999
#
# number of rings (size 3 to 8) (size 9 to 14) (size 15 to 20)
#    0.000    2.875    0.000    1.875    0.000    4.750 
#    0.000    1.250    0.000    4.500    0.000    0.000 
#    0.000    0.000    0.000    0.000    0.000    0.000 
#
# Total GULP energy -356575.781944 kJ/mol
# GULP energy per Si atom -5571.496593 kJ/mol
# Density = 1.999641 g / cm^3
# Si number density = 20.042025 Si / 1000 Ang^3
#
#
#
# Elastic Constant Matrix: (Units=GPa)
#
#
# Indices 1 2 3 4 5 6 
#
# 1 43.2004 -1.6009 -10.0120 0.0000 0.0000 0.0000
# 2 -1.6009 147.9802 39.0819 0.0000 0.0000 0.0000
# 3 -10.0120 39.0819 49.9591 0.0000 0.0000 0.0000
# 4 0.0000 0.0000 0.0000 17.3128 0.0000 0.0000
# 5 0.0000 0.0000 0.0000 0.0000 9.3742 0.0000
# 6 0.0000 0.0000 0.0000 0.0000 0.0000 13.0815
#
#
#
# Elastic Compliance Matrix: (Units=1/GPa)
#
#
# Indices 1 2 3 4 5 6 
#
# 1 0.024472 -0.001299 0.005920 0.000000 0.000000 0.000000
# 2 -0.001299 0.008586 -0.006977 0.000000 0.000000 0.000000
# 3 0.005920 -0.006977 0.026661 0.000000 0.000000 0.000000
# 4 0.000000 0.000000 0.000000 0.057761 0.000000 0.000000
# 5 0.000000 0.000000 0.000000 0.000000 0.106676 0.000000
# 6 0.000000 0.000000 0.000000 0.000000 0.000000 0.076444
#
#
# Mechanical properties :
#
#
# Convention : Reuss Voigt Hill
#
# Bulk Modulus (GPa) = 18.17930 32.89755 25.53843
# Shear Modulus (GPa) = 15.44895 22.19842 18.82369
#
# Velocity S-wave (km/s) = 2.77939 3.33166 3.06798
# Velocity P-wave (km/s) = 4.40344 5.59016 5.03191
#
# Compressibility (1/GPa) = 0.05500761
#
# Stress axis : x y z
#
# Youngs Moduli (GPa) = 40.86329 116.46469 37.50815
#
# Poissons Ratio (x) = 0.15127 -0.22206
# Poissons Ratio (y) = 0.05307 0.26170
# Poissons Ratio (z) = -0.24192 0.81259
#
# Static dielectric constant tensor:
#      x y z
#    x 1.745400 0.000000 0.000000 
#    y 0.000000 1.751280 0.000000 
#    z 0.000000 0.000000 1.703890 
# 
# From -- ./inp_files/31755.got.cif
#   From: 2010.05.17/outbox.cif.g08.bks.cpg/sg59_16_cif.got.tgz:31755.got - 2010.06.03 14:40:33.
