data_PCOD9449384
_publ_section_title
;
Structure prediction by ZEFSAII (Michael W. Deem and Ramdas Pophale) SiO2 
 PCOD9449384
Probable space group: P M M N
;
_chemical_formula_sum "Si O2"
_cell_formula_units_Z 56
_cell_length_a 14.925721
_cell_length_b 9.099883
_cell_length_c 21.421247
_cell_angle_alpha 90.000000
_cell_angle_beta 90.000000
_cell_angle_gamma 90.000000
_cell_volume 2909.483353
_symmetry_space_group_name_H-M "P M M N"
_symmetry_group_IT_number 59
_space_group.IT_coordinate_system_code '2'
_symmetry_cell_setting 'orthorhombic'
loop_
_space_group_symop_operation_xyz
x,y,z
1/2-x,1/2-y,z
1/2+x,-y,-z
-x,1/2+y,-z
-x,-y,-z
1/2+x,1/2+y,-z
1/2-x,y,z
x,1/2-y,z
loop_
_atom_site_type_symbol
_atom_site_label
_atom_site_fract_x
_atom_site_fract_y
_atom_site_fract_z
Si Si1 0.537737 0.073888 0.911928
Si Si2 0.147858 0.419639 0.479842
Si Si3 0.097222 0.913914 0.597988
Si Si4 0.652380 0.428210 0.270557
Si Si5 0.146133 0.072757 0.977189
Si Si6 0.602334 0.583573 0.652996
Si Si7 0.968268 0.074606 0.769365
O O1 0.545093 0.250000 0.921221
O O2 0.559286 0.040624 0.840142
O O3 0.605364 0.993786 0.959020
O O4 0.433474 0.033743 0.927816
O O5 0.250000 0.422028 0.502064
O O6 0.118058 0.250000 0.474238
O O7 0.094272 0.497976 0.534226
O O8 0.147111 0.481130 0.409375
O O9 0.129640 0.750000 0.583134
O O10 0.153117 0.973993 0.656314
O O11 0.999683 0.906308 0.628790
O O12 0.750000 0.462213 0.242710
O O13 0.640417 0.250000 0.269541
O O14 0.567246 0.505614 0.240196
O O15 0.250000 0.025642 0.965338
O O16 0.147521 0.250000 0.980935
O O17 0.635874 0.750000 0.664493
O O18 0.596737 0.492752 0.716539
O O19 0.973353 0.250000 0.761699
#
# Coordination Sequence:
#
# PCOD9449384 Si02
#       7
#     8   8   8   8   8   8   8
#     4   9  19  35  54  79 112 143 170 209 258 301
#     4  10  20  32  47  68  91 116 153 204 256 299
#     4   9  17  30  48  67  89 121 157 195 245 301
#     4   9  18  32  48  69 100 134 166 202 248 303
#     4   9  18  34  57  83 109 139 175 210 246 296
#     4   9  19  35  50  65  92 128 162 198 242 295
#     4  10  20  33  51  74  99 131 169 205 243 288
#
# _framework density 19.247404
#
# number of rings (size 3 to 8) (size 9 to 14) (size 15 to 20)
#    0.000    2.714    0.000    2.143    0.000    6.000 
#    0.000    2.143    0.000    2.571    0.000    0.000 
#    0.000    0.000    0.000    0.000    0.000    0.000 
#
# Total GULP energy -311797.636310 kJ/mol
# GULP energy per Si atom -5567.814934 kJ/mol
# Density = 1.920360 g / cm^3
# Si number density = 19.247404 Si / 1000 Ang^3
#
#
#
# Elastic Constant Matrix: (Units=GPa)
#
#
# Indices 1 2 3 4 5 6 
#
# 1 37.5233 -6.2585 -10.0558 0.0000 0.0000 0.0000
# 2 -6.2585 24.7475 29.6698 0.0000 0.0000 0.0000
# 3 -10.0558 29.6698 100.3386 0.0000 0.0000 0.0000
# 4 0.0000 0.0000 0.0000 29.6106 0.0000 0.0000
# 5 0.0000 0.0000 0.0000 0.0000 12.7774 0.0000
# 6 0.0000 0.0000 0.0000 0.0000 0.0000 16.4005
#
#
#
# Elastic Compliance Matrix: (Units=1/GPa)
#
#
# Indices 1 2 3 4 5 6 
#
# 1 0.027902 0.005738 0.001100 0.000000 0.000000 0.000000
# 2 0.005738 0.063781 -0.018285 0.000000 0.000000 0.000000
# 3 0.001100 -0.018285 0.015483 0.000000 0.000000 0.000000
# 4 0.000000 0.000000 0.000000 0.033772 0.000000 0.000000
# 5 0.000000 0.000000 0.000000 0.000000 0.078263 0.000000
# 6 0.000000 0.000000 0.000000 0.000000 0.000000 0.060974
#
#
# Mechanical properties :
#
#
# Convention : Reuss Voigt Hill
#
# Bulk Modulus (GPa) = 11.86642 21.03561 16.45102
# Shear Modulus (GPa) = 15.09844 21.70794 18.40319
#
# Velocity S-wave (km/s) = 2.80382 3.36197 3.09550
# Velocity P-wave (km/s) = 4.08173 5.10130 4.61973
#
# Compressibility (1/GPa) = 0.08427139
#
# Stress axis : x y z
#
# Youngs Moduli (GPa) = 35.84000 15.67863 64.58602
#
# Poissons Ratio (x) = -0.08996 -0.07102
# Poissons Ratio (y) = -0.20565 1.18094
# Poissons Ratio (z) = -0.03941 0.28668
#
# Static dielectric constant tensor:
#      x y z
#    x 1.729370 0.000000 0.000000 
#    y 0.000000 1.649960 0.000000 
#    z 0.000000 0.000000 1.687710 
# 
# From -- ./inp_files/30631.got.cif
#   From: 2010.05.17/outbox.cif.g08.bks.cpg/sg59_16_cif.got.tgz:30631.got - 2010.06.03 14:40:33.
