data_PCOD9449201
_publ_section_title
;
Structure prediction by ZEFSAII (Michael W. Deem and Ramdas Pophale) SiO2 
 PCOD9449201
Probable space group: P M M N
;
_chemical_formula_sum "Si O2"
_cell_formula_units_Z 64
_cell_length_a 8.756270
_cell_length_b 18.418463
_cell_length_c 22.226399
_cell_angle_alpha 90.000000
_cell_angle_beta 90.000000
_cell_angle_gamma 90.000000
_cell_volume 3584.607730
_symmetry_space_group_name_H-M "P M M N"
_symmetry_group_IT_number 59
_space_group.IT_coordinate_system_code '2'
_symmetry_cell_setting 'orthorhombic'
loop_
_space_group_symop_operation_xyz
x,y,z
1/2-x,1/2-y,z
1/2+x,-y,-z
-x,1/2+y,-z
-x,-y,-z
1/2+x,1/2+y,-z
1/2-x,y,z
x,1/2-y,z
loop_
_atom_site_type_symbol
_atom_site_label
_atom_site_fract_x
_atom_site_fract_y
_atom_site_fract_z
Si Si1 0.931886 0.550961 0.180517
Si Si2 0.932500 0.397265 0.243236
Si Si3 0.934187 0.666146 0.507273
Si Si4 0.565566 0.084827 0.377920
Si Si5 0.933039 0.165479 0.730852
Si Si6 0.434688 0.415527 0.614761
Si Si7 0.933776 0.669816 0.873990
Si Si8 0.566452 0.521253 0.935742
O O1 0.750000 0.557783 0.173928
O O2 0.961399 0.480702 0.223178
O O3 0.999957 0.620791 0.213151
O O4 0.006640 0.531853 0.116681
O O5 0.750000 0.385961 0.240089
O O6 0.982860 0.387365 0.311936
O O7 0.011522 0.347601 0.193522
O O8 0.750000 0.664123 0.509865
O O9 0.981962 0.750000 0.501760
O O10 0.980912 0.621150 0.448150
O O11 0.999192 0.630376 0.567366
O O12 0.750000 0.087856 0.379913
O O13 0.521308 0.000149 0.383652
O O14 0.750000 0.160953 0.731740
O O15 0.977929 0.250000 0.732166
O O16 0.995167 0.127680 0.670493
O O17 0.250000 0.411973 0.619885
O O18 0.750000 0.669432 0.874655
O O19 0.986926 0.750000 0.892634
O O20 0.984399 0.602424 0.915380
O O21 0.750000 0.519563 0.937301
O O22 0.500000 0.500000 0.000000
#
# Coordination Sequence:
#
# PCOD9449201 Si02
#       8
#     8   8   8   8   8   8   8   8
#     4  10  19  36  59  81 110 146 184 225 268 324
#     4   9  18  33  53  79 107 136 176 222 269 323
#     4  10  22  37  52  74 104 140 183 229 278 334
#     4  10  20  35  55  79 105 137 180 228 276 331
#     4  11  23  36  54  84 116 143 178 227 281 334
#     4  10  20  38  59  77 102 140 186 230 275 333
#     4   9  19  35  55  81 112 145 183 225 268 319
#     4  10  20  36  59  86 115 151 192 233 275 323
#
# _framework density 17.854116000000001
#
# number of rings (size 3 to 8) (size 9 to 14) (size 15 to 20)
#    0.000    2.125    1.250    1.875    0.000    5.000 
#    0.000    3.125    0.000    2.250    0.000    0.000 
#    0.000    0.000    0.000    0.000    0.000    0.000 
#
# Total GULP energy -357296.965420 kJ/mol
# GULP energy per Si atom -5582.765085 kJ/mol
# Density = 1.781348 g / cm^3
# Si number density = 17.854116 Si / 1000 Ang^3
#
#
#
# Elastic Constant Matrix: (Units=GPa)
#
#
# Indices 1 2 3 4 5 6 
#
# 1 15.0636 13.2934 25.2056 0.0000 0.0000 0.0000
# 2 13.2934 81.1128 54.4811 0.0000 0.0000 0.0000
# 3 25.2056 54.4811 155.5772 0.0000 0.0000 0.0000
# 4 0.0000 0.0000 0.0000 15.4505 0.0000 0.0000
# 5 0.0000 0.0000 0.0000 0.0000 35.1791 0.0000
# 6 0.0000 0.0000 0.0000 0.0000 0.0000 23.9419
#
#
#
# Elastic Compliance Matrix: (Units=1/GPa)
#
#
# Indices 1 2 3 4 5 6 
#
# 1 0.093823 -0.006756 -0.012835 0.000000 0.000000 0.000000
# 2 -0.006756 0.016607 -0.004721 0.000000 0.000000 0.000000
# 3 -0.012835 -0.004721 0.010160 0.000000 0.000000 0.000000
# 4 0.000000 0.000000 0.000000 0.064723 0.000000 0.000000
# 5 0.000000 0.000000 0.000000 0.000000 0.028426 0.000000
# 6 0.000000 0.000000 0.000000 0.000000 0.000000 0.041768
#
#
# Mechanical properties :
#
#
# Convention : Reuss Voigt Hill
#
# Bulk Modulus (GPa) = 13.89521 48.63487 31.26504
# Shear Modulus (GPa) = 15.23839 25.49920 20.36879
#
# Velocity S-wave (km/s) = 2.92463 3.78325 3.38131
# Velocity P-wave (km/s) = 4.38226 6.81052 5.72658
#
# Compressibility (1/GPa) = 0.07196723
#
# Stress axis : x y z
#
# Youngs Moduli (GPa) = 10.65834 60.21712 98.42234
#
# Poissons Ratio (x) = 0.40681 1.26324
# Poissons Ratio (y) = 0.07200 0.46464
# Poissons Ratio (z) = 0.13680 0.28428
#
# Static dielectric constant tensor:
#      x y z
#    x 1.602900 0.000000 0.000000 
#    y 0.000000 1.609220 0.000000 
#    z 0.000000 0.000000 1.578430 
# 
# From -- ./inp_files/29604.got.cif
#   From: 2010.05.17/outbox.cif.g08.bks.cpg/sg59_15_cif.got.tgz:29604.got - 2010.06.03 14:40:33.
