data_PCOD9449998
_publ_section_title
;
Structure prediction by ZEFSAII (Michael W. Deem and Ramdas Pophale) SiO2 
 PCOD9449998
Probable space group: P M M N
;
_chemical_formula_sum "Si O2"
_cell_formula_units_Z 56
_cell_length_a 18.586624
_cell_length_b 8.620420
_cell_length_c 19.611754
_cell_angle_alpha 90.000000
_cell_angle_beta 90.000000
_cell_angle_gamma 90.000000
_cell_volume 3142.283582
_symmetry_space_group_name_H-M "P M M N"
_symmetry_group_IT_number 59
_space_group.IT_coordinate_system_code '2'
_symmetry_cell_setting 'orthorhombic'
loop_
_space_group_symop_operation_xyz
x,y,z
1/2-x,1/2-y,z
1/2+x,-y,-z
-x,1/2+y,-z
-x,-y,-z
1/2+x,1/2+y,-z
1/2-x,y,z
x,1/2-y,z
loop_
_atom_site_type_symbol
_atom_site_label
_atom_site_fract_x
_atom_site_fract_y
_atom_site_fract_z
Si Si1 0.577300 0.433418 0.404137
Si Si2 0.575597 0.064875 0.649938
Si Si3 0.327472 0.063130 0.875167
Si Si4 0.525588 0.936446 0.782474
Si Si5 0.124451 0.067237 0.729241
Si Si6 0.833458 0.564029 0.530133
Si Si7 0.477815 0.565832 0.927416
O O1 0.567978 0.250000 0.411405
O O2 0.499653 0.506480 0.384710
O O3 0.629548 0.472823 0.340317
O O4 0.613596 0.504011 0.470936
O O5 0.572841 0.250000 0.655205
O O6 0.582073 0.989912 0.725433
O O7 0.638731 0.009771 0.600332
O O8 0.250000 0.016318 0.904394
O O9 0.333992 0.250000 0.879910
O O10 0.328183 0.025419 0.794446
O O11 0.397554 0.989822 0.908562
O O12 0.514884 0.750000 0.776500
O O13 0.529675 0.975167 0.862851
O O14 0.454952 0.028147 0.757411
O O15 0.132060 0.250000 0.714602
O O16 0.750000 0.523464 0.516315
O O17 0.838966 0.750000 0.534031
O O18 0.477910 0.750000 0.931594
O O19 0.500000 0.500000 0.000000
#
# Coordination Sequence:
#
# PCOD9449998 Si02
#       7
#     8   8   8   8   8   8   8
#     4  11  21  34  53  77 106 137 174 217 259 307
#     4  11  21  35  57  80 103 133 172 216 260 309
#     4   9  18  32  50  73 104 141 176 210 252 306
#     4   9  17  31  51  76 102 129 165 205 248 297
#     4   9  16  28  47  72 101 133 169 205 247 299
#     4  11  24  40  55  72  99 135 174 219 271 320
#     4  10  20  33  53  80 109 140 173 213 256 302
#
# _framework density 17.821432999999999
#
# number of rings (size 3 to 8) (size 9 to 14) (size 15 to 20)
#    0.000    2.000    0.000    6.429    0.000    4.286 
#    0.000    1.429    0.000    0.857    0.000    6.000 
#    0.000    0.000    0.000    0.000    0.000    0.000 
#
# Total GULP energy -312207.077363 kJ/mol
# GULP energy per Si atom -5575.126381 kJ/mol
# Density = 1.778087 g / cm^3
# Si number density = 17.821433 Si / 1000 Ang^3
#
#
#
# Elastic Constant Matrix: (Units=GPa)
#
#
# Indices 1 2 3 4 5 6 
#
# 1 30.5389 18.5799 18.9531 0.0000 0.0000 0.0000
# 2 18.5799 65.1572 29.8177 0.0000 0.0000 0.0000
# 3 18.9531 29.8177 118.5112 0.0000 0.0000 0.0000
# 4 0.0000 0.0000 0.0000 32.3563 0.0000 0.0000
# 5 0.0000 0.0000 0.0000 0.0000 13.1060 0.0000
# 6 0.0000 0.0000 0.0000 0.0000 0.0000 17.5070
#
#
#
# Elastic Compliance Matrix: (Units=1/GPa)
#
#
# Indices 1 2 3 4 5 6 
#
# 1 0.041323 -0.009899 -0.004118 0.000000 0.000000 0.000000
# 2 -0.009899 0.019716 -0.003377 0.000000 0.000000 0.000000
# 3 -0.004118 -0.003377 0.009946 0.000000 0.000000 0.000000
# 4 0.000000 0.000000 0.000000 0.030906 0.000000 0.000000
# 5 0.000000 0.000000 0.000000 0.000000 0.076301 0.000000
# 6 0.000000 0.000000 0.000000 0.000000 0.000000 0.057120
#
#
# Mechanical properties :
#
#
# Convention : Reuss Voigt Hill
#
# Bulk Modulus (GPa) = 27.62696 38.76764 33.19730
# Shear Modulus (GPa) = 17.72001 22.38432 20.05217
#
# Velocity S-wave (km/s) = 3.15669 3.54790 3.35800
# Velocity P-wave (km/s) = 5.36861 6.21161 5.80543
#
# Compressibility (1/GPa) = 0.03619653
#
# Stress axis : x y z
#
# Youngs Moduli (GPa) = 24.19934 50.72057 100.53901
#
# Poissons Ratio (x) = 0.50209 0.41403
# Poissons Ratio (y) = 0.23955 0.33956
# Poissons Ratio (z) = 0.09966 0.17131
#
# Static dielectric constant tensor:
#      x y z
#    x 1.593880 0.000000 0.000000 
#    y 0.000000 1.597270 0.000000 
#    z 0.000000 0.000000 1.647810 
# 
# From -- ./inp_files/30633.got.cif
#   From: 2010.05.17/outbox.cif.g08.bks.cpg/sg59_16_cif.got.tgz:30633.got - 2010.06.03 14:40:33.
