data_PCOD9449642
_publ_section_title
;
Structure prediction by ZEFSAII (Michael W. Deem and Ramdas Pophale) SiO2 
 PCOD9449642
Probable space group: P M M N
;
_chemical_formula_sum "Si O2"
_cell_formula_units_Z 64
_cell_length_a 14.972907
_cell_length_b 9.194532
_cell_length_c 22.120465
_cell_angle_alpha 90.000000
_cell_angle_beta 90.000000
_cell_angle_gamma 90.000000
_cell_volume 3045.299477
_symmetry_space_group_name_H-M "P M M N"
_symmetry_group_IT_number 59
_space_group.IT_coordinate_system_code '2'
_symmetry_cell_setting 'orthorhombic'
loop_
_space_group_symop_operation_xyz
x,y,z
1/2-x,1/2-y,z
1/2+x,-y,-z
-x,1/2+y,-z
-x,-y,-z
1/2+x,1/2+y,-z
1/2-x,y,z
x,1/2-y,z
loop_
_atom_site_type_symbol
_atom_site_label
_atom_site_fract_x
_atom_site_fract_y
_atom_site_fract_z
Si Si1 0.892127 0.584691 0.817470
Si Si2 0.097269 0.574665 0.433373
Si Si3 0.143123 0.086945 0.945048
Si Si4 0.097428 0.924563 0.563490
Si Si5 0.406106 0.574059 0.694100
Si Si6 0.607245 0.414218 0.175922
Si Si7 0.143653 0.587849 0.060266
Si Si8 0.399607 0.924215 0.302001
O O1 0.859607 0.750000 0.817765
O O2 0.869392 0.504028 0.879264
O O3 0.860808 0.500874 0.757368
O O4 0.000099 0.588916 0.816275
O O5 0.087007 0.750000 0.431727
O O6 0.140197 0.536582 0.498506
O O7 0.139551 0.536895 0.368338
O O8 0.999754 0.500161 0.435162
O O9 0.250000 0.094873 0.952608
O O10 0.107283 0.250000 0.948284
O O11 0.127326 0.016954 0.879861
O O12 0.107645 0.990274 0.000306
O O13 0.085748 0.750000 0.562246
O O14 0.139283 0.956746 0.629246
O O15 0.424792 0.750000 0.696108
O O16 0.358109 0.541702 0.757545
O O17 0.498123 0.482617 0.694367
O O18 0.637847 0.250000 0.161924
O O19 0.250000 0.599803 0.051878
O O20 0.106912 0.750000 0.067623
O O21 0.396869 0.750000 0.294365
#
# Coordination Sequence:
#
# PCOD9449642 Si02
#       8
#     8   8   8   8   8   8   8   8
#     4  10  20  33  49  70  96 125 156 188 224 269
#     4   8  13  19  29  48  74 107 146 183 220 262
#     4  10  21  36  53  72  93 119 151 186 226 272
#     4   8  12  19  31  47  72 108 146 182 220 262
#     4   8  14  24  37  55  82 115 150 186 225 269
#     4   9  18  31  47  69  95 124 157 190 226 268
#     4  10  21  37  56  75  94 118 148 183 225 271
#     4   9  15  23  36  56  84 116 150 187 226 267
#
# _framework density 21.015996999999999
#
# number of rings (size 3 to 8) (size 9 to 14) (size 15 to 20)
#    0.000    3.000    0.000    2.250    0.000    5.000 
#    0.000    0.000    0.000    0.000    0.000    0.000 
#    0.000    1.000    0.000    8.250    0.000    4.750 
#
# Total GULP energy -356454.891087 kJ/mol
# GULP energy per Si atom -5569.607673 kJ/mol
# Density = 2.096816 g / cm^3
# Si number density = 21.015997 Si / 1000 Ang^3
#
#
#
# Elastic Constant Matrix: (Units=GPa)
#
#
# Indices 1 2 3 4 5 6 
#
# 1 51.3220 6.4046 3.7538 0.0000 0.0000 0.0000
# 2 6.4046 101.5320 97.7421 0.0000 0.0000 0.0000
# 3 3.7538 97.7421 254.2923 0.0000 0.0000 0.0000
# 4 0.0000 0.0000 0.0000 30.4758 0.0000 0.0000
# 5 0.0000 0.0000 0.0000 0.0000 47.1715 0.0000
# 6 0.0000 0.0000 0.0000 0.0000 0.0000 4.5546
#
#
#
# Elastic Compliance Matrix: (Units=1/GPa)
#
#
# Indices 1 2 3 4 5 6 
#
# 1 0.019653 -0.001525 0.000296 0.000000 0.000000 0.000000
# 2 -0.001525 0.015752 -0.006032 0.000000 0.000000 0.000000
# 3 0.000296 -0.006032 0.006247 0.000000 0.000000 0.000000
# 4 0.000000 0.000000 0.000000 0.032813 0.000000 0.000000
# 5 0.000000 0.000000 0.000000 0.000000 0.021199 0.000000
# 6 0.000000 0.000000 0.000000 0.000000 0.000000 0.219556
#
#
# Mechanical properties :
#
#
# Convention : Reuss Voigt Hill
#
# Bulk Modulus (GPa) = 36.85864 69.21637 53.03751
# Shear Modulus (GPa) = 14.75858 36.39013 25.57435
#
# Velocity S-wave (km/s) = 2.65288 4.16570 3.49219
# Velocity P-wave (km/s) = 5.19232 7.49293 6.44609
#
# Compressibility (1/GPa) = 0.02713068
#
# Stress axis : x y z
#
# Youngs Moduli (GPa) = 50.88172 63.48272 160.08433
#
# Poissons Ratio (x) = 0.09678 -0.04737
# Poissons Ratio (y) = 0.07757 0.96566
# Poissons Ratio (z) = -0.01505 0.38294
#
# Static dielectric constant tensor:
#      x y z
#    x 1.799870 0.000000 0.000000 
#    y 0.000000 1.722870 0.000000 
#    z 0.000000 0.000000 1.820930 
# 
# From -- ./inp_files/31037.got.cif
#   From: 2010.05.17/outbox.cif.g08.bks.cpg/sg59_16_cif.got.tgz:31037.got - 2010.06.03 14:40:33.
