data_PCOD9449015
_publ_section_title
;
Structure prediction by ZEFSAII (Michael W. Deem and Ramdas Pophale) SiO2 
 PCOD9449015
Probable space group: P M M N
;
_chemical_formula_sum "Si O2"
_cell_formula_units_Z 64
_cell_length_a 24.305266
_cell_length_b 8.752797
_cell_length_c 15.854469
_cell_angle_alpha 90.000000
_cell_angle_beta 90.000000
_cell_angle_gamma 90.000000
_cell_volume 3372.864821
_symmetry_space_group_name_H-M "P M M N"
_symmetry_group_IT_number 59
_space_group.IT_coordinate_system_code '2'
_symmetry_cell_setting 'orthorhombic'
loop_
_space_group_symop_operation_xyz
x,y,z
1/2-x,1/2-y,z
1/2+x,-y,-z
-x,1/2+y,-z
-x,-y,-z
1/2+x,1/2+y,-z
1/2-x,y,z
x,1/2-y,z
loop_
_atom_site_type_symbol
_atom_site_label
_atom_site_fract_x
_atom_site_fract_y
_atom_site_fract_z
Si Si1 0.499172 0.565832 0.905922
Si Si2 0.623221 0.066060 0.346682
Si Si3 0.386759 0.931790 0.342665
Si Si4 0.500066 0.933033 0.594272
Si Si5 0.117215 0.434501 0.164731
Si Si6 0.814358 0.932721 0.506095
Si Si7 0.879736 0.434438 0.157335
Si Si8 0.686454 0.565740 0.000211
O O1 0.499642 0.750000 0.911313
O O2 0.554463 0.520545 0.857286
O O3 0.442965 0.519135 0.860161
O O4 0.500000 0.500000 0.000000
O O5 0.629476 0.250000 0.353501
O O6 0.558824 0.032209 0.363936
O O7 0.637435 0.018424 0.251405
O O8 0.659565 0.988137 0.418219
O O9 0.388741 0.750000 0.345394
O O10 0.447959 0.998256 0.357214
O O11 0.365864 0.990480 0.252388
O O12 0.348695 0.992581 0.418161
O O13 0.505965 0.750000 0.591122
O O14 0.500000 0.000000 0.500000
O O15 0.119458 0.250000 0.173226
O O16 0.154294 0.479607 0.084778
O O17 0.750000 0.973859 0.510736
O O18 0.819359 0.750000 0.512315
O O19 0.877862 0.250000 0.154565
O O20 0.842851 0.499435 0.082572
O O21 0.750000 0.519175 0.996409
O O22 0.683867 0.750000 0.004672
#
# Coordination Sequence:
#
# PCOD9449015 Si02
#       8
#     8   8   8   8   8   8   8   8
#     4  10  19  34  59  88 119 155 195 240 296 355
#     4  10  22  40  63  90 122 160 200 245 300 359
#     4  12  25  40  62  93 125 160 199 247 303 364
#     4  11  21  37  63  93 126 161 198 244 301 363
#     4  10  21  39  61  86 120 159 198 248 300 356
#     4  11  25  44  65  88 117 157 204 255 307 359
#     4  10  21  37  59  88 121 156 194 241 295 355
#     4  10  22  40  61  85 115 155 202 249 298 353
#
# _framework density 18.974965999999998
#
# number of rings (size 3 to 8) (size 9 to 14) (size 15 to 20)
#    0.000    1.500    2.500    2.625    0.000    6.250 
#    0.000    5.000    0.000    0.000    0.000    0.000 
#    0.000    0.000    0.000    0.000    0.000    0.000 
#
# Total GULP energy -357748.482821 kJ/mol
# GULP energy per Si atom -5589.820044 kJ/mol
# Density = 1.893178 g / cm^3
# Si number density = 18.974966 Si / 1000 Ang^3
#
#
#
# Elastic Constant Matrix: (Units=GPa)
#
#
# Indices 1 2 3 4 5 6 
#
# 1 119.7934 39.4982 58.7376 0.0000 0.0000 0.0000
# 2 39.4982 38.0850 38.1621 0.0000 0.0000 0.0000
# 3 58.7376 38.1621 164.0593 0.0000 0.0000 0.0000
# 4 0.0000 0.0000 0.0000 35.9475 0.0000 0.0000
# 5 0.0000 0.0000 0.0000 0.0000 -3.1908 0.0000
# 6 0.0000 0.0000 0.0000 0.0000 0.0000 26.1675
#
#
#
# Elastic Compliance Matrix: (Units=1/GPa)
#
#
# Indices 1 2 3 4 5 6 
#
# 1 0.013173 -0.011652 -0.002006 0.000000 0.000000 0.000000
# 2 -0.011652 0.044544 -0.006190 0.000000 0.000000 0.000000
# 3 -0.002006 -0.006190 0.008253 0.000000 0.000000 0.000000
# 4 0.000000 0.000000 0.000000 0.027818 0.000000 0.000000
# 5 0.000000 0.000000 0.000000 0.000000 -0.313405 0.000000
# 6 0.000000 0.000000 0.000000 0.000000 0.000000 0.038215
#
#
# Mechanical properties :
#
#
# Convention : Reuss Voigt Hill
#
# Bulk Modulus (GPa) = 38.05908 66.08149 52.07029
# Shear Modulus (GPa) = -37.60877 24.15416 -6.72730
#
# Velocity S-wave (km/s) = -4.45682 3.57171 -1.88495
# Velocity P-wave (km/s) = 2.52651 7.20491 4.77114
#
# Compressibility (1/GPa) = 0.02627494
#
# Stress axis : x y z
#
# Youngs Moduli (GPa) = 75.91202 22.44994 121.16330
#
# Poissons Ratio (x) = 0.26159 0.24305
# Poissons Ratio (y) = 0.88452 0.74996
# Poissons Ratio (z) = 0.15228 0.13896
#
# Static dielectric constant tensor:
#      x y z
#    x 1.646340 0.000000 0.000000 
#    y 0.000000 1.642220 0.000000 
#    z 0.000000 0.000000 1.637450 
# 
# From -- ./inp_files/24672.got.cif
#   From: 2010.05.17/outbox.cif.g08.bks.cpg/sg59_13_cif.got.tgz:24672.got - 2010.06.03 14:40:33.
