data_PCOD9449398
_publ_section_title
;
Structure prediction by ZEFSAII (Michael W. Deem and Ramdas Pophale) SiO2 
 PCOD9449398
Probable space group: P M M N
;
_chemical_formula_sum "Si O2"
_cell_formula_units_Z 64
_cell_length_a 24.044985
_cell_length_b 7.553526
_cell_length_c 16.376024
_cell_angle_alpha 90.000000
_cell_angle_beta 90.000000
_cell_angle_gamma 90.000000
_cell_volume 2974.285851
_symmetry_space_group_name_H-M "P M M N"
_symmetry_group_IT_number 59
_space_group.IT_coordinate_system_code '2'
_symmetry_cell_setting 'orthorhombic'
loop_
_space_group_symop_operation_xyz
x,y,z
1/2-x,1/2-y,z
1/2+x,-y,-z
-x,1/2+y,-z
-x,-y,-z
1/2+x,1/2+y,-z
1/2-x,y,z
x,1/2-y,z
loop_
_atom_site_type_symbol
_atom_site_label
_atom_site_fract_x
_atom_site_fract_y
_atom_site_fract_z
Si Si1 0.408106 0.455732 0.039402
Si Si2 0.610208 0.949766 0.688187
Si Si3 0.186151 0.541951 0.456500
Si Si4 0.687136 0.535546 0.360133
Si Si5 0.022289 0.034141 0.883642
Si Si6 0.184843 0.032618 0.160235
Si Si7 0.585064 0.955314 0.273228
Si Si8 0.998313 0.961711 0.596486
O O1 0.396895 0.250000 0.022296
O O2 0.459553 0.470097 0.102557
O O3 0.351874 0.525247 0.081552
O O4 0.436664 0.527921 0.956713
O O5 0.596047 0.750000 0.715029
O O6 0.647953 0.026708 0.761325
O O7 0.554083 0.032509 0.650170
O O8 0.649661 0.944423 0.609307
O O9 0.250000 0.481310 0.452708
O O10 0.184063 0.750000 0.437240
O O11 0.167495 0.516463 0.549437
O O12 0.750000 0.472167 0.350358
O O13 0.687450 0.750000 0.357764
O O14 0.645355 0.467604 0.291629
O O15 0.019246 0.250000 0.886478
O O16 0.047806 0.969825 0.798905
O O17 0.250000 0.977528 0.162048
O O18 0.185683 0.250000 0.161562
O O19 0.593081 0.750000 0.250958
O O20 0.552102 0.966563 0.357752
O O21 0.997309 0.750000 0.603502
O O22 0.000000 0.000000 0.500000
#
# Coordination Sequence:
#
# PCOD9449398 Si02
#       8
#     8   8   8   8   8   8   8   8
#     4   9  17  32  53  76 101 129 164 202 244 299
#     4  10  20  33  49  69  95 130 170 205 243 297
#     4  10  20  32  47  69  95 123 160 205 246 283
#     4   9  18  33  51  68  90 124 162 197 236 287
#     4   9  18  32  52  77 103 130 161 203 251 295
#     4   9  17  30  50  75 101 130 166 208 250 296
#     4  10  20  34  51  73 100 129 163 202 246 295
#     4  11  23  36  51  74 103 136 172 212 257 302
#
# _framework density 21.517771
#
# number of rings (size 3 to 8) (size 9 to 14) (size 15 to 20)
#    0.000    2.375    0.000    2.625    0.000    7.250 
#    0.000    1.250    0.000    4.875    0.000    0.000 
#    0.000    3.000    0.000    0.000    0.000    0.000 
#
# Total GULP energy -357035.867574 kJ/mol
# GULP energy per Si atom -5578.685431 kJ/mol
# Density = 2.146880 g / cm^3
# Si number density = 21.517771 Si / 1000 Ang^3
#
#
#
# Elastic Constant Matrix: (Units=GPa)
#
#
# Indices 1 2 3 4 5 6 
#
# 1 108.8778 -7.7430 43.3246 0.0000 0.0000 0.0000
# 2 -7.7430 56.0481 -11.5695 0.0000 0.0000 0.0000
# 3 43.3246 -11.5695 69.3975 0.0000 0.0000 0.0000
# 4 0.0000 0.0000 0.0000 5.3009 0.0000 0.0000
# 5 0.0000 0.0000 0.0000 0.0000 36.9609 0.0000
# 6 0.0000 0.0000 0.0000 0.0000 0.0000 21.2576
#
#
#
# Elastic Compliance Matrix: (Units=1/GPa)
#
#
# Indices 1 2 3 4 5 6 
#
# 1 0.012221 0.000117 -0.007610 0.000000 0.000000 0.000000
# 2 0.000117 0.018479 0.003007 0.000000 0.000000 0.000000
# 3 -0.007610 0.003007 0.019662 0.000000 0.000000 0.000000
# 4 0.000000 0.000000 0.000000 0.188647 0.000000 0.000000
# 5 0.000000 0.000000 0.000000 0.000000 0.027056 0.000000
# 6 0.000000 0.000000 0.000000 0.000000 0.000000 0.047042
#
#
# Mechanical properties :
#
#
# Convention : Reuss Voigt Hill
#
# Bulk Modulus (GPa) = 24.15955 31.37197 27.76576
# Shear Modulus (GPa) = 14.88653 26.72463 20.80558
#
# Velocity S-wave (km/s) = 2.63311 3.52800 3.11288
# Velocity P-wave (km/s) = 4.52730 5.58631 5.08445
#
# Compressibility (1/GPa) = 0.04139150
#
# Stress axis : x y z
#
# Youngs Moduli (GPa) = 81.82546 54.11604 50.85952
#
# Poissons Ratio (x) = -0.00636 0.38704
# Poissons Ratio (y) = -0.00961 -0.15295
# Poissons Ratio (z) = 0.62269 -0.16274
#
# Static dielectric constant tensor:
#      x y z
#    x 1.819640 0.000000 0.000000 
#    y 0.000000 1.865370 0.000000 
#    z 0.000000 0.000000 1.770320 
# 
# From -- ./inp_files/24761.got.cif
#   From: 2010.05.17/outbox.cif.g08.bks.cpg/sg59_13_cif.got.tgz:24761.got - 2010.06.03 14:40:33.
