data_PCOD9449237
_publ_section_title
;
Structure prediction by ZEFSAII (Michael W. Deem and Ramdas Pophale) SiO2 
 PCOD9449237
Probable space group: P M M N
;
_chemical_formula_sum "Si O2"
_cell_formula_units_Z 56
_cell_length_a 14.257195
_cell_length_b 15.983267
_cell_length_c 12.094937
_cell_angle_alpha 90.000000
_cell_angle_beta 90.000000
_cell_angle_gamma 90.000000
_cell_volume 2756.152569
_symmetry_space_group_name_H-M "P M M N"
_symmetry_group_IT_number 59
_space_group.IT_coordinate_system_code '2'
_symmetry_cell_setting 'orthorhombic'
loop_
_space_group_symop_operation_xyz
x,y,z
1/2-x,1/2-y,z
1/2+x,-y,-z
-x,1/2+y,-z
-x,-y,-z
1/2+x,1/2+y,-z
1/2-x,y,z
x,1/2-y,z
loop_
_atom_site_type_symbol
_atom_site_label
_atom_site_fract_x
_atom_site_fract_y
_atom_site_fract_z
Si Si1 0.640293 0.010204 0.203390
Si Si2 0.146247 0.657160 0.377060
Si Si3 0.960818 0.096243 0.827654
Si Si4 0.637333 0.582673 0.821730
Si Si5 0.359231 0.157424 0.413531
Si Si6 0.106457 0.505896 0.538619
Si Si7 0.037715 0.843980 0.930191
O O1 0.750000 0.994677 0.180525
O O2 0.568124 0.935523 0.175284
O O3 0.625974 0.024808 0.334342
O O4 0.601199 0.089139 0.134829
O O5 0.250000 0.654613 0.323612
O O6 0.134963 0.750000 0.427238
O O7 0.068459 0.643001 0.283801
O O8 0.144768 0.581450 0.463811
O O9 0.895322 0.013277 0.829942
O O10 0.944624 0.146278 0.939633
O O11 0.750000 0.590713 0.835436
O O12 0.605353 0.616035 0.700357
O O13 0.571220 0.632813 0.905972
O O14 0.250000 0.168823 0.390538
O O15 0.400165 0.250000 0.436222
O O16 0.361365 0.087912 0.508549
O O17 0.000000 0.500000 0.500000
O O18 0.056316 0.750000 0.892832
#
# Coordination Sequence:
#
# PCOD9449237 Si02
#       7
#     8   8   8   8   8   8   8
#     4  11  24  42  66  93 129 176 222 268 333 400
#     4  11  23  40  66  98 129 168 220 273 327 389
#     4  11  22  42  65  90 127 171 218 275 329 386
#     4  10  19  36  64  92 123 162 212 269 327 391
#     4  10  20  35  59  91 124 160 207 259 310 375
#     4  12  22  41  65  93 134 177 212 266 328 387
#     4  11  25  42  61  91 129 168 218 275 331 394
#
# _framework density 20.318176999999999
#
# number of rings (size 3 to 8) (size 9 to 14) (size 15 to 20)
#    0.000    1.143    2.857    5.143    0.000    5.143 
#    0.000    0.000    0.000    2.143    0.000    0.000 
#    0.000    0.000    0.000    0.000    0.000    0.000 
#
# Total GULP energy -312544.553297 kJ/mol
# GULP energy per Si atom -5581.152737 kJ/mol
# Density = 2.027193 g / cm^3
# Si number density = 20.318177 Si / 1000 Ang^3
#
#
#
# Elastic Constant Matrix: (Units=GPa)
#
#
# Indices 1 2 3 4 5 6 
#
# 1 117.9604 24.7895 6.6135 0.0000 0.0000 0.0000
# 2 24.7895 107.2586 19.2756 0.0000 0.0000 0.0000
# 3 6.6135 19.2756 85.7167 0.0000 0.0000 0.0000
# 4 0.0000 0.0000 0.0000 -14.8984 0.0000 0.0000
# 5 0.0000 0.0000 0.0000 0.0000 13.0816 0.0000
# 6 0.0000 0.0000 0.0000 0.0000 0.0000 6.2138
#
#
#
# Elastic Compliance Matrix: (Units=1/GPa)
#
#
# Indices 1 2 3 4 5 6 
#
# 1 0.008915 -0.002018 -0.000234 0.000000 0.000000 0.000000
# 2 -0.002018 0.010173 -0.002132 0.000000 0.000000 0.000000
# 3 -0.000234 -0.002132 0.012164 0.000000 0.000000 0.000000
# 4 0.000000 0.000000 0.000000 -0.067121 0.000000 0.000000
# 5 0.000000 0.000000 0.000000 0.000000 0.076443 0.000000
# 6 0.000000 0.000000 0.000000 0.000000 0.000000 0.160931
#
#
# Mechanical properties :
#
#
# Convention : Reuss Voigt Hill
#
# Bulk Modulus (GPa) = 44.47800 45.81031 45.14415
# Shear Modulus (GPa) = 22.96030 18.22989 20.59509
#
# Velocity S-wave (km/s) = 3.36525 2.99861 3.18721
# Velocity P-wave (km/s) = 6.08590 5.88084 5.98425
#
# Compressibility (1/GPa) = 0.02248303
#
# Stress axis : x y z
#
# Youngs Moduli (GPa) = 112.17445 98.30078 82.21116
#
# Poissons Ratio (x) = 0.19840 0.01923
# Poissons Ratio (y) = 0.22640 0.17527
# Poissons Ratio (z) = 0.02624 0.20957
#
# Static dielectric constant tensor:
#      x y z
#    x 1.759070 0.000000 0.000000 
#    y 0.000000 1.809090 0.000000 
#    z 0.000000 0.000000 1.718310 
# 
# From -- ./inp_files/16908.got.cif
#   From: 2010.05.17/outbox.cif.g08.bks.cpg/sg59_9_cif.got.tgz:16908.got - 2010.06.03 14:40:33.
