data_PCOD9449279
_publ_section_title
;
Structure prediction by ZEFSAII (Michael W. Deem and Ramdas Pophale) SiO2 
 PCOD9449279
Probable space group: P M M N
;
_chemical_formula_sum "Si O2"
_cell_formula_units_Z 64
_cell_length_a 18.707168
_cell_length_b 7.454757
_cell_length_c 22.835597
_cell_angle_alpha 90.000000
_cell_angle_beta 90.000000
_cell_angle_gamma 90.000000
_cell_volume 3184.592793
_symmetry_space_group_name_H-M "P M M N"
_symmetry_group_IT_number 59
_space_group.IT_coordinate_system_code '2'
_symmetry_cell_setting 'orthorhombic'
loop_
_space_group_symop_operation_xyz
x,y,z
1/2-x,1/2-y,z
1/2+x,-y,-z
-x,1/2+y,-z
-x,-y,-z
1/2+x,1/2+y,-z
1/2-x,y,z
x,1/2-y,z
loop_
_atom_site_type_symbol
_atom_site_label
_atom_site_fract_x
_atom_site_fract_y
_atom_site_fract_z
Si Si1 0.026689 0.964366 0.435035
Si Si2 0.170610 0.531127 0.375964
Si Si3 0.590744 0.458991 0.871684
Si Si4 0.901656 0.469080 0.744186
Si Si5 0.085133 0.535681 0.001864
Si Si6 0.953985 0.965533 0.318396
Si Si7 0.422044 0.968561 0.874659
Si Si8 0.829977 0.037722 0.234748
O O1 0.029400 0.750000 0.429050
O O2 0.106307 0.029302 0.418211
O O3 0.973896 0.029747 0.383484
O O4 0.000000 0.000000 0.500000
O O5 0.250000 0.470118 0.391359
O O6 0.171003 0.750000 0.376981
O O7 0.149414 0.479554 0.309504
O O8 0.611854 0.250000 0.872470
O O9 0.616240 0.534404 0.809362
O O10 0.611704 0.536486 0.935380
O O11 0.504008 0.468331 0.869309
O O12 0.901859 0.250000 0.746113
O O13 0.981541 0.525758 0.724473
O O14 0.095748 0.750000 0.003523
O O15 0.109720 0.473620 0.937780
O O16 0.000000 0.500000 0.000000
O O17 0.956759 0.750000 0.318695
O O18 0.878084 0.015790 0.292229
O O19 0.424976 0.750000 0.874418
O O20 0.375049 0.033456 0.820412
O O21 0.750000 0.964487 0.239521
O O22 0.824122 0.250000 0.224399
#
# Coordination Sequence:
#
# PCOD9449279 Si02
#       8
#     8   8   8   8   8   8   8   8
#     4   9  18  32  52  76  98 122 151 180 215 258
#     4   8  14  26  45  69  95 120 146 176 212 258
#     4   9  14  22  39  61  83 107 139 180 225 267
#     4   8  13  22  40  64  87 111 140 178 220 258
#     4   8  14  22  34  54  78 105 136 174 219 266
#     4   9  17  31  48  66  89 116 148 184 223 265
#     4   9  16  26  38  54  81 112 145 185 227 271
#     4  10  20  31  43  61  86 119 158 197 236 275
#
# _framework density 20.09676
#
# number of rings (size 3 to 8) (size 9 to 14) (size 15 to 20)
#    0.000    3.250    1.250    1.500    0.000    0.750 
#    0.000    0.625    0.000    3.375    0.000    5.250 
#    0.000    0.000    0.000    8.125    0.000    7.500 
#
# Total GULP energy -356493.531564 kJ/mol
# GULP energy per Si atom -5570.211431 kJ/mol
# Density = 2.005102 g / cm^3
# Si number density = 20.096760 Si / 1000 Ang^3
#
#
#
# Elastic Constant Matrix: (Units=GPa)
#
#
# Indices 1 2 3 4 5 6 
#
# 1 86.5214 -4.1703 54.4098 0.0000 0.0000 0.0000
# 2 -4.1703 59.5982 -3.1047 0.0000 0.0000 0.0000
# 3 54.4098 -3.1047 171.7633 0.0000 0.0000 0.0000
# 4 0.0000 0.0000 0.0000 6.4164 0.0000 0.0000
# 5 0.0000 0.0000 0.0000 0.0000 15.7649 0.0000
# 6 0.0000 0.0000 0.0000 0.0000 0.0000 195.7736
#
#
#
# Elastic Compliance Matrix: (Units=1/GPa)
#
#
# Indices 1 2 3 4 5 6 
#
# 1 0.014469 0.000774 -0.004569 0.000000 0.000000 0.000000
# 2 0.000774 0.016836 0.000059 0.000000 0.000000 0.000000
# 3 -0.004569 0.000059 0.007270 0.000000 0.000000 0.000000
# 4 0.000000 0.000000 0.000000 0.155850 0.000000 0.000000
# 5 0.000000 0.000000 0.000000 0.000000 0.063432 0.000000
# 6 0.000000 0.000000 0.000000 0.000000 0.000000 0.005108
#
#
# Mechanical properties :
#
#
# Convention : Reuss Voigt Hill
#
# Bulk Modulus (GPa) = 32.15060 45.79474 38.97267
# Shear Modulus (GPa) = 17.80597 61.64087 39.72342
#
# Velocity S-wave (km/s) = 2.97982 5.54424 4.45073
# Velocity P-wave (km/s) = 5.27937 7.98883 6.77101
#
# Compressibility (1/GPa) = 0.03110362
#
# Stress axis : x y z
#
# Youngs Moduli (GPa) = 69.11531 59.39554 137.54325
#
# Poissons Ratio (x) = -0.04600 0.62847
# Poissons Ratio (y) = -0.05352 -0.00812
# Poissons Ratio (z) = 0.31580 -0.00351
#
# Static dielectric constant tensor:
#      x y z
#    x 1.685330 0.000000 0.000000 
#    y 0.000000 1.752200 0.000000 
#    z 0.000000 0.000000 1.755230 
# 
# From -- ./inp_files/32323.got.cif
#   From: 2010.05.17/outbox.cif.g08.bks.cpg/sg59_17_cif.got.tgz:32323.got - 2010.06.03 14:40:33.
