data_PCOD9449841
_publ_section_title
;
Structure prediction by ZEFSAII (Michael W. Deem and Ramdas Pophale) SiO2 
 PCOD9449841
Probable space group: P M M N
;
_chemical_formula_sum "Si O2"
_cell_formula_units_Z 40
_cell_length_a 8.434675
_cell_length_b 9.422037
_cell_length_c 26.420649
_cell_angle_alpha 90.000000
_cell_angle_beta 90.000000
_cell_angle_gamma 90.000000
_cell_volume 2099.697060
_symmetry_space_group_name_H-M "P M M N"
_symmetry_group_IT_number 59
_space_group.IT_coordinate_system_code '2'
_symmetry_cell_setting 'orthorhombic'
loop_
_space_group_symop_operation_xyz
x,y,z
1/2-x,1/2-y,z
1/2+x,-y,-z
-x,1/2+y,-z
-x,-y,-z
1/2+x,1/2+y,-z
1/2-x,y,z
x,1/2-y,z
loop_
_atom_site_type_symbol
_atom_site_label
_atom_site_fract_x
_atom_site_fract_y
_atom_site_fract_z
Si Si1 0.943135 0.413111 0.354450
Si Si2 0.941962 0.912710 0.451789
Si Si3 0.058539 0.584064 0.759986
Si Si4 0.560291 0.413145 0.048297
Si Si5 0.060590 0.913227 0.144497
O O1 0.750000 0.414415 0.354340
O O2 0.991622 0.250000 0.363828
O O3 0.996766 0.513675 0.399685
O O4 0.991596 0.453230 0.297423
O O5 0.750000 0.914388 0.451596
O O6 0.994994 0.750000 0.454754
O O7 0.000000 0.000000 0.500000
O O8 0.250000 0.574805 0.762463
O O9 0.016997 0.750000 0.768762
O O10 0.986943 0.484172 0.802508
O O11 0.750000 0.409652 0.046565
O O12 0.502105 0.250000 0.047595
O O13 0.508292 0.493063 0.099079
O O14 0.500000 0.500000 0.000000
O O15 0.250000 0.912896 0.139820
O O16 0.004345 0.750000 0.141437
#
# Coordination Sequence:
#
# PCOD9449841 Si02
#       5
#     8   8   8   8   8
#     4   8  15  30  52  76 103 135 172 217 267 318
#     4  10  20  33  51  76 104 136 176 219 265 320
#     4   9  18  34  57  83 107 135 176 222 268 321
#     4  11  24  41  62  88 115 144 182 225 268 318
#     4  11  24  39  55  80 114 149 185 223 264 314
#
# _framework density 19.050367000000001
#
# number of rings (size 3 to 8) (size 9 to 14) (size 15 to 20)
#    0.000    2.200    0.000    4.200    0.000   10.400 
#    0.000    3.000    0.000    1.200    0.000    0.000 
#    0.000    0.000    0.000    0.000    0.000    0.000 
#
# Total GULP energy -223381.798530 kJ/mol
# GULP energy per Si atom -5584.544963 kJ/mol
# Density = 1.900701 g / cm^3
# Si number density = 19.050367 Si / 1000 Ang^3
#
#
#
# Elastic Constant Matrix: (Units=GPa)
#
#
# Indices 1 2 3 4 5 6 
#
# 1 19.7773 31.7879 24.0128 0.0000 0.0000 0.0000
# 2 31.7879 183.1383 131.6327 0.0000 0.0000 0.0000
# 3 24.0128 131.6327 180.5051 0.0000 0.0000 0.0000
# 4 0.0000 0.0000 0.0000 42.5549 0.0000 0.0000
# 5 0.0000 0.0000 0.0000 0.0000 32.4327 0.0000
# 6 0.0000 0.0000 0.0000 0.0000 0.0000 25.7312
#
#
#
# Elastic Compliance Matrix: (Units=1/GPa)
#
#
# Indices 1 2 3 4 5 6 
#
# 1 0.070205 -0.011501 -0.000952 0.000000 0.000000 0.000000
# 2 -0.011501 0.013359 -0.008212 0.000000 0.000000 0.000000
# 3 -0.000952 -0.008212 0.011655 0.000000 0.000000 0.000000
# 4 0.000000 0.000000 0.000000 0.023499 0.000000 0.000000
# 5 0.000000 0.000000 0.000000 0.000000 0.030833 0.000000
# 6 0.000000 0.000000 0.000000 0.000000 0.000000 0.038863
#
#
# Mechanical properties :
#
#
# Convention : Reuss Voigt Hill
#
# Bulk Modulus (GPa) = 18.55682 84.25418 51.40550
# Shear Modulus (GPa) = 20.18493 33.20958 26.69725
#
# Velocity S-wave (km/s) = 3.25861 4.17976 3.74759
# Velocity P-wave (km/s) = 4.89082 8.22295 6.76524
#
# Compressibility (1/GPa) = 0.05388854
#
# Stress axis : x y z
#
# Youngs Moduli (GPa) = 14.24394 74.85436 85.79748
#
# Poissons Ratio (x) = 0.86093 0.08169
# Poissons Ratio (y) = 0.16383 0.70458
# Poissons Ratio (z) = 0.01356 0.61472
#
# Static dielectric constant tensor:
#      x y z
#    x 1.665170 0.000000 0.000000 
#    y 0.000000 1.649990 0.000000 
#    z 0.000000 0.000000 1.634660 
# 
# From -- ./inp_files/31118.got.cif
#   From: 2010.05.17/outbox.cif.g08.bks.cpg/sg59_16_cif.got.tgz:31118.got - 2010.06.03 14:40:33.
