data_PCOD9449426
_publ_section_title
;
Structure prediction by ZEFSAII (Michael W. Deem and Ramdas Pophale) SiO2 
 PCOD9449426
Probable space group: P M M N
;
_chemical_formula_sum "Si O2"
_cell_formula_units_Z 48
_cell_length_a 19.413508
_cell_length_b 14.628731
_cell_length_c 6.923331
_cell_angle_alpha 90.000000
_cell_angle_beta 90.000000
_cell_angle_gamma 90.000000
_cell_volume 1966.191292
_symmetry_space_group_name_H-M "P M M N"
_symmetry_group_IT_number 59
_space_group.IT_coordinate_system_code '2'
_symmetry_cell_setting 'orthorhombic'
loop_
_space_group_symop_operation_xyz
x,y,z
1/2-x,1/2-y,z
1/2+x,-y,-z
-x,1/2+y,-z
-x,-y,-z
1/2+x,1/2+y,-z
1/2-x,y,z
x,1/2-y,z
loop_
_atom_site_type_symbol
_atom_site_label
_atom_site_fract_x
_atom_site_fract_y
_atom_site_fract_z
Si Si1 0.433248 0.357391 0.022581
Si Si2 0.173078 0.056217 0.564322
Si Si3 0.324928 0.014943 0.129184
Si Si4 0.473265 0.102677 0.471037
Si Si5 0.081810 0.853003 0.076583
Si Si6 0.379824 0.849773 0.621609
O O1 0.419892 0.250000 0.996861
O O2 0.368769 0.422532 0.985586
O O3 0.452651 0.375041 0.248433
O O4 0.502407 0.382697 0.907991
O O5 0.250000 0.081851 0.642405
O O6 0.099228 0.110025 0.589187
O O7 0.180897 0.065576 0.332020
O O8 0.159432 0.946634 0.594282
O O9 0.250000 0.991981 0.053742
O O10 0.367495 0.924178 0.169643
O O11 0.546925 0.152489 0.492733
O O12 0.500000 0.000000 0.500000
O O13 0.090669 0.750000 0.141227
O O14 0.099988 0.852989 0.848531
O O15 0.345124 0.750000 0.587807
#
# Coordination Sequence:
#
# PCOD9449426 Si02
#       6
#     8   8   8   8   8   8
#     4   9  17  31  51  72  95 126 166 207 242 284
#     4   9  18  30  44  66  95 123 150 184 232 286
#     4  10  20  32  47  71 101 129 157 196 247 295
#     4   8  14  27  46  67  92 119 150 192 234 273
#     4   9  18  32  50  71  94 124 163 203 243 288
#     4   9  17  30  49  70  90 118 158 197 232 279
#
# _framework density 24.412680000000002
#
# number of rings (size 3 to 8) (size 9 to 14) (size 15 to 20)
#    0.000    3.000    0.000    2.000    0.000    2.333 
#    0.000    3.333    0.000    1.500    0.000   17.500 
#    0.000   10.667    0.000    0.000    0.000    0.000 
#
# Total GULP energy -267766.396957 kJ/mol
# GULP energy per Si atom -5578.466603 kJ/mol
# Density = 2.435712 g / cm^3
# Si number density = 24.412680 Si / 1000 Ang^3
#
#
#
# Elastic Constant Matrix: (Units=GPa)
#
#
# Indices 1 2 3 4 5 6 
#
# 1 172.6715 31.4683 6.4316 0.0000 0.0000 0.0000
# 2 31.4683 64.8252 -13.5365 0.0000 0.0000 0.0000
# 3 6.4316 -13.5365 62.8806 0.0000 0.0000 0.0000
# 4 0.0000 0.0000 0.0000 30.0144 0.0000 0.0000
# 5 0.0000 0.0000 0.0000 0.0000 26.7663 0.0000
# 6 0.0000 0.0000 0.0000 0.0000 0.0000 -21.6064
#
#
#
# Elastic Compliance Matrix: (Units=1/GPa)
#
#
# Indices 1 2 3 4 5 6 
#
# 1 0.006469 -0.003433 -0.001401 0.000000 0.000000 0.000000
# 2 -0.003433 0.017974 0.004220 0.000000 0.000000 0.000000
# 3 -0.001401 0.004220 0.016955 0.000000 0.000000 0.000000
# 4 0.000000 0.000000 0.000000 0.033317 0.000000 0.000000
# 5 0.000000 0.000000 0.000000 0.000000 0.037360 0.000000
# 6 0.000000 0.000000 0.000000 0.000000 0.000000 -0.046283
#
#
# Mechanical properties :
#
#
# Convention : Reuss Voigt Hill
#
# Bulk Modulus (GPa) = 24.89313 38.78932 31.84122
# Shear Modulus (GPa) = 62.18165 25.43582 43.80873
#
# Velocity S-wave (km/s) = 5.05236 3.23136 4.24076
# Velocity P-wave (km/s) = 6.65237 5.46313 6.08687
#
# Compressibility (1/GPa) = 0.04017172
#
# Stress axis : x y z
#
# Youngs Moduli (GPa) = 154.58051 55.63661 58.97976
#
# Poissons Ratio (x) = 0.19099 0.08261
# Poissons Ratio (y) = 0.53064 -0.24892
# Poissons Ratio (z) = 0.21652 -0.23481
#
# Static dielectric constant tensor:
#      x y z
#    x 2.011800 0.000000 0.000000 
#    y 0.000000 1.891310 0.000000 
#    z 0.000000 0.000000 2.185590 
# 
# From -- ./inp_files/11282.got.cif
#   From: 2010.05.17/outbox.cif.g08.bks.cpg/sg59_6_cif.got.tgz:11282.got - 2010.06.03 14:40:33.
