data_PCOD9449204
_publ_section_title
;
Structure prediction by ZEFSAII (Michael W. Deem and Ramdas Pophale) SiO2 
 PCOD9449204
Probable space group: P M M N
;
_chemical_formula_sum "Si O2"
_cell_formula_units_Z 56
_cell_length_a 15.342796
_cell_length_b 8.798831
_cell_length_c 22.405399
_cell_angle_alpha 90.000000
_cell_angle_beta 90.000000
_cell_angle_gamma 90.000000
_cell_volume 3024.699045
_symmetry_space_group_name_H-M "P M M N"
_symmetry_group_IT_number 59
_space_group.IT_coordinate_system_code '2'
_symmetry_cell_setting 'orthorhombic'
loop_
_space_group_symop_operation_xyz
x,y,z
1/2-x,1/2-y,z
1/2+x,-y,-z
-x,1/2+y,-z
-x,-y,-z
1/2+x,1/2+y,-z
1/2-x,y,z
x,1/2-y,z
loop_
_atom_site_type_symbol
_atom_site_label
_atom_site_fract_x
_atom_site_fract_y
_atom_site_fract_z
Si Si1 0.569759 0.433517 0.336363
Si Si2 0.750000 0.932343 0.384259
Si Si3 0.903858 0.432372 0.992283
Si Si4 0.347413 0.071251 0.886721
Si Si5 0.651558 0.433001 0.858144
Si Si6 0.986440 0.431798 0.203611
Si Si7 0.750000 0.565776 0.524359
Si Si8 0.055641 0.066058 0.444984
O O1 0.577986 0.250000 0.337467
O O2 0.662291 0.503885 0.354587
O O3 0.541186 0.479921 0.270024
O O4 0.495835 0.475972 0.384727
O O5 0.750000 0.750000 0.380683
O O6 0.750000 0.975854 0.454344
O O7 0.905831 0.250000 0.995835
O O8 0.851078 0.498341 0.047814
O O9 0.867826 0.474845 0.927174
O O10 0.000000 0.500000 0.000000
O O11 0.250000 0.053116 0.861920
O O12 0.367227 0.250000 0.891939
O O13 0.417626 0.994329 0.844262
O O14 0.750000 0.477044 0.842949
O O15 0.644279 0.250000 0.854709
O O16 0.580223 0.506802 0.815824
O O17 0.986595 0.250000 0.201350
O O18 0.750000 0.750000 0.527910
O O19 0.842911 0.515361 0.551872
O O20 0.055298 0.250000 0.449718
O O21 0.000000 0.000000 0.500000
#
# Coordination Sequence:
#
# PCOD9449204 Si02
#       8
#     8   4   8   8   8   8   4   8
#     4  10  23  40  58  86 121 158 196 241 296 349
#     4  11  21  35  61  93 119 153 196 235 286 355
#     4  11  21  36  61  90 119 152 192 240 300 357
#     4  11  24  40  59  86 118 154 196 242 296 354
#     4  10  22  41  64  87 115 154 197 244 300 357
#     4  11  24  41  60  85 117 157 201 245 293 350
#     4   9  18  33  57  89 117 149 190 235 288 347
#     4  10  19  36  59  84 117 151 189 238 290 342
#
# _framework density 18.514237999999999
#
# number of rings (size 3 to 8) (size 9 to 14) (size 15 to 20)
#    0.000    1.571    2.857    1.929    1.000    3.714 
#    1.286    0.357    0.000    0.000    0.000    0.000 
#    0.000    0.000    0.000    0.000    0.000    0.000 
#
# Total GULP energy -312830.194308 kJ/mol
# GULP energy per Si atom -5586.253470 kJ/mol
# Density = 1.847210 g / cm^3
# Si number density = 18.514238 Si / 1000 Ang^3
#
#
#
# Elastic Constant Matrix: (Units=GPa)
#
#
# Indices 1 2 3 4 5 6 
#
# 1 186.6457 46.5544 89.9231 0.0000 0.0000 0.0000
# 2 46.5544 30.2548 35.7277 0.0000 0.0000 0.0000
# 3 89.9231 35.7277 126.5927 0.0000 0.0000 0.0000
# 4 0.0000 0.0000 0.0000 23.8795 0.0000 0.0000
# 5 0.0000 0.0000 0.0000 0.0000 4.5602 0.0000
# 6 0.0000 0.0000 0.0000 0.0000 0.0000 21.1087
#
#
#
# Elastic Compliance Matrix: (Units=1/GPa)
#
#
# Indices 1 2 3 4 5 6 
#
# 1 0.009946 -0.010442 -0.004118 0.000000 0.000000 0.000000
# 2 -0.010442 0.060536 -0.009668 0.000000 0.000000 0.000000
# 3 -0.004118 -0.009668 0.013553 0.000000 0.000000 0.000000
# 4 0.000000 0.000000 0.000000 0.041877 0.000000 0.000000
# 5 0.000000 0.000000 0.000000 0.000000 0.219288 0.000000
# 6 0.000000 0.000000 0.000000 0.000000 0.000000 0.047374
#
#
# Mechanical properties :
#
#
# Convention : Reuss Voigt Hill
#
# Bulk Modulus (GPa) = 28.10544 76.43372 52.26958
# Shear Modulus (GPa) = 11.04021 21.32890 16.18456
#
# Velocity S-wave (km/s) = 2.44459 3.39783 2.95984
# Velocity P-wave (km/s) = 4.81471 7.53439 6.32252
#
# Compressibility (1/GPa) = 0.03558031
#
# Stress axis : x y z
#
# Youngs Moduli (GPa) = 100.54005 16.51904 73.78306
#
# Poissons Ratio (x) = 0.17248 0.30386
# Poissons Ratio (y) = 1.04979 0.71333
# Poissons Ratio (z) = 0.41406 0.15970
#
# Static dielectric constant tensor:
#      x y z
#    x 1.649390 0.000000 0.000000 
#    y 0.000000 1.621620 0.000000 
#    z 0.000000 0.000000 1.618490 
# 
# From -- ./inp_files/30468.got.cif
#   From: 2010.05.17/outbox.cif.g08.bks.cpg/sg59_16_cif.got.tgz:30468.got - 2010.06.03 14:40:33.
