data_PCOD9449514
_publ_section_title
;
Structure prediction by ZEFSAII (Michael W. Deem and Ramdas Pophale) SiO2 
 PCOD9449514
Probable space group: P M M N
;
_chemical_formula_sum "Si O2"
_cell_formula_units_Z 56
_cell_length_a 9.019720
_cell_length_b 13.867761
_cell_length_c 25.952801
_cell_angle_alpha 90.000000
_cell_angle_beta 90.000000
_cell_angle_gamma 90.000000
_cell_volume 3246.262545
_symmetry_space_group_name_H-M "P M M N"
_symmetry_group_IT_number 59
_space_group.IT_coordinate_system_code '2'
_symmetry_cell_setting 'orthorhombic'
loop_
_space_group_symop_operation_xyz
x,y,z
1/2-x,1/2-y,z
1/2+x,-y,-z
-x,1/2+y,-z
-x,-y,-z
1/2+x,1/2+y,-z
1/2-x,y,z
x,1/2-y,z
loop_
_atom_site_type_symbol
_atom_site_label
_atom_site_fract_x
_atom_site_fract_y
_atom_site_fract_z
Si Si1 0.927287 0.439301 0.424233
Si Si2 0.923678 0.989977 0.054951
Si Si3 0.071021 0.361250 0.849620
Si Si4 0.072429 0.140645 0.527606
Si Si5 0.076941 0.484647 0.222323
Si Si6 0.570426 0.638117 0.680110
Si Si7 0.916075 0.863669 0.879410
O O1 0.750000 0.428600 0.421293
O O2 0.962056 0.553166 0.433261
O O3 0.988925 0.384651 0.474651
O O4 0.003163 0.396374 0.373773
O O5 0.750000 0.975473 0.047244
O O6 0.960782 0.087060 0.085909
O O7 0.977512 0.907823 0.095477
O O8 0.000000 0.000000 0.000000
O O9 0.250000 0.366638 0.848468
O O10 0.026248 0.250000 0.845952
O O11 0.008246 0.425640 0.802980
O O12 0.250000 0.136376 0.518172
O O13 0.036652 0.250000 0.544381
O O14 0.250000 0.511022 0.228932
O O15 0.022143 0.435554 0.274836
O O16 0.069731 0.402387 0.178442
O O17 0.750000 0.634976 0.677954
O O18 0.529315 0.750000 0.690588
O O19 0.750000 0.893222 0.897659
O O20 0.925141 0.750000 0.880813
#
# Coordination Sequence:
#
# PCOD9449514 Si02
#       7
#     8   8   8   8   8   8   8
#     4  10  20  32  49  76 104 129 166 212 250 291
#     4  10  20  33  49  72 101 130 163 203 245 291
#     4   9  19  36  55  73  97 132 169 204 248 299
#     4   9  18  34  53  70  95 134 172 205 249 302
#     4   9  18  33  53  76  99 125 163 206 242 285
#     4  10  20  34  52  74 103 136 164 195 244 302
#     4   9  17  31  51  72  95 125 159 196 242 292
#
# _framework density 17.250606000000001
#
# number of rings (size 3 to 8) (size 9 to 14) (size 15 to 20)
#    0.000    2.571    0.000    1.714    0.000    6.857 
#    0.000    2.143    0.000    5.143    0.000    0.000 
#    0.000    0.000    0.000    0.000    0.000    0.000 
#
# Total GULP energy -312088.445781 kJ/mol
# GULP energy per Si atom -5573.007960 kJ/mol
# Density = 1.721134 g / cm^3
# Si number density = 17.250606 Si / 1000 Ang^3
#
#
#
# Elastic Constant Matrix: (Units=GPa)
#
#
# Indices 1 2 3 4 5 6 
#
# 1 20.6878 29.3915 27.7887 0.0000 0.0000 0.0000
# 2 29.3915 125.6163 48.2170 0.0000 0.0000 0.0000
# 3 27.7887 48.2170 89.8424 0.0000 0.0000 0.0000
# 4 0.0000 0.0000 0.0000 7.5296 0.0000 0.0000
# 5 0.0000 0.0000 0.0000 0.0000 26.2391 0.0000
# 6 0.0000 0.0000 0.0000 0.0000 0.0000 24.8780
#
#
#
# Elastic Compliance Matrix: (Units=1/GPa)
#
#
# Indices 1 2 3 4 5 6 
#
# 1 0.100090 -0.014529 -0.023161 0.000000 0.000000 0.000000
# 2 -0.014529 0.012135 -0.002019 0.000000 0.000000 0.000000
# 3 -0.023161 -0.002019 0.019378 0.000000 0.000000 0.000000
# 4 0.000000 0.000000 0.000000 0.132808 0.000000 0.000000
# 5 0.000000 0.000000 0.000000 0.000000 0.038111 0.000000
# 6 0.000000 0.000000 0.000000 0.000000 0.000000 0.040196
#
#
# Mechanical properties :
#
#
# Convention : Reuss Voigt Hill
#
# Bulk Modulus (GPa) = 19.16237 49.66010 34.41124
# Shear Modulus (GPa) = 11.37577 20.44596 15.91087
#
# Velocity S-wave (km/s) = 2.57075 3.44645 3.04029
# Velocity P-wave (km/s) = 4.46587 6.68486 5.68469
#
# Compressibility (1/GPa) = 0.05218561
#
# Stress axis : x y z
#
# Youngs Moduli (GPa) = 9.99105 82.40560 51.60514
#
# Poissons Ratio (x) = 1.19724 1.19522
# Poissons Ratio (y) = 0.14516 0.10419
# Poissons Ratio (z) = 0.23140 0.16637
#
# Static dielectric constant tensor:
#      x y z
#    x 1.599820 0.000000 0.000000 
#    y 0.000000 1.590080 0.000000 
#    z 0.000000 0.000000 1.567480 
# 
# From -- ./inp_files/29138.got.cif
#   From: 2010.05.17/outbox.cif.g08.bks.cpg/sg59_15_cif.got.tgz:29138.got - 2010.06.03 14:40:33.
