data_PCOD9449823
_publ_section_title
;
Structure prediction by ZEFSAII (Michael W. Deem and Ramdas Pophale) SiO2 
 PCOD9449823
Probable space group: P M M N
;
_chemical_formula_sum "Si O2"
_cell_formula_units_Z 48
_cell_length_a 31.322859
_cell_length_b 9.493735
_cell_length_c 7.064480
_cell_angle_alpha 90.000000
_cell_angle_beta 90.000000
_cell_angle_gamma 90.000000
_cell_volume 2100.770937
_symmetry_space_group_name_H-M "P M M N"
_symmetry_group_IT_number 59
_space_group.IT_coordinate_system_code '2'
_symmetry_cell_setting 'orthorhombic'
loop_
_space_group_symop_operation_xyz
x,y,z
1/2-x,1/2-y,z
1/2+x,-y,-z
-x,1/2+y,-z
-x,-y,-z
1/2+x,1/2+y,-z
1/2-x,y,z
x,1/2-y,z
loop_
_atom_site_type_symbol
_atom_site_label
_atom_site_fract_x
_atom_site_fract_y
_atom_site_fract_z
Si Si1 0.891307 0.909257 0.343245
Si Si2 0.626962 0.909723 0.794943
Si Si3 0.297131 0.082579 0.686574
Si Si4 0.453731 0.906669 0.159439
Si Si5 0.525416 0.408173 0.275296
Si Si6 0.797751 0.411560 0.704570
O O1 0.905399 0.750000 0.290657
O O2 0.880471 0.906714 0.567096
O O3 0.845833 0.942107 0.240620
O O4 0.929190 0.020475 0.319623
O O5 0.629256 0.750000 0.861700
O O6 0.586879 0.994439 0.871009
O O7 0.670249 0.994645 0.823818
O O8 0.250000 0.062294 0.782687
O O9 0.298030 0.250000 0.634906
O O10 0.295503 0.983096 0.502096
O O11 0.441574 0.750000 0.225691
O O12 0.486035 0.984458 0.302433
O O13 0.474362 0.891041 0.953212
O O14 0.519556 0.250000 0.353331
O O15 0.750000 0.412323 0.782846
O O16 0.812483 0.250000 0.689569
#
# Coordination Sequence:
#
# PCOD9449823 Si02
#       6
#     8   8   8   8   8   8
#     4   9  18  31  49  75 103 130 162 202 246 287
#     4  10  20  33  51  76 103 131 165 203 244 289
#     4   8  14  26  44  67  97 131 165 200 237 281
#     4  10  21  37  55  73  95 126 165 206 248 295
#     4  10  21  36  54  74  96 127 165 201 244 299
#     4   9  16  26  43  69 100 132 164 199 241 287
#
# _framework density 22.848754
#
# number of rings (size 3 to 8) (size 9 to 14) (size 15 to 20)
#    0.000    2.667    0.000    3.000    0.000    7.000 
#    0.000    0.000    0.000    1.000    0.000    4.667 
#    0.000    0.000    0.000    0.000    0.000    0.000 
#
# Total GULP energy -267785.757771 kJ/mol
# GULP energy per Si atom -5578.869954 kJ/mol
# Density = 2.279675 g / cm^3
# Si number density = 22.848754 Si / 1000 Ang^3
#
#
#
# Elastic Constant Matrix: (Units=GPa)
#
#
# Indices 1 2 3 4 5 6 
#
# 1 130.2965 84.9416 -28.8673 0.0000 0.0000 0.0000
# 2 84.9416 184.1846 2.2125 0.0000 0.0000 0.0000
# 3 -28.8673 2.2125 39.6493 0.0000 0.0000 0.0000
# 4 0.0000 0.0000 0.0000 18.4580 0.0000 0.0000
# 5 0.0000 0.0000 0.0000 0.0000 16.6609 0.0000
# 6 0.0000 0.0000 0.0000 0.0000 0.0000 33.3901
#
#
#
# Elastic Compliance Matrix: (Units=1/GPa)
#
#
# Indices 1 2 3 4 5 6 
#
# 1 0.014582 -0.006857 0.010999 0.000000 0.000000 0.000000
# 2 -0.006857 0.008657 -0.005475 0.000000 0.000000 0.000000
# 3 0.010999 -0.005475 0.033535 0.000000 0.000000 0.000000
# 4 0.000000 0.000000 0.000000 0.054177 0.000000 0.000000
# 5 0.000000 0.000000 0.000000 0.000000 0.060021 0.000000
# 6 0.000000 0.000000 0.000000 0.000000 0.000000 0.029949
#
#
# Mechanical properties :
#
#
# Convention : Reuss Voigt Hill
#
# Bulk Modulus (GPa) = 18.48173 52.30045 35.39109
# Shear Modulus (GPa) = 22.56086 33.42471 27.99279
#
# Velocity S-wave (km/s) = 3.14570 3.82890 3.50399
# Velocity P-wave (km/s) = 4.61521 6.51819 5.64743
#
# Compressibility (1/GPa) = 0.05410748
#
# Stress axis : x y z
#
# Youngs Moduli (GPa) = 68.57902 115.50904 29.81986
#
# Poissons Ratio (x) = 0.79203 -0.32799
# Poissons Ratio (y) = 0.47024 0.16327
# Poissons Ratio (z) = -0.75431 0.63245
#
# Static dielectric constant tensor:
#      x y z
#    x 1.871080 0.000000 0.000000 
#    y 0.000000 1.826840 0.000000 
#    z 0.000000 0.000000 1.911180 
# 
# From -- ./inp_files/12929.got.cif
#   From: 2010.05.17/outbox.cif.g08.bks.cpg/sg59_7_cif.got.tgz:12929.got - 2010.06.03 14:40:33.
