data_PCOD9449714
_publ_section_title
;
Structure prediction by ZEFSAII (Michael W. Deem and Ramdas Pophale) SiO2 
 PCOD9449714
Probable space group: P M M N
;
_chemical_formula_sum "Si O2"
_cell_formula_units_Z 56
_cell_length_a 8.810107
_cell_length_b 18.723842
_cell_length_c 20.078441
_cell_angle_alpha 90.000000
_cell_angle_beta 90.000000
_cell_angle_gamma 90.000000
_cell_volume 3312.120582
_symmetry_space_group_name_H-M "P M M N"
_symmetry_group_IT_number 59
_space_group.IT_coordinate_system_code '2'
_symmetry_cell_setting 'orthorhombic'
loop_
_space_group_symop_operation_xyz
x,y,z
1/2-x,1/2-y,z
1/2+x,-y,-z
-x,1/2+y,-z
-x,-y,-z
1/2+x,1/2+y,-z
1/2-x,y,z
x,1/2-y,z
loop_
_atom_site_type_symbol
_atom_site_label
_atom_site_fract_x
_atom_site_fract_y
_atom_site_fract_z
Si Si1 0.434143 0.667788 0.068283
Si Si2 0.076074 0.665842 0.368701
Si Si3 0.431237 0.965067 0.567015
Si Si4 0.428141 0.333318 0.486481
Si Si5 0.429664 0.045330 0.702969
Si Si6 0.431543 0.527773 0.154262
Si Si7 0.567775 0.063427 0.045009
O O1 0.250000 0.670062 0.072173
O O2 0.487367 0.750000 0.078973
O O3 0.481239 0.604060 0.119809
O O4 0.473095 0.636073 0.994721
O O5 0.250000 0.639647 0.366517
O O6 0.077129 0.750000 0.356590
O O7 0.006447 0.654682 0.441937
O O8 0.973677 0.626024 0.315497
O O9 0.250000 0.968549 0.561952
O O10 0.490619 0.884389 0.565475
O O11 0.500000 0.000000 0.500000
O O12 0.476349 0.002894 0.635864
O O13 0.250000 0.350806 0.492096
O O14 0.443130 0.250000 0.470293
O O15 0.250000 0.036642 0.712212
O O16 0.516556 0.025453 0.769702
O O17 0.250000 0.525311 0.148036
O O18 0.501605 0.459436 0.116050
O O19 0.750000 0.059413 0.046566
O O20 0.500000 0.000000 0.000000
#
# Coordination Sequence:
#
# PCOD9449714 Si02
#       7
#     8   8   8   8   8   8   8
#     4   8  15  29  51  79 106 133 168 207 246 292
#     4  10  20  33  50  72  99 134 173 210 255 315
#     4  11  22  35  54  77 102 134 177 229 277 323
#     4  10  20  34  53  76 101 129 164 213 271 324
#     4  11  23  36  51  74 104 139 177 221 270 318
#     4  10  20  33  51  74 104 141 175 212 258 312
#     4   9  16  29  51  75 101 134 171 210 249 295
#
# _framework density 16.907596999999999
#
# number of rings (size 3 to 8) (size 9 to 14) (size 15 to 20)
#    0.000    2.143    1.429    3.429    0.000    4.000 
#    0.000    1.429    0.000   15.857    0.000    2.000 
#    0.000    0.000    0.000    0.000    0.000    0.000 
#
# Total GULP energy -312029.449205 kJ/mol
# GULP energy per Si atom -5571.954450 kJ/mol
# Density = 1.686911 g / cm^3
# Si number density = 16.907597 Si / 1000 Ang^3
#
#
#
# Elastic Constant Matrix: (Units=GPa)
#
#
# Indices 1 2 3 4 5 6 
#
# 1 43.2617 19.6373 29.7257 0.0000 0.0000 0.0000
# 2 19.6373 43.4616 33.0156 0.0000 0.0000 0.0000
# 3 29.7257 33.0156 92.4566 0.0000 0.0000 0.0000
# 4 0.0000 0.0000 0.0000 17.1243 0.0000 0.0000
# 5 0.0000 0.0000 0.0000 0.0000 27.5247 0.0000
# 6 0.0000 0.0000 0.0000 0.0000 0.0000 24.9019
#
#
#
# Elastic Compliance Matrix: (Units=1/GPa)
#
#
# Indices 1 2 3 4 5 6 
#
# 1 0.032119 -0.009150 -0.007059 0.000000 0.000000 0.000000
# 2 -0.009150 0.034180 -0.009264 0.000000 0.000000 0.000000
# 3 -0.007059 -0.009264 0.016394 0.000000 0.000000 0.000000
# 4 0.000000 0.000000 0.000000 0.058397 0.000000 0.000000
# 5 0.000000 0.000000 0.000000 0.000000 0.036331 0.000000
# 6 0.000000 0.000000 0.000000 0.000000 0.000000 0.040157
#
#
# Mechanical properties :
#
#
# Convention : Reuss Voigt Hill
#
# Bulk Modulus (GPa) = 31.49897 38.21525 34.85711
# Shear Modulus (GPa) = 17.91436 20.36361 19.13898
#
# Velocity S-wave (km/s) = 3.25860 3.47422 3.36813
# Velocity P-wave (km/s) = 5.72961 6.22456 5.98220
#
# Compressibility (1/GPa) = 0.03174707
#
# Stress axis : x y z
#
# Youngs Moduli (GPa) = 31.13426 29.25668 60.99966
#
# Poissons Ratio (x) = 0.26769 0.43061
# Poissons Ratio (y) = 0.28487 0.56509
# Poissons Ratio (z) = 0.21978 0.27103
#
# Static dielectric constant tensor:
#      x y z
#    x 1.581040 0.000000 0.000000 
#    y 0.000000 1.613210 0.000000 
#    z 0.000000 0.000000 1.362720 
# 
# From -- ./inp_files/29283.got.cif
#   From: 2010.05.17/outbox.cif.g08.bks.cpg/sg59_15_cif.got.tgz:29283.got - 2010.06.03 14:40:33.
