data_PCOD9449297
_publ_section_title
;
Structure prediction by ZEFSAII (Michael W. Deem and Ramdas Pophale) SiO2 
 PCOD9449297
Probable space group: P M M N
;
_chemical_formula_sum "Si O2"
_cell_formula_units_Z 64
_cell_length_a 19.346787
_cell_length_b 7.616762
_cell_length_c 21.755316
_cell_angle_alpha 90.000000
_cell_angle_beta 90.000000
_cell_angle_gamma 90.000000
_cell_volume 3205.860582
_symmetry_space_group_name_H-M "P M M N"
_symmetry_group_IT_number 59
_space_group.IT_coordinate_system_code '2'
_symmetry_cell_setting 'orthorhombic'
loop_
_space_group_symop_operation_xyz
x,y,z
1/2-x,1/2-y,z
1/2+x,-y,-z
-x,1/2+y,-z
-x,-y,-z
1/2+x,1/2+y,-z
1/2-x,y,z
x,1/2-y,z
loop_
_atom_site_type_symbol
_atom_site_label
_atom_site_fract_x
_atom_site_fract_y
_atom_site_fract_z
Si Si1 0.580811 0.039164 0.496702
Si Si2 0.965268 0.542701 0.064482
Si Si3 0.672217 0.035289 0.749404
Si Si4 0.330281 0.965013 0.620503
Si Si5 0.394759 0.538976 0.749583
Si Si6 0.173288 0.959834 0.876363
Si Si7 0.171741 0.536128 0.391222
Si Si8 0.965614 0.460676 0.811405
O O1 0.588078 0.250000 0.496260
O O2 0.621355 0.976308 0.435945
O O3 0.618472 0.972417 0.558090
O O4 0.500000 0.000000 0.500000
O O5 0.967674 0.750000 0.070998
O O6 0.885280 0.492620 0.072996
O O7 0.006224 0.467450 0.123637
O O8 0.000000 0.500000 0.000000
O O9 0.750000 0.980281 0.766704
O O10 0.672207 0.250000 0.750105
O O11 0.658933 0.980965 0.678825
O O12 0.609291 0.973070 0.791281
O O13 0.250000 0.017901 0.613862
O O14 0.330578 0.750000 0.620702
O O15 0.362129 0.023705 0.685778
O O16 0.388404 0.750000 0.749315
O O17 0.354794 0.472228 0.810496
O O18 0.475106 0.496605 0.760919
O O19 0.250000 0.027390 0.889903
O O20 0.177772 0.750000 0.870223
O O21 0.250000 0.486254 0.408186
O O22 0.169634 0.750000 0.390744
O O23 0.959958 0.250000 0.816410
#
# Coordination Sequence:
#
# PCOD9449297 Si02
#       8
#     8   8   8   8   8   8   8   8
#     4  10  20  31  45  67  93 123 158 198 240 283
#     4  10  20  34  51  73 102 135 168 200 241 292
#     4   8  14  26  46  70  92 116 153 200 242 278
#     4   9  17  30  48  69  94 125 162 201 238 283
#     4   9  17  29  48  73  98 127 160 197 243 293
#     4   9  17  31  52  76 100 128 166 207 245 289
#     4   8  14  26  45  66  86 115 157 198 233 274
#     4   9  18  31  49  73  99 126 157 198 244 287
#
# _framework density 19.963439000000001
#
# number of rings (size 3 to 8) (size 9 to 14) (size 15 to 20)
#    0.000    3.000    0.000    1.875    1.750    3.750 
#    0.000    0.625    0.000    6.000    0.000    1.750 
#    0.000    0.000    0.000    0.000    0.000    0.000 
#
# Total GULP energy -356955.715435 kJ/mol
# GULP energy per Si atom -5577.433054 kJ/mol
# Density = 1.991800 g / cm^3
# Si number density = 19.963439 Si / 1000 Ang^3
#
#
#
# Elastic Constant Matrix: (Units=GPa)
#
#
# Indices 1 2 3 4 5 6 
#
# 1 207.7110 3.3890 108.1673 0.0000 0.0000 0.0000
# 2 3.3890 40.3095 3.7286 0.0000 0.0000 0.0000
# 3 108.1673 3.7286 99.4422 0.0000 0.0000 0.0000
# 4 0.0000 0.0000 0.0000 2.0772 0.0000 0.0000
# 5 0.0000 0.0000 0.0000 0.0000 24.7742 0.0000
# 6 0.0000 0.0000 0.0000 0.0000 0.0000 20.6592
#
#
#
# Elastic Compliance Matrix: (Units=1/GPa)
#
#
# Indices 1 2 3 4 5 6 
#
# 1 0.011106 0.000184 -0.012087 0.000000 0.000000 0.000000
# 2 0.000184 0.024897 -0.001134 0.000000 0.000000 0.000000
# 3 -0.012087 -0.001134 0.023246 0.000000 0.000000 0.000000
# 4 0.000000 0.000000 0.000000 0.481423 0.000000 0.000000
# 5 0.000000 0.000000 0.000000 0.000000 0.040365 0.000000
# 6 0.000000 0.000000 0.000000 0.000000 0.000000 0.048405
#
#
# Mechanical properties :
#
#
# Convention : Reuss Voigt Hill
#
# Bulk Modulus (GPa) = 30.14246 64.22584 47.18415
# Shear Modulus (GPa) = 7.50104 24.98064 16.24084
#
# Velocity S-wave (km/s) = 1.94050 3.54124 2.85534
# Velocity P-wave (km/s) = 4.48914 6.99729 5.87854
#
# Compressibility (1/GPa) = 0.03317579
#
# Stress axis : x y z
#
# Youngs Moduli (GPa) = 90.04204 40.16480 43.01738
#
# Poissons Ratio (x) = -0.00740 0.51996
# Poissons Ratio (y) = -0.01660 0.04878
# Poissons Ratio (z) = 1.08836 0.04555
#
# Static dielectric constant tensor:
#      x y z
#    x 1.688940 0.000000 0.000000 
#    y 0.000000 1.771860 0.000000 
#    z 0.000000 0.000000 1.629000 
# 
# From -- ./inp_files/30772.got.cif
#   From: 2010.05.17/outbox.cif.g08.bks.cpg/sg59_16_cif.got.tgz:30772.got - 2010.06.03 14:40:33.
