data_PCOD9449501
_publ_section_title
;
Structure prediction by ZEFSAII (Michael W. Deem and Ramdas Pophale) SiO2 
 PCOD9449501
Probable space group: P M M N
;
_chemical_formula_sum "Si O2"
_cell_formula_units_Z 56
_cell_length_a 9.302654
_cell_length_b 14.910639
_cell_length_c 18.677137
_cell_angle_alpha 90.000000
_cell_angle_beta 90.000000
_cell_angle_gamma 90.000000
_cell_volume 2590.677948
_symmetry_space_group_name_H-M "P M M N"
_symmetry_group_IT_number 59
_space_group.IT_coordinate_system_code '2'
_symmetry_cell_setting 'orthorhombic'
loop_
_space_group_symop_operation_xyz
x,y,z
1/2-x,1/2-y,z
1/2+x,-y,-z
-x,1/2+y,-z
-x,-y,-z
1/2+x,1/2+y,-z
1/2-x,y,z
x,1/2-y,z
loop_
_atom_site_type_symbol
_atom_site_label
_atom_site_fract_x
_atom_site_fract_y
_atom_site_fract_z
Si Si1 0.087410 0.642573 0.432769
Si Si2 0.413410 0.392727 0.711768
Si Si3 0.087657 0.357154 0.430523
Si Si4 0.411460 0.892144 0.712632
Si Si5 0.586291 0.610137 0.848741
Si Si6 0.583334 0.109593 0.852140
Si Si7 0.077268 0.403463 0.992686
O O1 0.250000 0.607860 0.426010
O O2 0.097091 0.750000 0.440265
O O3 0.995304 0.625396 0.361938
O O4 0.007164 0.607665 0.503510
O O5 0.250000 0.358163 0.710815
O O6 0.404798 0.500239 0.718864
O O7 0.504212 0.359937 0.779951
O O8 0.250000 0.392840 0.431342
O O9 0.096860 0.250000 0.439881
O O10 0.010948 0.372713 0.355110
O O11 0.250000 0.858339 0.701195
O O12 0.480369 0.859074 0.786694
O O13 0.750000 0.635342 0.830859
O O14 0.582507 0.500391 0.850754
O O15 0.553812 0.640836 0.929627
O O16 0.750000 0.136692 0.854787
O O17 0.495598 0.138307 0.922667
O O18 0.250000 0.413143 0.983219
O O19 0.000000 0.500000 0.000000
#
# Coordination Sequence:
#
# PCOD9449501 Si02
#       7
#     8   8   8   8   8   8   8
#     4  10  21  37  56  76  98 126 162 203 245 290
#     4  10  20  33  50  74 103 133 165 201 244 293
#     4  10  21  37  56  75  96 126 163 201 243 293
#     4  10  20  32  49  74 102 131 163 202 246 289
#     4   8  15  26  40  61  92 128 162 198 240 285
#     4   9  16  26  41  63  93 128 163 201 244 286
#     4   9  15  23  37  59  89 126 164 200 241 288
#
# _framework density 21.615962
#
# number of rings (size 3 to 8) (size 9 to 14) (size 15 to 20)
#    0.000    2.571    0.000    3.429    0.000    8.000 
#    0.000    0.000    0.000    0.000    0.000    1.000 
#    0.000    1.143    0.000    0.000    0.000    0.000 
#
# Total GULP energy -312754.481402 kJ/mol
# GULP energy per Si atom -5584.901454 kJ/mol
# Density = 2.156676 g / cm^3
# Si number density = 21.615962 Si / 1000 Ang^3
#
#
#
# Elastic Constant Matrix: (Units=GPa)
#
#
# Indices 1 2 3 4 5 6 
#
# 1 216.5389 7.8719 135.2995 0.0000 0.0000 0.0000
# 2 7.8719 63.3594 -1.1472 0.0000 0.0000 0.0000
# 3 135.2995 -1.1472 202.1198 0.0000 0.0000 0.0000
# 4 0.0000 0.0000 0.0000 37.9237 0.0000 0.0000
# 5 0.0000 0.0000 0.0000 0.0000 -25.1434 0.0000
# 6 0.0000 0.0000 0.0000 0.0000 0.0000 6.0039
#
#
#
# Elastic Compliance Matrix: (Units=1/GPa)
#
#
# Indices 1 2 3 4 5 6 
#
# 1 0.008013 -0.001093 -0.005370 0.000000 0.000000 0.000000
# 2 -0.001093 0.015934 0.000822 0.000000 0.000000 0.000000
# 3 -0.005370 0.000822 0.008547 0.000000 0.000000 0.000000
# 4 0.000000 0.000000 0.000000 0.026369 0.000000 0.000000
# 5 0.000000 0.000000 0.000000 0.000000 -0.039772 0.000000
# 6 0.000000 0.000000 0.000000 0.000000 0.000000 0.166559
#
#
# Mechanical properties :
#
#
# Convention : Reuss Voigt Hill
#
# Bulk Modulus (GPa) = 47.14374 85.11852 66.13113
# Shear Modulus (GPa) = 24.50939 26.42309 25.46624
#
# Velocity S-wave (km/s) = 3.37093 3.50006 3.43610
# Velocity P-wave (km/s) = 6.08341 7.46974 6.81194
#
# Compressibility (1/GPa) = 0.02121173
#
# Stress axis : x y z
#
# Youngs Moduli (GPa) = 124.79072 62.76028 116.99754
#
# Poissons Ratio (x) = 0.06859 0.62832
# Poissons Ratio (y) = 0.13638 -0.09617
# Poissons Ratio (z) = 0.67018 -0.05159
#
# Static dielectric constant tensor:
#      x y z
#    x 1.845890 0.000000 0.000000 
#    y 0.000000 1.846250 0.000000 
#    z 0.000000 0.000000 1.750220 
# 
# From -- ./inp_files/26008.got.cif
#   From: 2010.05.17/outbox.cif.g08.bks.cpg/sg59_14_cif.got.tgz:26008.got - 2010.06.03 14:40:33.
