data_PCOD9449200
_publ_section_title
;
Structure prediction by ZEFSAII (Michael W. Deem and Ramdas Pophale) SiO2 
 PCOD9449200
Probable space group: P M M N
;
_chemical_formula_sum "Si O2"
_cell_formula_units_Z 40
_cell_length_a 19.458058
_cell_length_b 7.770879
_cell_length_c 12.855646
_cell_angle_alpha 90.000000
_cell_angle_beta 90.000000
_cell_angle_gamma 90.000000
_cell_volume 1943.853564
_symmetry_space_group_name_H-M "P M M N"
_symmetry_group_IT_number 59
_space_group.IT_coordinate_system_code '2'
_symmetry_cell_setting 'orthorhombic'
loop_
_space_group_symop_operation_xyz
x,y,z
1/2-x,1/2-y,z
1/2+x,-y,-z
-x,1/2+y,-z
-x,-y,-z
1/2+x,1/2+y,-z
1/2-x,y,z
x,1/2-y,z
loop_
_atom_site_type_symbol
_atom_site_label
_atom_site_fract_x
_atom_site_fract_y
_atom_site_fract_z
Si Si1 0.927745 0.045238 0.053789
Si Si2 0.065666 0.961168 0.708869
Si Si3 0.328116 0.956793 0.535714
Si Si4 0.911305 0.957430 0.671843
Si Si5 0.827483 0.955460 0.871785
O O1 0.924105 0.250000 0.059452
O O2 0.925094 0.980319 0.172156
O O3 0.866739 0.985059 0.979385
O O4 0.000000 0.000000 0.000000
O O5 0.066145 0.750000 0.708734
O O6 0.125641 0.019900 0.631834
O O7 0.990306 0.016832 0.669478
O O8 0.250000 0.023537 0.534601
O O9 0.324408 0.750000 0.544851
O O10 0.367840 0.995931 0.429222
O O11 0.913830 0.750000 0.678149
O O12 0.873196 0.022659 0.775843
O O13 0.750000 0.025076 0.871045
O O14 0.823125 0.750000 0.857281
#
# Coordination Sequence:
#
# PCOD9449200 Si02
#       5
#     8   8   8   8   8
#     4  11  21  37  60  84 113 148 190 233 280 339
#     4   9  19  36  58  80 107 146 187 227 275 335
#     4  10  21  36  54  80 113 144 179 228 280 327
#     4  10  19  36  59  80 107 146 189 228 276 334
#     4  10  21  37  57  83 116 151 187 232 286 335
#
# _framework density 20.577680999999998
#
# number of rings (size 3 to 8) (size 9 to 14) (size 15 to 20)
#    0.000    2.000    2.000    1.800    0.000    3.200 
#    0.000    4.000    0.000    0.000    0.000    0.000 
#    0.000    0.000    0.000    0.000    0.000    0.000 
#
# Total GULP energy -223470.103822 kJ/mol
# GULP energy per Si atom -5586.752596 kJ/mol
# Density = 2.053084 g / cm^3
# Si number density = 20.577681 Si / 1000 Ang^3
#
#
#
# Elastic Constant Matrix: (Units=GPa)
#
#
# Indices 1 2 3 4 5 6 
#
# 1 160.8047 2.8361 124.6693 0.0000 0.0000 0.0000
# 2 2.8361 25.4085 -3.0952 0.0000 0.0000 0.0000
# 3 124.6693 -3.0952 186.7801 0.0000 0.0000 0.0000
# 4 0.0000 0.0000 0.0000 25.6384 0.0000 0.0000
# 5 0.0000 0.0000 0.0000 0.0000 18.6836 0.0000
# 6 0.0000 0.0000 0.0000 0.0000 0.0000 16.0982
#
#
#
# Elastic Compliance Matrix: (Units=1/GPa)
#
#
# Indices 1 2 3 4 5 6 
#
# 1 0.013047 -0.002522 -0.008750 0.000000 0.000000 0.000000
# 2 -0.002522 0.039924 0.002345 0.000000 0.000000 0.000000
# 3 -0.008750 0.002345 0.011233 0.000000 0.000000 0.000000
# 4 0.000000 0.000000 0.000000 0.039004 0.000000 0.000000
# 5 0.000000 0.000000 0.000000 0.000000 0.053523 0.000000
# 6 0.000000 0.000000 0.000000 0.000000 0.000000 0.062119
#
#
# Mechanical properties :
#
#
# Convention : Reuss Voigt Hill
#
# Bulk Modulus (GPa) = 21.57518 69.09043 45.33280
# Shear Modulus (GPa) = 19.82906 28.65624 24.24265
#
# Velocity S-wave (km/s) = 3.10759 3.73579 3.43608
# Velocity P-wave (km/s) = 4.83567 7.22886 6.14980
#
# Compressibility (1/GPa) = 0.04634955
#
# Stress axis : x y z
#
# Youngs Moduli (GPa) = 76.64454 25.04756 89.02080
#
# Poissons Ratio (x) = 0.06318 0.77897
# Poissons Ratio (y) = 0.19332 -0.20877
# Poissons Ratio (z) = 0.67067 -0.05874
#
# Static dielectric constant tensor:
#      x y z
#    x 1.712820 0.000000 0.000000 
#    y 0.000000 1.766410 0.000000 
#    z 0.000000 0.000000 1.702310 
# 
# From -- ./inp_files/13818.got.cif
#   From: 2010.05.17/outbox.cif.g08.bks.cpg/sg59_7_cif.got.tgz:13818.got - 2010.06.03 14:40:33.
