data_PCOD9449749
_publ_section_title
;
Structure prediction by ZEFSAII (Michael W. Deem and Ramdas Pophale) SiO2 
 PCOD9449749
Probable space group: P M M N
;
_chemical_formula_sum "Si O2"
_cell_formula_units_Z 56
_cell_length_a 20.576915
_cell_length_b 7.702327
_cell_length_c 16.472892
_cell_angle_alpha 90.000000
_cell_angle_beta 90.000000
_cell_angle_gamma 90.000000
_cell_volume 2610.790761
_symmetry_space_group_name_H-M "P M M N"
_symmetry_group_IT_number 59
_space_group.IT_coordinate_system_code '2'
_symmetry_cell_setting 'orthorhombic'
loop_
_space_group_symop_operation_xyz
x,y,z
1/2-x,1/2-y,z
1/2+x,-y,-z
-x,1/2+y,-z
-x,-y,-z
1/2+x,1/2+y,-z
1/2-x,y,z
x,1/2-y,z
loop_
_atom_site_type_symbol
_atom_site_label
_atom_site_fract_x
_atom_site_fract_y
_atom_site_fract_z
Si Si1 0.824333 0.543443 0.201520
Si Si2 0.422143 0.948820 0.659929
Si Si3 0.322994 0.540490 0.985240
Si Si4 0.049622 0.541150 0.071785
Si Si5 0.677525 0.037784 0.660051
Si Si6 0.322748 0.962150 0.528387
Si Si7 0.049931 0.544952 0.251447
O O1 0.750000 0.483756 0.215537
O O2 0.827146 0.750000 0.214671
O O3 0.874571 0.458153 0.262471
O O4 0.839682 0.507959 0.107421
O O5 0.435604 0.750000 0.638889
O O6 0.379996 0.027065 0.586396
O O7 0.490517 0.026458 0.686579
O O8 0.250000 0.476403 0.002292
O O9 0.321500 0.750000 0.989520
O O10 0.379045 0.477980 0.044987
O O11 0.051462 0.750000 0.074932
O O12 0.032436 0.475475 0.161814
O O13 0.000000 0.500000 0.000000
O O14 0.750000 0.983458 0.686286
O O15 0.677126 0.250000 0.661637
O O16 0.668853 0.988887 0.565552
O O17 0.617369 0.973352 0.713155
O O18 0.250000 0.016786 0.555023
O O19 0.323119 0.750000 0.532110
O O20 0.060665 0.750000 0.241473
#
# Coordination Sequence:
#
# PCOD9449749 Si02
#       7
#     8   8   8   8   8   8   8
#     4  10  20  33  50  74 104 135 168 210 259 305
#     4  11  21  32  49  74 105 140 176 208 243 297
#     4   9  18  33  52  73  97 127 166 210 255 306
#     4  10  21  35  51  72  99 132 167 205 250 299
#     4   8  15  31  55  79 102 130 166 209 257 307
#     4   8  15  29  50  76 103 132 168 207 246 294
#     4  10  21  35  52  77 105 132 167 214 263 304
#
# _framework density 21.449441
#
# number of rings (size 3 to 8) (size 9 to 14) (size 15 to 20)
#    0.000    2.571    0.000    3.000    0.000    6.000 
#    0.000    2.857    0.000    1.286    0.000    6.000 
#    0.000    0.000    0.000    0.000    0.000    0.000 
#
# Total GULP energy -312612.135547 kJ/mol
# GULP energy per Si atom -5582.359563 kJ/mol
# Density = 2.140062 g / cm^3
# Si number density = 21.449441 Si / 1000 Ang^3
#
#
#
# Elastic Constant Matrix: (Units=GPa)
#
#
# Indices 1 2 3 4 5 6 
#
# 1 134.9427 8.1397 83.2688 0.0000 0.0000 0.0000
# 2 8.1397 32.7801 6.9119 0.0000 0.0000 0.0000
# 3 83.2688 6.9119 93.8190 0.0000 0.0000 0.0000
# 4 0.0000 0.0000 0.0000 5.5361 0.0000 0.0000
# 5 0.0000 0.0000 0.0000 0.0000 38.3237 0.0000
# 6 0.0000 0.0000 0.0000 0.0000 0.0000 17.8743
#
#
#
# Elastic Compliance Matrix: (Units=1/GPa)
#
#
# Indices 1 2 3 4 5 6 
#
# 1 0.016417 -0.001020 -0.014496 0.000000 0.000000 0.000000
# 2 -0.001020 0.031051 -0.001382 0.000000 0.000000 0.000000
# 3 -0.014496 -0.001382 0.023626 0.000000 0.000000 0.000000
# 4 0.000000 0.000000 0.000000 0.180631 0.000000 0.000000
# 5 0.000000 0.000000 0.000000 0.000000 0.026094 0.000000
# 6 0.000000 0.000000 0.000000 0.000000 0.000000 0.055946
#
#
# Mechanical properties :
#
#
# Convention : Reuss Voigt Hill
#
# Bulk Modulus (GPa) = 26.81090 50.90919 38.86004
# Shear Modulus (GPa) = 13.15811 23.22825 18.19318
#
# Velocity S-wave (km/s) = 2.47947 3.29436 2.91553
# Velocity P-wave (km/s) = 4.55234 6.18518 5.43048
#
# Compressibility (1/GPa) = 0.03729826
#
# Stress axis : x y z
#
# Youngs Moduli (GPa) = 60.91306 32.20504 42.32594
#
# Poissons Ratio (x) = 0.03285 0.61354
# Poissons Ratio (y) = 0.06213 0.05851
# Poissons Ratio (z) = 0.88297 0.04452
#
# Static dielectric constant tensor:
#      x y z
#    x 1.776060 0.000000 0.000000 
#    y 0.000000 1.809840 0.000000 
#    z 0.000000 0.000000 1.763800 
# 
# From -- ./inp_files/24211.got.cif
#   From: 2010.05.17/outbox.cif.g08.bks.cpg/sg59_13_cif.got.tgz:24211.got - 2010.06.03 14:40:33.
