data_PCOD9449958
_publ_section_title
;
Structure prediction by ZEFSAII (Michael W. Deem and Ramdas Pophale) SiO2 
 PCOD9449958
Probable space group: P M M N
;
_chemical_formula_sum "Si O2"
_cell_formula_units_Z 64
_cell_length_a 29.714073
_cell_length_b 7.450796
_cell_length_c 12.735679
_cell_angle_alpha 90.000000
_cell_angle_beta 90.000000
_cell_angle_gamma 90.000000
_cell_volume 2819.596501
_symmetry_space_group_name_H-M "P M M N"
_symmetry_group_IT_number 59
_space_group.IT_coordinate_system_code '2'
_symmetry_cell_setting 'orthorhombic'
loop_
_space_group_symop_operation_xyz
x,y,z
1/2-x,1/2-y,z
1/2+x,-y,-z
-x,1/2+y,-z
-x,-y,-z
1/2+x,1/2+y,-z
1/2-x,y,z
x,1/2-y,z
loop_
_atom_site_type_symbol
_atom_site_label
_atom_site_fract_x
_atom_site_fract_y
_atom_site_fract_z
Si Si1 0.626462 0.541337 0.907109
Si Si2 0.800883 0.542328 0.065697
Si Si3 0.696278 0.459100 0.301095
Si Si4 0.436170 0.532026 0.474466
Si Si5 0.834470 0.468303 0.524063
Si Si6 0.016682 0.954476 0.678111
Si Si7 0.975406 0.965474 0.890019
Si Si8 0.798833 0.032631 0.741133
O O1 0.619022 0.750000 0.935382
O O2 0.576260 0.465862 0.892071
O O3 0.657908 0.531492 0.804739
O O4 0.659322 0.460247 0.996214
O O5 0.750000 0.464213 0.055938
O O6 0.797228 0.750000 0.032883
O O7 0.814046 0.539532 0.187975
O O8 0.750000 0.469355 0.313760
O O9 0.683244 0.250000 0.293715
O O10 0.676070 0.535678 0.407781
O O11 0.441114 0.750000 0.473038
O O12 0.385458 0.486816 0.447776
O O13 0.448625 0.468391 0.592399
O O14 0.470728 0.456299 0.389915
O O15 0.830707 0.250000 0.518542
O O16 0.803269 0.524334 0.620031
O O17 0.031957 0.750000 0.697029
O O18 0.004213 0.036175 0.790590
O O19 0.973094 0.750000 0.873866
O O20 0.000000 0.000000 0.000000
O O21 0.750000 0.975271 0.784440
O O22 0.799958 0.250000 0.744635
#
# Coordination Sequence:
#
# PCOD9449958 Si02
#       8
#     8   8   8   8   8   8   8   8
#     4  10  21  37  55  75 102 138 176 213 261 318
#     4   9  18  33  51  70  96 130 167 209 254 300
#     4   9  17  30  49  71  96 128 163 199 242 293
#     4   9  17  30  51  74  95 127 166 200 243 301
#     4   9  17  30  48  72 102 132 162 199 246 298
#     4   9  18  33  50  71  99 126 159 207 255 297
#     4  10  22  38  55  76 104 137 173 217 267 316
#     4  10  20  33  52  79 108 137 171 212 255 302
#
# _framework density 22.698283
#
# number of rings (size 3 to 8) (size 9 to 14) (size 15 to 20)
#    0.000    2.625    0.000    1.500    0.000    4.750 
#    0.000    3.750    0.000    1.500    0.000    0.000 
#    0.000    0.000    0.000    0.000    0.000    0.000 
#
# Total GULP energy -357132.113093 kJ/mol
# GULP energy per Si atom -5580.189267 kJ/mol
# Density = 2.264662 g / cm^3
# Si number density = 22.698283 Si / 1000 Ang^3
#
#
#
# Elastic Constant Matrix: (Units=GPa)
#
#
# Indices 1 2 3 4 5 6 
#
# 1 74.3410 -0.1489 30.1177 0.0000 0.0000 0.0000
# 2 -0.1489 60.6235 -16.8306 0.0000 0.0000 0.0000
# 3 30.1177 -16.8306 117.4538 0.0000 0.0000 0.0000
# 4 0.0000 0.0000 0.0000 8.6792 0.0000 0.0000
# 5 0.0000 0.0000 0.0000 0.0000 89.9288 0.0000
# 6 0.0000 0.0000 0.0000 0.0000 0.0000 15.3314
#
#
#
# Elastic Compliance Matrix: (Units=1/GPa)
#
#
# Indices 1 2 3 4 5 6 
#
# 1 0.015078 -0.001079 -0.004021 0.000000 0.000000 0.000000
# 2 -0.001079 0.017256 0.002749 0.000000 0.000000 0.000000
# 3 -0.004021 0.002749 0.009939 0.000000 0.000000 0.000000
# 4 0.000000 0.000000 0.000000 0.115218 0.000000 0.000000
# 5 0.000000 0.000000 0.000000 0.000000 0.011120 0.000000
# 6 0.000000 0.000000 0.000000 0.000000 0.000000 0.065226
#
#
# Mechanical properties :
#
#
# Convention : Reuss Voigt Hill
#
# Bulk Modulus (GPa) = 26.61592 30.96608 28.79100
# Shear Modulus (GPa) = 19.91535 38.73990 29.32762
#
# Velocity S-wave (km/s) = 2.96530 4.13574 3.59843
# Velocity P-wave (km/s) = 4.84514 6.03970 5.47510
#
# Compressibility (1/GPa) = 0.03757150
#
# Stress axis : x y z
#
# Youngs Moduli (GPa) = 66.31996 57.95112 100.61314
#
# Poissons Ratio (x) = 0.06255 0.40457
# Poissons Ratio (y) = 0.07158 -0.27663
# Poissons Ratio (z) = 0.26668 -0.15933
#
# Static dielectric constant tensor:
#      x y z
#    x 1.833180 0.000000 0.000000 
#    y 0.000000 1.881360 0.000000 
#    z 0.000000 0.000000 1.855100 
# 
# From -- ./inp_files/19339.got.cif
#   From: 2010.05.17/outbox.cif.g08.bks.cpg/sg59_10_cif.got.tgz:19339.got - 2010.06.03 14:40:33.
