data_PCOD9449816
_publ_section_title
;
Structure prediction by ZEFSAII (Michael W. Deem and Ramdas Pophale) SiO2 
 PCOD9449816
Probable space group: P M M N
;
_chemical_formula_sum "Si O2"
_cell_formula_units_Z 64
_cell_length_a 19.367920
_cell_length_b 7.481797
_cell_length_c 21.873179
_cell_angle_alpha 90.000000
_cell_angle_beta 90.000000
_cell_angle_gamma 90.000000
_cell_volume 3169.573375
_symmetry_space_group_name_H-M "P M M N"
_symmetry_group_IT_number 59
_space_group.IT_coordinate_system_code '2'
_symmetry_cell_setting 'orthorhombic'
loop_
_space_group_symop_operation_xyz
x,y,z
1/2-x,1/2-y,z
1/2+x,-y,-z
-x,1/2+y,-z
-x,-y,-z
1/2+x,1/2+y,-z
1/2-x,y,z
x,1/2-y,z
loop_
_atom_site_type_symbol
_atom_site_label
_atom_site_fract_x
_atom_site_fract_y
_atom_site_fract_z
Si Si1 0.033116 0.963548 0.434758
Si Si2 0.173016 0.531970 0.377889
Si Si3 0.671763 0.462230 0.877310
Si Si4 0.893706 0.467774 0.750715
Si Si5 0.080882 0.461362 0.003925
Si Si6 0.965434 0.968364 0.309833
Si Si7 0.328160 0.032223 0.893470
Si Si8 0.672324 0.968201 0.246321
O O1 0.036102 0.750000 0.428604
O O2 0.111374 0.027995 0.422599
O O3 0.987216 0.027962 0.377578
O O4 0.000000 0.000000 0.500000
O O5 0.250000 0.470089 0.392613
O O6 0.174098 0.750000 0.378934
O O7 0.151088 0.481316 0.308796
O O8 0.750000 0.531596 0.888119
O O9 0.678193 0.250000 0.868576
O O10 0.638038 0.532653 0.814399
O O11 0.620601 0.485023 0.934449
O O12 0.893800 0.250000 0.752242
O O13 0.972508 0.521549 0.735940
O O14 0.088464 0.250000 0.001247
O O15 0.119396 0.535642 0.944121
O O16 0.000000 0.500000 0.000000
O O17 0.964522 0.750000 0.309700
O O18 0.890509 0.028967 0.288261
O O19 0.250000 0.981409 0.910097
O O20 0.330449 0.250000 0.892627
O O21 0.341322 0.976632 0.823816
O O22 0.750000 0.024949 0.263274
O O23 0.672605 0.750000 0.247100
#
# Coordination Sequence:
#
# PCOD9449816 Si02
#       8
#     8   8   8   8   8   8   8   8
#     4   9  17  29  45  67  93 124 157 188 229 277
#     4   8  13  24  44  69  93 118 157 204 237 267
#     4  10  20  33  51  76 102 127 157 195 246 303
#     4   8  14  24  43  70  96 120 151 196 243 281
#     4  11  23  36  50  69  96 130 167 206 246 289
#     4   8  14  24  41  65  91 119 152 192 233 273
#     4   8  15  28  46  67  89 117 153 192 237 285
#     4   8  13  22  39  64  90 114 145 190 238 277
#
# _framework density 20.191991000000002
#
# number of rings (size 3 to 8) (size 9 to 14) (size 15 to 20)
#    0.000    3.250    0.000    3.375    1.750    2.250 
#    0.000    0.625    0.000    4.125    0.000    0.000 
#    0.000    0.000    0.000    0.000    0.000    0.000 
#
# Total GULP energy -356902.025800 kJ/mol
# GULP energy per Si atom -5576.594153 kJ/mol
# Density = 2.014603 g / cm^3
# Si number density = 20.191991 Si / 1000 Ang^3
#
#
#
# Elastic Constant Matrix: (Units=GPa)
#
#
# Indices 1 2 3 4 5 6 
#
# 1 225.2263 4.3172 138.0931 0.0000 0.0000 0.0000
# 2 4.3172 54.8836 2.8801 0.0000 0.0000 0.0000
# 3 138.0931 2.8801 133.8615 0.0000 0.0000 0.0000
# 4 0.0000 0.0000 0.0000 15.0012 0.0000 0.0000
# 5 0.0000 0.0000 0.0000 0.0000 29.0430 0.0000
# 6 0.0000 0.0000 0.0000 0.0000 0.0000 1.0900
#
#
#
# Elastic Compliance Matrix: (Units=1/GPa)
#
#
# Indices 1 2 3 4 5 6 
#
# 1 0.012087 -0.000297 -0.012463 0.000000 0.000000 0.000000
# 2 -0.000297 0.018248 -0.000086 0.000000 0.000000 0.000000
# 3 -0.012463 -0.000086 0.020329 0.000000 0.000000 0.000000
# 4 0.000000 0.000000 0.000000 0.066662 0.000000 0.000000
# 5 0.000000 0.000000 0.000000 0.000000 0.034432 0.000000
# 6 0.000000 0.000000 0.000000 0.000000 0.000000 0.917449
#
#
# Mechanical properties :
#
#
# Convention : Reuss Voigt Hill
#
# Bulk Modulus (GPa) = 40.04435 78.28358 59.16397
# Shear Modulus (GPa) = 4.53218 26.93890 15.73554
#
# Velocity S-wave (km/s) = 1.49981 3.65655 2.79462
# Velocity P-wave (km/s) = 4.78268 7.52867 6.30694
#
# Compressibility (1/GPa) = 0.02497231
#
# Stress axis : x y z
#
# Youngs Moduli (GPa) = 82.73483 54.79972 49.19146
#
# Poissons Ratio (x) = 0.01626 0.61305
# Poissons Ratio (y) = 0.02455 0.00425
# Poissons Ratio (z) = 1.03108 0.00474
#
# Static dielectric constant tensor:
#      x y z
#    x 1.713860 0.000000 0.000000 
#    y 0.000000 1.789710 0.000000 
#    z 0.000000 0.000000 1.689920 
# 
# From -- ./inp_files/32322.got.cif
#   From: 2010.05.17/outbox.cif.g08.bks.cpg/sg59_17_cif.got.tgz:32322.got - 2010.06.03 14:40:33.
