data_PCOD9449330
_publ_section_title
;
Structure prediction by ZEFSAII (Michael W. Deem and Ramdas Pophale) SiO2 
 PCOD9449330
Probable space group: P M M N
;
_chemical_formula_sum "Si O2"
_cell_formula_units_Z 48
_cell_length_a 8.401092
_cell_length_b 15.859673
_cell_length_c 18.115857
_cell_angle_alpha 90.000000
_cell_angle_beta 90.000000
_cell_angle_gamma 90.000000
_cell_volume 2413.730917
_symmetry_space_group_name_H-M "P M M N"
_symmetry_group_IT_number 59
_space_group.IT_coordinate_system_code '2'
_symmetry_cell_setting 'orthorhombic'
loop_
_space_group_symop_operation_xyz
x,y,z
1/2-x,1/2-y,z
1/2+x,-y,-z
-x,1/2+y,-z
-x,-y,-z
1/2+x,1/2+y,-z
1/2-x,y,z
x,1/2-y,z
loop_
_atom_site_type_symbol
_atom_site_label
_atom_site_fract_x
_atom_site_fract_y
_atom_site_fract_z
Si Si1 0.443154 0.094782 0.003750
Si Si2 0.442910 0.347715 0.686342
Si Si3 0.938551 0.152088 0.321096
Si Si4 0.430383 0.350369 0.846057
Si Si5 0.430943 0.350711 0.163476
Si Si6 0.061621 0.502802 0.416604
O O1 0.250000 0.105854 0.005075
O O2 0.503000 0.133446 0.926415
O O3 0.499951 0.127867 0.083163
O O4 0.500000 0.000000 0.000000
O O5 0.250000 0.346529 0.690722
O O6 0.492918 0.250000 0.671846
O O7 0.504216 0.376791 0.767838
O O8 0.492558 0.416027 0.626367
O O9 0.750000 0.151802 0.332765
O O10 0.994631 0.250000 0.330818
O O11 0.974400 0.124781 0.236616
O O12 0.014761 0.083581 0.374839
O O13 0.250000 0.386458 0.848700
O O14 0.417854 0.250000 0.838804
O O15 0.250000 0.384992 0.168719
O O16 0.421387 0.250000 0.165365
O O17 0.250000 0.510532 0.416853
O O18 0.000000 0.500000 0.500000
#
# Coordination Sequence:
#
# PCOD9449330 Si02
#       6
#     8   8   8   8   8   8
#     4  10  20  31  47  77 113 151 194 239 286 336
#     4   9  19  38  64  92 122 158 201 246 295 353
#     4  10  22  41  65  91 120 156 200 249 302 359
#     4   8  15  31  55  79 105 146 195 237 280 334
#     4   9  18  34  55  79 111 152 197 243 291 345
#     4  12  26  43  65  92 123 157 194 240 296 360
#
# _framework density 19.886227000000002
#
# number of rings (size 3 to 8) (size 9 to 14) (size 15 to 20)
#    0.000    2.333    0.000    3.500    2.333    4.667 
#    0.000    0.000    0.000    2.500    0.000    0.000 
#    0.000    0.000    0.000    0.000    0.000    0.000 
#
# Total GULP energy -267510.977271 kJ/mol
# GULP energy per Si atom -5573.145360 kJ/mol
# Density = 1.984097 g / cm^3
# Si number density = 19.886227 Si / 1000 Ang^3
#
#
#
# Elastic Constant Matrix: (Units=GPa)
#
#
# Indices 1 2 3 4 5 6 
#
# 1 31.9506 18.8499 26.4357 0.0000 0.0000 0.0000
# 2 18.8499 79.5074 77.2810 0.0000 0.0000 0.0000
# 3 26.4357 77.2810 197.3062 0.0000 0.0000 0.0000
# 4 0.0000 0.0000 0.0000 40.5234 0.0000 0.0000
# 5 0.0000 0.0000 0.0000 0.0000 19.9654 0.0000
# 6 0.0000 0.0000 0.0000 0.0000 0.0000 25.3878
#
#
#
# Elastic Compliance Matrix: (Units=1/GPa)
#
#
# Indices 1 2 3 4 5 6 
#
# 1 0.037116 -0.006404 -0.002465 0.000000 0.000000 0.000000
# 2 -0.006404 0.021415 -0.007530 0.000000 0.000000 0.000000
# 3 -0.002465 -0.007530 0.008348 0.000000 0.000000 0.000000
# 4 0.000000 0.000000 0.000000 0.024677 0.000000 0.000000
# 5 0.000000 0.000000 0.000000 0.000000 0.050087 0.000000
# 6 0.000000 0.000000 0.000000 0.000000 0.000000 0.039389
#
#
# Mechanical properties :
#
#
# Convention : Reuss Voigt Hill
#
# Bulk Modulus (GPa) = 29.34144 61.54418 45.44281
# Shear Modulus (GPa) = 22.20374 29.58849 25.89612
#
# Velocity S-wave (km/s) = 3.34509 3.86150 3.61253
# Velocity P-wave (km/s) = 5.45034 7.13421 6.34835
#
# Compressibility (1/GPa) = 0.03408149
#
# Stress axis : x y z
#
# Youngs Moduli (GPa) = 26.94285 46.69732 119.79377
#
# Poissons Ratio (x) = 0.29905 0.29524
# Poissons Ratio (y) = 0.17254 0.90200
# Poissons Ratio (z) = 0.06640 0.35161
#
# Static dielectric constant tensor:
#      x y z
#    x 2.144070 0.000000 0.000000 
#    y 0.000000 1.684820 0.000000 
#    z 0.000000 0.000000 1.775600 
# 
# From -- ./inp_files/25505.got.cif
#   From: 2010.05.17/outbox.cif.g08.bks.cpg/sg59_13_cif.got.tgz:25505.got - 2010.06.03 14:40:33.
