data_PCOD9449125
_publ_section_title
;
Structure prediction by ZEFSAII (Michael W. Deem and Ramdas Pophale) SiO2 
 PCOD9449125
Probable space group: P M M N
;
_chemical_formula_sum "Si O2"
_cell_formula_units_Z 48
_cell_length_a 14.898588
_cell_length_b 19.182477
_cell_length_c 9.536431
_cell_angle_alpha 90.000000
_cell_angle_beta 90.000000
_cell_angle_gamma 90.000000
_cell_volume 2725.433987
_symmetry_space_group_name_H-M "P M M N"
_symmetry_group_IT_number 59
_space_group.IT_coordinate_system_code '2'
_symmetry_cell_setting 'orthorhombic'
loop_
_space_group_symop_operation_xyz
x,y,z
1/2-x,1/2-y,z
1/2+x,-y,-z
-x,1/2+y,-z
-x,-y,-z
1/2+x,1/2+y,-z
1/2-x,y,z
x,1/2-y,z
loop_
_atom_site_type_symbol
_atom_site_label
_atom_site_fract_x
_atom_site_fract_y
_atom_site_fract_z
Si Si1 0.003682 0.565036 0.695327
Si Si2 0.011209 0.403086 0.621605
Si Si3 0.856464 0.940142 0.929630
Si Si4 0.644045 0.089974 0.073719
Si Si5 0.143055 0.169270 0.827975
Si Si6 0.355543 0.832174 0.208667
O O1 0.024962 0.483920 0.663000
O O2 0.914939 0.566661 0.790735
O O3 0.991161 0.601501 0.545892
O O4 0.083015 0.596501 0.789960
O O5 0.918515 0.376105 0.689105
O O6 0.088746 0.358340 0.694860
O O7 0.750000 0.937105 0.900783
O O8 0.880332 0.879601 0.040044
O O9 0.875018 0.014277 0.004173
O O10 0.750000 0.092914 0.106972
O O11 0.624259 0.145366 0.951322
O O12 0.250000 0.162659 0.805741
O O13 0.121961 0.250000 0.855289
O O14 0.250000 0.847547 0.231690
O O15 0.370470 0.750000 0.227835
#
# Coordination Sequence:
#
# PCOD9449125 Si02
#       6
#     8   8   8   8   8   8
#     4  11  22  34  54  83 116 142 177 231 277 324
#     4  11  22  35  53  82 115 148 180 220 276 334
#     4  10  19  35  59  84 109 142 184 231 277 319
#     4  10  19  35  59  84 109 142 184 231 277 319
#     4  10  21  38  59  81 108 146 189 228 270 326
#     4  10  21  38  59  81 108 146 189 228 270 326
#
# _framework density 17.611874
#
# number of rings (size 3 to 8) (size 9 to 14) (size 15 to 20)
#    0.000    1.667    3.333    2.000    0.000    1.333 
#    0.000    6.667    0.000    4.000    0.000    0.000 
#    0.000    0.000    0.000    0.000    0.000    0.000 
#
# Total GULP energy -268098.894581 kJ/mol
# GULP energy per Si atom -5585.393637 kJ/mol
# Density = 1.757179 g / cm^3
# Si number density = 17.611874 Si / 1000 Ang^3
#
#
#
# Elastic Constant Matrix: (Units=GPa)
#
#
# Indices 1 2 3 4 5 6 
#
# 1 29.9382 -13.4456 27.0691 0.0000 0.0000 0.0000
# 2 -13.4456 26.7621 -8.1876 0.0000 0.0000 0.0000
# 3 27.0691 -8.1876 106.2558 0.0000 0.0000 0.0000
# 4 0.0000 0.0000 0.0000 20.5765 0.0000 0.0000
# 5 0.0000 0.0000 0.0000 0.0000 -4.7203 0.0000
# 6 0.0000 0.0000 0.0000 0.0000 0.0000 15.9535
#
#
#
# Elastic Compliance Matrix: (Units=1/GPa)
#
#
# Indices 1 2 3 4 5 6 
#
# 1 0.055237 0.024013 -0.012222 0.000000 0.000000 0.000000
# 2 0.024013 0.048707 -0.002364 0.000000 0.000000 0.000000
# 3 -0.012222 -0.002364 0.012343 0.000000 0.000000 0.000000
# 4 0.000000 0.000000 0.000000 0.048599 0.000000 0.000000
# 5 0.000000 0.000000 0.000000 0.000000 -0.211853 0.000000
# 6 0.000000 0.000000 0.000000 0.000000 0.000000 0.062682
#
#
# Mechanical properties :
#
#
# Convention : Reuss Voigt Hill
#
# Bulk Modulus (GPa) = 7.39970 19.31422 13.35696
# Shear Modulus (GPa) = 119.30849 16.86330 68.08589
#
# Velocity S-wave (km/s) = 8.23956 3.09770 6.22439
# Velocity P-wave (km/s) = 9.73299 4.87696 7.69791
#
# Compressibility (1/GPa) = 0.13514066
#
# Stress axis : x y z
#
# Youngs Moduli (GPa) = 18.10387 20.53080 81.02045
#
# Poissons Ratio (x) = -0.49300 0.99019
# Poissons Ratio (y) = -0.43472 0.19155
# Poissons Ratio (z) = 0.22126 0.04854
#
# Static dielectric constant tensor:
#      x y z
#    x 1.612170 0.000000 0.000000 
#    y 0.000000 1.592580 0.000000 
#    z 0.000000 0.000000 1.562390 
# 
# From -- ./inp_files/8992.got.cif
#   From: 2010.05.17/outbox.cif.g08.bks.cpg/sg59_5_cif.got.tgz:8992.got - 2010.06.03 14:40:33.
