data_PCOD9449319
_publ_section_title
;
Structure prediction by ZEFSAII (Michael W. Deem and Ramdas Pophale) SiO2 
 PCOD9449319
Probable space group: P M M N
;
_chemical_formula_sum "Si O2"
_cell_formula_units_Z 64
_cell_length_a 27.869174
_cell_length_b 14.676884
_cell_length_c 9.336646
_cell_angle_alpha 90.000000
_cell_angle_beta 90.000000
_cell_angle_gamma 90.000000
_cell_volume 3818.992906
_symmetry_space_group_name_H-M "P M M N"
_symmetry_group_IT_number 59
_space_group.IT_coordinate_system_code '2'
_symmetry_cell_setting 'orthorhombic'
loop_
_space_group_symop_operation_xyz
x,y,z
1/2-x,1/2-y,z
1/2+x,-y,-z
-x,1/2+y,-z
-x,-y,-z
1/2+x,1/2+y,-z
1/2-x,y,z
x,1/2-y,z
loop_
_atom_site_type_symbol
_atom_site_label
_atom_site_fract_x
_atom_site_fract_y
_atom_site_fract_z
Si Si1 0.375565 0.959582 0.833189
Si Si2 0.042479 0.641008 0.666661
Si Si3 0.469720 0.076487 0.092376
Si Si4 0.193032 0.641388 0.331531
Si Si5 0.480450 0.642087 0.347692
Si Si6 0.073642 0.146321 0.818352
Si Si7 0.807096 0.351961 0.334414
Si Si8 0.604700 0.434824 0.839165
O O1 0.410653 0.909010 0.723129
O O2 0.324596 0.927216 0.776445
O O3 0.386397 0.067408 0.827169
O O4 0.387158 0.921204 0.991253
O O5 0.049159 0.750000 0.662856
O O6 0.030256 0.608020 0.506779
O O7 0.001963 0.616508 0.782689
O O8 0.422022 0.032486 0.161781
O O9 0.452339 0.146380 0.972638
O O10 0.500000 0.000000 0.000000
O O11 0.250000 0.620243 0.310421
O O12 0.187162 0.750000 0.300659
O O13 0.180465 0.628743 0.499519
O O14 0.155004 0.584050 0.239133
O O15 0.485900 0.750000 0.357354
O O16 0.531560 0.609990 0.286914
O O17 0.436470 0.623925 0.239715
O O18 0.088430 0.250000 0.782024
O O19 0.750000 0.347581 0.331800
O O20 0.825562 0.250000 0.297749
#
# Coordination Sequence:
#
# PCOD9449319 Si02
#       8
#     8   8   8   8   8   8   8   8
#     4  11  21  33  50  77 101 130 177 211 254 314
#     4  11  21  32  49  73 106 139 170 212 255 306
#     4  11  19  36  48  72 100 137 179 216 258 306
#     4   9  19  35  52  74 105 137 170 208 255 313
#     4  10  20  31  46  72 100 135 176 208 253 307
#     4  10  20  36  52  68 101 139 172 218 263 304
#     4   9  19  36  55  76 106 139 168 206 260 316
#     4  11  20  31  48  71  99 134 173 216 253 303
#
# _framework density 16.758344000000001
#
# number of rings (size 3 to 8) (size 9 to 14) (size 15 to 20)
#    0.000    1.750    3.750    2.625    0.000    8.500 
#    0.000    1.250    0.000    0.375    0.000    0.000 
#    0.000    6.500    0.000    0.000    0.000    0.000 
#
# Total GULP energy -356579.970736 kJ/mol
# GULP energy per Si atom -5571.562043 kJ/mol
# Density = 1.672020 g / cm^3
# Si number density = 16.758344 Si / 1000 Ang^3
#
#
#
# Elastic Constant Matrix: (Units=GPa)
#
#
# Indices 1 2 3 4 5 6 
#
# 1 49.3804 22.3913 24.4240 0.0000 0.0000 0.0000
# 2 22.3913 64.1134 28.5060 0.0000 0.0000 0.0000
# 3 24.4240 28.5060 73.9694 0.0000 0.0000 0.0000
# 4 0.0000 0.0000 0.0000 23.0310 0.0000 0.0000
# 5 0.0000 0.0000 0.0000 0.0000 33.4409 0.0000
# 6 0.0000 0.0000 0.0000 0.0000 0.0000 21.3637
#
#
#
# Elastic Compliance Matrix: (Units=1/GPa)
#
#
# Indices 1 2 3 4 5 6 
#
# 1 0.026216 -0.006404 -0.006188 0.000000 0.000000 0.000000
# 2 -0.006404 0.020387 -0.005742 0.000000 0.000000 0.000000
# 3 -0.006188 -0.005742 0.017775 0.000000 0.000000 0.000000
# 4 0.000000 0.000000 0.000000 0.043420 0.000000 0.000000
# 5 0.000000 0.000000 0.000000 0.000000 0.029904 0.000000
# 6 0.000000 0.000000 0.000000 0.000000 0.000000 0.046808
#
#
# Mechanical properties :
#
#
# Convention : Reuss Voigt Hill
#
# Bulk Modulus (GPa) = 36.08938 37.56733 36.82835
# Shear Modulus (GPa) = 21.69999 23.04323 22.37161
#
# Velocity S-wave (km/s) = 3.60234 3.71216 3.65767
# Velocity P-wave (km/s) = 6.23574 6.39056 6.31362
#
# Compressibility (1/GPa) = 0.02770898
#
# Stress axis : x y z
#
# Youngs Moduli (GPa) = 38.14510 49.05073 56.25817
#
# Poissons Ratio (x) = 0.31414 0.34813
# Poissons Ratio (y) = 0.24429 0.32304
# Poissons Ratio (z) = 0.23605 0.28165
#
# Static dielectric constant tensor:
#      x y z
#    x 1.606070 0.000000 0.000000 
#    y 0.000000 1.586630 0.000000 
#    z 0.000000 0.000000 1.594420 
# 
# From -- ./inp_files/13251.got.cif
#   From: 2010.05.17/outbox.cif.g08.bks.cpg/sg59_7_cif.got.tgz:13251.got - 2010.06.03 14:40:33.
