data_PCOD9449744
_publ_section_title
;
Structure prediction by ZEFSAII (Michael W. Deem and Ramdas Pophale) SiO2 
 PCOD9449744
Probable space group: P M M N
;
_chemical_formula_sum "Si O2"
_cell_formula_units_Z 48
_cell_length_a 7.504031
_cell_length_b 9.467670
_cell_length_c 31.751862
_cell_angle_alpha 90.000000
_cell_angle_beta 90.000000
_cell_angle_gamma 90.000000
_cell_volume 2255.832918
_symmetry_space_group_name_H-M "P M M N"
_symmetry_group_IT_number 59
_space_group.IT_coordinate_system_code '2'
_symmetry_cell_setting 'orthorhombic'
loop_
_space_group_symop_operation_xyz
x,y,z
1/2-x,1/2-y,z
1/2+x,-y,-z
-x,1/2+y,-z
-x,-y,-z
1/2+x,1/2+y,-z
1/2-x,y,z
x,1/2-y,z
loop_
_atom_site_type_symbol
_atom_site_label
_atom_site_fract_x
_atom_site_fract_y
_atom_site_fract_z
Si Si1 0.468367 0.587193 0.876890
Si Si2 0.538684 0.909182 0.202940
Si Si3 0.967395 0.587222 0.620746
Si Si4 0.536228 0.409213 0.541442
Si Si5 0.035446 0.089090 0.284641
Si Si6 0.963461 0.588958 0.041925
O O1 0.250000 0.589047 0.877004
O O2 0.525739 0.750000 0.878866
O O3 0.529623 0.509575 0.834351
O O4 0.527554 0.497039 0.917286
O O5 0.750000 0.898291 0.195617
O O6 0.465409 0.750000 0.201879
O O7 0.515153 0.982950 0.247924
O O8 0.750000 0.584267 0.620524
O O9 0.019145 0.750000 0.612998
O O10 0.030983 0.487226 0.583401
O O11 0.024293 0.548592 0.668182
O O12 0.500000 0.500000 0.500000
O O13 0.750000 0.401480 0.545556
O O14 0.467406 0.250000 0.537276
O O15 0.250000 0.093428 0.285717
O O16 0.973567 0.250000 0.275888
O O17 0.750000 0.598174 0.046098
O O18 0.031880 0.750000 0.039603
O O19 0.000000 0.500000 0.000000
#
# Coordination Sequence:
#
# PCOD9449744 Si02
#       6
#     8   8   8   8   8   8
#     4   9  17  31  52  74  97 130 169 205 245 295
#     4  10  20  33  50  74 103 133 166 204 245 291
#     4   8  15  30  51  72  96 128 164 201 243 292
#     4  10  20  33  51  75 100 128 164 203 244 292
#     4   9  18  33  53  76 100 128 164 204 246 294
#     4  10  20  34  53  77 104 133 166 205 248 294
#
# _framework density 21.278169999999999
#
# number of rings (size 3 to 8) (size 9 to 14) (size 15 to 20)
#    0.000    2.667    0.000    3.000    0.000    6.000 
#    0.000    3.333    0.000    6.000    0.000    0.000 
#    0.000    0.000    0.000    0.000    0.000    0.000 
#
# Total GULP energy -268082.251986 kJ/mol
# GULP energy per Si atom -5585.046916 kJ/mol
# Density = 2.122974 g / cm^3
# Si number density = 21.278170 Si / 1000 Ang^3
#
#
#
# Elastic Constant Matrix: (Units=GPa)
#
#
# Indices 1 2 3 4 5 6 
#
# 1 55.8988 6.9627 -0.9107 0.0000 0.0000 0.0000
# 2 6.9627 227.4256 154.0579 0.0000 0.0000 0.0000
# 3 -0.9107 154.0579 202.7965 0.0000 0.0000 0.0000
# 4 0.0000 0.0000 0.0000 43.3444 0.0000 0.0000
# 5 0.0000 0.0000 0.0000 0.0000 24.1917 0.0000
# 6 0.0000 0.0000 0.0000 0.0000 0.0000 12.6193
#
#
#
# Elastic Compliance Matrix: (Units=1/GPa)
#
#
# Indices 1 2 3 4 5 6 
#
# 1 0.018062 -0.001252 0.001033 0.000000 0.000000 0.000000
# 2 -0.001252 0.009145 -0.006953 0.000000 0.000000 0.000000
# 3 0.001033 -0.006953 0.010218 0.000000 0.000000 0.000000
# 4 0.000000 0.000000 0.000000 0.023071 0.000000 0.000000
# 5 0.000000 0.000000 0.000000 0.000000 0.041336 0.000000
# 6 0.000000 0.000000 0.000000 0.000000 0.000000 0.079244
#
#
# Mechanical properties :
#
#
# Convention : Reuss Voigt Hill
#
# Bulk Modulus (GPa) = 43.32856 89.59339 66.46098
# Shear Modulus (GPa) = 24.61647 37.76514 31.19081
#
# Velocity S-wave (km/s) = 3.40500 4.21744 3.83281
# Velocity P-wave (km/s) = 5.98881 8.11868 7.13368
#
# Compressibility (1/GPa) = 0.02307946
#
# Stress axis : x y z
#
# Youngs Moduli (GPa) = 55.36399 109.34459 97.86917
#
# Poissons Ratio (x) = 0.13694 -0.10105
# Poissons Ratio (y) = 0.06934 0.68049
# Poissons Ratio (z) = -0.05716 0.76028
#
# Static dielectric constant tensor:
#      x y z
#    x 1.834030 0.000000 0.000000 
#    y 0.000000 1.749160 0.000000 
#    z 0.000000 0.000000 1.725770 
# 
# From -- ./inp_files/31244.got.cif
#   From: 2010.05.17/outbox.cif.g08.bks.cpg/sg59_16_cif.got.tgz:31244.got - 2010.06.03 14:40:33.
