data_PCOD9449112
_publ_section_title
;
Structure prediction by ZEFSAII (Michael W. Deem and Ramdas Pophale) SiO2 
 PCOD9449112
Probable space group: P M M N
;
_chemical_formula_sum "Si O2"
_cell_formula_units_Z 40
_cell_length_a 29.336694
_cell_length_b 7.743924
_cell_length_c 8.172274
_cell_angle_alpha 90.000000
_cell_angle_beta 90.000000
_cell_angle_gamma 90.000000
_cell_volume 1856.586432
_symmetry_space_group_name_H-M "P M M N"
_symmetry_group_IT_number 59
_space_group.IT_coordinate_system_code '2'
_symmetry_cell_setting 'orthorhombic'
loop_
_space_group_symop_operation_xyz
x,y,z
1/2-x,1/2-y,z
1/2+x,-y,-z
-x,1/2+y,-z
-x,-y,-z
1/2+x,1/2+y,-z
1/2-x,y,z
x,1/2-y,z
loop_
_atom_site_type_symbol
_atom_site_label
_atom_site_fract_x
_atom_site_fract_y
_atom_site_fract_z
Si Si1 0.048697 0.956185 0.924583
Si Si2 0.449256 0.446236 0.550436
Si Si3 0.858056 0.461588 0.915324
Si Si4 0.146698 0.948542 0.442689
Si Si5 0.197243 0.538685 0.765237
O O1 0.051974 0.750000 0.902817
O O2 0.054034 0.036752 0.745833
O O3 0.090136 0.011249 0.040992
O O4 0.000000 0.000000 0.000000
O O5 0.500000 0.500000 0.500000
O O6 0.442293 0.250000 0.499050
O O7 0.407710 0.550073 0.471477
O O8 0.857080 0.250000 0.910016
O O9 0.843976 0.525400 0.735988
O O10 0.826815 0.517266 0.066835
O O11 0.162490 0.750000 0.435813
O O12 0.170439 0.024411 0.604031
O O13 0.250000 0.489721 0.759195
O O14 0.194786 0.750000 0.766222
#
# Coordination Sequence:
#
# PCOD9449112 Si02
#       5
#     8   8   8   8   8
#     4  11  21  36  56  83 119 158 199 244 292 352
#     4  12  24  38  57  83 115 155 199 247 301 363
#     4   9  18  32  53  81 115 151 187 234 289 344
#     4  10  19  35  58  84 117 154 193 242 295 352
#     4   9  17  31  54  86 120 152 190 240 295 349
#
# _framework density 21.544916000000001
#
# number of rings (size 3 to 8) (size 9 to 14) (size 15 to 20)
#    0.000    1.800    2.000    3.600    0.000    2.400 
#    0.000    5.000    0.000    0.600    0.000    0.000 
#    0.000    0.000    0.000    0.000    0.000    0.000 
#
# Total GULP energy -223518.795418 kJ/mol
# GULP energy per Si atom -5587.969885 kJ/mol
# Density = 2.149588 g / cm^3
# Si number density = 21.544916 Si / 1000 Ang^3
#
#
#
# Elastic Constant Matrix: (Units=GPa)
#
#
# Indices 1 2 3 4 5 6 
#
# 1 134.2149 -6.7205 82.9891 0.0000 0.0000 0.0000
# 2 -6.7205 42.8639 -3.9202 0.0000 0.0000 0.0000
# 3 82.9891 -3.9202 209.1114 0.0000 0.0000 0.0000
# 4 0.0000 0.0000 0.0000 10.6100 0.0000 0.0000
# 5 0.0000 0.0000 0.0000 0.0000 29.1701 0.0000
# 6 0.0000 0.0000 0.0000 0.0000 0.0000 13.5892
#
#
#
# Elastic Compliance Matrix: (Units=1/GPa)
#
#
# Indices 1 2 3 4 5 6 
#
# 1 0.009935 0.001199 -0.003920 0.000000 0.000000 0.000000
# 2 0.001199 0.023514 -0.000035 0.000000 0.000000 0.000000
# 3 -0.003920 -0.000035 0.006337 0.000000 0.000000 0.000000
# 4 0.000000 0.000000 0.000000 0.094251 0.000000 0.000000
# 5 0.000000 0.000000 0.000000 0.000000 0.034282 0.000000
# 6 0.000000 0.000000 0.000000 0.000000 0.000000 0.073588
#
#
# Mechanical properties :
#
#
# Convention : Reuss Voigt Hill
#
# Bulk Modulus (GPa) = 29.17656 58.98746 44.08201
# Shear Modulus (GPa) = 19.31668 31.59666 25.45667
#
# Velocity S-wave (km/s) = 2.99754 3.83371 3.44112
# Velocity P-wave (km/s) = 5.05489 6.85818 6.02439
#
# Compressibility (1/GPa) = 0.03427408
#
# Stress axis : x y z
#
# Youngs Moduli (GPa) = 100.65604 42.52700 157.79544
#
# Poissons Ratio (x) = -0.05099 0.61861
# Poissons Ratio (y) = -0.12070 0.00553
# Poissons Ratio (z) = 0.39460 0.00149
#
# Static dielectric constant tensor:
#      x y z
#    x 1.748550 0.000000 0.000000 
#    y 0.000000 1.874830 0.000000 
#    z 0.000000 0.000000 1.771900 
# 
# From -- ./inp_files/5860.got.cif
#   From: 2010.05.17/outbox.cif.g08.bks.cpg/sg59_3_cif.got.tgz:5860.got - 2010.06.03 14:40:33.
