data_PCOD9449850
_publ_section_title
;
Structure prediction by ZEFSAII (Michael W. Deem and Ramdas Pophale) SiO2 
 PCOD9449850
Probable space group: P M M N
;
_chemical_formula_sum "Si O2"
_cell_formula_units_Z 48
_cell_length_a 9.765018
_cell_length_b 8.050468
_cell_length_c 29.969210
_cell_angle_alpha 90.000000
_cell_angle_beta 90.000000
_cell_angle_gamma 90.000000
_cell_volume 2355.968455
_symmetry_space_group_name_H-M "P M M N"
_symmetry_group_IT_number 59
_space_group.IT_coordinate_system_code '2'
_symmetry_cell_setting 'orthorhombic'
loop_
_space_group_symop_operation_xyz
x,y,z
1/2-x,1/2-y,z
1/2+x,-y,-z
-x,1/2+y,-z
-x,-y,-z
1/2+x,1/2+y,-z
1/2-x,y,z
x,1/2-y,z
loop_
_atom_site_type_symbol
_atom_site_label
_atom_site_fract_x
_atom_site_fract_y
_atom_site_fract_z
Si Si1 0.908507 0.450412 0.810710
Si Si2 0.250000 0.070498 0.962632
Si Si3 0.474910 0.562077 0.900854
Si Si4 0.407224 0.547366 0.290684
Si Si5 0.250000 0.559020 0.056996
Si Si6 0.908597 0.953213 0.373011
Si Si7 0.091035 0.549434 0.457479
O O1 0.750000 0.499103 0.819860
O O2 0.913493 0.250000 0.812117
O O3 0.940107 0.503587 0.760053
O O4 0.006039 0.518066 0.849074
O O5 0.250000 0.250000 0.984788
O O6 0.123465 0.051388 0.929755
O O7 0.250000 0.944068 0.003464
O O8 0.426717 0.750000 0.905279
O O9 0.620178 0.534589 0.923769
O O10 0.250000 0.496676 0.301106
O O11 0.406636 0.750000 0.291025
O O12 0.516782 0.493314 0.327363
O O13 0.250000 0.750000 0.073119
O O14 0.750000 0.007230 0.376975
O O15 0.906630 0.750000 0.373300
O O16 0.006021 0.006357 0.413882
O O17 0.250000 0.490272 0.459140
O O18 0.097024 0.750000 0.455876
O O19 0.000000 0.500000 0.500000
#
# Coordination Sequence:
#
# PCOD9449850 Si02
#       7
#     8   4   8   8   4   8   8
#     4   9  17  32  55  81 109 143 185 229 276 333
#     4  12  26  44  62  86 118 154 192 238 291 344
#     4  12  24  40  61  88 119 154 193 236 286 343
#     4   8  14  26  46  71  99 134 177 226 275 327
#     4  12  24  42  66  90 118 152 194 238 283 342
#     4   9  16  27  45  72 106 140 180 231 285 337
#     4  10  20  33  51  76 107 146 190 238 289 342
#
# _framework density 20.373785999999999
#
# number of rings (size 3 to 8) (size 9 to 14) (size 15 to 20)
#    0.000    2.000    0.833    5.500    0.000    3.000 
#    1.500    0.000    0.000    1.000    0.000    2.333 
#    0.000    0.000    0.000    0.000    0.000    0.000 
#
# Total GULP energy -267982.740724 kJ/mol
# GULP energy per Si atom -5582.973765 kJ/mol
# Density = 2.032741 g / cm^3
# Si number density = 20.373786 Si / 1000 Ang^3
#
#
#
# Elastic Constant Matrix: (Units=GPa)
#
#
# Indices 1 2 3 4 5 6 
#
# 1 142.4468 -0.6575 71.8928 0.0000 0.0000 0.0000
# 2 -0.6575 33.5079 2.8286 0.0000 0.0000 0.0000
# 3 71.8928 2.8286 149.6772 0.0000 0.0000 0.0000
# 4 0.0000 0.0000 0.0000 22.3738 0.0000 0.0000
# 5 0.0000 0.0000 0.0000 0.0000 1.6007 0.0000
# 6 0.0000 0.0000 0.0000 0.0000 0.0000 -33.5129
#
#
#
# Elastic Compliance Matrix: (Units=1/GPa)
#
#
# Indices 1 2 3 4 5 6 
#
# 1 0.009277 0.000559 -0.004466 0.000000 0.000000 0.000000
# 2 0.000559 0.029925 -0.000834 0.000000 0.000000 0.000000
# 3 -0.004466 -0.000834 0.008842 0.000000 0.000000 0.000000
# 4 0.000000 0.000000 0.000000 0.044695 0.000000 0.000000
# 5 0.000000 0.000000 0.000000 0.000000 0.624731 0.000000
# 6 0.000000 0.000000 0.000000 0.000000 0.000000 -0.029839
#
#
# Mechanical properties :
#
#
# Convention : Reuss Voigt Hill
#
# Bulk Modulus (GPa) = 25.93277 52.63998 39.28637
# Shear Modulus (GPa) = 7.04257 14.86351 10.95304
#
# Velocity S-wave (km/s) = 1.86123 2.70393 2.32115
# Velocity P-wave (km/s) = 4.16834 5.97005 5.14862
#
# Compressibility (1/GPa) = 0.03856125
#
# Stress axis : x y z
#
# Youngs Moduli (GPa) = 107.79383 33.41680 113.09487
#
# Poissons Ratio (x) = -0.01868 0.50513
# Poissons Ratio (y) = -0.06026 0.09433
# Poissons Ratio (z) = 0.48146 0.02787
#
# Static dielectric constant tensor:
#      x y z
#    x 1.676140 0.000000 0.000000 
#    y 0.000000 1.722260 0.000000 
#    z 0.000000 0.000000 1.710050 
# 
# From -- ./inp_files/33054.got.cif
#   From: 2010.05.17/outbox.cif.g08.bks.cpg/sg59_17_cif.got.tgz:33054.got - 2010.06.03 14:40:33.
