data_PCOD9449978
_publ_section_title
;
Structure prediction by ZEFSAII (Michael W. Deem and Ramdas Pophale) SiO2 
 PCOD9449978
Probable space group: P M M N
;
_chemical_formula_sum "Si O2"
_cell_formula_units_Z 48
_cell_length_a 10.004659
_cell_length_b 8.468572
_cell_length_c 29.279418
_cell_angle_alpha 90.000000
_cell_angle_beta 90.000000
_cell_angle_gamma 90.000000
_cell_volume 2480.703816
_symmetry_space_group_name_H-M "P M M N"
_symmetry_group_IT_number 59
_space_group.IT_coordinate_system_code '2'
_symmetry_cell_setting 'orthorhombic'
loop_
_space_group_symop_operation_xyz
x,y,z
1/2-x,1/2-y,z
1/2+x,-y,-z
-x,1/2+y,-z
-x,-y,-z
1/2+x,1/2+y,-z
1/2-x,y,z
x,1/2-y,z
loop_
_atom_site_type_symbol
_atom_site_label
_atom_site_fract_x
_atom_site_fract_y
_atom_site_fract_z
Si Si1 0.750000 0.568715 0.969483
Si Si2 0.405831 0.941358 0.458947
Si Si3 0.402695 0.442288 0.622643
Si Si4 0.402756 0.434885 0.195072
Si Si5 0.532037 0.066387 0.903209
Si Si6 0.750000 0.065062 0.068585
Si Si7 0.094640 0.439778 0.727224
O O1 0.750000 0.750000 0.984721
O O2 0.876758 0.533370 0.937668
O O3 0.750000 0.460832 0.014098
O O4 0.250000 0.993786 0.461670
O O5 0.404213 0.750000 0.459688
O O6 0.483849 0.992717 0.412888
O O7 0.500000 0.000000 0.500000
O O8 0.250000 0.492606 0.610521
O O9 0.400619 0.250000 0.622250
O O10 0.431457 0.490096 0.674841
O O11 0.250000 0.462343 0.209493
O O12 0.418635 0.250000 0.183940
O O13 0.429719 0.530491 0.148863
O O14 0.500816 0.482180 0.235588
O O15 0.553519 0.250000 0.913321
O O16 0.380411 0.017260 0.911309
O O17 0.750000 0.250000 0.079433
O O18 0.250000 0.474411 0.736933
O O19 0.077848 0.250000 0.729307
#
# Coordination Sequence:
#
# PCOD9449978 Si02
#       7
#     4   8   8   8   8   4   8
#     4  12  24  44  68  94 128 162 200 246 299 358
#     4  10  20  33  52  80 112 149 195 243 294 351
#     4   8  15  31  54  79 109 146 187 236 291 348
#     4  11  24  41  60  84 118 157 196 239 294 353
#     4  12  25  43  66  93 122 159 205 250 297 354
#     4  12  26  44  66  94 126 162 200 246 301 356
#     4   9  19  36  60  88 115 145 188 239 292 352
#
# _framework density 19.349346000000001
#
# number of rings (size 3 to 8) (size 9 to 14) (size 15 to 20)
#    0.000    1.667    0.833    5.500    1.167    3.000 
#    0.000    2.500    0.000    1.000    0.000    0.000 
#    0.000    0.000    0.000    0.000    0.000    0.000 
#
# Total GULP energy -268207.200022 kJ/mol
# GULP energy per Si atom -5587.650000 kJ/mol
# Density = 1.930531 g / cm^3
# Si number density = 19.349346 Si / 1000 Ang^3
#
#
#
# Elastic Constant Matrix: (Units=GPa)
#
#
# Indices 1 2 3 4 5 6 
#
# 1 95.4114 18.0739 27.6066 0.0000 0.0000 0.0000
# 2 18.0739 29.9799 8.9530 0.0000 0.0000 0.0000
# 3 27.6066 8.9530 62.1810 0.0000 0.0000 0.0000
# 4 0.0000 0.0000 0.0000 24.8194 0.0000 0.0000
# 5 0.0000 0.0000 0.0000 0.0000 39.5067 0.0000
# 6 0.0000 0.0000 0.0000 0.0000 0.0000 29.7050
#
#
#
# Elastic Compliance Matrix: (Units=1/GPa)
#
#
# Indices 1 2 3 4 5 6 
#
# 1 0.013119 -0.006447 -0.004896 0.000000 0.000000 0.000000
# 2 -0.006447 0.038022 -0.002612 0.000000 0.000000 0.000000
# 3 -0.004896 -0.002612 0.018632 0.000000 0.000000 0.000000
# 4 0.000000 0.000000 0.000000 0.040291 0.000000 0.000000
# 5 0.000000 0.000000 0.000000 0.000000 0.025312 0.000000
# 6 0.000000 0.000000 0.000000 0.000000 0.000000 0.033664
#
#
# Mechanical properties :
#
#
# Convention : Reuss Voigt Hill
#
# Bulk Modulus (GPa) = 23.88768 32.98215 28.43491
# Shear Modulus (GPa) = 23.70729 27.66881 25.68805
#
# Velocity S-wave (km/s) = 3.50412 3.78558 3.64757
# Velocity P-wave (km/s) = 5.36135 6.01583 5.69799
#
# Compressibility (1/GPa) = 0.04186258
#
# Stress axis : x y z
#
# Youngs Moduli (GPa) = 76.22638 26.30028 53.67114
#
# Poissons Ratio (x) = 0.16955 0.26278
# Poissons Ratio (y) = 0.49141 0.14021
# Poissons Ratio (z) = 0.37322 0.06871
#
# Static dielectric constant tensor:
#      x y z
#    x 1.647970 0.000000 0.000000 
#    y 0.000000 1.668230 0.000000 
#    z 0.000000 0.000000 1.649400 
# 
# From -- ./inp_files/33092.got.cif
#   From: 2010.05.17/outbox.cif.g08.bks.cpg/sg59_17_cif.got.tgz:33092.got - 2010.06.03 14:40:33.
