data_PCOD9449818
_publ_section_title
;
Structure prediction by ZEFSAII (Michael W. Deem and Ramdas Pophale) SiO2 
 PCOD9449818
Probable space group: P M M N
;
_chemical_formula_sum "Si O2"
_cell_formula_units_Z 48
_cell_length_a 7.522041
_cell_length_b 9.385389
_cell_length_c 32.079692
_cell_angle_alpha 90.000000
_cell_angle_beta 90.000000
_cell_angle_gamma 90.000000
_cell_volume 2264.739026
_symmetry_space_group_name_H-M "P M M N"
_symmetry_group_IT_number 59
_space_group.IT_coordinate_system_code '2'
_symmetry_cell_setting 'orthorhombic'
loop_
_space_group_symop_operation_xyz
x,y,z
1/2-x,1/2-y,z
1/2+x,-y,-z
-x,1/2+y,-z
-x,-y,-z
1/2+x,1/2+y,-z
1/2-x,y,z
x,1/2-y,z
loop_
_atom_site_type_symbol
_atom_site_label
_atom_site_fract_x
_atom_site_fract_y
_atom_site_fract_z
Si Si1 0.466842 0.416233 0.367255
Si Si2 0.462813 0.911973 0.796080
Si Si3 0.032247 0.414607 0.876994
Si Si4 0.963609 0.088498 0.712859
Si Si5 0.536921 0.087607 0.041832
Si Si6 0.537284 0.910867 0.541007
O O1 0.250000 0.419346 0.366294
O O2 0.517370 0.250000 0.362138
O O3 0.530434 0.512021 0.329105
O O4 0.524510 0.464826 0.413565
O O5 0.250000 0.903085 0.800732
O O6 0.531999 0.750000 0.795610
O O7 0.527600 0.003822 0.835381
O O8 0.497817 0.993386 0.753136
O O9 0.250000 0.413757 0.877030
O O10 0.975747 0.250000 0.877708
O O11 0.972767 0.500784 0.917830
O O12 0.750000 0.096090 0.709364
O O13 0.030672 0.250000 0.717543
O O14 0.750000 0.096455 0.045932
O O15 0.468736 0.250000 0.039882
O O16 0.500000 0.000000 0.000000
O O17 0.750000 0.903327 0.544282
O O18 0.468979 0.750000 0.535880
O O19 0.500000 0.000000 0.500000
#
# Coordination Sequence:
#
# PCOD9449818 Si02
#       6
#     8   8   8   8   8   8
#     4   8  15  30  50  69  93 128 166 201 239 288
#     4  10  20  34  53  76 101 131 167 204 243 291
#     4   9  17  31  52  75 100 132 167 203 246 296
#     4  10  20  33  51  76 102 128 162 204 248 294
#     4  10  20  34  53  77 104 134 169 208 249 295
#     4   9  18  32  50  73  99 127 162 202 243 290
#
# _framework density 21.194495
#
# number of rings (size 3 to 8) (size 9 to 14) (size 15 to 20)
#    0.000    2.667    0.000    3.000    0.000    6.000 
#    0.000    3.333    0.000    6.000    0.000    0.000 
#    0.000    0.000    0.000    0.000    0.000    0.000 
#
# Total GULP energy -268020.313123 kJ/mol
# GULP energy per Si atom -5583.756523 kJ/mol
# Density = 2.114626 g / cm^3
# Si number density = 21.194495 Si / 1000 Ang^3
#
#
#
# Elastic Constant Matrix: (Units=GPa)
#
#
# Indices 1 2 3 4 5 6 
#
# 1 53.0402 6.8160 1.3268 0.0000 0.0000 0.0000
# 2 6.8160 210.3936 151.2620 0.0000 0.0000 0.0000
# 3 1.3268 151.2620 251.1830 0.0000 0.0000 0.0000
# 4 0.0000 0.0000 0.0000 45.4766 0.0000 0.0000
# 5 0.0000 0.0000 0.0000 0.0000 25.1183 0.0000
# 6 0.0000 0.0000 0.0000 0.0000 0.0000 13.4673
#
#
#
# Elastic Compliance Matrix: (Units=1/GPa)
#
#
# Indices 1 2 3 4 5 6 
#
# 1 0.018965 -0.000956 0.000476 0.000000 0.000000 0.000000
# 2 -0.000956 0.008430 -0.005072 0.000000 0.000000 0.000000
# 3 0.000476 -0.005072 0.007033 0.000000 0.000000 0.000000
# 4 0.000000 0.000000 0.000000 0.021989 0.000000 0.000000
# 5 0.000000 0.000000 0.000000 0.000000 0.039812 0.000000
# 6 0.000000 0.000000 0.000000 0.000000 0.000000 0.074254
#
#
# Mechanical properties :
#
#
# Convention : Reuss Voigt Hill
#
# Bulk Modulus (GPa) = 42.87602 92.60295 67.73948
# Shear Modulus (GPa) = 26.40454 40.49323 33.44889
#
# Velocity S-wave (km/s) = 3.53345 4.37573 3.97695
# Velocity P-wave (km/s) = 6.07624 8.32563 7.28824
#
# Compressibility (1/GPa) = 0.02332306
#
# Stress axis : x y z
#
# Youngs Moduli (GPa) = 52.72975 118.62117 142.19174
#
# Poissons Ratio (x) = 0.11346 -0.06766
# Poissons Ratio (y) = 0.05043 0.72114
# Poissons Ratio (z) = -0.02509 0.60160
#
# Static dielectric constant tensor:
#      x y z
#    x 1.829230 0.000000 0.000000 
#    y 0.000000 1.743280 0.000000 
#    z 0.000000 0.000000 1.730720 
# 
# From -- ./inp_files/31867.got.cif
#   From: 2010.05.17/outbox.cif.g08.bks.cpg/sg59_16_cif.got.tgz:31867.got - 2010.06.03 14:40:33.
