data_PCOD9449117
_publ_section_title
;
Structure prediction by ZEFSAII (Michael W. Deem and Ramdas Pophale) SiO2 
 PCOD9449117
Probable space group: P M M N
;
_chemical_formula_sum "Si O2"
_cell_formula_units_Z 48
_cell_length_a 32.015240
_cell_length_b 8.419899
_cell_length_c 9.129098
_cell_angle_alpha 90.000000
_cell_angle_beta 90.000000
_cell_angle_gamma 90.000000
_cell_volume 2460.886099
_symmetry_space_group_name_H-M "P M M N"
_symmetry_group_IT_number 59
_space_group.IT_coordinate_system_code '2'
_symmetry_cell_setting 'orthorhombic'
loop_
_space_group_symop_operation_xyz
x,y,z
1/2-x,1/2-y,z
1/2+x,-y,-z
-x,1/2+y,-z
-x,-y,-z
1/2+x,1/2+y,-z
1/2-x,y,z
x,1/2-y,z
loop_
_atom_site_type_symbol
_atom_site_label
_atom_site_fract_x
_atom_site_fract_y
_atom_site_fract_z
Si Si1 0.497022 0.940880 0.332105
Si Si2 0.908279 0.939993 0.666426
Si Si3 0.830254 0.940371 0.147898
Si Si4 0.411574 0.057106 0.676014
Si Si5 0.325956 0.936068 0.180279
Si Si6 0.250000 0.067091 0.364871
Si Si7 0.750000 0.064350 0.316702
O O1 0.493994 0.750000 0.329324
O O2 0.542198 0.989481 0.268107
O O3 0.500000 0.000000 0.500000
O O4 0.454097 0.013793 0.273738
O O5 0.903538 0.750000 0.672126
O O6 0.906383 0.990592 0.494611
O O7 0.871051 0.020398 0.754214
O O8 0.832272 0.750000 0.131200
O O9 0.872964 0.996531 0.226032
O O10 0.791079 0.984948 0.248454
O O11 0.824840 0.017147 0.989469
O O12 0.410991 0.250000 0.674952
O O13 0.317597 0.750000 0.197703
O O14 0.290694 0.031130 0.268508
O O15 0.250000 0.250000 0.412213
O O16 0.250000 0.960803 0.509589
O O17 0.750000 0.250000 0.280015
#
# Coordination Sequence:
#
# PCOD9449117 Si02
#       7
#     8   8   8   8   8   4   4
#     4   9  16  30  52  82 115 149 189 241 294 343
#     4  10  19  35  58  86 115 151 196 242 290 350
#     4  11  22  40  62  85 115 157 198 237 287 350
#     4   8  17  33  57  84 112 145 191 241 286 338
#     4  12  25  41  59  86 120 154 191 241 296 347
#     4  12  25  44  67  90 114 150 194 236 283 346
#     4  12  25  42  63  92 122 150 188 240 289 338
#
# _framework density 19.505168000000001
#
# number of rings (size 3 to 8) (size 9 to 14) (size 15 to 20)
#    0.000    1.667    0.000    7.000    0.000    1.333 
#    0.000   10.000    0.000    0.000    0.000    0.000 
#    0.000    0.000    0.000    0.000    0.000    0.000 
#
# Total GULP energy -268146.350385 kJ/mol
# GULP energy per Si atom -5586.382300 kJ/mol
# Density = 1.946077 g / cm^3
# Si number density = 19.505168 Si / 1000 Ang^3
#
#
#
# Elastic Constant Matrix: (Units=GPa)
#
#
# Indices 1 2 3 4 5 6 
#
# 1 131.1655 -14.2836 30.0782 0.0000 0.0000 0.0000
# 2 -14.2836 46.5960 -16.2575 0.0000 0.0000 0.0000
# 3 30.0782 -16.2575 64.7373 0.0000 0.0000 0.0000
# 4 0.0000 0.0000 0.0000 27.0615 0.0000 0.0000
# 5 0.0000 0.0000 0.0000 0.0000 -66.1729 0.0000
# 6 0.0000 0.0000 0.0000 0.0000 0.0000 26.2177
#
#
#
# Elastic Compliance Matrix: (Units=1/GPa)
#
#
# Indices 1 2 3 4 5 6 
#
# 1 0.008611 0.001363 -0.003659 0.000000 0.000000 0.000000
# 2 0.001363 0.023738 0.005328 0.000000 0.000000 0.000000
# 3 -0.003659 0.005328 0.018485 0.000000 0.000000 0.000000
# 4 0.000000 0.000000 0.000000 0.036953 0.000000 0.000000
# 5 0.000000 0.000000 0.000000 0.000000 -0.015112 0.000000
# 6 0.000000 0.000000 0.000000 0.000000 0.000000 0.038142
#
#
# Mechanical properties :
#
#
# Convention : Reuss Voigt Hill
#
# Bulk Modulus (GPa) = 17.57495 26.84145 22.20820
# Shear Modulus (GPa) = 40.41422 13.61869 27.01645
#
# Velocity S-wave (km/s) = 4.55683 2.64523 3.72572
# Velocity P-wave (km/s) = 6.05940 4.80840 5.46978
#
# Compressibility (1/GPa) = 0.05689916
#
# Stress axis : x y z
#
# Youngs Moduli (GPa) = 116.12519 42.12673 54.09814
#
# Poissons Ratio (x) = -0.05743 0.19793
# Poissons Ratio (y) = -0.15830 -0.28823
# Poissons Ratio (z) = 0.42486 -0.22445
#
# Static dielectric constant tensor:
#      x y z
#    x 1.696300 0.000000 0.000000 
#    y 0.000000 1.660150 0.000000 
#    z 0.000000 0.000000 1.623930 
# 
# From -- ./inp_files/12990.got.cif
#   From: 2010.05.17/outbox.cif.g08.bks.cpg/sg59_7_cif.got.tgz:12990.got - 2010.06.03 14:40:33.
