data_PCOD9449660
_publ_section_title
;
Structure prediction by ZEFSAII (Michael W. Deem and Ramdas Pophale) SiO2 
 PCOD9449660
Probable space group: P M M N
;
_chemical_formula_sum "Si O2"
_cell_formula_units_Z 48
_cell_length_a 7.543149
_cell_length_b 9.396927
_cell_length_c 32.489208
_cell_angle_alpha 90.000000
_cell_angle_beta 90.000000
_cell_angle_gamma 90.000000
_cell_volume 2302.913703
_symmetry_space_group_name_H-M "P M M N"
_symmetry_group_IT_number 59
_space_group.IT_coordinate_system_code '2'
_symmetry_cell_setting 'orthorhombic'
loop_
_space_group_symop_operation_xyz
x,y,z
1/2-x,1/2-y,z
1/2+x,-y,-z
-x,1/2+y,-z
-x,-y,-z
1/2+x,1/2+y,-z
1/2-x,y,z
x,1/2-y,z
loop_
_atom_site_type_symbol
_atom_site_label
_atom_site_fract_x
_atom_site_fract_y
_atom_site_fract_z
Si Si1 0.463044 0.411299 0.040560
Si Si2 0.967221 0.086011 0.378929
Si Si3 0.463822 0.087359 0.218569
Si Si4 0.455867 0.423638 0.129030
Si Si5 0.537436 0.588017 0.458834
Si Si6 0.538383 0.910838 0.299791
O O1 0.250000 0.404623 0.044877
O O2 0.528791 0.250000 0.035155
O O3 0.531639 0.468702 0.084736
O O4 0.500000 0.500000 0.000000
O O5 0.750000 0.086984 0.378998
O O6 0.023963 0.250000 0.380529
O O7 0.026430 0.997543 0.418801
O O8 0.027593 0.007883 0.337349
O O9 0.250000 0.093539 0.215413
O O10 0.525404 0.250000 0.226210
O O11 0.532204 0.037651 0.173644
O O12 0.507426 0.986197 0.256264
O O13 0.250000 0.469552 0.129611
O O14 0.458058 0.250000 0.128253
O O15 0.500000 0.500000 0.500000
O O16 0.750000 0.596695 0.454906
O O17 0.469303 0.750000 0.460963
O O18 0.750000 0.901794 0.305324
O O19 0.467628 0.750000 0.300888
#
# Coordination Sequence:
#
# PCOD9449660 Si02
#       6
#     8   8   8   8   8   8
#     4   9  17  30  48  69  93 122 156 194 236 282
#     4   9  17  31  52  74  96 127 166 203 239 283
#     4   9  17  31  52  74  93 118 157 202 242 281
#     4   7  12  26  47  67  88 118 156 194 232 278
#     4  10  20  34  53  77 104 133 165 202 244 289
#     4  10  20  33  49  71 100 131 160 192 234 285
#
# _framework density 20.843160000000001
#
# number of rings (size 3 to 8) (size 9 to 14) (size 15 to 20)
#    0.000    3.000    0.000    3.500    0.000    4.667 
#    0.000    2.500    0.000   13.000    0.000    0.000 
#    0.000    0.000    0.000    0.000    0.000    0.000 
#
# Total GULP energy -267690.712883 kJ/mol
# GULP energy per Si atom -5576.889852 kJ/mol
# Density = 2.079572 g / cm^3
# Si number density = 20.843160 Si / 1000 Ang^3
#
#
#
# Elastic Constant Matrix: (Units=GPa)
#
#
# Indices 1 2 3 4 5 6 
#
# 1 50.2804 6.3142 2.1888 0.0000 0.0000 0.0000
# 2 6.3142 156.8961 124.8640 0.0000 0.0000 0.0000
# 3 2.1888 124.8640 248.7103 0.0000 0.0000 0.0000
# 4 0.0000 0.0000 0.0000 36.3924 0.0000 0.0000
# 5 0.0000 0.0000 0.0000 0.0000 24.6922 0.0000
# 6 0.0000 0.0000 0.0000 0.0000 0.0000 13.3652
#
#
#
# Elastic Compliance Matrix: (Units=1/GPa)
#
#
# Indices 1 2 3 4 5 6 
#
# 1 0.020011 -0.001108 0.000380 0.000000 0.000000 0.000000
# 2 -0.001108 0.010676 -0.005350 0.000000 0.000000 0.000000
# 3 0.000380 -0.005350 0.006703 0.000000 0.000000 0.000000
# 4 0.000000 0.000000 0.000000 0.027478 0.000000 0.000000
# 5 0.000000 0.000000 0.000000 0.000000 0.040499 0.000000
# 6 0.000000 0.000000 0.000000 0.000000 0.000000 0.074821
#
#
# Mechanical properties :
#
#
# Convention : Reuss Voigt Hill
#
# Bulk Modulus (GPa) = 39.62789 80.29121 59.95955
# Shear Modulus (GPa) = 24.90586 36.39128 30.64857
#
# Velocity S-wave (km/s) = 3.46051 4.18300 3.83879
# Velocity P-wave (km/s) = 5.91781 7.86989 6.96260
#
# Compressibility (1/GPa) = 0.02523475
#
# Stress axis : x y z
#
# Youngs Moduli (GPa) = 49.97247 93.66754 149.17797
#
# Poissons Ratio (x) = 0.10377 -0.05670
# Poissons Ratio (y) = 0.05536 0.79812
# Poissons Ratio (z) = -0.01899 0.50113
#
# Static dielectric constant tensor:
#      x y z
#    x 1.814850 0.000000 0.000000 
#    y 0.000000 1.717470 0.000000 
#    z 0.000000 0.000000 1.756200 
# 
# From -- ./inp_files/32598.got.cif
#   From: 2010.05.17/outbox.cif.g08.bks.cpg/sg59_17_cif.got.tgz:32598.got - 2010.06.03 14:40:33.
