data_PCOD9449486
_publ_section_title
;
Structure prediction by ZEFSAII (Michael W. Deem and Ramdas Pophale) SiO2 
 PCOD9449486
Probable space group: P M M N
;
_chemical_formula_sum "Si O2"
_cell_formula_units_Z 56
_cell_length_a 15.076677
_cell_length_b 8.944337
_cell_length_c 20.710429
_cell_angle_alpha 90.000000
_cell_angle_beta 90.000000
_cell_angle_gamma 90.000000
_cell_volume 2792.819574
_symmetry_space_group_name_H-M "P M M N"
_symmetry_group_IT_number 59
_space_group.IT_coordinate_system_code '2'
_symmetry_cell_setting 'orthorhombic'
loop_
_space_group_symop_operation_xyz
x,y,z
1/2-x,1/2-y,z
1/2+x,-y,-z
-x,1/2+y,-z
-x,-y,-z
1/2+x,1/2+y,-z
1/2-x,y,z
x,1/2-y,z
loop_
_atom_site_type_symbol
_atom_site_label
_atom_site_fract_x
_atom_site_fract_y
_atom_site_fract_z
Si Si1 0.897252 0.582246 0.569168
Si Si2 0.856878 0.419949 0.702554
Si Si3 0.144212 0.580596 0.697391
Si Si4 0.891040 0.419972 0.441530
Si Si5 0.145201 0.568520 0.838312
Si Si6 0.498759 0.928930 0.070887
Si Si7 0.143939 0.427009 0.163606
O O1 0.862859 0.750000 0.577715
O O2 0.883943 0.490574 0.634546
O O3 0.859162 0.505345 0.504931
O O4 0.002615 0.590327 0.556758
O O5 0.750000 0.416121 0.702757
O O6 0.889990 0.250000 0.708401
O O7 0.882927 0.516284 0.764978
O O8 0.250000 0.593601 0.704000
O O9 0.106147 0.750000 0.692501
O O10 0.128338 0.507028 0.628146
O O11 0.115307 0.517045 0.766206
O O12 0.855286 0.250000 0.442001
O O13 0.250000 0.536671 0.847231
O O14 0.135400 0.750000 0.840330
O O15 0.084057 0.490428 0.890513
O O16 0.499497 0.750000 0.067484
O O17 0.413132 0.985907 0.110708
O O18 0.500000 0.000000 0.000000
O O19 0.250000 0.452261 0.156065
O O20 0.127236 0.250000 0.158297
#
# Coordination Sequence:
#
# PCOD9449486 Si02
#       7
#     8   8   8   8   8   8   8
#     4  10  20  32  48  74 108 149 193 242 294 344
#     4  10  21  37  57  82 112 148 192 241 294 355
#     4   8  15  30  54  81 106 139 187 237 288 345
#     4   9  18  32  49  73 106 148 193 238 289 345
#     4   9  19  38  64  93 125 161 202 252 305 359
#     4  12  26  43  65  95 127 164 204 245 295 358
#     4  10  22  42  67  94 125 160 200 251 307 363
#
# _framework density 20.05142
#
# number of rings (size 3 to 8) (size 9 to 14) (size 15 to 20)
#    0.000    2.286    0.000    3.429    2.000    3.714 
#    0.000    2.143    0.000    0.857    0.000    0.000 
#    0.000    0.000    0.000    0.000    0.000    0.000 
#
# Total GULP energy -312521.950382 kJ/mol
# GULP energy per Si atom -5580.749114 kJ/mol
# Density = 2.000578 g / cm^3
# Si number density = 20.051420 Si / 1000 Ang^3
#
#
#
# Elastic Constant Matrix: (Units=GPa)
#
#
# Indices 1 2 3 4 5 6 
#
# 1 62.9171 39.0011 49.1491 0.0000 0.0000 0.0000
# 2 39.0011 108.6237 76.2904 0.0000 0.0000 0.0000
# 3 49.1491 76.2904 206.8385 0.0000 0.0000 0.0000
# 4 0.0000 0.0000 0.0000 31.0834 0.0000 0.0000
# 5 0.0000 0.0000 0.0000 0.0000 42.9245 0.0000
# 6 0.0000 0.0000 0.0000 0.0000 0.0000 10.3336
#
#
#
# Elastic Compliance Matrix: (Units=1/GPa)
#
#
# Indices 1 2 3 4 5 6 
#
# 1 0.021822 -0.005659 -0.003098 0.000000 0.000000 0.000000
# 2 -0.005659 0.013892 -0.003779 0.000000 0.000000 0.000000
# 3 -0.003098 -0.003779 0.006965 0.000000 0.000000 0.000000
# 4 0.000000 0.000000 0.000000 0.032172 0.000000 0.000000
# 5 0.000000 0.000000 0.000000 0.000000 0.023297 0.000000
# 6 0.000000 0.000000 0.000000 0.000000 0.000000 0.096772
#
#
# Mechanical properties :
#
#
# Convention : Reuss Voigt Hill
#
# Bulk Modulus (GPa) = 56.79867 78.58449 67.69158
# Shear Modulus (GPa) = 22.13747 31.13088 26.63418
#
# Velocity S-wave (km/s) = 3.32631 3.94452 3.64853
# Velocity P-wave (km/s) = 6.56814 7.74740 7.18201
#
# Compressibility (1/GPa) = 0.01760605
#
# Stress axis : x y z
#
# Youngs Moduli (GPa) = 45.82506 71.98172 143.57919
#
# Poissons Ratio (x) = 0.40737 0.44481
# Poissons Ratio (y) = 0.25934 0.54263
# Poissons Ratio (z) = 0.14197 0.27204
#
# Static dielectric constant tensor:
#      x y z
#    x 1.725480 0.000000 0.000000 
#    y 0.000000 1.711580 0.000000 
#    z 0.000000 0.000000 1.709630 
# 
# From -- ./inp_files/30389.got.cif
#   From: 2010.05.17/outbox.cif.g08.bks.cpg/sg59_16_cif.got.tgz:30389.got - 2010.06.03 14:40:33.
