data_PCOD9449253
_publ_section_title
;
Structure prediction by ZEFSAII (Michael W. Deem and Ramdas Pophale) SiO2 
 PCOD9449253
Probable space group: P M M N
;
_chemical_formula_sum "Si O2"
_cell_formula_units_Z 40
_cell_length_a 19.453129
_cell_length_b 11.666849
_cell_length_c 9.333013
_cell_angle_alpha 90.000000
_cell_angle_beta 90.000000
_cell_angle_gamma 90.000000
_cell_volume 2118.190005
_symmetry_space_group_name_H-M "P M M N"
_symmetry_group_IT_number 59
_space_group.IT_coordinate_system_code '2'
_symmetry_cell_setting 'orthorhombic'
loop_
_space_group_symop_operation_xyz
x,y,z
1/2-x,1/2-y,z
1/2+x,-y,-z
-x,1/2+y,-z
-x,-y,-z
1/2+x,1/2+y,-z
1/2-x,y,z
x,1/2-y,z
loop_
_atom_site_type_symbol
_atom_site_label
_atom_site_fract_x
_atom_site_fract_y
_atom_site_fract_z
Si Si1 0.632233 0.750000 0.093250
Si Si2 0.613583 0.117780 0.694926
Si Si3 0.250000 0.250000 0.147670
Si Si4 0.607085 0.112228 0.359200
Si Si5 0.250000 0.989585 0.606494
Si Si6 0.750000 0.000101 0.725196
Si Si7 0.024599 0.450470 0.850331
Si Si8 0.250000 0.250000 0.674477
O O1 0.583748 0.640258 0.111405
O O2 0.683521 0.750000 0.226420
O O3 0.681994 0.750000 0.954217
O O4 0.635512 0.250000 0.690268
O O5 0.599543 0.082588 0.528788
O O6 0.675545 0.048749 0.771926
O O7 0.541822 0.105625 0.776297
O O8 0.250000 0.365281 0.241929
O O9 0.603391 0.250000 0.343910
O O10 0.682519 0.062944 0.321850
O O11 0.553686 0.046857 0.258001
O O12 0.250000 0.127337 0.598887
O O13 0.250000 0.957027 0.439665
O O14 0.000000 0.500000 0.000000
#
# Coordination Sequence:
#
# PCOD9449253 Si02
#       8
#     4   8   2   8   4   4   8   2
#     4  11  24  40  62  83 124 168 202 253 301 363
#     4  10  21  41  65  90 123 156 205 260 313 370
#     4  11  23  42  56  92 129 161 208 250 306 367
#     4  10  22  39  62  93 123 160 203 258 315 369
#     4  10  19  37  64  90 118 156 203 260 309 363
#     4  10  21  39  63  90 119 157 202 255 314 366
#     4  12  24  40  62  88 126 166 208 250 309 370
#     4  11  19  38  62  84 115 163 202 244 298 355
#
# _framework density 18.884046000000001
#
# number of rings (size 3 to 8) (size 9 to 14) (size 15 to 20)
#    0.000    1.400    3.000    2.700    1.400    2.400 
#    1.800    0.000    0.000    2.400    0.000    0.000 
#    0.000    0.000    0.000    0.000    0.000    0.000 
#
# Total GULP energy -223069.478189 kJ/mol
# GULP energy per Si atom -5576.736955 kJ/mol
# Density = 1.884107 g / cm^3
# Si number density = 18.884046 Si / 1000 Ang^3
#
#
#
# Elastic Constant Matrix: (Units=GPa)
#
#
# Indices 1 2 3 4 5 6 
#
# 1 126.6830 47.0782 38.3709 0.0000 0.0000 0.0000
# 2 47.0782 100.2982 27.6725 0.0000 0.0000 0.0000
# 3 38.3709 27.6725 64.3853 0.0000 0.0000 0.0000
# 4 0.0000 0.0000 0.0000 -14.4915 0.0000 0.0000
# 5 0.0000 0.0000 0.0000 0.0000 463.2698 0.0000
# 6 0.0000 0.0000 0.0000 0.0000 0.0000 24.3155
#
#
#
# Elastic Compliance Matrix: (Units=1/GPa)
#
#
# Indices 1 2 3 4 5 6 
#
# 1 0.010726 -0.003711 -0.004797 0.000000 0.000000 0.000000
# 2 -0.003711 0.012596 -0.003202 0.000000 0.000000 0.000000
# 3 -0.004797 -0.003202 0.019767 0.000000 0.000000 0.000000
# 4 0.000000 0.000000 0.000000 -0.069006 0.000000 0.000000
# 5 0.000000 0.000000 0.000000 0.000000 0.002159 0.000000
# 6 0.000000 0.000000 0.000000 0.000000 0.000000 0.041126
#
#
# Mechanical properties :
#
#
# Convention : Reuss Voigt Hill
#
# Bulk Modulus (GPa) = 50.84452 57.51220 54.17836
# Shear Modulus (GPa) = 105.61348 106.50176 106.05762
#
# Velocity S-wave (km/s) = 7.48657 7.51799 7.50230
# Velocity P-wave (km/s) = 10.08537 10.28989 10.18814
#
# Compressibility (1/GPa) = 0.01966780
#
# Stress axis : x y z
#
# Youngs Moduli (GPa) = 93.23317 79.39317 50.59048
#
# Poissons Ratio (x) = 0.29462 0.24269
# Poissons Ratio (y) = 0.34598 0.16199
# Poissons Ratio (z) = 0.44725 0.25421
#
# Static dielectric constant tensor:
#      x y z
#    x 1.632790 0.000000 0.000000 
#    y 0.000000 1.597180 0.000000 
#    z 0.000000 0.000000 1.643560 
# 
# From -- ./inp_files/11201.got.cif
#   From: 2010.05.17/outbox.cif.g08.bks.cpg/sg59_6_cif.got.tgz:11201.got - 2010.06.03 14:40:33.
