data_PCOD9449918
_publ_section_title
;
Structure prediction by ZEFSAII (Michael W. Deem and Ramdas Pophale) SiO2 
 PCOD9449918
Probable space group: P M M N
;
_chemical_formula_sum "Si O2"
_cell_formula_units_Z 48
_cell_length_a 13.916601
_cell_length_b 19.774173
_cell_length_c 9.531924
_cell_angle_alpha 90.000000
_cell_angle_beta 90.000000
_cell_angle_gamma 90.000000
_cell_volume 2623.083262
_symmetry_space_group_name_H-M "P M M N"
_symmetry_group_IT_number 59
_space_group.IT_coordinate_system_code '2'
_symmetry_cell_setting 'orthorhombic'
loop_
_space_group_symop_operation_xyz
x,y,z
1/2-x,1/2-y,z
1/2+x,-y,-z
-x,1/2+y,-z
-x,-y,-z
1/2+x,1/2+y,-z
1/2-x,y,z
x,1/2-y,z
loop_
_atom_site_type_symbol
_atom_site_label
_atom_site_fract_x
_atom_site_fract_y
_atom_site_fract_z
Si Si1 0.635203 0.175756 0.389582
Si Si2 0.635308 0.535054 0.873838
Si Si3 0.512695 0.671953 0.375389
Si Si4 0.862959 0.934481 0.548201
Si Si5 0.364266 0.967906 0.697973
Si Si6 0.015495 0.074480 0.879930
O O1 0.750000 0.173293 0.400213
O O2 0.606762 0.250000 0.333622
O O3 0.588620 0.169740 0.543124
O O4 0.606331 0.110328 0.300031
O O5 0.750000 0.536352 0.899429
O O6 0.617409 0.553580 0.711388
O O7 0.587709 0.461216 0.900694
O O8 0.574922 0.583708 0.977127
O O9 0.543783 0.750000 0.368707
O O10 0.580394 0.625999 0.474102
O O11 0.509116 0.637767 0.223210
O O12 0.750000 0.920329 0.533872
O O13 0.882032 0.002608 0.458612
O O14 0.250000 0.973134 0.726329
O O15 0.422102 0.017199 0.798550
#
# Coordination Sequence:
#
# PCOD9449918 Si02
#       6
#     8   8   8   8   8   8
#     4   9  17  28  45  73 104 130 159 201 254 305
#     4  10  20  34  52  75 102 129 164 211 256 300
#     4  10  20  34  52  75 103 133 167 207 248 295
#     4   9  18  32  51  74  98 127 165 206 248 293
#     4   9  16  29  51  76 100 127 163 206 246 291
#     4  10  20  33  52  76 101 134 172 208 251 298
#
# _framework density 18.299075999999999
#
# number of rings (size 3 to 8) (size 9 to 14) (size 15 to 20)
#    0.000    2.500    0.000    2.500    0.000    5.667 
#    0.000    0.833    0.000    5.000    0.000    0.000 
#    0.000    5.333    0.000    0.000    0.000    0.000 
#
# Total GULP energy -267659.092034 kJ/mol
# GULP energy per Si atom -5576.231084 kJ/mol
# Density = 1.825743 g / cm^3
# Si number density = 18.299076 Si / 1000 Ang^3
#
#
#
# Elastic Constant Matrix: (Units=GPa)
#
#
# Indices 1 2 3 4 5 6 
#
# 1 46.9752 6.4663 -5.5289 0.0000 0.0000 0.0000
# 2 6.4663 99.9808 -2.8432 0.0000 0.0000 0.0000
# 3 -5.5289 -2.8432 45.7509 0.0000 0.0000 0.0000
# 4 0.0000 0.0000 0.0000 22.2265 0.0000 0.0000
# 5 0.0000 0.0000 0.0000 0.0000 23.7441 0.0000
# 6 0.0000 0.0000 0.0000 0.0000 0.0000 19.2522
#
#
#
# Elastic Compliance Matrix: (Units=1/GPa)
#
#
# Indices 1 2 3 4 5 6 
#
# 1 0.021772 -0.001336 0.002548 0.000000 0.000000 0.000000
# 2 -0.001336 0.010102 0.000466 0.000000 0.000000 0.000000
# 3 0.002548 0.000466 0.022194 0.000000 0.000000 0.000000
# 4 0.000000 0.000000 0.000000 0.044991 0.000000 0.000000
# 5 0.000000 0.000000 0.000000 0.000000 0.042116 0.000000
# 6 0.000000 0.000000 0.000000 0.000000 0.000000 0.051942
#
#
# Mechanical properties :
#
#
# Convention : Reuss Voigt Hill
#
# Bulk Modulus (GPa) = 17.41398 20.98836 19.20117
# Shear Modulus (GPa) = 23.93479 26.01873 24.97676
#
# Velocity S-wave (km/s) = 3.62052 3.77485 3.69849
# Velocity P-wave (km/s) = 5.19755 5.52212 5.36229
#
# Compressibility (1/GPa) = 0.05742512
#
# Stress axis : x y z
#
# Youngs Moduli (GPa) = 45.93141 98.99453 45.05638
#
# Poissons Ratio (x) = 0.13222 -0.11481
# Poissons Ratio (y) = 0.06135 -0.02101
# Poissons Ratio (z) = -0.11704 -0.04617
#
# Static dielectric constant tensor:
#      x y z
#    x 1.661630 0.000000 0.000000 
#    y 0.000000 1.634490 0.000000 
#    z 0.000000 0.000000 1.650630 
# 
# From -- ./inp_files/9054.got.cif
#   From: 2010.05.17/outbox.cif.g08.bks.cpg/sg59_5_cif.got.tgz:9054.got - 2010.06.03 14:40:33.
