data_PCOD9449995
_publ_section_title
;
Structure prediction by ZEFSAII (Michael W. Deem and Ramdas Pophale) SiO2 
 PCOD9449995
Probable space group: P M M N
;
_chemical_formula_sum "Si O2"
_cell_formula_units_Z 64
_cell_length_a 14.239693
_cell_length_b 7.641941
_cell_length_c 25.151172
_cell_angle_alpha 90.000000
_cell_angle_beta 90.000000
_cell_angle_gamma 90.000000
_cell_volume 2736.922714
_symmetry_space_group_name_H-M "P M M N"
_symmetry_group_IT_number 59
_space_group.IT_coordinate_system_code '2'
_symmetry_cell_setting 'orthorhombic'
loop_
_space_group_symop_operation_xyz
x,y,z
1/2-x,1/2-y,z
1/2+x,-y,-z
-x,1/2+y,-z
-x,-y,-z
1/2+x,1/2+y,-z
1/2-x,y,z
x,1/2-y,z
loop_
_atom_site_type_symbol
_atom_site_label
_atom_site_fract_x
_atom_site_fract_y
_atom_site_fract_z
Si Si1 0.145848 0.954850 0.299338
Si Si2 0.641167 0.540060 0.469291
Si Si3 0.635275 0.546925 0.582663
Si Si4 0.464243 0.041442 0.752017
Si Si5 0.048462 0.047002 0.864980
Si Si6 0.856155 0.042028 0.354789
Si Si7 0.358300 0.037498 0.090446
Si Si8 0.361305 0.459695 0.971471
O O1 0.250000 0.033241 0.295615
O O2 0.153169 0.750000 0.286491
O O3 0.066551 0.034082 0.262092
O O4 0.112852 0.963644 0.360811
O O5 0.750000 0.475629 0.465869
O O6 0.644146 0.750000 0.474466
O O7 0.601665 0.472777 0.525731
O O8 0.597504 0.499817 0.411991
O O9 0.750000 0.540508 0.579071
O O10 0.607529 0.750000 0.586791
O O11 0.473903 0.250000 0.760221
O O12 0.424236 0.971166 0.807610
O O13 0.404818 0.019135 0.698783
O O14 0.079248 0.250000 0.866144
O O15 0.088320 0.966126 0.919390
O O16 0.935851 0.035050 0.869879
O O17 0.750000 0.968843 0.355847
O O18 0.852000 0.250000 0.352002
O O19 0.250000 0.987123 0.100554
O O20 0.361511 0.250000 0.091453
O O21 0.385633 0.975175 0.030584
O O22 0.250000 0.484964 0.965303
O O23 0.378455 0.250000 0.973672
#
# Coordination Sequence:
#
# PCOD9449995 Si02
#       8
#     8   8   8   8   8   8   8   8
#     4   9  18  33  51  70  97 133 169 209 257 304
#     4   8  14  27  49  75 101 128 159 201 256 313
#     4   8  14  26  47  75 101 125 159 204 255 310
#     4  10  22  37  52  74 103 137 177 214 252 301
#     4  10  20  33  53  79 103 133 175 220 257 291
#     4  10  21  36  54  76 102 133 170 213 257 300
#     4   9  18  33  53  77 107 141 170 201 252 313
#     4   8  15  30  52  78 107 136 168 208 255 308
#
# _framework density 23.383927
#
# number of rings (size 3 to 8) (size 9 to 14) (size 15 to 20)
#    0.000    3.000    0.000    2.250    0.000    3.500 
#    0.000    5.625    0.000    2.625    0.000    0.000 
#    0.000    0.000    0.000    0.000    0.000    0.000 
#
# Total GULP energy -357106.796057 kJ/mol
# GULP energy per Si atom -5579.793688 kJ/mol
# Density = 2.333070 g / cm^3
# Si number density = 23.383927 Si / 1000 Ang^3
#
#
#
# Elastic Constant Matrix: (Units=GPa)
#
#
# Indices 1 2 3 4 5 6 
#
# 1 21.4140 -7.9149 10.4526 0.0000 0.0000 0.0000
# 2 -7.9149 48.9657 -1.7520 0.0000 0.0000 0.0000
# 3 10.4526 -1.7520 88.8967 0.0000 0.0000 0.0000
# 4 0.0000 0.0000 0.0000 -2.5142 0.0000 0.0000
# 5 0.0000 0.0000 0.0000 0.0000 20.6440 0.0000
# 6 0.0000 0.0000 0.0000 0.0000 0.0000 11.4354
#
#
#
# Elastic Compliance Matrix: (Units=1/GPa)
#
#
# Indices 1 2 3 4 5 6 
#
# 1 0.052714 0.008305 -0.006034 0.000000 0.000000 0.000000
# 2 0.008305 0.021745 -0.000548 0.000000 0.000000 0.000000
# 3 -0.006034 -0.000548 0.011948 0.000000 0.000000 0.000000
# 4 0.000000 0.000000 0.000000 -0.397735 0.000000 0.000000
# 5 0.000000 0.000000 0.000000 0.000000 0.048440 0.000000
# 6 0.000000 0.000000 0.000000 0.000000 0.000000 0.087448
#
#
# Mechanical properties :
#
#
# Convention : Reuss Voigt Hill
#
# Bulk Modulus (GPa) = 11.12949 17.87197 14.50073
# Shear Modulus (GPa) = -33.57178 16.47908 -8.54635
#
# Velocity S-wave (km/s) = -3.79314 2.65753 -1.91383
# Velocity P-wave (km/s) = 3.79659 4.13232 1.15368
#
# Compressibility (1/GPa) = 0.08985135
#
# Stress axis : x y z
#
# Youngs Moduli (GPa) = 18.97044 45.98710 83.69777
#
# Poissons Ratio (x) = -0.38191 0.50507
# Poissons Ratio (y) = -0.15754 0.04586
# Poissons Ratio (z) = 0.11448 0.02520
#
# Static dielectric constant tensor:
#      x y z
#    x 1.922180 0.000000 0.000000 
#    y 0.000000 1.848620 0.000000 
#    z 0.000000 0.000000 1.927160 
# 
# From -- ./inp_files/32241.got.cif
#   From: 2010.05.17/outbox.cif.g08.bks.cpg/sg59_17_cif.got.tgz:32241.got - 2010.06.03 14:40:33.
