data_PCOD9449054
_publ_section_title
;
Structure prediction by ZEFSAII (Michael W. Deem and Ramdas Pophale) SiO2 
 PCOD9449054
Probable space group: P M M N
;
_chemical_formula_sum "Si O2"
_cell_formula_units_Z 52
_cell_length_a 12.494413
_cell_length_b 28.914940
_cell_length_c 8.000701
_cell_angle_alpha 90.000000
_cell_angle_beta 90.000000
_cell_angle_gamma 90.000000
_cell_volume 2890.454872
_symmetry_space_group_name_H-M "P M M N"
_symmetry_group_IT_number 59
_space_group.IT_coordinate_system_code '2'
_symmetry_cell_setting 'orthorhombic'
loop_
_space_group_symop_operation_xyz
x,y,z
1/2-x,1/2-y,z
1/2+x,-y,-z
-x,1/2+y,-z
-x,-y,-z
1/2+x,1/2+y,-z
1/2-x,y,z
x,1/2-y,z
loop_
_atom_site_type_symbol
_atom_site_label
_atom_site_fract_x
_atom_site_fract_y
_atom_site_fract_z
Si Si1 0.021582 0.931521 0.129804
Si Si2 0.377031 0.521108 0.813634
Si Si3 0.074100 0.250000 0.937417
Si Si4 0.377743 0.581990 0.498135
Si Si5 0.371437 0.351283 0.814297
Si Si6 0.124822 0.250000 0.321745
Si Si7 0.621998 0.250000 0.725595
Si Si8 0.998056 0.171945 0.510766
O O1 0.083936 0.926151 0.306631
O O2 0.955683 0.884484 0.093645
O O3 0.092383 0.946055 0.970685
O O4 0.937561 0.972975 0.158395
O O5 0.250000 0.514189 0.811258
O O6 0.409861 0.543815 0.636028
O O7 0.118455 0.202713 0.859461
O O8 0.946776 0.250000 0.897141
O O9 0.111269 0.250000 0.125328
O O10 0.250000 0.584313 0.497393
O O11 0.426482 0.630803 0.558756
O O12 0.250000 0.366632 0.837706
O O13 0.411482 0.352515 0.623921
O O14 0.250000 0.250000 0.371235
O O15 0.062006 0.205524 0.389674
O O16 0.750000 0.250000 0.742300
O O17 0.578168 0.294854 0.624249
#
# Coordination Sequence:
#
# PCOD9449054 Si02
#       8
#     8   8   4   8   8   4   4   8
#     4  10  21  36  58  83 111 145 187 231 274 336
#     4  10  21  37  57  82 112 146 184 230 282 331
#     4  10  22  34  52  82 110 144 180 226 272 340
#     4  10  20  36  57  81 112 147 184 230 282 335
#     4  10  19  35  56  78 106 144 183 223 275 328
#     4  11  21  35  54  78 114 147 181 231 286 336
#     4   9  17  35  54  72 102 141 181 225 272 326
#     4   9  20  33  54  78 105 139 186 227 272 337
#
# _framework density 17.990248000000001
#
# number of rings (size 3 to 8) (size 9 to 14) (size 15 to 20)
#    0.000    2.154    0.000    3.462    2.154    0.000 
#    0.000    3.077    0.000    5.538    0.000    0.000 
#    0.000    0.000    0.000    0.000    0.000    0.000 
#
# Total GULP energy -289817.385569 kJ/mol
# GULP energy per Si atom -5573.411261 kJ/mol
# Density = 1.794930 g / cm^3
# Si number density = 17.990248 Si / 1000 Ang^3
#
#
#
# Elastic Constant Matrix: (Units=GPa)
#
#
# Indices 1 2 3 4 5 6 
#
# 1 90.5774 16.5875 19.0718 0.0000 0.0000 0.0000
# 2 16.5875 70.2096 4.6652 0.0000 0.0000 0.0000
# 3 19.0718 4.6652 47.1649 0.0000 0.0000 0.0000
# 4 0.0000 0.0000 0.0000 -42.0954 0.0000 0.0000
# 5 0.0000 0.0000 0.0000 0.0000 20.0764 0.0000
# 6 0.0000 0.0000 0.0000 0.0000 0.0000 31.4136
#
#
#
# Elastic Compliance Matrix: (Units=1/GPa)
#
#
# Indices 1 2 3 4 5 6 
#
# 1 0.012537 -0.002642 -0.004808 0.000000 0.000000 0.000000
# 2 -0.002642 0.014894 -0.000405 0.000000 0.000000 0.000000
# 3 -0.004808 -0.000405 0.023186 0.000000 0.000000 0.000000
# 4 0.000000 0.000000 0.000000 -0.023756 0.000000 0.000000
# 5 0.000000 0.000000 0.000000 0.000000 0.049810 0.000000
# 6 0.000000 0.000000 0.000000 0.000000 0.000000 0.031833
#
#
# Mechanical properties :
#
#
# Convention : Reuss Voigt Hill
#
# Bulk Modulus (GPa) = 28.64753 32.06677 30.35715
# Shear Modulus (GPa) = 36.80515 13.05408 24.92962
#
# Velocity S-wave (km/s) = 4.52800 2.69666 3.72658
# Velocity P-wave (km/s) = 6.57994 5.24968 5.95209
#
# Compressibility (1/GPa) = 0.03490703
#
# Stress axis : x y z
#
# Youngs Moduli (GPa) = 79.76684 67.14003 43.12874
#
# Poissons Ratio (x) = 0.17741 0.20736
# Poissons Ratio (y) = 0.21077 0.01746
# Poissons Ratio (z) = 0.38352 0.02717
#
# Static dielectric constant tensor:
#      x y z
#    x 1.607530 0.000000 0.000000 
#    y 0.000000 1.728040 0.000000 
#    z 0.000000 0.000000 1.612850 
# 
# From -- ./inp_files/7802.got.cif
#   From: 2010.05.17/outbox.cif.g08.bks.cpg/sg59_4_cif.got.tgz:7802.got - 2010.06.03 14:40:33.
