data_PCOD9449185
_publ_section_title
;
Structure prediction by ZEFSAII (Michael W. Deem and Ramdas Pophale) SiO2 
 PCOD9449185
Probable space group: P M M N
;
_chemical_formula_sum "Si O2"
_cell_formula_units_Z 56
_cell_length_a 20.894270
_cell_length_b 14.291238
_cell_length_c 8.672839
_cell_angle_alpha 90.000000
_cell_angle_beta 90.000000
_cell_angle_gamma 90.000000
_cell_volume 2589.752963
_symmetry_space_group_name_H-M "P M M N"
_symmetry_group_IT_number 59
_space_group.IT_coordinate_system_code '2'
_symmetry_cell_setting 'orthorhombic'
loop_
_space_group_symop_operation_xyz
x,y,z
1/2-x,1/2-y,z
1/2+x,-y,-z
-x,1/2+y,-z
-x,-y,-z
1/2+x,1/2+y,-z
1/2-x,y,z
x,1/2-y,z
loop_
_atom_site_type_symbol
_atom_site_label
_atom_site_fract_x
_atom_site_fract_y
_atom_site_fract_z
Si Si1 0.093254 0.483646 0.222268
Si Si2 0.449277 0.084340 0.510754
Si Si3 0.173178 0.851334 0.883131
Si Si4 0.499888 0.148192 0.824601
Si Si5 0.176963 0.468212 0.692474
Si Si6 0.324984 0.644945 0.253522
Si Si7 0.139714 0.144754 0.974807
O O1 0.063204 0.402175 0.328784
O O2 0.040223 0.553327 0.148449
O O3 0.132736 0.561749 0.319469
O O4 0.141612 0.432330 0.107822
O O5 0.480394 0.147731 0.643339
O O6 0.378675 0.062900 0.577631
O O7 0.500000 0.000000 0.500000
O O8 0.250000 0.849931 0.864121
O O9 0.147234 0.750000 0.834051
O O10 0.152022 0.937899 0.779752
O O11 0.164282 0.859701 0.067539
O O12 0.530452 0.250000 0.859712
O O13 0.434658 0.143510 0.921047
O O14 0.250000 0.480974 0.633763
O O15 0.178342 0.390722 0.827594
O O16 0.250000 0.631034 0.281709
O O17 0.341067 0.750000 0.306819
O O18 0.157065 0.250000 0.020276
#
# Coordination Sequence:
#
# PCOD9449185 Si02
#       7
#     8   8   8   8   8   8   8
#     4  11  19  33  56  81 109 142 183 226 281 338
#     4   9  21  37  54  77 114 155 188 231 283 337
#     4   8  14  27  49  77 107 137 171 215 268 326
#     4   9  19  37  57  77 105 145 188 226 274 340
#     4  10  19  36  58  79 106 148 192 230 277 347
#     4   9  17  29  48  78 113 143 170 212 276 338
#     4  10  21  35  54  80 107 135 178 239 292 332
#
# _framework density 21.623685999999999
#
# number of rings (size 3 to 8) (size 9 to 14) (size 15 to 20)
#    0.000    2.571    1.429    1.714    0.000    1.429 
#    0.000    3.571    0.000    1.714    0.000    2.000 
#    0.000    0.000    0.000    0.000    0.000    0.000 
#
# Total GULP energy -311749.166517 kJ/mol
# GULP energy per Si atom -5566.949402 kJ/mol
# Density = 2.157447 g / cm^3
# Si number density = 21.623686 Si / 1000 Ang^3
#
#
#
# Elastic Constant Matrix: (Units=GPa)
#
#
# Indices 1 2 3 4 5 6 
#
# 1 74.8265 2.0155 -5.4755 0.0000 0.0000 0.0000
# 2 2.0155 110.3305 5.3408 0.0000 0.0000 0.0000
# 3 -5.4755 5.3408 14.3506 0.0000 0.0000 0.0000
# 4 0.0000 0.0000 0.0000 15.0021 0.0000 0.0000
# 5 0.0000 0.0000 0.0000 0.0000 12.8312 0.0000
# 6 0.0000 0.0000 0.0000 0.0000 0.0000 18.7528
#
#
#
# Elastic Compliance Matrix: (Units=1/GPa)
#
#
# Indices 1 2 3 4 5 6 
#
# 1 0.013777 -0.000515 0.005448 0.000000 0.000000 0.000000
# 2 -0.000515 0.009249 -0.003639 0.000000 0.000000 0.000000
# 3 0.005448 -0.003639 0.073116 0.000000 0.000000 0.000000
# 4 0.000000 0.000000 0.000000 0.066657 0.000000 0.000000
# 5 0.000000 0.000000 0.000000 0.000000 0.077935 0.000000
# 6 0.000000 0.000000 0.000000 0.000000 0.000000 0.053325
#
#
# Mechanical properties :
#
#
# Convention : Reuss Voigt Hill
#
# Bulk Modulus (GPa) = 10.12858 22.58548 16.35703
# Shear Modulus (GPa) = 15.41391 22.49234 18.95312
#
# Velocity S-wave (km/s) = 2.67278 3.22867 2.96378
# Velocity P-wave (km/s) = 3.77083 4.93625 4.39236
#
# Compressibility (1/GPa) = 0.09873056
#
# Stress axis : x y z
#
# Youngs Moduli (GPa) = 72.58568 108.11696 13.67681
#
# Poissons Ratio (x) = 0.05572 -0.07452
# Poissons Ratio (y) = 0.03741 0.04977
# Poissons Ratio (z) = -0.39547 0.39343
#
# Static dielectric constant tensor:
#      x y z
#    x 1.823200 0.000000 0.000000 
#    y 0.000000 1.830860 0.000000 
#    z 0.000000 0.000000 1.809240 
# 
# From -- ./inp_files/11439.got.cif
#   From: 2010.05.17/outbox.cif.g08.bks.cpg/sg59_6_cif.got.tgz:11439.got - 2010.06.03 14:40:33.
