data_PCOD9449425
_publ_section_title
;
Structure prediction by ZEFSAII (Michael W. Deem and Ramdas Pophale) SiO2 
 PCOD9449425
Probable space group: P M M N
;
_chemical_formula_sum "Si O2"
_cell_formula_units_Z 64
_cell_length_a 16.151470
_cell_length_b 8.887249
_cell_length_c 24.214691
_cell_angle_alpha 90.000000
_cell_angle_beta 90.000000
_cell_angle_gamma 90.000000
_cell_volume 3475.828459
_symmetry_space_group_name_H-M "P M M N"
_symmetry_group_IT_number 59
_space_group.IT_coordinate_system_code '2'
_symmetry_cell_setting 'orthorhombic'
loop_
_space_group_symop_operation_xyz
x,y,z
1/2-x,1/2-y,z
1/2+x,-y,-z
-x,1/2+y,-z
-x,-y,-z
1/2+x,1/2+y,-z
1/2-x,y,z
x,1/2-y,z
loop_
_atom_site_type_symbol
_atom_site_label
_atom_site_fract_x
_atom_site_fract_y
_atom_site_fract_z
Si Si1 0.843299 0.568174 0.925815
Si Si2 0.342023 0.570535 0.306061
Si Si3 0.655546 0.431290 0.047386
Si Si4 0.012305 0.933209 0.868181
Si Si5 0.653662 0.579474 0.469140
Si Si6 0.099006 0.074186 0.415519
Si Si7 0.585921 0.422403 0.366389
Si Si8 0.006576 0.567399 0.743196
O O1 0.750000 0.522504 0.907655
O O2 0.844572 0.750000 0.927608
O O3 0.920991 0.518686 0.888649
O O4 0.855979 0.505532 0.987533
O O5 0.250000 0.530126 0.286020
O O6 0.351860 0.750000 0.303274
O O7 0.351273 0.516752 0.369447
O O8 0.415617 0.491351 0.272790
O O9 0.750000 0.465252 0.065886
O O10 0.649537 0.250000 0.041517
O O11 0.584658 0.481444 0.089955
O O12 0.012500 0.750000 0.868633
O O13 0.027962 0.979606 0.805148
O O14 0.750000 0.580734 0.484145
O O15 0.622561 0.750000 0.463091
O O16 0.607972 0.511831 0.522567
O O17 0.643094 0.503841 0.410123
O O18 0.126482 0.250000 0.415808
O O19 0.004573 0.073161 0.395141
O O20 0.612823 0.250000 0.361183
O O21 0.569627 0.484550 0.304907
O O22 0.004693 0.750000 0.740270
#
# Coordination Sequence:
#
# PCOD9449425 Si02
#       8
#     8   8   8   8   8   8   8   8
#     4   9  17  29  47  73 103 131 158 191 233 282
#     4  10  20  32  47  71 101 128 155 192 239 288
#     4   9  17  30  49  73 100 129 160 197 243 288
#     4   9  17  31  51  73  96 124 164 207 238 276
#     4  10  20  32  48  71  96 122 153 190 235 288
#     4   9  18  33  52  72  93 120 156 193 232 286
#     4   9  18  32  49  69  92 120 155 195 239 282
#     4   9  19  35  52  69  91 124 167 205 235 277
#
# _framework density 18.412875
#
# number of rings (size 3 to 8) (size 9 to 14) (size 15 to 20)
#    0.000    2.750    0.000    2.250    0.000    4.750 
#    0.000    3.125    0.000    3.750    0.000    1.750 
#    0.000    0.000    0.000    0.000    0.000    0.000 
#
# Total GULP energy -356601.810728 kJ/mol
# GULP energy per Si atom -5571.903293 kJ/mol
# Density = 1.837097 g / cm^3
# Si number density = 18.412875 Si / 1000 Ang^3
#
#
#
# Elastic Constant Matrix: (Units=GPa)
#
#
# Indices 1 2 3 4 5 6 
#
# 1 39.8243 1.3604 30.9812 0.0000 0.0000 0.0000
# 2 1.3604 4.3288 2.5692 0.0000 0.0000 0.0000
# 3 30.9812 2.5692 103.8238 0.0000 0.0000 0.0000
# 4 0.0000 0.0000 0.0000 18.9860 0.0000 0.0000
# 5 0.0000 0.0000 0.0000 0.0000 12.6612 0.0000
# 6 0.0000 0.0000 0.0000 0.0000 0.0000 17.3907
#
#
#
# Elastic Compliance Matrix: (Units=1/GPa)
#
#
# Indices 1 2 3 4 5 6 
#
# 1 0.032790 -0.004565 -0.009672 0.000000 0.000000 0.000000
# 2 -0.004565 0.235088 -0.004455 0.000000 0.000000 0.000000
# 3 -0.009672 -0.004455 0.012628 0.000000 0.000000 0.000000
# 4 0.000000 0.000000 0.000000 0.052670 0.000000 0.000000
# 5 0.000000 0.000000 0.000000 0.000000 0.078981 0.000000
# 6 0.000000 0.000000 0.000000 0.000000 0.000000 0.057502
#
#
# Mechanical properties :
#
#
# Convention : Reuss Voigt Hill
#
# Bulk Modulus (GPa) = 4.11314 24.19981 14.15647
# Shear Modulus (GPa) = 8.50217 17.34532 12.92375
#
# Velocity S-wave (km/s) = 2.15117 3.07257 2.65219
# Velocity P-wave (km/s) = 2.89978 5.07533 4.13326
#
# Compressibility (1/GPa) = 0.24312337
#
# Stress axis : x y z
#
# Youngs Moduli (GPa) = 30.49680 4.25372 79.18904
#
# Poissons Ratio (x) = 0.01942 0.76589
# Poissons Ratio (y) = 0.13921 0.35281
# Poissons Ratio (z) = 0.29496 0.01895
#
# Static dielectric constant tensor:
#      x y z
#    x 1.646810 0.000000 0.000000 
#    y 0.000000 1.639000 0.000000 
#    z 0.000000 0.000000 1.641370 
# 
# From -- ./inp_files/29538.got.cif
#   From: 2010.05.17/outbox.cif.g08.bks.cpg/sg59_15_cif.got.tgz:29538.got - 2010.06.03 14:40:33.
