data_PCOD9449373
_publ_section_title
;
Structure prediction by ZEFSAII (Michael W. Deem and Ramdas Pophale) SiO2 
 PCOD9449373
Probable space group: P M M N
;
_chemical_formula_sum "Si O2"
_cell_formula_units_Z 64
_cell_length_a 7.931003
_cell_length_b 24.043227
_cell_length_c 18.761410
_cell_angle_alpha 90.000000
_cell_angle_beta 90.000000
_cell_angle_gamma 90.000000
_cell_volume 3577.555215
_symmetry_space_group_name_H-M "P M M N"
_symmetry_group_IT_number 59
_space_group.IT_coordinate_system_code '2'
_symmetry_cell_setting 'orthorhombic'
loop_
_space_group_symop_operation_xyz
x,y,z
1/2-x,1/2-y,z
1/2+x,-y,-z
-x,1/2+y,-z
-x,-y,-z
1/2+x,1/2+y,-z
1/2-x,y,z
x,1/2-y,z
loop_
_atom_site_type_symbol
_atom_site_label
_atom_site_fract_x
_atom_site_fract_y
_atom_site_fract_z
Si Si1 0.447077 0.686090 0.748186
Si Si2 0.045351 0.315815 0.941967
Si Si3 0.043539 0.374497 0.643506
Si Si4 0.552697 0.682607 0.904650
Si Si5 0.446547 0.107039 0.376126
Si Si6 0.955865 0.812526 0.499211
Si Si7 0.456247 0.315043 0.786252
Si Si8 0.945940 0.989850 0.418518
O O1 0.250000 0.687139 0.730377
O O2 0.512682 0.750000 0.741721
O O3 0.466749 0.667735 0.830384
O O4 0.533770 0.643868 0.694317
O O5 0.250000 0.320098 0.944678
O O6 0.006249 0.250000 0.940050
O O7 0.989236 0.336803 0.864492
O O8 0.984698 0.338111 0.018703
O O9 0.250000 0.375072 0.646939
O O10 0.997841 0.332793 0.579459
O O11 0.985541 0.351504 0.719630
O O12 0.979784 0.435370 0.619866
O O13 0.750000 0.667802 0.898661
O O14 0.543457 0.750000 0.908571
O O15 0.250000 0.097213 0.390431
O O16 0.515790 0.143723 0.441804
O O17 0.527629 0.046497 0.375144
O O18 0.750000 0.812177 0.502595
O O19 0.013627 0.750000 0.514243
O O20 0.250000 0.315255 0.786684
O O21 0.505034 0.250000 0.777886
O O22 0.750000 0.977716 0.423583
O O23 0.000000 0.000000 0.500000
#
# Coordination Sequence:
#
# PCOD9449373 Si02
#       8
#     8   8   8   8   8   8   8   8
#     4  10  20  32  46  69 100 127 153 189 234 281
#     4   7  10  17  32  58  91 123 151 178 214 264
#     4   9  16  26  41  64  92 120 152 189 233 279
#     4   8  13  23  40  62  91 126 157 181 211 262
#     4  11  21  34  50  69  91 122 162 199 239 280
#     4   9  16  26  42  65  91 117 147 183 224 276
#     4   8  12  19  35  63  98 126 146 180 230 277
#     4  11  21  35  51  68  90 120 160 205 245 283
#
# _framework density 17.889310999999999
#
# number of rings (size 3 to 8) (size 9 to 14) (size 15 to 20)
#    0.000    2.875    1.250    3.375    0.000    2.750 
#    0.000    0.000    0.000    0.000    0.000    2.625 
#    0.000    2.000    0.000    0.000    0.000    0.000 
#
# Total GULP energy -356439.510018 kJ/mol
# GULP energy per Si atom -5569.367344 kJ/mol
# Density = 1.784859 g / cm^3
# Si number density = 17.889311 Si / 1000 Ang^3
#
#
#
# Elastic Constant Matrix: (Units=GPa)
#
#
# Indices 1 2 3 4 5 6 
#
# 1 12.2318 -5.8527 -5.5151 0.0000 0.0000 0.0000
# 2 -5.8527 54.4001 16.7960 0.0000 0.0000 0.0000
# 3 -5.5151 16.7960 99.4385 0.0000 0.0000 0.0000
# 4 0.0000 0.0000 0.0000 4.2456 0.0000 0.0000
# 5 0.0000 0.0000 0.0000 0.0000 2.7771 0.0000
# 6 0.0000 0.0000 0.0000 0.0000 0.0000 10.2696
#
#
#
# Elastic Compliance Matrix: (Units=1/GPa)
#
#
# Indices 1 2 3 4 5 6 
#
# 1 0.087289 0.008331 0.003434 0.000000 0.000000 0.000000
# 2 0.008331 0.020189 -0.002948 0.000000 0.000000 0.000000
# 3 0.003434 -0.002948 0.010745 0.000000 0.000000 0.000000
# 4 0.000000 0.000000 0.000000 0.235540 0.000000 0.000000
# 5 0.000000 0.000000 0.000000 0.000000 0.360092 0.000000
# 6 0.000000 0.000000 0.000000 0.000000 0.000000 0.097375
#
#
# Mechanical properties :
#
#
# Convention : Reuss Voigt Hill
#
# Bulk Modulus (GPa) = 7.36074 19.65855 13.50964
# Shear Modulus (GPa) = 5.96032 14.16792 10.06412
#
# Velocity S-wave (km/s) = 1.82730 2.81726 2.37444
# Velocity P-wave (km/s) = 2.92840 4.64709 3.88401
#
# Compressibility (1/GPa) = 0.13585594
#
# Stress axis : x y z
#
# Youngs Moduli (GPa) = 11.45625 49.53247 93.06761
#
# Poissons Ratio (x) = -0.41264 -0.31960
# Poissons Ratio (y) = -0.09544 0.27437
# Poissons Ratio (z) = -0.03934 0.14602
#
# Static dielectric constant tensor:
#      x y z
#    x 1.657850 0.000000 0.000000 
#    y 0.000000 1.600100 0.000000 
#    z 0.000000 0.000000 1.648660 
# 
# From -- ./inp_files/26438.got.cif
#   From: 2010.05.17/outbox.cif.g08.bks.cpg/sg59_14_cif.got.tgz:26438.got - 2010.06.03 14:40:33.
