data_PCOD9449401
_publ_section_title
;
Structure prediction by ZEFSAII (Michael W. Deem and Ramdas Pophale) SiO2 
 PCOD9449401
Probable space group: P M M N
;
_chemical_formula_sum "Si O2"
_cell_formula_units_Z 64
_cell_length_a 14.417811
_cell_length_b 9.526408
_cell_length_c 23.263639
_cell_angle_alpha 90.000000
_cell_angle_beta 90.000000
_cell_angle_gamma 90.000000
_cell_volume 3195.259655
_symmetry_space_group_name_H-M "P M M N"
_symmetry_group_IT_number 59
_space_group.IT_coordinate_system_code '2'
_symmetry_cell_setting 'orthorhombic'
loop_
_space_group_symop_operation_xyz
x,y,z
1/2-x,1/2-y,z
1/2+x,-y,-z
-x,1/2+y,-z
-x,-y,-z
1/2+x,1/2+y,-z
1/2-x,y,z
x,1/2-y,z
loop_
_atom_site_type_symbol
_atom_site_label
_atom_site_fract_x
_atom_site_fract_y
_atom_site_fract_z
Si Si1 0.608172 0.407126 0.319349
Si Si2 0.966074 0.914878 0.084053
Si Si3 0.395751 0.091001 0.360238
Si Si4 0.949316 0.418065 0.192887
Si Si5 0.643409 0.595452 0.423582
Si Si6 0.637593 0.090579 0.527293
Si Si7 0.151932 0.420454 0.234768
Si Si8 0.360017 0.084934 0.036668
O O1 0.646795 0.250000 0.327959
O O2 0.501610 0.399412 0.339725
O O3 0.607516 0.441001 0.251775
O O4 0.646723 0.523072 0.361670
O O5 0.980597 0.750000 0.095218
O O6 0.920353 0.994331 0.137801
O O7 0.898667 0.926497 0.028656
O O8 0.065050 0.990921 0.070960
O O9 0.363759 0.250000 0.374120
O O10 0.348122 0.038008 0.301818
O O11 0.385182 0.991843 0.414521
O O12 0.948192 0.250000 0.182157
O O13 0.055874 0.463530 0.206197
O O14 0.750000 0.611406 0.441776
O O15 0.600601 0.750000 0.421318
O O16 0.601445 0.492884 0.471405
O O17 0.750000 0.097560 0.524183
O O18 0.603413 0.250000 0.526946
O O19 0.250000 0.463997 0.207517
O O20 0.149092 0.250000 0.235020
O O21 0.250000 0.048675 0.041043
O O22 0.368892 0.250000 0.054096
#
# Coordination Sequence:
#
# PCOD9449401 Si02
#       8
#     8   8   8   8   8   8   8   8
#     4   9  19  35  53  73  98 129 166 206 248 297
#     4  10  20  34  55  84 115 144 178 225 272 308
#     4   9  17  30  49  71  94 123 160 202 248 299
#     4   9  18  33  52  75 105 141 177 208 247 305
#     4  10  21  36  53  71  90 118 160 208 258 311
#     4  10  20  32  47  69  96 125 157 197 250 309
#     4   8  14  26  46  70  95 128 170 209 243 290
#     4   9  19  37  59  81 109 149 189 220 259 314
#
# _framework density 20.029671
#
# number of rings (size 3 to 8) (size 9 to 14) (size 15 to 20)
#    0.000    2.750    0.000    3.000    0.000    4.750 
#    0.000    3.750    0.000    3.000    0.000    0.000 
#    0.000    0.000    0.000    0.000    0.000    0.000 
#
# Total GULP energy -356788.390798 kJ/mol
# GULP energy per Si atom -5574.818606 kJ/mol
# Density = 1.998408 g / cm^3
# Si number density = 20.029671 Si / 1000 Ang^3
#
#
#
# Elastic Constant Matrix: (Units=GPa)
#
#
# Indices 1 2 3 4 5 6 
#
# 1 58.5119 4.9880 -8.6609 0.0000 0.0000 0.0000
# 2 4.9880 106.1583 68.0410 0.0000 0.0000 0.0000
# 3 -8.6609 68.0410 102.3722 0.0000 0.0000 0.0000
# 4 0.0000 0.0000 0.0000 34.0707 0.0000 0.0000
# 5 0.0000 0.0000 0.0000 0.0000 5.5179 0.0000
# 6 0.0000 0.0000 0.0000 0.0000 0.0000 16.8126
#
#
#
# Elastic Compliance Matrix: (Units=1/GPa)
#
#
# Indices 1 2 3 4 5 6 
#
# 1 0.017894 -0.003155 0.003611 0.000000 0.000000 0.000000
# 2 -0.003155 0.016967 -0.011544 0.000000 0.000000 0.000000
# 3 0.003611 -0.011544 0.017746 0.000000 0.000000 0.000000
# 4 0.000000 0.000000 0.000000 0.029351 0.000000 0.000000
# 5 0.000000 0.000000 0.000000 0.000000 0.181227 0.000000
# 6 0.000000 0.000000 0.000000 0.000000 0.000000 0.059479
#
#
# Mechanical properties :
#
#
# Convention : Reuss Voigt Hill
#
# Bulk Modulus (GPa) = 32.86117 43.97540 38.41829
# Shear Modulus (GPa) = 14.08511 24.79186 19.43848
#
# Velocity S-wave (km/s) = 2.65469 3.52199 3.11864
# Velocity P-wave (km/s) = 5.08315 6.20822 5.67364
#
# Compressibility (1/GPa) = 0.03043105
#
# Stress axis : x y z
#
# Youngs Moduli (GPa) = 55.88465 58.93723 56.34924
#
# Poissons Ratio (x) = 0.18596 -0.20347
# Poissons Ratio (y) = 0.17633 0.65050
# Poissons Ratio (z) = -0.20180 0.68038
#
# Static dielectric constant tensor:
#      x y z
#    x 1.797480 0.000000 0.000000 
#    y 0.000000 1.698440 0.000000 
#    z 0.000000 0.000000 1.700880 
# 
# From -- ./inp_files/32260.got.cif
#   From: 2010.05.17/outbox.cif.g08.bks.cpg/sg59_17_cif.got.tgz:32260.got - 2010.06.03 14:40:33.
