data_PCOD9449333
_publ_section_title
;
Structure prediction by ZEFSAII (Michael W. Deem and Ramdas Pophale) SiO2 
 PCOD9449333
Probable space group: P M M N
;
_chemical_formula_sum "Si O2"
_cell_formula_units_Z 64
_cell_length_a 7.585948
_cell_length_b 14.730265
_cell_length_c 25.646936
_cell_angle_alpha 90.000000
_cell_angle_beta 90.000000
_cell_angle_gamma 90.000000
_cell_volume 2865.866193
_symmetry_space_group_name_H-M "P M M N"
_symmetry_group_IT_number 59
_space_group.IT_coordinate_system_code '2'
_symmetry_cell_setting 'orthorhombic'
loop_
_space_group_symop_operation_xyz
x,y,z
1/2-x,1/2-y,z
1/2+x,-y,-z
-x,1/2+y,-z
-x,-y,-z
1/2+x,1/2+y,-z
1/2-x,y,z
x,1/2-y,z
loop_
_atom_site_type_symbol
_atom_site_label
_atom_site_fract_x
_atom_site_fract_y
_atom_site_fract_z
Si Si1 0.540533 0.349318 0.239119
Si Si2 0.963922 0.144237 0.530672
Si Si3 0.466100 0.855928 0.151325
Si Si4 0.540861 0.349091 0.114128
Si Si5 0.443578 0.527393 0.057713
Si Si6 0.537181 0.147103 0.413499
Si Si7 0.953062 0.447401 0.742550
Si Si8 0.459398 0.960451 0.368763
O O1 0.750000 0.354305 0.250744
O O2 0.477648 0.250000 0.258255
O O3 0.520133 0.349110 0.176395
O O4 0.456226 0.443182 0.256223
O O5 0.750000 0.136460 0.529507
O O6 0.005172 0.250000 0.539406
O O7 0.024892 0.121171 0.472146
O O8 0.031875 0.084955 0.578590
O O9 0.250000 0.864166 0.150869
O O10 0.509691 0.750000 0.153530
O O11 0.529287 0.907530 0.203769
O O12 0.534247 0.903342 0.098249
O O13 0.750000 0.358862 0.103415
O O14 0.483684 0.250000 0.094577
O O15 0.444365 0.433185 0.089175
O O16 0.250000 0.566504 0.049920
O O17 0.500000 0.500000 0.000000
O O18 0.750000 0.149301 0.414067
O O19 0.477789 0.250000 0.402082
O O20 0.482753 0.068346 0.374635
O O21 0.750000 0.416326 0.741854
O O22 0.033065 0.424124 0.686093
O O23 0.250000 0.942164 0.367969
#
# Coordination Sequence:
#
# PCOD9449333 Si02
#       8
#     8   8   8   8   8   8   8   8
#     4   9  18  33  54  77 101 134 173 211 257 314
#     4   8  15  30  51  74 100 132 173 219 265 313
#     4   9  19  37  58  78 104 141 180 215 257 309
#     4   9  18  34  56  80 106 136 171 214 264 315
#     4  11  22  36  57  84 113 144 179 221 266 314
#     4   9  18  33  52  72  99 139 180 214 256 317
#     4  10  20  34  52  78 107 136 174 219 263 311
#     4  10  20  31  49  78 107 132 167 220 272 311
#
# _framework density 22.331817000000001
#
# number of rings (size 3 to 8) (size 9 to 14) (size 15 to 20)
#    0.000    2.625    1.250    2.250    0.000    2.750 
#    0.000    7.500    0.000    4.125    0.000    1.750 
#    0.000    0.000    0.000    0.000    0.000    0.000 
#
# Total GULP energy -356995.029119 kJ/mol
# GULP energy per Si atom -5578.047330 kJ/mol
# Density = 2.228099 g / cm^3
# Si number density = 22.331817 Si / 1000 Ang^3
#
#
#
# Elastic Constant Matrix: (Units=GPa)
#
#
# Indices 1 2 3 4 5 6 
#
# 1 41.3470 -4.7071 14.9917 0.0000 0.0000 0.0000
# 2 -4.7071 91.3040 63.7593 0.0000 0.0000 0.0000
# 3 14.9917 63.7593 148.6634 0.0000 0.0000 0.0000
# 4 0.0000 0.0000 0.0000 -3.8145 0.0000 0.0000
# 5 0.0000 0.0000 0.0000 0.0000 5.2489 0.0000
# 6 0.0000 0.0000 0.0000 0.0000 0.0000 -63.8195
#
#
#
# Elastic Compliance Matrix: (Units=1/GPa)
#
#
# Indices 1 2 3 4 5 6 
#
# 1 0.026388 0.004595 -0.004632 0.000000 0.000000 0.000000
# 2 0.004595 0.016435 -0.007512 0.000000 0.000000 0.000000
# 3 -0.004632 -0.007512 0.010416 0.000000 0.000000 0.000000
# 4 0.000000 0.000000 0.000000 -0.262156 0.000000 0.000000
# 5 0.000000 0.000000 0.000000 0.000000 0.190516 0.000000
# 6 0.000000 0.000000 0.000000 0.000000 0.000000 -0.015669
#
#
# Mechanical properties :
#
#
# Convention : Reuss Voigt Hill
#
# Bulk Modulus (GPa) = 26.21872 47.71137 36.96504
# Shear Modulus (GPa) = -798.84831 1.34101 -398.75365
#
# Velocity S-wave (km/s) = -18.93394 0.77575 -13.37708
# Velocity P-wave (km/s) = 21.59227 4.71312 14.89988
#
# Compressibility (1/GPa) = 0.03814069
#
# Stress axis : x y z
#
# Youngs Moduli (GPa) = 37.89596 60.84510 96.01064
#
# Poissons Ratio (x) = -0.27957 0.44469
# Poissons Ratio (y) = -0.17412 0.72125
# Poissons Ratio (z) = 0.17552 0.45708
#
# Static dielectric constant tensor:
#      x y z
#    x 1.860350 0.000000 0.000000 
#    y 0.000000 1.801500 0.000000 
#    z 0.000000 0.000000 1.856760 
# 
# From -- ./inp_files/31491.got.cif
#   From: 2010.05.17/outbox.cif.g08.bks.cpg/sg59_16_cif.got.tgz:31491.got - 2010.06.03 14:40:33.
