data_PCOD9449962
_publ_section_title
;
Structure prediction by ZEFSAII (Michael W. Deem and Ramdas Pophale) SiO2 
 PCOD9449962
Probable space group: P M M N
;
_chemical_formula_sum "Si O2"
_cell_formula_units_Z 48
_cell_length_a 10.051655
_cell_length_b 8.148249
_cell_length_c 29.666177
_cell_angle_alpha 90.000000
_cell_angle_beta 90.000000
_cell_angle_gamma 90.000000
_cell_volume 2429.760399
_symmetry_space_group_name_H-M "P M M N"
_symmetry_group_IT_number 59
_space_group.IT_coordinate_system_code '2'
_symmetry_cell_setting 'orthorhombic'
loop_
_space_group_symop_operation_xyz
x,y,z
1/2-x,1/2-y,z
1/2+x,-y,-z
-x,1/2+y,-z
-x,-y,-z
1/2+x,1/2+y,-z
1/2-x,y,z
x,1/2-y,z
loop_
_atom_site_type_symbol
_atom_site_label
_atom_site_fract_x
_atom_site_fract_y
_atom_site_fract_z
Si Si1 0.750000 0.436451 0.969667
Si Si2 0.404548 0.948528 0.458902
Si Si3 0.402654 0.450167 0.620695
Si Si4 0.398992 0.447636 0.199744
Si Si5 0.532566 0.943423 0.901151
Si Si6 0.750000 0.939690 0.067873
Si Si7 0.100163 0.447661 0.723315
O O1 0.750000 0.250000 0.986134
O O2 0.876419 0.468584 0.938034
O O3 0.750000 0.548119 0.013714
O O4 0.250000 0.005880 0.462111
O O5 0.399783 0.750000 0.458092
O O6 0.484259 0.004692 0.414123
O O7 0.500000 0.000000 0.500000
O O8 0.250000 0.500484 0.608913
O O9 0.402144 0.250000 0.619943
O O10 0.430885 0.502211 0.672144
O O11 0.250000 0.506033 0.209789
O O12 0.398219 0.250000 0.198200
O O13 0.438361 0.503689 0.149497
O O14 0.499141 0.498668 0.238593
O O15 0.564893 0.750000 0.903129
O O16 0.380671 0.973658 0.913394
O O17 0.750000 0.750000 0.081647
O O18 0.250000 0.504244 0.734001
O O19 0.101330 0.250000 0.722282
#
# Coordination Sequence:
#
# PCOD9449962 Si02
#       7
#     4   8   8   8   8   4   8
#     4  12  24  42  66  92 120 154 194 238 289 344
#     4  10  20  33  52  79 109 145 190 237 284 339
#     4   8  15  31  53  76 107 145 183 226 281 336
#     4  10  22  40  59  81 112 151 188 227 279 335
#     4  11  23  43  64  86 118 158 196 236 287 347
#     4  12  26  42  62  92 122 152 192 242 289 342
#     4   9  19  35  57  86 114 142 181 231 280 334
#
# _framework density 19.755033999999998
#
# number of rings (size 3 to 8) (size 9 to 14) (size 15 to 20)
#    0.000    2.000    0.833    4.000    1.167    3.667 
#    0.000    2.500    0.000    1.000    0.000    0.000 
#    0.000    0.000    0.000    0.000    0.000    0.000 
#
# Total GULP energy -268048.960022 kJ/mol
# GULP energy per Si atom -5584.353334 kJ/mol
# Density = 1.971007 g / cm^3
# Si number density = 19.755034 Si / 1000 Ang^3
#
#
#
# Elastic Constant Matrix: (Units=GPa)
#
#
# Indices 1 2 3 4 5 6 
#
# 1 163.2548 -1.4640 92.0243 0.0000 0.0000 0.0000
# 2 -1.4640 20.5228 -1.0656 0.0000 0.0000 0.0000
# 3 92.0243 -1.0656 131.1956 0.0000 0.0000 0.0000
# 4 0.0000 0.0000 0.0000 29.0697 0.0000 0.0000
# 5 0.0000 0.0000 0.0000 0.0000 45.4731 0.0000
# 6 0.0000 0.0000 0.0000 0.0000 0.0000 24.5275
#
#
#
# Elastic Compliance Matrix: (Units=1/GPa)
#
#
# Indices 1 2 3 4 5 6 
#
# 1 0.010134 0.000354 -0.007105 0.000000 0.000000 0.000000
# 2 0.000354 0.048759 0.000148 0.000000 0.000000 0.000000
# 3 -0.007105 0.000148 0.012607 0.000000 0.000000 0.000000
# 4 0.000000 0.000000 0.000000 0.034400 0.000000 0.000000
# 5 0.000000 0.000000 0.000000 0.000000 0.021991 0.000000
# 6 0.000000 0.000000 0.000000 0.000000 0.000000 0.040771
#
#
# Mechanical properties :
#
#
# Convention : Reuss Voigt Hill
#
# Bulk Modulus (GPa) = 17.15466 54.88473 36.01970
# Shear Modulus (GPa) = 24.83858 34.84594 29.84226
#
# Velocity S-wave (km/s) = 3.54973 4.20444 3.89088
# Velocity P-wave (km/s) = 5.05008 7.17027 6.20145
#
# Compressibility (1/GPa) = 0.05829321
#
# Stress axis : x y z
#
# Youngs Moduli (GPa) = 98.68134 20.50892 79.32008
#
# Poissons Ratio (x) = -0.00726 0.56358
# Poissons Ratio (y) = -0.03493 -0.01172
# Poissons Ratio (z) = 0.70114 -0.00303
#
# Static dielectric constant tensor:
#      x y z
#    x 1.522610 0.000000 0.000000 
#    y 0.000000 1.699610 0.000000 
#    z 0.000000 0.000000 1.673710 
# 
# From -- ./inp_files/33093.got.cif
#   From: 2010.05.17/outbox.cif.g08.bks.cpg/sg59_17_cif.got.tgz:33093.got - 2010.06.03 14:40:33.
