data_PCOD9449840
_publ_section_title
;
Structure prediction by ZEFSAII (Michael W. Deem and Ramdas Pophale) SiO2 
 PCOD9449840
Probable space group: P M M N
;
_chemical_formula_sum "Si O2"
_cell_formula_units_Z 32
_cell_length_a 9.583646
_cell_length_b 8.132052
_cell_length_c 21.104786
_cell_angle_alpha 90.000000
_cell_angle_beta 90.000000
_cell_angle_gamma 90.000000
_cell_volume 1644.795326
_symmetry_space_group_name_H-M "P M M N"
_symmetry_group_IT_number 59
_space_group.IT_coordinate_system_code '2'
_symmetry_cell_setting 'orthorhombic'
loop_
_space_group_symop_operation_xyz
x,y,z
1/2-x,1/2-y,z
1/2+x,-y,-z
-x,1/2+y,-z
-x,-y,-z
1/2+x,1/2+y,-z
1/2-x,y,z
x,1/2-y,z
loop_
_atom_site_type_symbol
_atom_site_label
_atom_site_fract_x
_atom_site_fract_y
_atom_site_fract_z
Si Si1 0.907780 0.054226 0.059514
Si Si2 0.590263 0.448548 0.822424
Si Si3 0.410199 0.549449 0.321032
Si Si4 0.909394 0.948881 0.439700
O O1 0.750000 0.986529 0.056343
O O2 0.899292 0.250000 0.057189
O O3 0.984649 0.005853 0.124236
O O4 0.000000 0.000000 0.000000
O O5 0.750000 0.501899 0.836172
O O6 0.590683 0.250000 0.822592
O O7 0.554763 0.502519 0.750721
O O8 0.250000 0.500269 0.334644
O O9 0.412050 0.750000 0.321164
O O10 0.514606 0.492804 0.375493
O O11 0.750000 0.007707 0.444395
O O12 0.906580 0.750000 0.437667
O O13 0.000000 0.000000 0.500000
#
# Coordination Sequence:
#
# PCOD9449840 Si02
#       4
#     8   8   8   8
#     4  11  24  39  55  78 107 138 174 214 255 303
#     4   9  18  34  57  83 107 133 169 211 256 309
#     4   8  15  30  52  76 103 135 170 210 256 306
#     4  10  20  33  51  76 104 136 176 218 260 309
#
# _framework density 19.455309
#
# number of rings (size 3 to 8) (size 9 to 14) (size 15 to 20)
#    0.000    2.500    0.000    3.750    0.000    8.000 
#    0.000    3.750    0.000    1.500    0.000    0.000 
#    0.000    0.000    0.000    0.000    0.000    0.000 
#
# Total GULP energy -178617.036336 kJ/mol
# GULP energy per Si atom -5581.782386 kJ/mol
# Density = 1.941103 g / cm^3
# Si number density = 19.455309 Si / 1000 Ang^3
#
#
#
# Elastic Constant Matrix: (Units=GPa)
#
#
# Indices 1 2 3 4 5 6 
#
# 1 198.1839 18.9393 149.2306 0.0000 0.0000 0.0000
# 2 18.9393 14.5803 15.8338 0.0000 0.0000 0.0000
# 3 149.2306 15.8338 182.5250 0.0000 0.0000 0.0000
# 4 0.0000 0.0000 0.0000 29.1413 0.0000 0.0000
# 5 0.0000 0.0000 0.0000 0.0000 42.8968 0.0000
# 6 0.0000 0.0000 0.0000 0.0000 0.0000 22.2545
#
#
#
# Elastic Compliance Matrix: (Units=1/GPa)
#
#
# Indices 1 2 3 4 5 6 
#
# 1 0.013614 -0.006179 -0.010595 0.000000 0.000000 0.000000
# 2 -0.006179 0.078523 -0.001760 0.000000 0.000000 0.000000
# 3 -0.010595 -0.001760 0.014293 0.000000 0.000000 0.000000
# 4 0.000000 0.000000 0.000000 0.034316 0.000000 0.000000
# 5 0.000000 0.000000 0.000000 0.000000 0.023312 0.000000
# 6 0.000000 0.000000 0.000000 0.000000 0.000000 0.044935
#
#
# Mechanical properties :
#
#
# Convention : Reuss Voigt Hill
#
# Bulk Modulus (GPa) = 14.41684 84.81073 49.61379
# Shear Modulus (GPa) = 18.57493 32.94422 25.75958
#
# Velocity S-wave (km/s) = 3.09325 4.11947 3.64268
# Velocity P-wave (km/s) = 4.49265 8.14334 6.57639
#
# Compressibility (1/GPa) = 0.06936331
#
# Stress axis : x y z
#
# Youngs Moduli (GPa) = 73.45421 12.73517 69.96207
#
# Poissons Ratio (x) = 0.07869 0.74122
# Poissons Ratio (y) = 0.45384 0.12315
# Poissons Ratio (z) = 0.77822 0.02242
#
# Static dielectric constant tensor:
#      x y z
#    x 1.675640 0.000000 0.000000 
#    y 0.000000 1.700540 0.000000 
#    z 0.000000 0.000000 1.659440 
# 
# From -- ./inp_files/28570.got.cif
#   From: 2010.05.17/outbox.cif.g08.bks.cpg/sg59_15_cif.got.tgz:28570.got - 2010.06.03 14:40:33.
