data_PCOD9449291
_publ_section_title
;
Structure prediction by ZEFSAII (Michael W. Deem and Ramdas Pophale) SiO2 
 PCOD9449291
Probable space group: P M M N
;
_chemical_formula_sum "Si O2"
_cell_formula_units_Z 64
_cell_length_a 14.619101
_cell_length_b 11.550038
_cell_length_c 19.964256
_cell_angle_alpha 90.000000
_cell_angle_beta 90.000000
_cell_angle_gamma 90.000000
_cell_volume 3370.988025
_symmetry_space_group_name_H-M "P M M N"
_symmetry_group_IT_number 59
_space_group.IT_coordinate_system_code '2'
_symmetry_cell_setting 'orthorhombic'
loop_
_space_group_symop_operation_xyz
x,y,z
1/2-x,1/2-y,z
1/2+x,-y,-z
-x,1/2+y,-z
-x,-y,-z
1/2+x,1/2+y,-z
1/2-x,y,z
x,1/2-y,z
loop_
_atom_site_type_symbol
_atom_site_label
_atom_site_fract_x
_atom_site_fract_y
_atom_site_fract_z
Si Si1 0.650965 0.119110 0.759373
Si Si2 0.358173 0.884320 0.610066
Si Si3 0.860507 0.380676 0.547194
Si Si4 0.541129 0.379090 0.149446
Si Si5 0.000072 0.477392 0.290580
Si Si6 0.859250 0.622214 0.620830
Si Si7 0.640896 0.116693 0.017860
Si Si8 0.147416 0.042297 0.109866
O O1 0.750000 0.102486 0.723818
O O2 0.648051 0.250000 0.782626
O O3 0.650481 0.038132 0.824050
O O4 0.562256 0.091518 0.715739
O O5 0.250000 0.909309 0.616470
O O6 0.372605 0.750000 0.631320
O O7 0.383044 0.890608 0.531696
O O8 0.421351 0.966029 0.654691
O O9 0.750000 0.376893 0.551870
O O10 0.891720 0.250000 0.569887
O O11 0.886040 0.504050 0.581213
O O12 0.576105 0.250000 0.163221
O O13 0.541698 0.449407 0.218215
O O14 0.597405 0.427970 0.086789
O O15 0.436471 0.374690 0.124431
O O16 0.079566 0.386224 0.312256
O O17 0.750000 0.618487 0.632781
O O18 0.878033 0.750000 0.589552
O O19 0.750000 0.120221 0.025250
O O20 0.608964 0.250000 0.007329
O O21 0.622715 0.036643 0.954059
O O22 0.250000 0.090430 0.100419
#
# Coordination Sequence:
#
# PCOD9449291 Si02
#       8
#     8   8   8   8   8   8   8   8
#     4   9  18  33  52  74 100 131 170 212 254 306
#     4   9  18  34  55  75  98 133 175 215 252 293
#     4   8  16  33  55  77 100 129 170 218 260 300
#     4  10  20  31  44  67  99 130 159 195 239 291
#     4  11  21  33  49  73 104 136 169 203 247 302
#     4  10  20  33  50  74 105 137 165 202 261 323
#     4   9  17  30  49  71  92 117 156 205 250 287
#     4   9  17  30  49  70  93 124 159 200 250 297
#
# _framework density 18.985533
#
# number of rings (size 3 to 8) (size 9 to 14) (size 15 to 20)
#    0.000    2.625    0.000    3.000    0.000    3.750 
#    0.000    3.125    0.000    1.125    0.000    0.000 
#    0.000    0.000    0.000    0.000    0.000    0.000 
#
# Total GULP energy -356349.201566 kJ/mol
# GULP energy per Si atom -5567.956274 kJ/mol
# Density = 1.894232 g / cm^3
# Si number density = 18.985533 Si / 1000 Ang^3
#
#
#
# Elastic Constant Matrix: (Units=GPa)
#
#
# Indices 1 2 3 4 5 6 
#
# 1 37.1684 13.7523 20.6413 0.0000 0.0000 0.0000
# 2 13.7523 75.8378 24.9250 0.0000 0.0000 0.0000
# 3 20.6413 24.9250 74.7909 0.0000 0.0000 0.0000
# 4 0.0000 0.0000 0.0000 11.5203 0.0000 0.0000
# 5 0.0000 0.0000 0.0000 0.0000 31.2786 0.0000
# 6 0.0000 0.0000 0.0000 0.0000 0.0000 16.3541
#
#
#
# Elastic Compliance Matrix: (Units=1/GPa)
#
#
# Indices 1 2 3 4 5 6 
#
# 1 0.032497 -0.003308 -0.007866 0.000000 0.000000 0.000000
# 2 -0.003308 0.015145 -0.004134 0.000000 0.000000 0.000000
# 3 -0.007866 -0.004134 0.016919 0.000000 0.000000 0.000000
# 4 0.000000 0.000000 0.000000 0.086804 0.000000 0.000000
# 5 0.000000 0.000000 0.000000 0.000000 0.031971 0.000000
# 6 0.000000 0.000000 0.000000 0.000000 0.000000 0.061147
#
#
# Mechanical properties :
#
#
# Convention : Reuss Voigt Hill
#
# Bulk Modulus (GPa) = 29.45989 34.04824 31.75406
# Shear Modulus (GPa) = 17.45727 20.39582 18.92655
#
# Velocity S-wave (km/s) = 3.03562 3.28118 3.16079
# Velocity P-wave (km/s) = 5.27611 5.68573 5.48475
#
# Compressibility (1/GPa) = 0.03394446
#
# Stress axis : x y z
#
# Youngs Moduli (GPa) = 30.77210 66.03011 59.10356
#
# Poissons Ratio (x) = 0.21840 0.46494
# Poissons Ratio (y) = 0.10178 0.24435
# Poissons Ratio (z) = 0.24207 0.27299
#
# Static dielectric constant tensor:
#      x y z
#    x 1.675530 0.000000 0.000000 
#    y 0.000000 1.695690 0.000000 
#    z 0.000000 0.000000 1.683250 
# 
# From -- ./inp_files/27104.got.cif
#   From: 2010.05.17/outbox.cif.g08.bks.cpg/sg59_14_cif.got.tgz:27104.got - 2010.06.03 14:40:33.
