data_PCOD9449591
_publ_section_title
;
Structure prediction by ZEFSAII (Michael W. Deem and Ramdas Pophale) SiO2 
 PCOD9449591
Probable space group: P M M N
;
_chemical_formula_sum "Si O2"
_cell_formula_units_Z 64
_cell_length_a 14.355138
_cell_length_b 7.800721
_cell_length_c 31.713865
_cell_angle_alpha 90.000000
_cell_angle_beta 90.000000
_cell_angle_gamma 90.000000
_cell_volume 3551.332127
_symmetry_space_group_name_H-M "P M M N"
_symmetry_group_IT_number 59
_space_group.IT_coordinate_system_code '2'
_symmetry_cell_setting 'orthorhombic'
loop_
_space_group_symop_operation_xyz
x,y,z
1/2-x,1/2-y,z
1/2+x,-y,-z
-x,1/2+y,-z
-x,-y,-z
1/2+x,1/2+y,-z
1/2-x,y,z
x,1/2-y,z
loop_
_atom_site_type_symbol
_atom_site_label
_atom_site_fract_x
_atom_site_fract_y
_atom_site_fract_z
Si Si1 0.990325 0.046595 0.951335
Si Si2 0.644357 0.544900 0.876849
Si Si3 0.467368 0.043659 0.565655
Si Si4 0.643490 0.957969 0.113418
Si Si5 0.644730 0.956246 0.516678
Si Si6 0.355600 0.954557 0.742708
Si Si7 0.511134 0.051835 0.187055
Si Si8 0.644020 0.542692 0.354181
O O1 0.985220 0.250000 0.948947
O O2 0.083351 0.989830 0.926947
O O3 0.905068 0.982987 0.922174
O O4 0.000000 0.000000 0.000000
O O5 0.750000 0.478099 0.875625
O O6 0.648026 0.750000 0.871280
O O7 0.576572 0.476597 0.839326
O O8 0.460238 0.250000 0.565934
O O9 0.403132 0.980351 0.526741
O O10 0.427201 0.981235 0.610110
O O11 0.573058 0.999187 0.553942
O O12 0.750000 0.006577 0.109714
O O13 0.637895 0.750000 0.117972
O O14 0.594457 0.042148 0.153280
O O15 0.750000 0.020323 0.521797
O O16 0.648844 0.750000 0.513764
O O17 0.250000 0.021831 0.751923
O O18 0.352221 0.750000 0.750489
O O19 0.439892 0.025349 0.771398
O O20 0.373921 0.982684 0.693309
O O21 0.487022 0.250000 0.196447
O O22 0.750000 0.491382 0.365533
O O23 0.641783 0.750000 0.353558
#
# Coordination Sequence:
#
# PCOD9449591 Si02
#       8
#     8   8   8   8   8   8   8   8
#     4  10  20  33  48  68  94 122 152 185 222 265
#     4   9  18  33  52  71  91 119 155 193 231 268
#     4   9  17  29  45  65  89 118 152 190 229 269
#     4   9  18  31  46  65  89 116 144 176 216 260
#     4   9  17  29  45  65  89 117 150 189 232 275
#     4   9  17  28  43  66  94 120 146 181 227 274
#     4   9  17  30  48  69  92 117 146 182 222 265
#     4   9  17  29  45  65  90 121 154 184 218 266
#
# _framework density 18.021405999999999
#
# number of rings (size 3 to 8) (size 9 to 14) (size 15 to 20)
#    0.000    2.875    0.000    1.125    0.000    4.750 
#    0.000    2.500    0.000    3.000    0.000    1.750 
#    0.000    0.000    0.000    0.000    0.000    0.000 
#
# Total GULP energy -356518.305388 kJ/mol
# GULP energy per Si atom -5570.598522 kJ/mol
# Density = 1.798039 g / cm^3
# Si number density = 18.021406 Si / 1000 Ang^3
#
#
#
# Elastic Constant Matrix: (Units=GPa)
#
#
# Indices 1 2 3 4 5 6 
#
# 1 160.0128 7.8251 73.6803 0.0000 0.0000 0.0000
# 2 7.8251 20.5477 1.8561 0.0000 0.0000 0.0000
# 3 73.6803 1.8561 101.1120 0.0000 0.0000 0.0000
# 4 0.0000 0.0000 0.0000 19.3991 0.0000 0.0000
# 5 0.0000 0.0000 0.0000 0.0000 14.9471 0.0000
# 6 0.0000 0.0000 0.0000 0.0000 0.0000 17.2335
#
#
#
# Elastic Compliance Matrix: (Units=1/GPa)
#
#
# Indices 1 2 3 4 5 6 
#
# 1 0.009590 -0.003026 -0.006932 0.000000 0.000000 0.000000
# 2 -0.003026 0.049703 0.001292 0.000000 0.000000 0.000000
# 3 -0.006932 0.001292 0.014918 0.000000 0.000000 0.000000
# 4 0.000000 0.000000 0.000000 0.051549 0.000000 0.000000
# 5 0.000000 0.000000 0.000000 0.000000 0.066903 0.000000
# 6 0.000000 0.000000 0.000000 0.000000 0.000000 0.058027
#
#
# Mechanical properties :
#
#
# Convention : Reuss Voigt Hill
#
# Bulk Modulus (GPa) = 17.58117 49.82173 33.70145
# Shear Modulus (GPa) = 17.42284 23.53666 20.47975
#
# Velocity S-wave (km/s) = 3.11269 3.61784 3.37473
# Velocity P-wave (km/s) = 4.76396 6.71994 5.82464
#
# Compressibility (1/GPa) = 0.05687904
#
# Stress axis : x y z
#
# Youngs Moduli (GPa) = 104.27976 20.11956 67.03343
#
# Poissons Ratio (x) = 0.06088 0.46470
# Poissons Ratio (y) = 0.31552 -0.08664
# Poissons Ratio (z) = 0.72291 -0.02600
#
# Static dielectric constant tensor:
#      x y z
#    x 1.635520 0.000000 0.000000 
#    y 0.000000 1.682230 0.000000 
#    z 0.000000 0.000000 1.682840 
# 
# From -- ./inp_files/33337.got.cif
#   From: 2010.05.17/outbox.cif.g08.bks.cpg/sg59_17_cif.got.tgz:33337.got - 2010.06.03 14:40:33.
