data_PCOD9449294
_publ_section_title
;
Structure prediction by ZEFSAII (Michael W. Deem and Ramdas Pophale) SiO2 
 PCOD9449294
Probable space group: P M M N
;
_chemical_formula_sum "Si O2"
_cell_formula_units_Z 56
_cell_length_a 17.494105
_cell_length_b 9.021064
_cell_length_c 19.287874
_cell_angle_alpha 90.000000
_cell_angle_beta 90.000000
_cell_angle_gamma 90.000000
_cell_volume 3043.924338
_symmetry_space_group_name_H-M "P M M N"
_symmetry_group_IT_number 59
_space_group.IT_coordinate_system_code '2'
_symmetry_cell_setting 'orthorhombic'
loop_
_space_group_symop_operation_xyz
x,y,z
1/2-x,1/2-y,z
1/2+x,-y,-z
-x,1/2+y,-z
-x,-y,-z
1/2+x,1/2+y,-z
1/2-x,y,z
x,1/2-y,z
loop_
_atom_site_type_symbol
_atom_site_label
_atom_site_fract_x
_atom_site_fract_y
_atom_site_fract_z
Si Si1 0.515320 0.072866 0.425825
Si Si2 0.933962 0.424941 0.699873
Si Si3 0.163174 0.071914 0.641386
Si Si4 0.408415 0.078060 0.783470
Si Si5 0.662503 0.430933 0.827416
Si Si6 0.072193 0.573160 0.038322
Si Si7 0.333993 0.574050 0.906105
O O1 0.514046 0.250000 0.429619
O O2 0.500000 0.000000 0.500000
O O3 0.453614 0.015241 0.369168
O O4 0.597916 0.014716 0.399610
O O5 0.925477 0.250000 0.682542
O O6 0.865373 0.473217 0.750274
O O7 0.009121 0.438356 0.748422
O O8 0.250000 0.039953 0.620251
O O9 0.149633 0.250000 0.634662
O O10 0.150823 0.036020 0.722672
O O11 0.397601 0.250000 0.800294
O O12 0.395106 0.988662 0.852728
O O13 0.750000 0.476731 0.841088
O O14 0.660896 0.250000 0.829367
O O15 0.602276 0.479858 0.886698
O O16 0.057300 0.750000 0.043505
O O17 0.141711 0.548157 0.984877
O O18 0.000000 0.500000 0.000000
O O19 0.250000 0.511158 0.891143
O O20 0.331648 0.750000 0.896679
#
# Coordination Sequence:
#
# PCOD9449294 Si02
#       7
#     8   8   8   8   8   8   8
#     4  11  22  37  58  82 110 143 178 215 259 315
#     4   9  18  34  55  78 103 132 171 217 265 318
#     4   9  18  34  55  79 108 140 173 213 263 315
#     4   9  17  30  49  73 102 136 170 203 247 308
#     4   9  17  32  56  80 101 134 183 234 278 324
#     4  10  20  34  51  71  98 133 175 221 269 319
#     4  10  20  31  44  67  99 131 164 207 255 298
#
# _framework density 18.397303000000001
#
# number of rings (size 3 to 8) (size 9 to 14) (size 15 to 20)
#    0.000    2.429    0.000    3.857    0.000    6.857 
#    0.000    1.429    0.000    5.143    0.000    0.000 
#    0.000    0.000    0.000    0.000    0.000    0.000 
#
# Total GULP energy -312245.235370 kJ/mol
# GULP energy per Si atom -5575.807774 kJ/mol
# Density = 1.835543 g / cm^3
# Si number density = 18.397303 Si / 1000 Ang^3
#
#
#
# Elastic Constant Matrix: (Units=GPa)
#
#
# Indices 1 2 3 4 5 6 
#
# 1 72.9409 24.2849 33.9764 0.0000 0.0000 0.0000
# 2 24.2849 42.6846 49.8123 0.0000 0.0000 0.0000
# 3 33.9764 49.8123 120.5227 0.0000 0.0000 0.0000
# 4 0.0000 0.0000 0.0000 26.2015 0.0000 0.0000
# 5 0.0000 0.0000 0.0000 0.0000 9.9548 0.0000
# 6 0.0000 0.0000 0.0000 0.0000 0.0000 19.7129
#
#
#
# Elastic Compliance Matrix: (Units=1/GPa)
#
#
# Indices 1 2 3 4 5 6 
#
# 1 0.017060 -0.007908 -0.001541 0.000000 0.000000 0.000000
# 2 -0.007908 0.048920 -0.017990 0.000000 0.000000 0.000000
# 3 -0.001541 -0.017990 0.016167 0.000000 0.000000 0.000000
# 4 0.000000 0.000000 0.000000 0.038166 0.000000 0.000000
# 5 0.000000 0.000000 0.000000 0.000000 0.100454 0.000000
# 6 0.000000 0.000000 0.000000 0.000000 0.000000 0.050728
#
#
# Mechanical properties :
#
#
# Convention : Reuss Voigt Hill
#
# Bulk Modulus (GPa) = 36.66982 50.25506 43.46244
# Shear Modulus (GPa) = 14.90479 19.71216 17.30848
#
# Velocity S-wave (km/s) = 2.84942 3.27688 3.07060
# Velocity P-wave (km/s) = 5.54987 6.45702 6.02056
#
# Compressibility (1/GPa) = 0.02727038
#
# Stress axis : x y z
#
# Youngs Moduli (GPa) = 58.61517 20.44143 61.85521
#
# Poissons Ratio (x) = 0.16165 0.09533
# Poissons Ratio (y) = 0.46352 1.11275
# Poissons Ratio (z) = 0.09034 0.36773
#
# Static dielectric constant tensor:
#      x y z
#    x 1.671360 0.000000 0.000000 
#    y 0.000000 1.618190 0.000000 
#    z 0.000000 0.000000 1.635170 
# 
# From -- ./inp_files/30557.got.cif
#   From: 2010.05.17/outbox.cif.g08.bks.cpg/sg59_16_cif.got.tgz:30557.got - 2010.06.03 14:40:33.
