data_PCOD9449868
_publ_section_title
;
Structure prediction by ZEFSAII (Michael W. Deem and Ramdas Pophale) SiO2 
 PCOD9449868
Probable space group: P M M N
;
_chemical_formula_sum "Si O2"
_cell_formula_units_Z 64
_cell_length_a 15.510455
_cell_length_b 9.365670
_cell_length_c 21.289382
_cell_angle_alpha 90.000000
_cell_angle_beta 90.000000
_cell_angle_gamma 90.000000
_cell_volume 3092.619173
_symmetry_space_group_name_H-M "P M M N"
_symmetry_group_IT_number 59
_space_group.IT_coordinate_system_code '2'
_symmetry_cell_setting 'orthorhombic'
loop_
_space_group_symop_operation_xyz
x,y,z
1/2-x,1/2-y,z
1/2+x,-y,-z
-x,1/2+y,-z
-x,-y,-z
1/2+x,1/2+y,-z
1/2-x,y,z
x,1/2-y,z
loop_
_atom_site_type_symbol
_atom_site_label
_atom_site_fract_x
_atom_site_fract_y
_atom_site_fract_z
Si Si1 0.855486 0.414551 0.961541
Si Si2 0.149923 0.076753 0.543653
Si Si3 0.899299 0.411769 0.713749
Si Si4 0.351047 0.591193 0.795950
Si Si5 0.098637 0.088088 0.680140
Si Si6 0.855758 0.586273 0.085617
Si Si7 0.352866 0.087960 0.408585
Si Si8 0.354383 0.413966 0.161701
O O1 0.750000 0.414054 0.961251
O O2 0.883464 0.250000 0.961114
O O3 0.884089 0.499453 0.899638
O O4 0.882095 0.496537 0.024647
O O5 0.250000 0.032693 0.551165
O O6 0.148382 0.250000 0.539456
O O7 0.102547 0.037727 0.607963
O O8 0.114497 0.028566 0.475837
O O9 0.865410 0.250000 0.720042
O O10 0.866524 0.489053 0.651029
O O11 0.878906 0.504311 0.774879
O O12 0.001356 0.404454 0.703776
O O13 0.250000 0.605052 0.810932
O O14 0.389595 0.750000 0.795769
O O15 0.356594 0.517251 0.728516
O O16 0.386998 0.490137 0.850766
O O17 0.135656 0.250000 0.682582
O O18 0.750000 0.589171 0.086030
O O19 0.884451 0.750000 0.082553
O O20 0.250000 0.099544 0.417809
O O21 0.385817 0.250000 0.397111
O O22 0.250000 0.410508 0.159295
O O23 0.384640 0.250000 0.161513
#
# Coordination Sequence:
#
# PCOD9449868 Si02
#       8
#     8   8   8   8   8   8   8   8
#     4   9  16  27  46  74 106 134 163 209 264 307
#     4   8  15  31  56  80 100 128 169 212 251 299
#     4  11  23  35  49  74 106 137 171 213 259 305
#     4  10  20  33  51  77 106 135 171 216 262 304
#     4  10  21  36  53  74 102 138 177 212 251 306
#     4   9  16  27  46  73 104 137 172 209 251 303
#     4   9  18  34  56  79 101 130 170 211 253 307
#     4  10  20  34  53  75  99 133 177 217 255 308
#
# _framework density 20.694431999999999
#
# number of rings (size 3 to 8) (size 9 to 14) (size 15 to 20)
#    0.000    2.500    0.000    3.375    0.000    8.250 
#    0.000    0.625    0.000    1.500    0.000    0.000 
#    0.000    0.000    0.000    0.000    0.000    0.000 
#
# Total GULP energy -357179.392683 kJ/mol
# GULP energy per Si atom -5580.928011 kJ/mol
# Density = 2.064733 g / cm^3
# Si number density = 20.694432 Si / 1000 Ang^3
#
#
#
# Elastic Constant Matrix: (Units=GPa)
#
#
# Indices 1 2 3 4 5 6 
#
# 1 9.8396 -0.7258 -10.0644 0.0000 0.0000 0.0000
# 2 -0.7258 165.6061 101.5813 0.0000 0.0000 0.0000
# 3 -10.0644 101.5813 182.8606 0.0000 0.0000 0.0000
# 4 0.0000 0.0000 0.0000 -30.0463 0.0000 0.0000
# 5 0.0000 0.0000 0.0000 0.0000 -23.1196 0.0000
# 6 0.0000 0.0000 0.0000 0.0000 0.0000 4.9970
#
#
#
# Elastic Compliance Matrix: (Units=1/GPa)
#
#
# Indices 1 2 3 4 5 6 
#
# 1 0.110268 -0.004914 0.008799 0.000000 0.000000 0.000000
# 2 -0.004914 0.009378 -0.005480 0.000000 0.000000 0.000000
# 3 0.008799 -0.005480 0.008997 0.000000 0.000000 0.000000
# 4 0.000000 0.000000 0.000000 -0.033282 0.000000 0.000000
# 5 0.000000 0.000000 0.000000 0.000000 -0.043253 0.000000
# 6 0.000000 0.000000 0.000000 0.000000 0.000000 0.200119
#
#
# Mechanical properties :
#
#
# Convention : Reuss Voigt Hill
#
# Bulk Modulus (GPa) = 7.97113 59.98760 33.97937
# Shear Modulus (GPa) = 16.82167 8.20057 12.51112
#
# Velocity S-wave (km/s) = 2.85416 1.99281 2.46146
# Velocity P-wave (km/s) = 3.83691 5.86049 4.95314
#
# Compressibility (1/GPa) = 0.12545270
#
# Stress axis : x y z
#
# Youngs Moduli (GPa) = 9.06884 106.62744 111.14476
#
# Poissons Ratio (x) = 0.52394 -0.97792
# Poissons Ratio (y) = 0.04456 0.60911
# Poissons Ratio (z) = -0.07979 0.58435
#
# Static dielectric constant tensor:
#      x y z
#    x 1.827300 0.000000 0.000000 
#    y 0.000000 1.730840 0.000000 
#    z 0.000000 0.000000 1.725760 
# 
# From -- ./inp_files/30681.got.cif
#   From: 2010.05.17/outbox.cif.g08.bks.cpg/sg59_16_cif.got.tgz:30681.got - 2010.06.03 14:40:33.
