data_PCOD9449552
_publ_section_title
;
Structure prediction by ZEFSAII (Michael W. Deem and Ramdas Pophale) SiO2 
 PCOD9449552
Probable space group: P M M N
;
_chemical_formula_sum "Si O2"
_cell_formula_units_Z 64
_cell_length_a 8.544452
_cell_length_b 15.494422
_cell_length_c 24.260395
_cell_angle_alpha 90.000000
_cell_angle_beta 90.000000
_cell_angle_gamma 90.000000
_cell_volume 3211.866325
_symmetry_space_group_name_H-M "P M M N"
_symmetry_group_IT_number 59
_space_group.IT_coordinate_system_code '2'
_symmetry_cell_setting 'orthorhombic'
loop_
_space_group_symop_operation_xyz
x,y,z
1/2-x,1/2-y,z
1/2+x,-y,-z
-x,1/2+y,-z
-x,-y,-z
1/2+x,1/2+y,-z
1/2-x,y,z
x,1/2-y,z
loop_
_atom_site_type_symbol
_atom_site_label
_atom_site_fract_x
_atom_site_fract_y
_atom_site_fract_z
Si Si1 0.059433 0.848216 0.041547
Si Si2 0.558808 0.149618 0.644862
Si Si3 0.438956 0.979789 0.134888
Si Si4 0.578534 0.650752 0.584366
Si Si5 0.434864 0.850619 0.697804
Si Si6 0.561904 0.476063 0.743071
Si Si7 0.062976 0.909868 0.476799
Si Si8 0.060995 0.651544 0.914778
O O1 0.250000 0.849833 0.041804
O O2 0.012698 0.750000 0.055358
O O3 0.003256 0.917358 0.085994
O O4 0.012071 0.865825 0.978397
O O5 0.750000 0.148584 0.644890
O O6 0.511772 0.250000 0.651342
O O7 0.504602 0.087088 0.694249
O O8 0.509511 0.114230 0.584653
O O9 0.250000 0.977524 0.134045
O O10 0.492634 0.076960 0.122908
O O11 0.491009 0.950370 0.195620
O O12 0.750000 0.606745 0.584429
O O13 0.600083 0.750000 0.598259
O O14 0.472774 0.619884 0.634747
O O15 0.502669 0.650413 0.524647
O O16 0.250000 0.853109 0.706453
O O17 0.483820 0.750000 0.707316
O O18 0.515602 0.924404 0.733534
O O19 0.750000 0.471244 0.741571
O O20 0.250000 0.908157 0.477138
O O21 0.000000 0.000000 0.500000
O O22 0.250000 0.648320 0.912637
O O23 0.014514 0.750000 0.900791
#
# Coordination Sequence:
#
# PCOD9449552 Si02
#       8
#     8   8   8   8   8   8   8   8
#     4   8  15  30  52  78 107 138 175 219 266 317
#     4   9  19  36  56  77 104 141 183 223 262 309
#     4  10  20  32  51  80 108 136 174 222 272 317
#     4  10  20  34  53  77 104 131 161 205 264 325
#     4  10  21  37  57  79 104 139 182 224 268 324
#     4  10  21  36  54  78 107 139 178 224 272 319
#     4  11  21  33  53  79 106 137 175 220 270 323
#     4   9  18  33  53  76 105 143 180 214 261 322
#
# _framework density 19.926109
#
# number of rings (size 3 to 8) (size 9 to 14) (size 15 to 20)
#    0.000    2.375    0.000    3.375    0.000    4.750 
#    0.000    5.625    0.000    3.000    0.000    1.750 
#    0.000    0.000    0.000    0.000    0.000    0.000 
#
# Total GULP energy -356780.011636 kJ/mol
# GULP energy per Si atom -5574.687682 kJ/mol
# Density = 1.988076 g / cm^3
# Si number density = 19.926109 Si / 1000 Ang^3
#
#
#
# Elastic Constant Matrix: (Units=GPa)
#
#
# Indices 1 2 3 4 5 6 
#
# 1 3.5697 1.1039 1.8535 0.0000 0.0000 0.0000
# 2 1.1039 88.0496 37.6046 0.0000 0.0000 0.0000
# 3 1.8535 37.6046 75.1435 0.0000 0.0000 0.0000
# 4 0.0000 0.0000 0.0000 15.0070 0.0000 0.0000
# 5 0.0000 0.0000 0.0000 0.0000 17.3919 0.0000
# 6 0.0000 0.0000 0.0000 0.0000 0.0000 23.0003
#
#
#
# Elastic Compliance Matrix: (Units=1/GPa)
#
#
# Indices 1 2 3 4 5 6 
#
# 1 0.283808 -0.000723 -0.006639 0.000000 0.000000 0.000000
# 2 -0.000723 0.014446 -0.007212 0.000000 0.000000 0.000000
# 3 -0.006639 -0.007212 0.017081 0.000000 0.000000 0.000000
# 4 0.000000 0.000000 0.000000 0.066635 0.000000 0.000000
# 5 0.000000 0.000000 0.000000 0.000000 0.057498 0.000000
# 6 0.000000 0.000000 0.000000 0.000000 0.000000 0.043478
#
#
# Mechanical properties :
#
#
# Convention : Reuss Voigt Hill
#
# Bulk Modulus (GPa) = 3.49421 27.54300 15.51860
# Shear Modulus (GPa) = 8.23061 19.49322 13.86192
#
# Velocity S-wave (km/s) = 2.03458 3.13113 2.64041
# Velocity P-wave (km/s) = 2.69755 5.18889 4.13530
#
# Compressibility (1/GPa) = 0.28618778
#
# Stress axis : x y z
#
# Youngs Moduli (GPa) = 3.52351 69.22205 58.54599
#
# Poissons Ratio (x) = 0.05005 0.38867
# Poissons Ratio (y) = 0.00255 0.42221
# Poissons Ratio (z) = 0.02339 0.49920
#
# Static dielectric constant tensor:
#      x y z
#    x 1.717130 0.000000 0.000000 
#    y 0.000000 1.647920 0.000000 
#    z 0.000000 0.000000 1.717420 
# 
# From -- ./inp_files/31668.got.cif
#   From: 2010.05.17/outbox.cif.g08.bks.cpg/sg59_16_cif.got.tgz:31668.got - 2010.06.03 14:40:33.
