data_PCOD9449500
_publ_section_title
;
Structure prediction by ZEFSAII (Michael W. Deem and Ramdas Pophale) SiO2 
 PCOD9449500
Probable space group: P M M N
;
_chemical_formula_sum "Si O2"
_cell_formula_units_Z 48
_cell_length_a 8.830673
_cell_length_b 7.815317
_cell_length_c 36.304704
_cell_angle_alpha 90.000000
_cell_angle_beta 90.000000
_cell_angle_gamma 90.000000
_cell_volume 2505.551314
_symmetry_space_group_name_H-M "P M M N"
_symmetry_group_IT_number 59
_space_group.IT_coordinate_system_code '2'
_symmetry_cell_setting 'orthorhombic'
loop_
_space_group_symop_operation_xyz
x,y,z
1/2-x,1/2-y,z
1/2+x,-y,-z
-x,1/2+y,-z
-x,-y,-z
1/2+x,1/2+y,-z
1/2-x,y,z
x,1/2-y,z
loop_
_atom_site_type_symbol
_atom_site_label
_atom_site_fract_x
_atom_site_fract_y
_atom_site_fract_z
Si Si1 0.920858 0.044451 0.038230
Si Si2 0.422591 0.954564 0.615963
Si Si3 0.579805 0.952840 0.462179
Si Si4 0.934125 0.451186 0.303043
Si Si5 0.932550 0.250000 0.746291
Si Si6 0.934390 0.250000 0.831537
Si Si7 0.567465 0.551920 0.885088
O O1 0.750000 0.976958 0.038564
O O2 0.915631 0.250000 0.039918
O O3 0.008436 0.991008 0.075081
O O4 0.000000 0.000000 0.000000
O O5 0.250000 0.025133 0.614018
O O6 0.412615 0.750000 0.618298
O O7 0.486398 0.006501 0.655635
O O8 0.496053 0.995483 0.576651
O O9 0.750000 0.028714 0.462744
O O10 0.590354 0.750000 0.461298
O O11 0.500000 0.000000 0.500000
O O12 0.750000 0.461555 0.302774
O O13 0.972934 0.250000 0.297003
O O14 0.003411 0.581556 0.273944
O O15 0.750000 0.250000 0.744464
O O16 0.980522 0.250000 0.789076
O O17 0.750000 0.250000 0.831946
O O18 0.983232 0.419505 0.853759
O O19 0.750000 0.551407 0.886062
O O20 0.519337 0.750000 0.878787
#
# Coordination Sequence:
#
# PCOD9449500 Si02
#       7
#     8   8   8   8   4   4   8
#     4  10  21  35  52  78 111 145 181 226 277 328
#     4   8  15  30  53  77  99 130 175 223 270 320
#     4  10  20  32  49  74 101 134 175 218 265 317
#     4   9  19  37  61  86 112 147 192 239 285 337
#     4  11  23  37  57  89 123 153 187 233 293 359
#     4   9  20  37  57  81 109 147 191 227 275 345
#     4   9  18  35  57  78 104 141 186 233 275 321
#
# _framework density 19.15746
#
# number of rings (size 3 to 8) (size 9 to 14) (size 15 to 20)
#    0.000    2.667    0.000    2.250    2.333    3.000 
#    0.000    4.167    0.000    3.000    0.000    0.000 
#    0.000    0.000    0.000    0.000    0.000    0.000 
#
# Total GULP energy -267512.504975 kJ/mol
# GULP energy per Si atom -5573.177187 kJ/mol
# Density = 1.911386 g / cm^3
# Si number density = 19.157460 Si / 1000 Ang^3
#
#
#
# Elastic Constant Matrix: (Units=GPa)
#
#
# Indices 1 2 3 4 5 6 
#
# 1 26.0884 24.0609 38.8501 0.0000 0.0000 0.0000
# 2 24.0609 86.7941 82.3617 0.0000 0.0000 0.0000
# 3 38.8501 82.3617 224.1154 0.0000 0.0000 0.0000
# 4 0.0000 0.0000 0.0000 39.4268 0.0000 0.0000
# 5 0.0000 0.0000 0.0000 0.0000 28.4937 0.0000
# 6 0.0000 0.0000 0.0000 0.0000 0.0000 17.9606
#
#
#
# Elastic Compliance Matrix: (Units=1/GPa)
#
#
# Indices 1 2 3 4 5 6 
#
# 1 0.056624 -0.009800 -0.006214 0.000000 0.000000 0.000000
# 2 -0.009800 0.019387 -0.005426 0.000000 0.000000 0.000000
# 3 -0.006214 -0.005426 0.007533 0.000000 0.000000 0.000000
# 4 0.000000 0.000000 0.000000 0.025363 0.000000 0.000000
# 5 0.000000 0.000000 0.000000 0.000000 0.035096 0.000000
# 6 0.000000 0.000000 0.000000 0.000000 0.000000 0.055678
#
#
# Mechanical properties :
#
#
# Convention : Reuss Voigt Hill
#
# Bulk Modulus (GPa) = 24.59206 69.72703 47.15954
# Shear Modulus (GPa) = 19.52243 29.95790 24.74016
#
# Velocity S-wave (km/s) = 3.19572 3.95875 3.59752
# Velocity P-wave (km/s) = 5.14602 7.57439 6.47506
#
# Compressibility (1/GPa) = 0.04066352
#
# Stress axis : x y z
#
# Youngs Moduli (GPa) = 17.66041 51.58065 132.74665
#
# Poissons Ratio (x) = 0.50551 0.82489
# Poissons Ratio (y) = 0.17308 0.72026
# Poissons Ratio (z) = 0.10974 0.27987
#
# Static dielectric constant tensor:
#      x y z
#    x 1.671740 0.000000 0.000000 
#    y 0.000000 1.656800 0.000000 
#    z 0.000000 0.000000 1.683200 
# 
# From -- ./inp_files/33015.got.cif
#   From: 2010.05.17/outbox.cif.g08.bks.cpg/sg59_17_cif.got.tgz:33015.got - 2010.06.03 14:40:33.
