data_PCOD9449282
_publ_section_title
;
Structure prediction by ZEFSAII (Michael W. Deem and Ramdas Pophale) SiO2 
 PCOD9449282
Probable space group: P M M N
;
_chemical_formula_sum "Si O2"
_cell_formula_units_Z 48
_cell_length_a 13.869110
_cell_length_b 8.103731
_cell_length_c 18.345175
_cell_angle_alpha 90.000000
_cell_angle_beta 90.000000
_cell_angle_gamma 90.000000
_cell_volume 2061.842408
_symmetry_space_group_name_H-M "P M M N"
_symmetry_group_IT_number 59
_space_group.IT_coordinate_system_code '2'
_symmetry_cell_setting 'orthorhombic'
loop_
_space_group_symop_operation_xyz
x,y,z
1/2-x,1/2-y,z
1/2+x,-y,-z
-x,1/2+y,-z
-x,-y,-z
1/2+x,1/2+y,-z
1/2-x,y,z
x,1/2-y,z
loop_
_atom_site_type_symbol
_atom_site_label
_atom_site_fract_x
_atom_site_fract_y
_atom_site_fract_z
Si Si1 0.070880 0.053730 0.259857
Si Si2 0.353975 0.060888 0.721041
Si Si3 0.065255 0.451090 0.101781
Si Si4 0.118565 0.566607 0.569533
Si Si5 0.144258 0.552819 0.947971
Si Si6 0.387856 0.439597 0.414995
O O1 0.087367 0.250000 0.263308
O O2 0.103124 0.993906 0.180641
O O3 0.120418 0.986245 0.333597
O O4 0.954511 0.028276 0.261343
O O5 0.250000 0.991879 0.746985
O O6 0.361465 0.250000 0.745346
O O7 0.350306 0.055515 0.632820
O O8 0.066413 0.250000 0.099563
O O9 0.124534 0.515603 0.033073
O O10 0.953302 0.507132 0.091694
O O11 0.148344 0.750000 0.591158
O O12 0.148200 0.529257 0.487119
O O13 0.002932 0.564931 0.573267
O O14 0.250000 0.486032 0.927049
O O15 0.146361 0.750000 0.937437
O O16 0.354622 0.250000 0.415840
#
# Coordination Sequence:
#
# PCOD9449282 Si02
#       6
#     8   8   8   8   8   8
#     4   9  18  31  48  70  95 125 161 200 243 293
#     4  10  20  31  43  63  93 128 163 201 249 299
#     4   9  18  33  53  78 105 133 170 212 251 298
#     4   9  16  26  42  62  83 113 153 192 230 277
#     4   9  18  33  53  77 105 137 170 205 250 302
#     4   8  14  25  41  62  86 111 144 188 235 281
#
# _framework density 23.280151
#
# number of rings (size 3 to 8) (size 9 to 14) (size 15 to 20)
#    0.000    3.000    0.000    2.000    0.000    7.000 
#    0.000    1.667    0.000    1.000    0.000    2.333 
#    0.000    0.000    0.000    0.000    0.000    0.000 
#
# Total GULP energy -267612.418045 kJ/mol
# GULP energy per Si atom -5575.258709 kJ/mol
# Density = 2.322716 g / cm^3
# Si number density = 23.280151 Si / 1000 Ang^3
#
#
#
# Elastic Constant Matrix: (Units=GPa)
#
#
# Indices 1 2 3 4 5 6 
#
# 1 83.2652 -7.9345 -15.9948 0.0000 0.0000 0.0000
# 2 -7.9345 22.1028 -2.3807 0.0000 0.0000 0.0000
# 3 -15.9948 -2.3807 135.4131 0.0000 0.0000 0.0000
# 4 0.0000 0.0000 0.0000 20.1205 0.0000 0.0000
# 5 0.0000 0.0000 0.0000 0.0000 -80.8401 0.0000
# 6 0.0000 0.0000 0.0000 0.0000 0.0000 37.9007
#
#
#
# Elastic Compliance Matrix: (Units=1/GPa)
#
#
# Indices 1 2 3 4 5 6 
#
# 1 0.012769 0.004755 0.001592 0.000000 0.000000 0.000000
# 2 0.004755 0.047100 0.001390 0.000000 0.000000 0.000000
# 3 0.001592 0.001390 0.007597 0.000000 0.000000 0.000000
# 4 0.000000 0.000000 0.000000 0.049700 0.000000 0.000000
# 5 0.000000 0.000000 0.000000 0.000000 -0.012370 0.000000
# 6 0.000000 0.000000 0.000000 0.000000 0.000000 0.026385
#
#
# Mechanical properties :
#
#
# Convention : Reuss Voigt Hill
#
# Bulk Modulus (GPa) = 12.05697 20.90677 16.48187
# Shear Modulus (GPa) = 34.87871 13.24232 24.06051
#
# Velocity S-wave (km/s) = 3.87488 2.38759 3.21833
# Velocity P-wave (km/s) = 5.02095 4.07441 4.57224
#
# Compressibility (1/GPa) = 0.08293957
#
# Stress axis : x y z
#
# Youngs Moduli (GPa) = 78.31632 21.23145 131.62626
#
# Poissons Ratio (x) = -0.10096 -0.20953
# Poissons Ratio (y) = -0.37241 -0.18293
# Poissons Ratio (z) = -0.12467 -0.02951
#
# Static dielectric constant tensor:
#      x y z
#    x 1.914410 0.000000 0.000000 
#    y 0.000000 1.820900 0.000000 
#    z 0.000000 0.000000 1.911840 
# 
# From -- ./inp_files/27789.got.cif
#   From: 2010.05.17/outbox.cif.g08.bks.cpg/sg59_14_cif.got.tgz:27789.got - 2010.06.03 14:40:33.
