data_PCOD9449310
_publ_section_title
;
Structure prediction by ZEFSAII (Michael W. Deem and Ramdas Pophale) SiO2 
 PCOD9449310
Probable space group: P M M N
;
_chemical_formula_sum "Si O2"
_cell_formula_units_Z 64
_cell_length_a 14.109739
_cell_length_b 8.996732
_cell_length_c 31.224702
_cell_angle_alpha 90.000000
_cell_angle_beta 90.000000
_cell_angle_gamma 90.000000
_cell_volume 3963.711770
_symmetry_space_group_name_H-M "P M M N"
_symmetry_group_IT_number 59
_space_group.IT_coordinate_system_code '2'
_symmetry_cell_setting 'orthorhombic'
loop_
_space_group_symop_operation_xyz
x,y,z
1/2-x,1/2-y,z
1/2+x,-y,-z
-x,1/2+y,-z
-x,-y,-z
1/2+x,1/2+y,-z
1/2-x,y,z
x,1/2-y,z
loop_
_atom_site_type_symbol
_atom_site_label
_atom_site_fract_x
_atom_site_fract_y
_atom_site_fract_z
Si Si1 0.985899 0.924605 0.954105
Si Si2 0.639401 0.429485 0.881378
Si Si3 0.470234 0.428987 0.566243
Si Si4 0.638481 0.918397 0.098292
Si Si5 0.641387 0.928987 0.519869
Si Si6 0.359347 0.927696 0.742696
Si Si7 0.522451 0.922362 0.184003
Si Si8 0.639740 0.572069 0.349226
O O1 0.969005 0.750000 0.958442
O O2 0.904885 0.997994 0.924103
O O3 0.082258 0.960903 0.928600
O O4 0.000000 0.000000 0.000000
O O5 0.750000 0.466368 0.876086
O O6 0.630571 0.250000 0.885132
O O7 0.573218 0.473320 0.840780
O O8 0.478305 0.250000 0.566520
O O9 0.399214 0.468611 0.527202
O O10 0.570471 0.500010 0.554129
O O11 0.426596 0.475681 0.611569
O O12 0.750000 0.936104 0.095679
O O13 0.613359 0.750000 0.083129
O O14 0.601738 0.927621 0.146747
O O15 0.750000 0.976471 0.524519
O O16 0.637633 0.750000 0.523247
O O17 0.250000 0.973585 0.753828
O O18 0.361524 0.750000 0.741865
O O19 0.435721 0.987451 0.776491
O O20 0.379437 0.991970 0.695564
O O21 0.509107 0.750000 0.196620
O O22 0.750000 0.544577 0.360706
O O23 0.629368 0.750000 0.343452
#
# Coordination Sequence:
#
# PCOD9449310 Si02
#       8
#     8   8   8   8   8   8   8   8
#     4  11  22  35  51  72 100 131 163 198 236 281
#     4   9  19  37  58  77  98 126 162 204 246 285
#     4   9  17  29  46  68  92 120 158 200 237 278
#     4   9  18  33  52  73  97 125 157 192 230 274
#     4   9  17  29  45  66  93 124 156 192 238 288
#     4  10  20  31  45  70 102 131 157 189 233 284
#     4   9  17  31  52  75  97 123 155 190 231 280
#     4   9  17  30  48  68  92 124 159 194 234 281
#
# _framework density 16.146483
#
# number of rings (size 3 to 8) (size 9 to 14) (size 15 to 20)
#    0.000    2.625    0.000    3.000    0.000    6.500 
#    0.000    0.000    0.000    3.000    0.000    1.750 
#    0.000    0.000    0.000    0.000    0.000    0.000 
#
# Total GULP energy -356713.137902 kJ/mol
# GULP energy per Si atom -5573.642780 kJ/mol
# Density = 1.610973 g / cm^3
# Si number density = 16.146483 Si / 1000 Ang^3
#
#
#
# Elastic Constant Matrix: (Units=GPa)
#
#
# Indices 1 2 3 4 5 6 
#
# 1 128.2117 41.1907 76.0357 0.0000 0.0000 0.0000
# 2 41.1907 43.5278 47.2590 0.0000 0.0000 0.0000
# 3 76.0357 47.2590 114.2480 0.0000 0.0000 0.0000
# 4 0.0000 0.0000 0.0000 26.1689 0.0000 0.0000
# 5 0.0000 0.0000 0.0000 0.0000 13.9147 0.0000
# 6 0.0000 0.0000 0.0000 0.0000 0.0000 23.3835
#
#
#
# Elastic Compliance Matrix: (Units=1/GPa)
#
#
# Indices 1 2 3 4 5 6 
#
# 1 0.013577 -0.005514 -0.006755 0.000000 0.000000 0.000000
# 2 -0.005514 0.043942 -0.014507 0.000000 0.000000 0.000000
# 3 -0.006755 -0.014507 0.019250 0.000000 0.000000 0.000000
# 4 0.000000 0.000000 0.000000 0.038213 0.000000 0.000000
# 5 0.000000 0.000000 0.000000 0.000000 0.071867 0.000000
# 6 0.000000 0.000000 0.000000 0.000000 0.000000 0.042765
#
#
# Mechanical properties :
#
#
# Convention : Reuss Voigt Hill
#
# Bulk Modulus (GPa) = 43.07270 68.32870 55.70070
# Shear Modulus (GPa) = 17.18769 20.79356 18.99063
#
# Velocity S-wave (km/s) = 3.26618 3.59250 3.43322
# Velocity P-wave (km/s) = 6.39985 7.72126 7.09140
#
# Compressibility (1/GPa) = 0.02321656
#
# Stress axis : x y z
#
# Youngs Moduli (GPa) = 73.65257 22.75707 51.94911
#
# Poissons Ratio (x) = 0.12548 0.35093
# Poissons Ratio (y) = 0.40612 0.75363
# Poissons Ratio (z) = 0.49754 0.33014
#
# Static dielectric constant tensor:
#      x y z
#    x 1.536400 0.000000 0.000000 
#    y 0.000000 1.582530 0.000000 
#    z 0.000000 0.000000 1.525160 
# 
# From -- ./inp_files/33335.got.cif
#   From: 2010.05.17/outbox.cif.g08.bks.cpg/sg59_17_cif.got.tgz:33335.got - 2010.06.03 14:40:33.
