data_PCOD9449198
_publ_section_title
;
Structure prediction by ZEFSAII (Michael W. Deem and Ramdas Pophale) SiO2 
 PCOD9449198
Probable space group: P M M N
;
_chemical_formula_sum "Si O2"
_cell_formula_units_Z 40
_cell_length_a 8.544358
_cell_length_b 10.112412
_cell_length_c 24.715889
_cell_angle_alpha 90.000000
_cell_angle_beta 90.000000
_cell_angle_gamma 90.000000
_cell_volume 2135.553363
_symmetry_space_group_name_H-M "P M M N"
_symmetry_group_IT_number 59
_space_group.IT_coordinate_system_code '2'
_symmetry_cell_setting 'orthorhombic'
loop_
_space_group_symop_operation_xyz
x,y,z
1/2-x,1/2-y,z
1/2+x,-y,-z
-x,1/2+y,-z
-x,-y,-z
1/2+x,1/2+y,-z
1/2-x,y,z
x,1/2-y,z
loop_
_atom_site_type_symbol
_atom_site_label
_atom_site_fract_x
_atom_site_fract_y
_atom_site_fract_z
Si Si1 0.433846 0.093950 0.744019
Si Si2 0.937215 0.095194 0.047590
Si Si3 0.939435 0.500380 0.370943
Si Si4 0.937250 0.750000 0.565639
Si Si5 0.059335 0.250000 0.558528
Si Si6 0.064190 0.597627 0.137520
O O1 0.250000 0.063991 0.753826
O O2 0.442540 0.250000 0.730043
O O3 0.490505 0.015740 0.691326
O O4 0.525984 0.073984 0.799488
O O5 0.750000 0.099158 0.043691
O O6 0.991901 0.250000 0.045336
O O7 0.986129 0.016116 0.101624
O O8 0.000000 0.000000 0.000000
O O9 0.750000 0.499971 0.369577
O O10 0.990882 0.623689 0.407321
O O11 0.001519 0.374307 0.401508
O O12 0.750000 0.750000 0.564176
O O13 0.994773 0.750000 0.503433
O O14 0.250000 0.250000 0.557451
O O15 0.250000 0.594295 0.128281
O O16 0.010650 0.750000 0.124751
#
# Coordination Sequence:
#
# PCOD9449198 Si02
#       6
#     8   8   8   4   4   8
#     4   9  17  33  59  85 107 141 191 240 283 334
#     4  11  24  41  62  90 122 157 198 239 279 329
#     4  10  19  36  59  80 105 144 190 234 283 342
#     4  11  23  35  49  79 117 147 178 229 290 345
#     4   9  18  35  59  81 105 139 188 239 282 339
#     4  10  21  37  59  88 120 152 188 234 287 341
#
# _framework density 18.730509000000001
#
# number of rings (size 3 to 8) (size 9 to 14) (size 15 to 20)
#    0.000    2.000    1.000    2.700    0.000    6.000 
#    1.800    1.500    0.000    0.000    0.000    0.000 
#    0.000    0.000    0.000    0.000    0.000    0.000 
#
# Total GULP energy -223211.260503 kJ/mol
# GULP energy per Si atom -5580.281513 kJ/mol
# Density = 1.868788 g / cm^3
# Si number density = 18.730509 Si / 1000 Ang^3
#
#
#
# Elastic Constant Matrix: (Units=GPa)
#
#
# Indices 1 2 3 4 5 6 
#
# 1 26.3334 29.9432 21.9745 0.0000 0.0000 0.0000
# 2 29.9432 168.1834 83.0530 0.0000 0.0000 0.0000
# 3 21.9745 83.0530 122.8919 0.0000 0.0000 0.0000
# 4 0.0000 0.0000 0.0000 20.1365 0.0000 0.0000
# 5 0.0000 0.0000 0.0000 0.0000 28.1917 0.0000
# 6 0.0000 0.0000 0.0000 0.0000 0.0000 40.0887
#
#
#
# Elastic Compliance Matrix: (Units=1/GPa)
#
#
# Indices 1 2 3 4 5 6 
#
# 1 0.049089 -0.006612 -0.004309 0.000000 0.000000 0.000000
# 2 -0.006612 0.009815 -0.005451 0.000000 0.000000 0.000000
# 3 -0.004309 -0.005451 0.012592 0.000000 0.000000 0.000000
# 4 0.000000 0.000000 0.000000 0.049661 0.000000 0.000000
# 5 0.000000 0.000000 0.000000 0.000000 0.035471 0.000000
# 6 0.000000 0.000000 0.000000 0.000000 0.000000 0.024945
#
#
# Mechanical properties :
#
#
# Convention : Reuss Voigt Hill
#
# Bulk Modulus (GPa) = 25.80552 65.26113 45.53333
# Shear Modulus (GPa) = 22.00386 29.84589 25.92488
#
# Velocity S-wave (km/s) = 3.43120 3.99612 3.72438
# Velocity P-wave (km/s) = 5.43182 7.49732 6.54654
#
# Compressibility (1/GPa) = 0.03875139
#
# Stress axis : x y z
#
# Youngs Moduli (GPa) = 20.37134 101.88749 79.41846
#
# Poissons Ratio (x) = 0.67365 0.34224
# Poissons Ratio (y) = 0.13469 0.43289
# Poissons Ratio (z) = 0.08779 0.55537
#
# Static dielectric constant tensor:
#      x y z
#    x 1.675180 0.000000 0.000000 
#    y 0.000000 1.605450 0.000000 
#    z 0.000000 0.000000 1.644040 
# 
# From -- ./inp_files/32387.got.cif
#   From: 2010.05.17/outbox.cif.g08.bks.cpg/sg59_17_cif.got.tgz:32387.got - 2010.06.03 14:40:33.
