data_PCOD9449878
_publ_section_title
;
Structure prediction by ZEFSAII (Michael W. Deem and Ramdas Pophale) SiO2 
 PCOD9449878
Probable space group: P M M N
;
_chemical_formula_sum "Si O2"
_cell_formula_units_Z 64
_cell_length_a 14.345107
_cell_length_b 8.950815
_cell_length_c 26.663108
_cell_angle_alpha 90.000000
_cell_angle_beta 90.000000
_cell_angle_gamma 90.000000
_cell_volume 3423.553703
_symmetry_space_group_name_H-M "P M M N"
_symmetry_group_IT_number 59
_space_group.IT_coordinate_system_code '2'
_symmetry_cell_setting 'orthorhombic'
loop_
_space_group_symop_operation_xyz
x,y,z
1/2-x,1/2-y,z
1/2+x,-y,-z
-x,1/2+y,-z
-x,-y,-z
1/2+x,1/2+y,-z
1/2-x,y,z
x,1/2-y,z
loop_
_atom_site_type_symbol
_atom_site_label
_atom_site_fract_x
_atom_site_fract_y
_atom_site_fract_z
Si Si1 0.859363 0.069714 0.720882
Si Si2 0.636285 0.078826 0.021664
Si Si3 0.856547 0.570281 0.126853
Si Si4 0.402433 0.070919 0.485059
Si Si5 0.851175 0.569684 0.405756
Si Si6 0.362578 0.076173 0.081182
Si Si7 0.450382 0.070262 0.377327
Si Si8 0.041100 0.570149 0.176756
O O1 0.750000 0.032335 0.725020
O O2 0.866977 0.250000 0.717084
O O3 0.913722 0.020704 0.771064
O O4 0.904353 0.996797 0.672001
O O5 0.750000 0.078235 0.020320
O O6 0.604960 0.250000 0.021462
O O7 0.612504 0.998649 0.073706
O O8 0.605283 0.995372 0.971365
O O9 0.750000 0.522893 0.137475
O O10 0.856378 0.750000 0.121784
O O11 0.932724 0.529319 0.168490
O O12 0.406417 0.250000 0.484044
O O13 0.345043 0.032925 0.534696
O O14 0.389523 0.025846 0.427069
O O15 0.500000 0.000000 0.500000
O O16 0.750000 0.529461 0.383043
O O17 0.862525 0.750000 0.401237
O O18 0.944094 0.491679 0.384740
O O19 0.250000 0.064383 0.082844
O O20 0.387564 0.250000 0.082414
O O21 0.404016 0.994101 0.129234
O O22 0.453355 0.250000 0.374779
O O23 0.047937 0.750000 0.175166
#
# Coordination Sequence:
#
# PCOD9449878 Si02
#       8
#     8   8   8   8   8   8   8   8
#     4  10  22  40  59  78 103 136 176 223 271 321
#     4   9  17  30  50  76 106 140 174 206 246 304
#     4   9  18  34  55  78 104 132 165 209 259 309
#     4   8  15  28  47  73 105 141 179 218 260 306
#     4   9  17  31  53  80 112 150 187 222 263 315
#     4  10  20  33  51  77 108 139 172 214 262 310
#     4  10  20  34  54  80 111 145 181 225 273 321
#     4  10  21  37  57  78 101 134 175 219 265 311
#
# _framework density 18.694026000000001
#
# number of rings (size 3 to 8) (size 9 to 14) (size 15 to 20)
#    0.000    2.625    0.000    1.500    0.000    5.750 
#    0.000    1.875    0.000    2.250    0.000    0.000 
#    0.000    0.000    0.000    0.000    0.000    0.000 
#
# Total GULP energy -356731.592803 kJ/mol
# GULP energy per Si atom -5573.931138 kJ/mol
# Density = 1.865148 g / cm^3
# Si number density = 18.694026 Si / 1000 Ang^3
#
#
#
# Elastic Constant Matrix: (Units=GPa)
#
#
# Indices 1 2 3 4 5 6 
#
# 1 100.7563 34.4414 75.9608 0.0000 0.0000 0.0000
# 2 34.4414 18.8345 38.0198 0.0000 0.0000 0.0000
# 3 75.9608 38.0198 155.7046 0.0000 0.0000 0.0000
# 4 0.0000 0.0000 0.0000 27.6889 0.0000 0.0000
# 5 0.0000 0.0000 0.0000 0.0000 26.2765 0.0000
# 6 0.0000 0.0000 0.0000 0.0000 0.0000 15.0210
#
#
#
# Elastic Compliance Matrix: (Units=1/GPa)
#
#
# Indices 1 2 3 4 5 6 
#
# 1 0.026845 -0.044672 -0.002188 0.000000 0.000000 0.000000
# 2 -0.044672 0.179040 -0.021924 0.000000 0.000000 0.000000
# 3 -0.002188 -0.021924 0.012844 0.000000 0.000000 0.000000
# 4 0.000000 0.000000 0.000000 0.036116 0.000000 0.000000
# 5 0.000000 0.000000 0.000000 0.000000 0.038057 0.000000
# 6 0.000000 0.000000 0.000000 0.000000 0.000000 0.066573
#
#
# Mechanical properties :
#
#
# Convention : Reuss Voigt Hill
#
# Bulk Modulus (GPa) = 12.32154 63.57104 37.94629
# Shear Modulus (GPa) = 9.54022 22.25552 15.89787
#
# Velocity S-wave (km/s) = 2.26151 3.45413 2.91937
# Velocity P-wave (km/s) = 3.66397 7.07021 5.63084
#
# Compressibility (1/GPa) = 0.08115872
#
# Stress axis : x y z
#
# Youngs Moduli (GPa) = 37.25090 5.58534 77.86023
#
# Poissons Ratio (x) = 0.24951 0.17039
# Poissons Ratio (y) = 1.66407 1.70704
# Poissons Ratio (z) = 0.08152 0.12246
#
# Static dielectric constant tensor:
#      x y z
#    x 1.690580 0.000000 0.000000 
#    y 0.000000 1.622980 0.000000 
#    z 0.000000 0.000000 1.628090 
# 
# From -- ./inp_files/32134.got.cif
#   From: 2010.05.17/outbox.cif.g08.bks.cpg/sg59_17_cif.got.tgz:32134.got - 2010.06.03 14:40:33.
