data_PCOD9449232
_publ_section_title
;
Structure prediction by ZEFSAII (Michael W. Deem and Ramdas Pophale) SiO2 
 PCOD9449232
Probable space group: P M M N
;
_chemical_formula_sum "Si O2"
_cell_formula_units_Z 40
_cell_length_a 18.095550
_cell_length_b 14.244469
_cell_length_c 7.342053
_cell_angle_alpha 90.000000
_cell_angle_beta 90.000000
_cell_angle_gamma 90.000000
_cell_volume 1892.498602
_symmetry_space_group_name_H-M "P M M N"
_symmetry_group_IT_number 59
_space_group.IT_coordinate_system_code '2'
_symmetry_cell_setting 'orthorhombic'
loop_
_space_group_symop_operation_xyz
x,y,z
1/2-x,1/2-y,z
1/2+x,-y,-z
-x,1/2+y,-z
-x,-y,-z
1/2+x,1/2+y,-z
1/2-x,y,z
x,1/2-y,z
loop_
_atom_site_type_symbol
_atom_site_label
_atom_site_fract_x
_atom_site_fract_y
_atom_site_fract_z
Si Si1 0.381442 0.966821 0.756842
Si Si2 0.669254 0.977508 0.635606
Si Si3 0.025900 0.142053 0.382568
Si Si4 0.632552 0.358276 0.907332
Si Si5 0.538322 0.645945 0.177598
O O1 0.337370 0.996829 0.578049
O O2 0.455736 0.916393 0.683605
O O3 0.407668 0.060305 0.863935
O O4 0.342630 0.897688 0.897847
O O5 0.750000 0.936361 0.673042
O O6 0.659870 0.072690 0.750369
O O7 0.601190 0.908494 0.677261
O O8 0.021335 0.250000 0.321922
O O9 0.026367 0.141661 0.603176
O O10 0.652152 0.250000 0.877042
O O11 0.542735 0.364810 0.907546
O O12 0.567004 0.750000 0.133344
#
# Coordination Sequence:
#
# PCOD9449232 Si02
#       5
#     8   8   8   8   8
#     4  11  20  38  62  89 114 152 199 246 292 343
#     4  11  24  41  58  82 123 162 191 235 295 356
#     4  10  19  36  63  91 116 148 197 247 292 345
#     4  11  22  36  59  88 115 146 193 246 295 345
#     4   9  17  32  57  88 118 145 183 241 294 339
#
# _framework density 21.136078999999999
#
# number of rings (size 3 to 8) (size 9 to 14) (size 15 to 20)
#    0.000    1.600    4.000    2.400    0.000    2.400 
#    0.000    0.000    0.000    0.000    0.000    2.800 
#    0.000    0.000    0.000    0.000    0.000    0.000 
#
# Total GULP energy -223673.841795 kJ/mol
# GULP energy per Si atom -5591.846045 kJ/mol
# Density = 2.108797 g / cm^3
# Si number density = 21.136079 Si / 1000 Ang^3
#
#
#
# Elastic Constant Matrix: (Units=GPa)
#
#
# Indices 1 2 3 4 5 6 
#
# 1 70.2645 13.9940 -17.3094 0.0000 0.0000 0.0000
# 2 13.9940 109.0940 -1.6180 0.0000 0.0000 0.0000
# 3 -17.3094 -1.6180 41.9099 0.0000 0.0000 0.0000
# 4 0.0000 0.0000 0.0000 27.7804 0.0000 0.0000
# 5 0.0000 0.0000 0.0000 0.0000 -13.9388 0.0000
# 6 0.0000 0.0000 0.0000 0.0000 0.0000 4.2930
#
#
#
# Elastic Compliance Matrix: (Units=1/GPa)
#
#
# Indices 1 2 3 4 5 6 
#
# 1 0.016264 -0.001988 0.006640 0.000000 0.000000 0.000000
# 2 -0.001988 0.009415 -0.000457 0.000000 0.000000 0.000000
# 3 0.006640 -0.000457 0.026586 0.000000 0.000000 0.000000
# 4 0.000000 0.000000 0.000000 0.035997 0.000000 0.000000
# 5 0.000000 0.000000 0.000000 0.000000 -0.071742 0.000000
# 6 0.000000 0.000000 0.000000 0.000000 0.000000 0.232935
#
#
# Mechanical properties :
#
#
# Convention : Reuss Voigt Hill
#
# Bulk Modulus (GPa) = 16.48692 23.48907 19.98799
# Shear Modulus (GPa) = 19.13648 18.70706 18.92177
#
# Velocity S-wave (km/s) = 3.01224 2.97825 2.99529
# Velocity P-wave (km/s) = 4.46267 4.79208 4.63031
#
# Compressibility (1/GPa) = 0.06065415
#
# Stress axis : x y z
#
# Youngs Moduli (GPa) = 61.48686 106.21805 37.61436
#
# Poissons Ratio (x) = 0.21113 -0.24977
# Poissons Ratio (y) = 0.12222 0.01721
# Poissons Ratio (z) = -0.40830 0.04859
#
# Static dielectric constant tensor:
#      x y z
#    x 1.801180 0.000000 0.000000 
#    y 0.000000 1.749700 0.000000 
#    z 0.000000 0.000000 1.781640 
# 
# From -- ./inp_files/10129.got.cif
#   From: 2010.05.17/outbox.cif.g08.bks.cpg/sg59_6_cif.got.tgz:10129.got - 2010.06.03 14:40:33.
