data_PCOD9449733
_publ_section_title
;
Structure prediction by ZEFSAII (Michael W. Deem and Ramdas Pophale) SiO2 
 PCOD9449733
Probable space group: P M M N
;
_chemical_formula_sum "Si O2"
_cell_formula_units_Z 64
_cell_length_a 7.501392
_cell_length_b 25.559537
_cell_length_c 13.494261
_cell_angle_alpha 90.000000
_cell_angle_beta 90.000000
_cell_angle_gamma 90.000000
_cell_volume 2587.283086
_symmetry_space_group_name_H-M "P M M N"
_symmetry_group_IT_number 59
_space_group.IT_coordinate_system_code '2'
_symmetry_cell_setting 'orthorhombic'
loop_
_space_group_symop_operation_xyz
x,y,z
1/2-x,1/2-y,z
1/2+x,-y,-z
-x,1/2+y,-z
-x,-y,-z
1/2+x,1/2+y,-z
1/2-x,y,z
x,1/2-y,z
loop_
_atom_site_type_symbol
_atom_site_label
_atom_site_fract_x
_atom_site_fract_y
_atom_site_fract_z
Si Si1 0.546175 0.078378 0.039858
Si Si2 0.465613 0.920500 0.175694
Si Si3 0.532147 0.306976 0.747997
Si Si4 0.950142 0.187970 0.315597
Si Si5 0.537738 0.056129 0.457260
Si Si6 0.537935 0.467838 0.243598
Si Si7 0.046370 0.190422 0.095227
Si Si8 0.032917 0.838550 0.466953
O O1 0.750000 0.059771 0.037531
O O2 0.464073 0.055498 0.140617
O O3 0.547667 0.141738 0.044085
O O4 0.465100 0.064531 0.933879
O O5 0.250000 0.917665 0.172803
O O6 0.527265 0.862072 0.204707
O O7 0.509982 0.969624 0.245219
O O8 0.750000 0.307587 0.751241
O O9 0.476465 0.250000 0.789529
O O10 0.476113 0.310162 0.632383
O O11 0.750000 0.164508 0.310689
O O12 0.932901 0.250000 0.313292
O O13 0.029166 0.177397 0.423474
O O14 0.043144 0.176046 0.212305
O O15 0.750000 0.062366 0.450749
O O16 0.467203 0.058536 0.344461
O O17 0.479599 0.100804 0.533113
O O18 0.500000 0.000000 0.500000
O O19 0.750000 0.458419 0.242490
O O20 0.250000 0.191088 0.061337
O O21 0.974330 0.250000 0.083469
O O22 0.250000 0.832277 0.468530
#
# Coordination Sequence:
#
# PCOD9449733 Si02
#       8
#     8   8   8   8   8   8   8   8
#     4  10  21  37  57  80 104 138 186 232 275 326
#     4  10  21  36  57  83 107 136 179 229 278 327
#     4   9  17  30  50  79 112 141 174 221 271 317
#     4   9  16  28  49  74  98 129 169 208 247 298
#     4  10  20  33  50  73 102 136 172 212 259 313
#     4  10  21  37  56  79 110 144 179 225 279 333
#     4  10  21  35  51  76 110 144 177 218 273 331
#     4   9  16  28  48  73 102 135 170 208 251 302
#
# _framework density 24.736374000000001
#
# number of rings (size 3 to 8) (size 9 to 14) (size 15 to 20)
#    0.000    2.375    0.000    2.625    0.000    7.250 
#    0.000    3.125    0.000    1.125    0.000    0.000 
#    0.000    0.000    0.000    0.000    0.000    0.000 
#
# Total GULP energy -357371.755988 kJ/mol
# GULP energy per Si atom -5583.933687 kJ/mol
# Density = 2.468007 g / cm^3
# Si number density = 24.736374 Si / 1000 Ang^3
#
#
#
# Elastic Constant Matrix: (Units=GPa)
#
#
# Indices 1 2 3 4 5 6 
#
# 1 65.2665 -0.3791 0.5369 0.0000 0.0000 0.0000
# 2 -0.3791 122.7364 16.2746 0.0000 0.0000 0.0000
# 3 0.5369 16.2746 68.2972 0.0000 0.0000 0.0000
# 4 0.0000 0.0000 0.0000 33.6292 0.0000 0.0000
# 5 0.0000 0.0000 0.0000 0.0000 -10.1662 0.0000
# 6 0.0000 0.0000 0.0000 0.0000 0.0000 17.6180
#
#
#
# Elastic Compliance Matrix: (Units=1/GPa)
#
#
# Indices 1 2 3 4 5 6 
#
# 1 0.015323 0.000065 -0.000136 0.000000 0.000000 0.000000
# 2 0.000065 0.008414 -0.002005 0.000000 0.000000 0.000000
# 3 -0.000136 -0.002005 0.015121 0.000000 0.000000 0.000000
# 4 0.000000 0.000000 0.000000 0.029736 0.000000 0.000000
# 5 0.000000 0.000000 0.000000 0.000000 -0.098365 0.000000
# 6 0.000000 0.000000 0.000000 0.000000 0.000000 0.056760
#
#
# Mechanical properties :
#
#
# Convention : Reuss Voigt Hill
#
# Bulk Modulus (GPa) = 28.81381 32.12946 30.47163
# Shear Modulus (GPa) = 117.06992 24.20736 70.63864
#
# Velocity S-wave (km/s) = 6.88693 3.13167 5.34963
# Velocity P-wave (km/s) = 8.65525 5.10818 7.10657
#
# Compressibility (1/GPa) = 0.03470558
#
# Stress axis : x y z
#
# Youngs Moduli (GPa) = 65.26016 118.85434 66.13393
#
# Poissons Ratio (x) = -0.00777 0.00900
# Poissons Ratio (y) = -0.00427 0.13263
# Poissons Ratio (z) = 0.00888 0.23835
#
# Static dielectric constant tensor:
#      x y z
#    x 1.966590 0.000000 0.000000 
#    y 0.000000 1.991470 0.000000 
#    z 0.000000 0.000000 1.975560 
# 
# From -- ./inp_files/21619.got.cif
#   From: 2010.05.17/outbox.cif.g08.bks.cpg/sg59_11_cif.got.tgz:21619.got - 2010.06.03 14:40:33.
