data_PCOD9449742
_publ_section_title
;
Structure prediction by ZEFSAII (Michael W. Deem and Ramdas Pophale) SiO2 
 PCOD9449742
Probable space group: P M M N
;
_chemical_formula_sum "Si O2"
_cell_formula_units_Z 56
_cell_length_a 8.004338
_cell_length_b 19.845323
_cell_length_c 18.358756
_cell_angle_alpha 90.000000
_cell_angle_beta 90.000000
_cell_angle_gamma 90.000000
_cell_volume 2916.264029
_symmetry_space_group_name_H-M "P M M N"
_symmetry_group_IT_number 59
_space_group.IT_coordinate_system_code '2'
_symmetry_cell_setting 'orthorhombic'
loop_
_space_group_symop_operation_xyz
x,y,z
1/2-x,1/2-y,z
1/2+x,-y,-z
-x,1/2+y,-z
-x,-y,-z
1/2+x,1/2+y,-z
1/2-x,y,z
x,1/2-y,z
loop_
_atom_site_type_symbol
_atom_site_label
_atom_site_fract_x
_atom_site_fract_y
_atom_site_fract_z
Si Si1 0.548210 0.425661 0.289228
Si Si2 0.946359 0.084669 0.873501
Si Si3 0.948042 0.921136 0.287569
Si Si4 0.051414 0.326238 0.005191
Si Si5 0.951214 0.569243 0.874444
Si Si6 0.545930 0.172273 0.416450
Si Si7 0.048264 0.827822 0.420404
O O1 0.750000 0.424539 0.291348
O O2 0.492195 0.502545 0.302572
O O3 0.494475 0.408238 0.207343
O O4 0.486472 0.375680 0.351862
O O5 0.750000 0.083825 0.889260
O O6 0.972644 0.101647 0.788683
O O7 0.013249 0.007946 0.884790
O O8 0.026111 0.138323 0.927511
O O9 0.750000 0.923662 0.275496
O O10 0.985022 0.874019 0.355652
O O11 0.250000 0.321529 0.018024
O O12 0.983122 0.250000 0.008045
O O13 0.983613 0.377934 0.066144
O O14 0.750000 0.566001 0.880240
O O15 0.750000 0.171326 0.415914
O O16 0.495850 0.250000 0.405455
O O17 0.494220 0.151052 0.498057
O O18 0.250000 0.829382 0.419285
O O19 0.996656 0.750000 0.410200
#
# Coordination Sequence:
#
# PCOD9449742 Si02
#       7
#     8   8   8   8   8   8   8
#     4   9  18  32  51  76 102 129 165 205 243 288
#     4  10  20  35  55  75  97 129 169 207 240 285
#     4  10  20  33  50  74 103 131 161 202 251 297
#     4  10  21  36  53  75 104 133 160 197 248 298
#     4   9  19  35  53  74 101 133 165 198 243 294
#     4   8  15  30  51  73  99 132 167 203 245 290
#     4   9  18  33  52  72  96 130 170 207 244 291
#
# _framework density 19.202649999999998
#
# number of rings (size 3 to 8) (size 9 to 14) (size 15 to 20)
#    0.000    2.714    0.000    2.143    0.000    4.000 
#    0.000    0.714    0.000    0.857    0.000    0.000 
#    0.000    0.000    0.000    0.000    0.000    0.000 
#
# Total GULP energy -312371.619295 kJ/mol
# GULP energy per Si atom -5578.064630 kJ/mol
# Density = 1.915894 g / cm^3
# Si number density = 19.202650 Si / 1000 Ang^3
#
#
#
# Elastic Constant Matrix: (Units=GPa)
#
#
# Indices 1 2 3 4 5 6 
#
# 1 10.9771 1.2786 -8.0900 0.0000 0.0000 0.0000
# 2 1.2786 76.4703 67.5683 0.0000 0.0000 0.0000
# 3 -8.0900 67.5683 99.6484 0.0000 0.0000 0.0000
# 4 0.0000 0.0000 0.0000 92.1077 0.0000 0.0000
# 5 0.0000 0.0000 0.0000 0.0000 22.9382 0.0000
# 6 0.0000 0.0000 0.0000 0.0000 0.0000 12.5154
#
#
#
# Elastic Compliance Matrix: (Units=1/GPa)
#
#
# Indices 1 2 3 4 5 6 
#
# 1 0.113280 -0.024996 0.026146 0.000000 0.000000 0.000000
# 2 -0.024996 0.038137 -0.027889 0.000000 0.000000 0.000000
# 3 0.026146 -0.027889 0.031069 0.000000 0.000000 0.000000
# 4 0.000000 0.000000 0.000000 0.010857 0.000000 0.000000
# 5 0.000000 0.000000 0.000000 0.000000 0.043595 0.000000
# 6 0.000000 0.000000 0.000000 0.000000 0.000000 0.079902
#
#
# Mechanical properties :
#
#
# Convention : Reuss Voigt Hill
#
# Bulk Modulus (GPa) = 7.75152 34.28997 21.02075
# Shear Modulus (GPa) = 12.09715 33.93486 23.01601
#
# Velocity S-wave (km/s) = 2.51265 4.20836 3.46581
# Velocity P-wave (km/s) = 3.53034 6.44278 5.19484
#
# Compressibility (1/GPa) = 0.12900697
#
# Stress axis : x y z
#
# Youngs Moduli (GPa) = 8.82769 26.22107 32.18694
#
# Poissons Ratio (x) = 0.65543 -0.84155
# Poissons Ratio (y) = 0.22066 0.89766
# Poissons Ratio (z) = -0.23081 0.73128
#
# Static dielectric constant tensor:
#      x y z
#    x 1.693440 0.000000 0.000000 
#    y 0.000000 1.670290 0.000000 
#    z 0.000000 0.000000 1.641870 
# 
# From -- ./inp_files/26112.got.cif
#   From: 2010.05.17/outbox.cif.g08.bks.cpg/sg59_14_cif.got.tgz:26112.got - 2010.06.03 14:40:33.
