data_PCOD9449732
_publ_section_title
;
Structure prediction by ZEFSAII (Michael W. Deem and Ramdas Pophale) SiO2 
 PCOD9449732
Probable space group: P M M N
;
_chemical_formula_sum "Si O2"
_cell_formula_units_Z 64
_cell_length_a 7.583863
_cell_length_b 14.775162
_cell_length_c 25.755800
_cell_angle_alpha 90.000000
_cell_angle_beta 90.000000
_cell_angle_gamma 90.000000
_cell_volume 2886.009620
_symmetry_space_group_name_H-M "P M M N"
_symmetry_group_IT_number 59
_space_group.IT_coordinate_system_code '2'
_symmetry_cell_setting 'orthorhombic'
loop_
_space_group_symop_operation_xyz
x,y,z
1/2-x,1/2-y,z
1/2+x,-y,-z
-x,1/2+y,-z
-x,-y,-z
1/2+x,1/2+y,-z
1/2-x,y,z
x,1/2-y,z
loop_
_atom_site_type_symbol
_atom_site_label
_atom_site_fract_x
_atom_site_fract_y
_atom_site_fract_z
Si Si1 0.466054 0.647497 0.718402
Si Si2 0.038505 0.646766 0.515356
Si Si3 0.454372 0.349173 0.604155
Si Si4 0.453089 0.520954 0.809512
Si Si5 0.456456 0.145262 0.096220
Si Si6 0.460371 0.352876 0.868340
Si Si7 0.960107 0.145727 0.983074
Si Si8 0.533781 0.456251 0.383915
O O1 0.250000 0.648553 0.720242
O O2 0.524501 0.750000 0.727987
O O3 0.530407 0.578050 0.762212
O O4 0.516637 0.611524 0.661762
O O5 0.250000 0.636948 0.509722
O O6 0.004508 0.750000 0.532869
O O7 0.975426 0.579036 0.559740
O O8 0.959473 0.637019 0.458229
O O9 0.250000 0.344914 0.620236
O O10 0.534280 0.250000 0.614715
O O11 0.529498 0.441792 0.626817
O O12 0.250000 0.502326 0.794973
O O13 0.454294 0.585279 0.860061
O O14 0.533098 0.425527 0.827607
O O15 0.250000 0.147006 0.108501
O O16 0.522126 0.250000 0.096345
O O17 0.475997 0.106957 0.037716
O O18 0.250000 0.347554 0.861089
O O19 0.531273 0.250000 0.865182
O O20 0.488009 0.390100 0.926789
O O21 0.750000 0.146432 0.985303
O O22 0.027223 0.250000 0.982674
O O23 0.750000 0.457817 0.385410
#
# Coordination Sequence:
#
# PCOD9449732 Si02
#       8
#     8   8   8   8   8   8   8   8
#     4   9  17  30  49  72  95 118 151 198 242 276
#     4   9  16  26  43  67  92 120 156 194 230 272
#     4   9  17  28  42  64  96 128 154 185 229 279
#     4  10  20  33  51  73  94 122 161 201 240 282
#     4  10  20  33  50  73 102 133 160 191 238 291
#     4   9  18  33  50  69  97 128 156 191 237 286
#     4   9  17  30  50  75 100 127 161 198 233 276
#     4   9  16  27  44  66  92 122 156 193 234 277
#
# _framework density 22.175948000000002
#
# number of rings (size 3 to 8) (size 9 to 14) (size 15 to 20)
#    0.000    2.750    0.000    1.875    0.000    5.250 
#    0.000    0.625    0.000    5.250    0.000    1.750 
#    0.000    4.000    0.000    0.000    0.000    0.000 
#
# Total GULP energy -357185.006848 kJ/mol
# GULP energy per Si atom -5581.015732 kJ/mol
# Density = 2.212547 g / cm^3
# Si number density = 22.175948 Si / 1000 Ang^3
#
#
#
# Elastic Constant Matrix: (Units=GPa)
#
#
# Indices 1 2 3 4 5 6 
#
# 1 52.7761 1.2228 -8.3308 0.0000 0.0000 0.0000
# 2 1.2228 97.8262 11.0756 0.0000 0.0000 0.0000
# 3 -8.3308 11.0756 26.3790 0.0000 0.0000 0.0000
# 4 0.0000 0.0000 0.0000 38.6384 0.0000 0.0000
# 5 0.0000 0.0000 0.0000 0.0000 6.7267 0.0000
# 6 0.0000 0.0000 0.0000 0.0000 0.0000 1.5936
#
#
#
# Elastic Compliance Matrix: (Units=1/GPa)
#
#
# Indices 1 2 3 4 5 6 
#
# 1 0.020038 -0.001015 0.006754 0.000000 0.000000 0.000000
# 2 -0.001015 0.010784 -0.004848 0.000000 0.000000 0.000000
# 3 0.006754 -0.004848 0.042078 0.000000 0.000000 0.000000
# 4 0.000000 0.000000 0.000000 0.025881 0.000000 0.000000
# 5 0.000000 0.000000 0.000000 0.000000 0.148662 0.000000
# 6 0.000000 0.000000 0.000000 0.000000 0.000000 0.627496
#
#
# Mechanical properties :
#
#
# Convention : Reuss Voigt Hill
#
# Bulk Modulus (GPa) = 13.39029 20.54629 16.96829
# Shear Modulus (GPa) = 5.56762 20.92599 13.24680
#
# Velocity S-wave (km/s) = 1.58622 3.07520 2.44673
# Velocity P-wave (km/s) = 3.06694 4.67914 3.95604
#
# Compressibility (1/GPa) = 0.07468097
#
# Stress axis : x y z
#
# Youngs Moduli (GPa) = 49.90595 92.73155 23.76550
#
# Poissons Ratio (x) = 0.09414 -0.16052
# Poissons Ratio (y) = 0.05066 0.11522
# Poissons Ratio (z) = -0.33708 0.44960
#
# Static dielectric constant tensor:
#      x y z
#    x 1.839110 0.000000 0.000000 
#    y 0.000000 1.864340 0.000000 
#    z 0.000000 0.000000 1.776130 
# 
# From -- ./inp_files/31671.got.cif
#   From: 2010.05.17/outbox.cif.g08.bks.cpg/sg59_16_cif.got.tgz:31671.got - 2010.06.03 14:40:33.
