data_PCOD9449761
_publ_section_title
;
Structure prediction by ZEFSAII (Michael W. Deem and Ramdas Pophale) SiO2 
 PCOD9449761
Probable space group: P M M N
;
_chemical_formula_sum "Si O2"
_cell_formula_units_Z 48
_cell_length_a 8.938889
_cell_length_b 21.063884
_cell_length_c 15.186049
_cell_angle_alpha 90.000000
_cell_angle_beta 90.000000
_cell_angle_gamma 90.000000
_cell_volume 2859.346557
_symmetry_space_group_name_H-M "P M M N"
_symmetry_group_IT_number 59
_space_group.IT_coordinate_system_code '2'
_symmetry_cell_setting 'orthorhombic'
loop_
_space_group_symop_operation_xyz
x,y,z
1/2-x,1/2-y,z
1/2+x,-y,-z
-x,1/2+y,-z
-x,-y,-z
1/2+x,1/2+y,-z
1/2-x,y,z
x,1/2-y,z
loop_
_atom_site_type_symbol
_atom_site_label
_atom_site_fract_x
_atom_site_fract_y
_atom_site_fract_z
Si Si1 0.427859 0.320528 0.390442
Si Si2 0.929409 0.044718 0.426030
Si Si3 0.574186 0.010584 0.226708
Si Si4 0.572777 0.448310 0.933738
Si Si5 0.573491 0.819760 0.002629
Si Si6 0.077380 0.139038 0.192569
O O1 0.250000 0.325648 0.408365
O O2 0.478407 0.250000 0.419450
O O3 0.508683 0.382983 0.428074
O O4 0.445749 0.324811 0.284223
O O5 0.750000 0.046181 0.433469
O O6 0.967304 0.015528 0.329652
O O7 0.000000 0.000000 0.500000
O O8 0.750000 0.997281 0.219187
O O9 0.482286 0.963704 0.164897
O O10 0.535590 0.080507 0.190265
O O11 0.750000 0.454103 0.940361
O O12 0.500000 0.500000 0.000000
O O13 0.517586 0.378611 0.960211
O O14 0.750000 0.828434 0.022904
O O15 0.526541 0.750000 0.034022
O O16 0.561076 0.822042 0.896481
O O17 0.250000 0.114653 0.194283
#
# Coordination Sequence:
#
# PCOD9449761 Si02
#       6
#     8   8   8   8   8   8
#     4   9  17  30  50  77 109 142 174 210 258 319
#     4  10  21  36  56  81 109 139 175 220 269 320
#     4  10  20  34  53  78 105 136 176 221 265 312
#     4  12  23  35  53  76 105 142 183 223 262 310
#     4  10  20  33  50  74 106 143 181 221 266 315
#     4   9  16  28  48  74 105 140 174 208 253 312
#
# _framework density 16.787051000000002
#
# number of rings (size 3 to 8) (size 9 to 14) (size 15 to 20)
#    0.000    2.000    1.667    3.000    0.000    4.667 
#    0.000    0.000    0.000    4.000    0.000    7.000 
#    0.000    0.000    0.000    0.000    0.000    0.000 
#
# Total GULP energy -267710.517965 kJ/mol
# GULP energy per Si atom -5577.302458 kJ/mol
# Density = 1.674884 g / cm^3
# Si number density = 16.787051 Si / 1000 Ang^3
#
#
#
# Elastic Constant Matrix: (Units=GPa)
#
#
# Indices 1 2 3 4 5 6 
#
# 1 78.7199 68.9796 49.0347 0.0000 0.0000 0.0000
# 2 68.9796 139.7169 66.5147 0.0000 0.0000 0.0000
# 3 49.0347 66.5147 73.5085 0.0000 0.0000 0.0000
# 4 0.0000 0.0000 0.0000 16.1284 0.0000 0.0000
# 5 0.0000 0.0000 0.0000 0.0000 21.0013 0.0000
# 6 0.0000 0.0000 0.0000 0.0000 0.0000 26.9378
#
#
#
# Elastic Compliance Matrix: (Units=1/GPa)
#
#
# Indices 1 2 3 4 5 6 
#
# 1 0.026045 -0.008059 -0.010081 0.000000 0.000000 0.000000
# 2 -0.008059 0.015068 -0.008258 0.000000 0.000000 0.000000
# 3 -0.010081 -0.008258 0.027801 0.000000 0.000000 0.000000
# 4 0.000000 0.000000 0.000000 0.062002 0.000000 0.000000
# 5 0.000000 0.000000 0.000000 0.000000 0.047616 0.000000
# 6 0.000000 0.000000 0.000000 0.000000 0.000000 0.037123
#
#
# Mechanical properties :
#
#
# Convention : Reuss Voigt Hill
#
# Bulk Modulus (GPa) = 62.04747 73.44482 67.74614
# Shear Modulus (GPa) = 18.25993 19.97456 19.11724
#
# Velocity S-wave (km/s) = 3.30167 3.45320 3.37829
# Velocity P-wave (km/s) = 7.18167 7.72951 7.46062
#
# Compressibility (1/GPa) = 0.01611669
#
# Stress axis : x y z
#
# Youngs Moduli (GPa) = 38.39522 66.36706 35.97017
#
# Poissons Ratio (x) = 0.53488 0.36261
# Poissons Ratio (y) = 0.30944 0.29704
# Poissons Ratio (z) = 0.38706 0.54806
#
# Static dielectric constant tensor:
#      x y z
#    x 1.566450 0.000000 0.000000 
#    y 0.000000 1.568310 0.000000 
#    z 0.000000 0.000000 1.568130 
# 
# From -- ./inp_files/20400.got.cif
#   From: 2010.05.17/outbox.cif.g08.bks.cpg/sg59_11_cif.got.tgz:20400.got - 2010.06.03 14:40:33.
