data_PCOD9449679
_publ_section_title
;
Structure prediction by ZEFSAII (Michael W. Deem and Ramdas Pophale) SiO2 
 PCOD9449679
Probable space group: P M M N
;
_chemical_formula_sum "Si O2"
_cell_formula_units_Z 56
_cell_length_a 14.334762
_cell_length_b 7.565264
_cell_length_c 24.402256
_cell_angle_alpha 90.000000
_cell_angle_beta 90.000000
_cell_angle_gamma 90.000000
_cell_volume 2646.333372
_symmetry_space_group_name_H-M "P M M N"
_symmetry_group_IT_number 59
_space_group.IT_coordinate_system_code '2'
_symmetry_cell_setting 'orthorhombic'
loop_
_space_group_symop_operation_xyz
x,y,z
1/2-x,1/2-y,z
1/2+x,-y,-z
-x,1/2+y,-z
-x,-y,-z
1/2+x,1/2+y,-z
1/2-x,y,z
x,1/2-y,z
loop_
_atom_site_type_symbol
_atom_site_label
_atom_site_fract_x
_atom_site_fract_y
_atom_site_fract_z
Si Si1 0.863004 0.041667 0.032668
Si Si2 0.461980 0.461782 0.414694
Si Si3 0.645972 0.544154 0.154056
Si Si4 0.541072 0.036225 0.804328
Si Si5 0.354985 0.962812 0.526038
Si Si6 0.355726 0.461006 0.308514
Si Si7 0.358826 0.965810 0.085382
O O1 0.750000 0.019522 0.029914
O O2 0.881769 0.250000 0.036221
O O3 0.889924 0.961769 0.090967
O O4 0.897905 0.973108 0.973759
O O5 0.471171 0.250000 0.409595
O O6 0.563758 0.529851 0.433284
O O7 0.391586 0.496612 0.464942
O O8 0.418531 0.531557 0.358416
O O9 0.750000 0.464533 0.156366
O O10 0.655133 0.750000 0.167934
O O11 0.565270 0.469127 0.192383
O O12 0.539137 0.250000 0.807303
O O13 0.591230 0.972960 0.859784
O O14 0.596171 0.989978 0.749846
O O15 0.250000 0.029551 0.534901
O O16 0.352299 0.750000 0.531020
O O17 0.250000 0.531532 0.309312
O O18 0.349350 0.250000 0.316486
O O19 0.250000 0.014478 0.088882
O O20 0.362356 0.750000 0.083815
#
# Coordination Sequence:
#
# PCOD9449679 Si02
#       7
#     8   8   8   8   8   8   8
#     4   8  14  26  45  66  87 114 149 189 236 293
#     4   9  18  33  52  74 104 140 169 194 237 291
#     4   9  18  32  47  65  92 122 153 196 247 291
#     4  10  20  33  50  69  90 124 167 202 236 283
#     4   9  17  30  51  80 109 134 165 205 239 271
#     4  10  21  36  52  72 100 130 159 196 241 285
#     4   8  14  26  44  66  90 114 146 192 241 287
#
# _framework density 21.161355
#
# number of rings (size 3 to 8) (size 9 to 14) (size 15 to 20)
#    0.000    3.000    0.000    1.714    0.000    3.429 
#    0.000    1.429    0.000    3.429    0.000    0.000 
#    0.000    0.000    0.000    0.000    0.000    0.000 
#
# Total GULP energy -312417.081953 kJ/mol
# GULP energy per Si atom -5578.876463 kJ/mol
# Density = 2.111319 g / cm^3
# Si number density = 21.161355 Si / 1000 Ang^3
#
#
#
# Elastic Constant Matrix: (Units=GPa)
#
#
# Indices 1 2 3 4 5 6 
#
# 1 159.7911 -0.9971 92.7895 0.0000 0.0000 0.0000
# 2 -0.9971 41.8460 0.6556 0.0000 0.0000 0.0000
# 3 92.7895 0.6556 97.3958 0.0000 0.0000 0.0000
# 4 0.0000 0.0000 0.0000 20.3216 0.0000 0.0000
# 5 0.0000 0.0000 0.0000 0.0000 27.8010 0.0000
# 6 0.0000 0.0000 0.0000 0.0000 0.0000 9.1368
#
#
#
# Elastic Compliance Matrix: (Units=1/GPa)
#
#
# Indices 1 2 3 4 5 6 
#
# 1 0.014020 0.000543 -0.013360 0.000000 0.000000 0.000000
# 2 0.000543 0.023921 -0.000679 0.000000 0.000000 0.000000
# 3 -0.013360 -0.000679 0.023001 0.000000 0.000000 0.000000
# 4 0.000000 0.000000 0.000000 0.049209 0.000000 0.000000
# 5 0.000000 0.000000 0.000000 0.000000 0.035970 0.000000
# 6 0.000000 0.000000 0.000000 0.000000 0.000000 0.109448
#
#
# Mechanical properties :
#
#
# Convention : Reuss Voigt Hill
#
# Bulk Modulus (GPa) = 29.45545 53.76986 41.61265
# Shear Modulus (GPa) = 17.01399 25.22420 21.11910
#
# Velocity S-wave (km/s) = 2.83859 3.45627 3.16255
# Velocity P-wave (km/s) = 4.96922 6.43369 5.74828
#
# Compressibility (1/GPa) = 0.03394958
#
# Stress axis : x y z
#
# Youngs Moduli (GPa) = 71.32725 41.80478 43.47722
#
# Poissons Ratio (x) = -0.02272 0.58088
# Poissons Ratio (y) = -0.03876 0.02951
# Poissons Ratio (z) = 0.95297 0.02837
#
# Static dielectric constant tensor:
#      x y z
#    x 1.814410 0.000000 0.000000 
#    y 0.000000 1.784860 0.000000 
#    z 0.000000 0.000000 1.730050 
# 
# From -- ./inp_files/30305.got.cif
#   From: 2010.05.17/outbox.cif.g08.bks.cpg/sg59_16_cif.got.tgz:30305.got - 2010.06.03 14:40:33.
