data_PCOD9449785
_publ_section_title
;
Structure prediction by ZEFSAII (Michael W. Deem and Ramdas Pophale) SiO2 
 PCOD9449785
Probable space group: P M M N
;
_chemical_formula_sum "Si O2"
_cell_formula_units_Z 40
_cell_length_a 9.255986
_cell_length_b 19.901881
_cell_length_c 13.139811
_cell_angle_alpha 90.000000
_cell_angle_beta 90.000000
_cell_angle_gamma 90.000000
_cell_volume 2420.504713
_symmetry_space_group_name_H-M "P M M N"
_symmetry_group_IT_number 59
_space_group.IT_coordinate_system_code '2'
_symmetry_cell_setting 'orthorhombic'
loop_
_space_group_symop_operation_xyz
x,y,z
1/2-x,1/2-y,z
1/2+x,-y,-z
-x,1/2+y,-z
-x,-y,-z
1/2+x,1/2+y,-z
1/2-x,y,z
x,1/2-y,z
loop_
_atom_site_type_symbol
_atom_site_label
_atom_site_fract_x
_atom_site_fract_y
_atom_site_fract_z
Si Si1 0.416272 0.831614 0.503200
Si Si2 0.922737 0.567850 0.881409
Si Si3 0.923455 0.672193 0.706737
Si Si4 0.924055 0.170621 0.724472
Si Si5 0.422021 0.073936 0.882456
O O1 0.250000 0.852743 0.516781
O O2 0.417463 0.750000 0.501002
O O3 0.509660 0.852047 0.600085
O O4 0.465921 0.852034 0.390273
O O5 0.750000 0.555352 0.871755
O O6 0.964638 0.624625 0.800360
O O7 0.008560 0.499116 0.863184
O O8 0.949141 0.589572 0.998128
O O9 0.750000 0.671397 0.698756
O O10 0.968056 0.750000 0.723452
O O11 0.750000 0.163306 0.732061
O O12 0.956455 0.250000 0.734943
O O13 0.003732 0.127524 0.809054
O O14 0.250000 0.072272 0.866797
#
# Coordination Sequence:
#
# PCOD9449785 Si02
#       5
#     8   8   8   8   8
#     4   8  15  29  48  70  97 127 156 190 236 285
#     4   9  19  35  51  68  97 133 161 193 243 294
#     4   9  17  30  50  74  97 123 157 196 238 285
#     4   9  18  33  52  73  99 130 160 193 239 291
#     4  10  20  33  51  73  96 126 165 205 240 280
#
# _framework density 16.525480000000002
#
# number of rings (size 3 to 8) (size 9 to 14) (size 15 to 20)
#    0.000    3.000    0.000    1.800    0.000    3.600 
#    0.000    5.000    0.000    2.400    0.000    0.000 
#    0.000    0.000    0.000    0.000    0.000    0.000 
#
# Total GULP energy -222838.093802 kJ/mol
# GULP energy per Si atom -5570.952345 kJ/mol
# Density = 1.648787 g / cm^3
# Si number density = 16.525480 Si / 1000 Ang^3
#
#
#
# Elastic Constant Matrix: (Units=GPa)
#
#
# Indices 1 2 3 4 5 6 
#
# 1 38.2336 47.0249 68.2097 0.0000 0.0000 0.0000
# 2 47.0249 78.3295 97.3390 0.0000 0.0000 0.0000
# 3 68.2097 97.3390 164.6258 0.0000 0.0000 0.0000
# 4 0.0000 0.0000 0.0000 -25.0758 0.0000 0.0000
# 5 0.0000 0.0000 0.0000 0.0000 32.6058 0.0000
# 6 0.0000 0.0000 0.0000 0.0000 0.0000 23.1751
#
#
#
# Elastic Compliance Matrix: (Units=1/GPa)
#
#
# Indices 1 2 3 4 5 6 
#
# 1 0.127957 -0.041231 -0.028638 0.000000 0.000000 0.000000
# 2 -0.041231 0.061419 -0.019232 0.000000 0.000000 0.000000
# 3 -0.028638 -0.019232 0.029312 0.000000 0.000000 0.000000
# 4 0.000000 0.000000 0.000000 -0.039879 0.000000 0.000000
# 5 0.000000 0.000000 0.000000 0.000000 0.030669 0.000000
# 6 0.000000 0.000000 0.000000 0.000000 0.000000 0.043150
#
#
# Mechanical properties :
#
#
# Convention : Reuss Voigt Hill
#
# Bulk Modulus (GPa) = 24.70008 78.48178 51.59093
# Shear Modulus (GPa) = 11.25302 10.71538 10.98420
#
# Velocity S-wave (km/s) = 2.61233 2.54916 2.58094
# Velocity P-wave (km/s) = 4.90695 7.50059 6.33786
#
# Compressibility (1/GPa) = 0.04048570
#
# Stress axis : x y z
#
# Youngs Moduli (GPa) = 7.81511 16.28159 34.11617
#
# Poissons Ratio (x) = 0.67130 0.97702
# Poissons Ratio (y) = 0.32222 0.65613
# Poissons Ratio (z) = 0.22381 0.31313
#
# Static dielectric constant tensor:
#      x y z
#    x 1.549820 0.000000 0.000000 
#    y 0.000000 1.533360 0.000000 
#    z 0.000000 0.000000 1.556210 
# 
# From -- ./inp_files/13878.got.cif
#   From: 2010.05.17/outbox.cif.g08.bks.cpg/sg59_7_cif.got.tgz:13878.got - 2010.06.03 14:40:33.
