data_PCOD9449626
_publ_section_title
;
Structure prediction by ZEFSAII (Michael W. Deem and Ramdas Pophale) SiO2 
 PCOD9449626
Probable space group: P M M N
;
_chemical_formula_sum "Si O2"
_cell_formula_units_Z 40
_cell_length_a 18.452373
_cell_length_b 9.587671
_cell_length_c 13.338119
_cell_angle_alpha 90.000000
_cell_angle_beta 90.000000
_cell_angle_gamma 90.000000
_cell_volume 2359.717077
_symmetry_space_group_name_H-M "P M M N"
_symmetry_group_IT_number 59
_space_group.IT_coordinate_system_code '2'
_symmetry_cell_setting 'orthorhombic'
loop_
_space_group_symop_operation_xyz
x,y,z
1/2-x,1/2-y,z
1/2+x,-y,-z
-x,1/2+y,-z
-x,-y,-z
1/2+x,1/2+y,-z
1/2-x,y,z
x,1/2-y,z
loop_
_atom_site_type_symbol
_atom_site_label
_atom_site_fract_x
_atom_site_fract_y
_atom_site_fract_z
Si Si1 0.836166 0.413171 0.809013
Si Si2 0.166715 0.919671 0.796950
Si Si3 0.925983 0.082905 0.010541
Si Si4 0.161607 0.589000 0.574506
Si Si5 0.161559 0.410275 0.383780
O O1 0.750000 0.433469 0.823945
O O2 0.846830 0.250000 0.782806
O O3 0.860601 0.509230 0.716955
O O4 0.877212 0.442146 0.912214
O O5 0.250000 0.966318 0.811146
O O6 0.168496 0.750000 0.795699
O O7 0.116880 0.961711 0.889335
O O8 0.140285 0.960865 0.685877
O O9 0.938425 0.250000 0.016876
O O10 0.000000 0.000000 0.000000
O O11 0.250000 0.589598 0.575418
O O12 0.139048 0.750000 0.559752
O O13 0.137636 0.492419 0.483192
O O14 0.250000 0.411917 0.384713
O O15 0.138043 0.250000 0.383809
#
# Coordination Sequence:
#
# PCOD9449626 Si02
#       5
#     8   8   8   8   8
#     4   9  17  30  49  70  91 120 159 195 223 261
#     4   8  14  27  49  73  93 118 156 195 226 264
#     4  10  20  33  49  69  94 123 154 191 234 277
#     4   8  13  23  42  67  92 117 147 184 224 267
#     4   9  16  25  40  66  98 124 145 179 230 278
#
# _framework density 16.951184999999999
#
# number of rings (size 3 to 8) (size 9 to 14) (size 15 to 20)
#    0.000    3.200    0.000    2.400    0.000    5.600 
#    0.000    1.000    0.000    4.200    0.000    0.000 
#    0.000    0.000    0.000    0.000    0.000    0.000 
#
# Total GULP energy -222794.233369 kJ/mol
# GULP energy per Si atom -5569.855834 kJ/mol
# Density = 1.691260 g / cm^3
# Si number density = 16.951185 Si / 1000 Ang^3
#
#
#
# Elastic Constant Matrix: (Units=GPa)
#
#
# Indices 1 2 3 4 5 6 
#
# 1 33.4188 35.8668 48.6941 0.0000 0.0000 0.0000
# 2 35.8668 75.5354 94.1161 0.0000 0.0000 0.0000
# 3 48.6941 94.1161 180.0365 0.0000 0.0000 0.0000
# 4 0.0000 0.0000 0.0000 10.6553 0.0000 0.0000
# 5 0.0000 0.0000 0.0000 0.0000 -4.1807 0.0000
# 6 0.0000 0.0000 0.0000 0.0000 0.0000 19.5573
#
#
#
# Elastic Compliance Matrix: (Units=1/GPa)
#
#
# Indices 1 2 3 4 5 6 
#
# 1 0.061987 -0.024506 -0.003955 0.000000 0.000000 0.000000
# 2 -0.024506 0.047660 -0.018287 0.000000 0.000000 0.000000
# 3 -0.003955 -0.018287 0.016184 0.000000 0.000000 0.000000
# 4 0.000000 0.000000 0.000000 0.093850 0.000000 0.000000
# 5 0.000000 0.000000 0.000000 0.000000 -0.239193 0.000000
# 6 0.000000 0.000000 0.000000 0.000000 0.000000 0.051132
#
#
# Mechanical properties :
#
#
# Convention : Reuss Voigt Hill
#
# Bulk Modulus (GPa) = 30.92557 71.81607 51.37082
# Shear Modulus (GPa) = 36.79371 12.56063 24.67717
#
# Velocity S-wave (km/s) = 4.66399 2.72506 3.81961
# Velocity P-wave (km/s) = 6.87657 7.23600 7.05857
#
# Compressibility (1/GPa) = 0.03233570
#
# Stress axis : x y z
#
# Youngs Moduli (GPa) = 16.13250 20.98188 61.79072
#
# Poissons Ratio (x) = 0.51418 0.24436
# Poissons Ratio (y) = 0.39534 1.12995
# Poissons Ratio (z) = 0.06380 0.38369
#
# Static dielectric constant tensor:
#      x y z
#    x 1.541700 0.000000 0.000000 
#    y 0.000000 1.563440 0.000000 
#    z 0.000000 0.000000 1.579780 
# 
# From -- ./inp_files/13866.got.cif
#   From: 2010.05.17/outbox.cif.g08.bks.cpg/sg59_7_cif.got.tgz:13866.got - 2010.06.03 14:40:33.
