data_PCOD9449446
_publ_section_title
;
Structure prediction by ZEFSAII (Michael W. Deem and Ramdas Pophale) SiO2 
 PCOD9449446
Probable space group: P M M N
;
_chemical_formula_sum "Si O2"
_cell_formula_units_Z 40
_cell_length_a 9.490285
_cell_length_b 7.655846
_cell_length_c 26.520744
_cell_angle_alpha 90.000000
_cell_angle_beta 90.000000
_cell_angle_gamma 90.000000
_cell_volume 1926.895431
_symmetry_space_group_name_H-M "P M M N"
_symmetry_group_IT_number 59
_space_group.IT_coordinate_system_code '2'
_symmetry_cell_setting 'orthorhombic'
loop_
_space_group_symop_operation_xyz
x,y,z
1/2-x,1/2-y,z
1/2+x,-y,-z
-x,1/2+y,-z
-x,-y,-z
1/2+x,1/2+y,-z
1/2-x,y,z
x,1/2-y,z
loop_
_atom_site_type_symbol
_atom_site_label
_atom_site_fract_x
_atom_site_fract_y
_atom_site_fract_z
Si Si1 0.412384 0.463166 0.355674
Si Si2 0.412540 0.463366 0.242137
Si Si3 0.408843 0.958567 0.852224
Si Si4 0.909826 0.042466 0.950469
Si Si5 0.909358 0.460121 0.450668
O O1 0.250000 0.515252 0.364684
O O2 0.414283 0.250000 0.356008
O O3 0.452555 0.517365 0.298922
O O4 0.512592 0.525153 0.400325
O O5 0.250000 0.515155 0.232985
O O6 0.414165 0.250000 0.241631
O O7 0.513833 0.526859 0.197887
O O8 0.250000 0.027412 0.858998
O O9 0.397889 0.750000 0.845870
O O10 0.505424 0.986570 0.900940
O O11 0.750000 0.970084 0.952398
O O12 0.898566 0.250000 0.948306
O O13 0.000000 0.000000 0.000000
O O14 0.750000 0.526767 0.455231
O O15 0.902636 0.250000 0.446496
O O16 0.000000 0.500000 0.500000
#
# Coordination Sequence:
#
# PCOD9449446 Si02
#       5
#     8   8   8   8   8
#     4   8  14  26  45  69  97 129 165 205 249 297
#     4   8  14  26  46  72 101 133 167 203 246 295
#     4  10  20  33  52  80 110 138 169 205 247 296
#     4  11  24  40  58  80 105 135 172 211 252 299
#     4  10  20  32  48  71  98 130 168 209 255 305
#
# _framework density 20.758780999999999
#
# number of rings (size 3 to 8) (size 9 to 14) (size 15 to 20)
#    0.000    2.600    0.000    3.600    0.000    7.200 
#    0.000    4.000    0.000    1.200    0.000    8.400 
#    0.000    0.000    0.000    0.000    0.000    0.000 
#
# Total GULP energy -223330.151904 kJ/mol
# GULP energy per Si atom -5583.253798 kJ/mol
# Density = 2.071153 g / cm^3
# Si number density = 20.758781 Si / 1000 Ang^3
#
#
#
# Elastic Constant Matrix: (Units=GPa)
#
#
# Indices 1 2 3 4 5 6 
#
# 1 205.4431 7.2411 152.5699 0.0000 0.0000 0.0000
# 2 7.2411 39.4909 1.3249 0.0000 0.0000 0.0000
# 3 152.5699 1.3249 211.7051 0.0000 0.0000 0.0000
# 4 0.0000 0.0000 0.0000 17.9966 0.0000 0.0000
# 5 0.0000 0.0000 0.0000 0.0000 44.5900 0.0000
# 6 0.0000 0.0000 0.0000 0.0000 0.0000 12.5627
#
#
#
# Elastic Compliance Matrix: (Units=1/GPa)
#
#
# Indices 1 2 3 4 5 6 
#
# 1 0.010583 -0.001685 -0.007616 0.000000 0.000000 0.000000
# 2 -0.001685 0.025596 0.001054 0.000000 0.000000 0.000000
# 3 -0.007616 0.001054 0.010206 0.000000 0.000000 0.000000
# 4 0.000000 0.000000 0.000000 0.055566 0.000000 0.000000
# 5 0.000000 0.000000 0.000000 0.000000 0.022427 0.000000
# 6 0.000000 0.000000 0.000000 0.000000 0.000000 0.079600
#
#
# Mechanical properties :
#
#
# Convention : Reuss Voigt Hill
#
# Bulk Modulus (GPa) = 33.45556 86.54566 60.00061
# Shear Modulus (GPa) = 21.69798 34.73008 28.21403
#
# Velocity S-wave (km/s) = 3.23653 4.09471 3.69065
# Velocity P-wave (km/s) = 5.48800 8.00857 6.86496
#
# Compressibility (1/GPa) = 0.02989039
#
# Stress axis : x y z
#
# Youngs Moduli (GPa) = 94.48928 39.06872 97.98217
#
# Poissons Ratio (x) = 0.06583 0.74628
# Poissons Ratio (y) = 0.15922 -0.10329
# Poissons Ratio (z) = 0.71968 -0.04119
#
# Static dielectric constant tensor:
#      x y z
#    x 1.737850 0.000000 0.000000 
#    y 0.000000 1.801980 0.000000 
#    z 0.000000 0.000000 1.927430 
# 
# From -- ./inp_files/31139.got.cif
#   From: 2010.05.17/outbox.cif.g08.bks.cpg/sg59_16_cif.got.tgz:31139.got - 2010.06.03 14:40:33.
