data_PCOD9449028
_publ_section_title
;
Structure prediction by ZEFSAII (Michael W. Deem and Ramdas Pophale) SiO2 
 PCOD9449028
Probable space group: P M M N
;
_chemical_formula_sum "Si O2"
_cell_formula_units_Z 56
_cell_length_a 18.339728
_cell_length_b 19.651034
_cell_length_c 7.496939
_cell_angle_alpha 90.000000
_cell_angle_beta 90.000000
_cell_angle_gamma 90.000000
_cell_volume 2701.856471
_symmetry_space_group_name_H-M "P M M N"
_symmetry_group_IT_number 59
_space_group.IT_coordinate_system_code '2'
_symmetry_cell_setting 'orthorhombic'
loop_
_space_group_symop_operation_xyz
x,y,z
1/2-x,1/2-y,z
1/2+x,-y,-z
-x,1/2+y,-z
-x,-y,-z
1/2+x,1/2+y,-z
1/2-x,y,z
x,1/2-y,z
loop_
_atom_site_type_symbol
_atom_site_label
_atom_site_fract_x
_atom_site_fract_y
_atom_site_fract_z
Si Si1 0.171921 0.137731 0.752935
Si Si2 0.480733 0.173001 0.845755
Si Si3 0.617322 0.112934 0.649217
Si Si4 0.835798 0.966392 0.557928
Si Si5 0.837393 0.175744 0.289824
Si Si6 0.890959 0.581083 0.918875
Si Si7 0.334320 0.563518 0.986257
O O1 0.250000 0.168784 0.705602
O O2 0.096062 0.176616 0.738939
O O3 0.163121 0.070853 0.630799
O O4 0.170544 0.117259 0.960804
O O5 0.501734 0.250000 0.896093
O O6 0.539696 0.137405 0.720967
O O7 0.461408 0.122699 0.012147
O O8 0.645083 0.162504 0.495921
O O9 0.622243 0.037659 0.563474
O O10 0.664516 0.105855 0.829270
O O11 0.750000 0.978807 0.603081
O O12 0.871657 0.919792 0.711477
O O13 0.750000 0.175926 0.269147
O O14 0.865376 0.250000 0.234089
O O15 0.862411 0.113098 0.168016
O O16 0.884920 0.502170 0.979548
O O17 0.250000 0.542629 0.949148
#
# Coordination Sequence:
#
# PCOD9449028 Si02
#       7
#     8   8   8   8   8   8   8
#     4   9  19  37  59  83 114 147 188 249 297 340
#     4  10  24  41  56  82 119 162 203 234 290 357
#     4  11  21  37  58  82 123 154 185 237 291 345
#     4  10  19  34  62  95 113 140 191 241 301 356
#     4  10  21  36  56  84 117 158 202 236 282 348
#     4   9  19  36  59  83 114 145 189 244 290 339
#     4  10  20  36  61  92 117 149 196 244 294 344
#
# _framework density 20.726489999999998
#
# number of rings (size 3 to 8) (size 9 to 14) (size 15 to 20)
#    0.857    1.286    0.000    4.714    0.000    6.571 
#    2.571    2.143    0.000    0.857    0.000    0.000 
#    0.000    0.000    0.000    0.000    0.000    0.000 
#
# Total GULP energy -311859.972079 kJ/mol
# GULP energy per Si atom -5568.928073 kJ/mol
# Density = 2.067932 g / cm^3
# Si number density = 20.726490 Si / 1000 Ang^3
#
#
#
# Elastic Constant Matrix: (Units=GPa)
#
#
# Indices 1 2 3 4 5 6 
#
# 1 59.1935 28.7663 -4.3682 0.0000 0.0000 0.0000
# 2 28.7663 65.8168 2.1642 0.0000 0.0000 0.0000
# 3 -4.3682 2.1642 48.8921 0.0000 0.0000 0.0000
# 4 0.0000 0.0000 0.0000 -3.3624 0.0000 0.0000
# 5 0.0000 0.0000 0.0000 0.0000 17.2744 0.0000
# 6 0.0000 0.0000 0.0000 0.0000 0.0000 -48.7277
#
#
#
# Elastic Compliance Matrix: (Units=1/GPa)
#
#
# Indices 1 2 3 4 5 6 
#
# 1 0.021719 -0.009570 0.002364 0.000000 0.000000 0.000000
# 2 -0.009570 0.019433 -0.001715 0.000000 0.000000 0.000000
# 3 0.002364 -0.001715 0.020740 0.000000 0.000000 0.000000
# 4 0.000000 0.000000 0.000000 -0.297407 0.000000 0.000000
# 5 0.000000 0.000000 0.000000 0.000000 0.057889 0.000000
# 6 0.000000 0.000000 0.000000 0.000000 0.000000 -0.020522
#
#
# Mechanical properties :
#
#
# Convention : Reuss Voigt Hill
#
# Bulk Modulus (GPa) = 22.70182 25.22521 23.96351
# Shear Modulus (GPa) = -30.18941 2.85954 -13.66493
#
# Velocity S-wave (km/s) = -3.82063 1.17586 -2.57047
# Velocity P-wave (km/s) = 2.91310 3.74706 1.66648
#
# Compressibility (1/GPa) = 0.04404934
#
# Stress axis : x y z
#
# Youngs Moduli (GPa) = 46.04227 51.45876 48.21520
#
# Poissons Ratio (x) = 0.49248 -0.11399
# Poissons Ratio (y) = 0.44065 0.08270
# Poissons Ratio (z) = -0.10885 0.08826
#
# Static dielectric constant tensor:
#      x y z
#    x 1.763230 0.000000 0.000000 
#    y 0.000000 1.784270 0.000000 
#    z 0.000000 0.000000 1.730790 
# 
# From -- ./inp_files/11686.got.cif
#   From: 2010.05.17/outbox.cif.g08.bks.cpg/sg59_6_cif.got.tgz:11686.got - 2010.06.03 14:40:33.
