data_PCOD9449090
_publ_section_title
;
Structure prediction by ZEFSAII (Michael W. Deem and Ramdas Pophale) SiO2 
 PCOD9449090
Probable space group: P M M N
;
_chemical_formula_sum "Si O2"
_cell_formula_units_Z 64
_cell_length_a 18.725190
_cell_length_b 20.243697
_cell_length_c 8.965670
_cell_angle_alpha 90.000000
_cell_angle_beta 90.000000
_cell_angle_gamma 90.000000
_cell_volume 3398.590281
_symmetry_space_group_name_H-M "P M M N"
_symmetry_group_IT_number 59
_space_group.IT_coordinate_system_code '2'
_symmetry_cell_setting 'orthorhombic'
loop_
_space_group_symop_operation_xyz
x,y,z
1/2-x,1/2-y,z
1/2+x,-y,-z
-x,1/2+y,-z
-x,-y,-z
1/2+x,1/2+y,-z
1/2-x,y,z
x,1/2-y,z
loop_
_atom_site_type_symbol
_atom_site_label
_atom_site_fract_x
_atom_site_fract_y
_atom_site_fract_z
Si Si1 0.556246 0.618145 0.185360
Si Si2 0.868593 0.673264 0.739483
Si Si3 0.171834 0.171390 0.591434
Si Si4 0.333080 0.932137 0.223387
Si Si5 0.038353 0.673562 0.698997
Si Si6 0.830043 0.936673 0.975110
Si Si7 0.456251 0.563300 0.443478
Si Si8 0.921475 0.172880 0.970776
O O1 0.612855 0.656940 0.285923
O O2 0.503372 0.585696 0.303075
O O3 0.503456 0.660377 0.081507
O O4 0.604638 0.568481 0.089811
O O5 0.846227 0.750000 0.757740
O O6 0.846232 0.647511 0.575423
O O7 0.838008 0.626764 0.867231
O O8 0.954377 0.671611 0.739309
O O9 0.250000 0.146622 0.635695
O O10 0.174504 0.250000 0.576608
O O11 0.250000 0.917349 0.252418
O O12 0.377955 0.946671 0.373314
O O13 0.370594 0.873483 0.128459
O O14 0.337305 0.997856 0.123218
O O15 0.053971 0.750000 0.653427
O O16 0.048770 0.620327 0.568663
O O17 0.080585 0.658205 0.851920
O O18 0.750000 0.936333 0.041180
O O19 0.500000 0.500000 0.500000
O O20 0.904704 0.250000 0.949061
#
# Coordination Sequence:
#
# PCOD9449090 Si02
#       8
#     8   8   8   8   8   8   8   8
#     4  11  22  35  58  86 120 156 201 249 304 355
#     4  10  19  35  57  82 121 164 205 248 295 357
#     4  10  20  33  50  79 119 161 202 244 293 351
#     4  10  25  45  64  90 124 161 201 253 313 371
#     4  10  20  38  63  92 121 152 198 255 307 362
#     4  11  23  39  57  85 126 167 205 247 299 363
#     4  11  24  39  65  93 119 159 205 250 304 366
#     4  10  22  40  67  92 116 154 202 257 314 370
#
# _framework density 18.831337000000001
#
# number of rings (size 3 to 8) (size 9 to 14) (size 15 to 20)
#    0.000    1.625    2.500    1.875    1.750    4.500 
#    0.000    1.250    0.000    0.750    0.000    0.000 
#    0.000    0.000    0.000    0.000    0.000    0.000 
#
# Total GULP energy -357091.703054 kJ/mol
# GULP energy per Si atom -5579.557860 kJ/mol
# Density = 1.878848 g / cm^3
# Si number density = 18.831337 Si / 1000 Ang^3
#
#
#
# Elastic Constant Matrix: (Units=GPa)
#
#
# Indices 1 2 3 4 5 6 
#
# 1 113.6823 34.7465 41.0974 0.0000 0.0000 0.0000
# 2 34.7465 83.7855 46.4063 0.0000 0.0000 0.0000
# 3 41.0974 46.4063 97.2821 0.0000 0.0000 0.0000
# 4 0.0000 0.0000 0.0000 26.0697 0.0000 0.0000
# 5 0.0000 0.0000 0.0000 0.0000 19.7722 0.0000
# 6 0.0000 0.0000 0.0000 0.0000 0.0000 4.9078
#
#
#
# Elastic Compliance Matrix: (Units=1/GPa)
#
#
# Indices 1 2 3 4 5 6 
#
# 1 0.010799 -0.002652 -0.003297 0.000000 0.000000 0.000000
# 2 -0.002652 0.016873 -0.006928 0.000000 0.000000 0.000000
# 3 -0.003297 -0.006928 0.014977 0.000000 0.000000 0.000000
# 4 0.000000 0.000000 0.000000 0.038359 0.000000 0.000000
# 5 0.000000 0.000000 0.000000 0.000000 0.050576 0.000000
# 6 0.000000 0.000000 0.000000 0.000000 0.000000 0.203759
#
#
# Mechanical properties :
#
#
# Convention : Reuss Voigt Hill
#
# Bulk Modulus (GPa) = 59.19327 59.91671 59.55499
# Shear Modulus (GPa) = 13.63409 21.64993 17.64201
#
# Velocity S-wave (km/s) = 2.69366 3.39436 3.06411
# Velocity P-wave (km/s) = 6.41686 6.87378 6.64925
#
# Compressibility (1/GPa) = 0.01689381
#
# Stress axis : x y z
#
# Youngs Moduli (GPa) = 92.60135 59.26804 66.76877
#
# Poissons Ratio (x) = 0.15720 0.22012
# Poissons Ratio (y) = 0.24562 0.46258
# Poissons Ratio (z) = 0.30529 0.41062
#
# Static dielectric constant tensor:
#      x y z
#    x 1.667910 0.000000 0.000000 
#    y 0.000000 1.647450 0.000000 
#    z 0.000000 0.000000 1.670290 
# 
# From -- ./inp_files/10706.got.cif
#   From: 2010.05.17/outbox.cif.g08.bks.cpg/sg59_6_cif.got.tgz:10706.got - 2010.06.03 14:40:33.
