data_PCOD9449095
_publ_section_title
;
Structure prediction by ZEFSAII (Michael W. Deem and Ramdas Pophale) SiO2 
 PCOD9449095
Probable space group: P M M N
;
_chemical_formula_sum "Si O2"
_cell_formula_units_Z 40
_cell_length_a 10.362104
_cell_length_b 7.857013
_cell_length_c 24.644935
_cell_angle_alpha 90.000000
_cell_angle_beta 90.000000
_cell_angle_gamma 90.000000
_cell_volume 2006.471963
_symmetry_space_group_name_H-M "P M M N"
_symmetry_group_IT_number 59
_space_group.IT_coordinate_system_code '2'
_symmetry_cell_setting 'orthorhombic'
loop_
_space_group_symop_operation_xyz
x,y,z
1/2-x,1/2-y,z
1/2+x,-y,-z
-x,1/2+y,-z
-x,-y,-z
1/2+x,1/2+y,-z
1/2-x,y,z
x,1/2-y,z
loop_
_atom_site_type_symbol
_atom_site_label
_atom_site_fract_x
_atom_site_fract_y
_atom_site_fract_z
Si Si1 0.104116 0.547199 0.045053
Si Si2 0.750000 0.046838 0.579215
Si Si3 0.525863 0.046478 0.375125
Si Si4 0.103224 0.958745 0.745069
Si Si5 0.750000 0.041316 0.455147
Si Si6 0.604231 0.953517 0.832321
O O1 0.250000 0.481849 0.033338
O O2 0.110625 0.750000 0.046941
O O3 0.067554 0.486004 0.105286
O O4 0.000000 0.500000 0.000000
O O5 0.750000 0.250000 0.576962
O O6 0.750000 0.981578 0.517115
O O7 0.620510 0.991269 0.609396
O O8 0.542047 0.250000 0.373446
O O9 0.564288 0.983851 0.315380
O O10 0.624334 0.984370 0.421470
O O11 0.250000 0.010092 0.757090
O O12 0.101280 0.750000 0.745143
O O13 0.000353 0.018708 0.789572
O O14 0.750000 0.250000 0.456376
O O15 0.750000 0.021524 0.824028
O O16 0.610361 0.750000 0.824966
#
# Coordination Sequence:
#
# PCOD9449095 Si02
#       6
#     8   4   8   8   4   8
#     4  10  21  37  57  82 113 149 186 222 263 313
#     4  11  23  35  49  77 113 143 174 219 276 331
#     4  10  19  35  58  80 102 137 184 227 267 321
#     4   9  17  31  54  81 105 132 175 228 273 314
#     4   9  18  35  57  79 105 137 178 227 274 321
#     4   9  18  32  52  79 110 141 175 220 270 318
#
# _framework density 19.935489
#
# number of rings (size 3 to 8) (size 9 to 14) (size 15 to 20)
#    0.000    2.400    1.000    1.500    1.400    2.000 
#    0.000    4.500    0.000    1.200    0.000    0.000 
#    0.000    0.000    0.000    0.000    0.000    0.000 
#
# Total GULP energy -223305.240831 kJ/mol
# GULP energy per Si atom -5582.631021 kJ/mol
# Density = 1.989012 g / cm^3
# Si number density = 19.935489 Si / 1000 Ang^3
#
#
#
# Elastic Constant Matrix: (Units=GPa)
#
#
# Indices 1 2 3 4 5 6 
#
# 1 157.2898 -2.0168 104.6765 0.0000 0.0000 0.0000
# 2 -2.0168 18.8418 2.0198 0.0000 0.0000 0.0000
# 3 104.6765 2.0198 147.8562 0.0000 0.0000 0.0000
# 4 0.0000 0.0000 0.0000 16.0409 0.0000 0.0000
# 5 0.0000 0.0000 0.0000 0.0000 43.8620 0.0000
# 6 0.0000 0.0000 0.0000 0.0000 0.0000 -1.5294
#
#
#
# Elastic Compliance Matrix: (Units=1/GPa)
#
#
# Indices 1 2 3 4 5 6 
#
# 1 0.012114 0.002219 -0.008606 0.000000 0.000000 0.000000
# 2 0.002219 0.053558 -0.002303 0.000000 0.000000 0.000000
# 3 -0.008606 -0.002303 0.012888 0.000000 0.000000 0.000000
# 4 0.000000 0.000000 0.000000 0.062341 0.000000 0.000000
# 5 0.000000 0.000000 0.000000 0.000000 0.022799 0.000000
# 6 0.000000 0.000000 0.000000 0.000000 0.000000 -0.653851
#
#
# Mechanical properties :
#
#
# Convention : Reuss Voigt Hill
#
# Bulk Modulus (GPa) = 16.34533 59.26075 37.80304
# Shear Modulus (GPa) = -11.05266 26.29525 7.62129
#
# Velocity S-wave (km/s) = -2.35717 3.63577 1.95736
# Velocity P-wave (km/s) = 0.89921 6.88592 4.91042
#
# Compressibility (1/GPa) = 0.06117954
#
# Stress axis : x y z
#
# Youngs Moduli (GPa) = 82.55147 18.67139 77.59319
#
# Poissons Ratio (x) = -0.04144 0.66779
# Poissons Ratio (y) = -0.18320 0.17867
# Poissons Ratio (z) = 0.71046 0.04299
#
# Static dielectric constant tensor:
#      x y z
#    x 1.623320 0.000000 0.000000 
#    y 0.000000 1.716170 0.000000 
#    z 0.000000 0.000000 1.677670 
# 
# From -- ./inp_files/32403.got.cif
#   From: 2010.05.17/outbox.cif.g08.bks.cpg/sg59_17_cif.got.tgz:32403.got - 2010.06.03 14:40:33.
