data_PCOD9449493
_publ_section_title
;
Structure prediction by ZEFSAII (Michael W. Deem and Ramdas Pophale) SiO2 
 PCOD9449493
Probable space group: P M M N
;
_chemical_formula_sum "Si O2"
_cell_formula_units_Z 56
_cell_length_a 9.467711
_cell_length_b 21.905220
_cell_length_c 14.556525
_cell_angle_alpha 90.000000
_cell_angle_beta 90.000000
_cell_angle_gamma 90.000000
_cell_volume 3018.911088
_symmetry_space_group_name_H-M "P M M N"
_symmetry_group_IT_number 59
_space_group.IT_coordinate_system_code '2'
_symmetry_cell_setting 'orthorhombic'
loop_
_space_group_symop_operation_xyz
x,y,z
1/2-x,1/2-y,z
1/2+x,-y,-z
-x,1/2+y,-z
-x,-y,-z
1/2+x,1/2+y,-z
1/2-x,y,z
x,1/2-y,z
loop_
_atom_site_type_symbol
_atom_site_label
_atom_site_fract_x
_atom_site_fract_y
_atom_site_fract_z
Si Si1 0.417027 0.553667 0.727427
Si Si2 0.084929 0.821546 0.255404
Si Si3 0.915699 0.178487 0.962843
Si Si4 0.585091 0.750000 0.760348
Si Si5 0.918040 0.385127 0.466622
Si Si6 0.918764 0.250000 0.429218
Si Si7 0.417677 0.423403 0.636636
Si Si8 0.082927 0.374024 0.124735
O O1 0.250000 0.559991 0.748136
O O2 0.447498 0.595951 0.638400
O O3 0.444812 0.484961 0.693937
O O4 0.508642 0.574745 0.813510
O O5 0.250000 0.833125 0.278892
O O6 0.057509 0.750000 0.273618
O O7 0.068086 0.831670 0.145994
O O8 0.984450 0.866372 0.310115
O O9 0.750000 0.170392 0.985589
O O10 0.950962 0.250000 0.979570
O O11 0.010585 0.135952 0.026336
O O12 0.750000 0.750000 0.733270
O O13 0.491053 0.750000 0.669899
O O14 0.559504 0.689680 0.820493
O O15 0.750000 0.393618 0.481534
O O16 0.954105 0.313490 0.478833
O O17 0.006391 0.424445 0.538123
O O18 0.750000 0.250000 0.416366
O O19 0.250000 0.417470 0.625080
O O20 0.250000 0.384195 0.116557
#
# Coordination Sequence:
#
# PCOD9449493 Si02
#       8
#     8   8   8   4   8   4   8   8
#     4  10  22  40  58  80 112 152 195 231 267 329
#     4   9  20  40  63  85 110 144 189 235 278 333
#     4   9  18  34  58  85 112 146 186 228 277 333
#     4  10  20  32  48  79 120 149 174 223 280 330
#     4  10  21  37  58  82 111 148 190 231 274 329
#     4  10  20  34  56  83 108 145 190 229 272 326
#     4  11  24  39  58  84 112 145 188 236 285 331
#     4  11  21  33  54  86 120 150 182 225 281 334
#
# _framework density 18.549734999999998
#
# number of rings (size 3 to 8) (size 9 to 14) (size 15 to 20)
#    0.000    2.000    2.143    2.143    1.000    3.714 
#    0.000    2.143    0.000    0.000    0.000    0.000 
#    0.000    0.000    0.000    0.000    0.000    0.000 
#
# Total GULP energy -312758.954293 kJ/mol
# GULP energy per Si atom -5584.981327 kJ/mol
# Density = 1.850751 g / cm^3
# Si number density = 18.549735 Si / 1000 Ang^3
#
#
#
# Elastic Constant Matrix: (Units=GPa)
#
#
# Indices 1 2 3 4 5 6 
#
# 1 34.7679 30.6710 24.5372 0.0000 0.0000 0.0000
# 2 30.6710 62.9247 14.5187 0.0000 0.0000 0.0000
# 3 24.5372 14.5187 40.8808 0.0000 0.0000 0.0000
# 4 0.0000 0.0000 0.0000 23.1861 0.0000 0.0000
# 5 0.0000 0.0000 0.0000 0.0000 31.4817 0.0000
# 6 0.0000 0.0000 0.0000 0.0000 0.0000 26.7942
#
#
#
# Elastic Compliance Matrix: (Units=1/GPa)
#
#
# Indices 1 2 3 4 5 6 
#
# 1 0.085506 -0.032499 -0.039780 0.000000 0.000000 0.000000
# 2 -0.032499 0.029663 0.008972 0.000000 0.000000 0.000000
# 3 -0.039780 0.008972 0.045151 0.000000 0.000000 0.000000
# 4 0.000000 0.000000 0.000000 0.043129 0.000000 0.000000
# 5 0.000000 0.000000 0.000000 0.000000 0.031764 0.000000
# 6 0.000000 0.000000 0.000000 0.000000 0.000000 0.037322
#
#
# Mechanical properties :
#
#
# Convention : Reuss Voigt Hill
#
# Bulk Modulus (GPa) = 29.66850 30.89190 30.28020
# Shear Modulus (GPa) = 12.18368 20.88217 16.53293
#
# Velocity S-wave (km/s) = 2.56561 3.35884 2.98866
# Velocity P-wave (km/s) = 4.98049 5.63313 5.31683
#
# Compressibility (1/GPa) = 0.03370578
#
# Stress axis : x y z
#
# Youngs Moduli (GPa) = 11.69509 33.71228 22.14776
#
# Poissons Ratio (x) = 1.09562 0.88103
# Poissons Ratio (y) = 0.38008 -0.19870
# Poissons Ratio (z) = 0.46523 -0.30246
#
# Static dielectric constant tensor:
#      x y z
#    x 1.609910 0.000000 0.000000 
#    y 0.000000 1.645910 0.000000 
#    z 0.000000 0.000000 1.625860 
# 
# From -- ./inp_files/21130.got.cif
#   From: 2010.05.17/outbox.cif.g08.bks.cpg/sg59_11_cif.got.tgz:21130.got - 2010.06.03 14:40:33.
