data_PCOD9449375
_publ_section_title
;
Structure prediction by ZEFSAII (Michael W. Deem and Ramdas Pophale) SiO2 
 PCOD9449375
Probable space group: P M M N
;
_chemical_formula_sum "Si O2"
_cell_formula_units_Z 56
_cell_length_a 7.948711
_cell_length_b 25.105549
_cell_length_c 14.351126
_cell_angle_alpha 90.000000
_cell_angle_beta 90.000000
_cell_angle_gamma 90.000000
_cell_volume 2863.864114
_symmetry_space_group_name_H-M "P M M N"
_symmetry_group_IT_number 59
_space_group.IT_coordinate_system_code '2'
_symmetry_cell_setting 'orthorhombic'
loop_
_space_group_symop_operation_xyz
x,y,z
1/2-x,1/2-y,z
1/2+x,-y,-z
-x,1/2+y,-z
-x,-y,-z
1/2+x,1/2+y,-z
1/2-x,y,z
x,1/2-y,z
loop_
_atom_site_type_symbol
_atom_site_label
_atom_site_fract_x
_atom_site_fract_y
_atom_site_fract_z
Si Si1 0.050249 0.411331 0.843328
Si Si2 0.953001 0.190404 0.725014
Si Si3 0.551386 0.100883 0.054997
Si Si4 0.947212 0.689307 0.815305
Si Si5 0.955850 0.189735 0.510524
Si Si6 0.946192 0.114765 0.350338
Si Si7 0.455839 0.523729 0.778608
O O1 0.250000 0.416590 0.850357
O O2 0.986931 0.462978 0.786398
O O3 0.009854 0.356554 0.791703
O O4 0.982763 0.411762 0.948271
O O5 0.750000 0.190869 0.725297
O O6 0.009944 0.250000 0.752456
O O7 0.006302 0.181194 0.617692
O O8 0.750000 0.106824 0.068492
O O9 0.469756 0.155701 0.090330
O O10 0.494442 0.054615 0.126372
O O11 0.750000 0.689387 0.791101
O O12 0.005838 0.750000 0.823249
O O13 0.041184 0.656867 0.734524
O O14 0.750000 0.189295 0.507738
O O15 0.006645 0.250000 0.482464
O O16 0.019489 0.144576 0.440196
O O17 0.750000 0.104759 0.370791
O O18 0.017508 0.059932 0.307622
O O19 0.250000 0.524319 0.774707
#
# Coordination Sequence:
#
# PCOD9449375 Si02
#       7
#     8   8   8   8   8   8   8
#     4  11  21  34  52  73 100 131 162 200 251 300
#     4   9  19  36  54  73  98 128 168 212 246 284
#     4  10  20  35  54  73  94 127 172 210 242 286
#     4  10  20  32  46  71 107 137 160 195 247 300
#     4   8  14  27  51  78  99 125 165 210 247 279
#     4   9  16  30  53  77 100 129 167 204 241 288
#     4   8  17  32  50  75 103 129 158 198 244 293
#
# _framework density 19.553999999999998
#
# number of rings (size 3 to 8) (size 9 to 14) (size 15 to 20)
#    0.000    2.714    0.000    3.857    0.000    2.571 
#    0.000    7.857    0.000    0.857    0.000    0.000 
#    0.000    0.000    0.000    0.000    0.000    0.000 
#
# Total GULP energy -312282.058736 kJ/mol
# GULP energy per Si atom -5576.465335 kJ/mol
# Density = 1.950949 g / cm^3
# Si number density = 19.554000 Si / 1000 Ang^3
#
#
#
# Elastic Constant Matrix: (Units=GPa)
#
#
# Indices 1 2 3 4 5 6 
#
# 1 17.7368 -0.6148 -0.5563 0.0000 0.0000 0.0000
# 2 -0.6148 108.9217 28.5938 0.0000 0.0000 0.0000
# 3 -0.5563 28.5938 51.5011 0.0000 0.0000 0.0000
# 4 0.0000 0.0000 0.0000 25.0726 0.0000 0.0000
# 5 0.0000 0.0000 0.0000 0.0000 -0.1838 0.0000
# 6 0.0000 0.0000 0.0000 0.0000 0.0000 3.2492
#
#
#
# Elastic Compliance Matrix: (Units=1/GPa)
#
#
# Indices 1 2 3 4 5 6 
#
# 1 0.056402 0.000185 0.000506 0.000000 0.000000 0.000000
# 2 0.000185 0.010748 -0.005965 0.000000 0.000000 0.000000
# 3 0.000506 -0.005965 0.022735 0.000000 0.000000 0.000000
# 4 0.000000 0.000000 0.000000 0.039884 0.000000 0.000000
# 5 0.000000 0.000000 0.000000 0.000000 -5.439996 0.000000
# 6 0.000000 0.000000 0.000000 0.000000 0.000000 0.307765
#
#
# Mechanical properties :
#
#
# Convention : Reuss Voigt Hill
#
# Bulk Modulus (GPa) = 12.60436 25.88942 19.24689
# Shear Modulus (GPa) = -1.00695 15.67674 7.33489
#
# Velocity S-wave (km/s) = -0.71839 2.83453 1.93888
# Velocity P-wave (km/s) = 2.40246 4.89709 3.85702
#
# Compressibility (1/GPa) = 0.07933766
#
# Stress axis : x y z
#
# Youngs Moduli (GPa) = 17.72977 93.04093 43.98593
#
# Poissons Ratio (x) = -0.01726 -0.02227
# Poissons Ratio (y) = -0.00329 0.26239
# Poissons Ratio (z) = -0.00898 0.55502
#
# Static dielectric constant tensor:
#      x y z
#    x 1.706870 0.000000 0.000000 
#    y 0.000000 1.699730 0.000000 
#    z 0.000000 0.000000 1.670880 
# 
# From -- ./inp_files/20920.got.cif
#   From: 2010.05.17/outbox.cif.g08.bks.cpg/sg59_11_cif.got.tgz:20920.got - 2010.06.03 14:40:33.
