data_PCOD9449507
_publ_section_title
;
Structure prediction by ZEFSAII (Michael W. Deem and Ramdas Pophale) SiO2 
 PCOD9449507
Probable space group: P M M N
;
_chemical_formula_sum "Si O2"
_cell_formula_units_Z 40
_cell_length_a 7.744953
_cell_length_b 14.116274
_cell_length_c 19.001072
_cell_angle_alpha 90.000000
_cell_angle_beta 90.000000
_cell_angle_gamma 90.000000
_cell_volume 2077.384896
_symmetry_space_group_name_H-M "P M M N"
_symmetry_group_IT_number 59
_space_group.IT_coordinate_system_code '2'
_symmetry_cell_setting 'orthorhombic'
loop_
_space_group_symop_operation_xyz
x,y,z
1/2-x,1/2-y,z
1/2+x,-y,-z
-x,1/2+y,-z
-x,-y,-z
1/2+x,1/2+y,-z
1/2-x,y,z
x,1/2-y,z
loop_
_atom_site_type_symbol
_atom_site_label
_atom_site_fract_x
_atom_site_fract_y
_atom_site_fract_z
Si Si1 0.042603 0.144781 0.037362
Si Si2 0.541536 0.141489 0.749114
Si Si3 0.046502 0.645903 0.543619
Si Si4 0.458484 0.954012 0.107595
Si Si5 0.955871 0.947678 0.400266
O O1 0.250000 0.147191 0.045031
O O2 0.975176 0.250000 0.052364
O O3 0.977231 0.058754 0.086068
O O4 0.004279 0.114660 0.957168
O O5 0.750000 0.144347 0.753048
O O6 0.479062 0.250000 0.748699
O O7 0.478249 0.086254 0.818310
O O8 0.494638 0.089758 0.676961
O O9 0.250000 0.650464 0.559983
O O10 0.971386 0.750000 0.557929
O O11 0.975876 0.554158 0.584759
O O12 0.028601 0.620202 0.461192
O O13 0.250000 0.958311 0.110687
O O14 0.750000 0.949007 0.410576
#
# Coordination Sequence:
#
# PCOD9449507 Si02
#       5
#     8   8   8   8   8
#     4   9  17  30  49  72  96 121 152 195 241 276
#     4  10  20  33  48  67  95 129 158 187 230 281
#     4   9  18  34  53  70  93 126 157 187 230 281
#     4   9  18  32  49  69  94 125 160 192 226 278
#     4  10  20  32  49  74  98 120 154 197 233 270
#
# _framework density 19.254977
#
# number of rings (size 3 to 8) (size 9 to 14) (size 15 to 20)
#    0.000    2.600    0.000    1.800    0.000    6.000 
#    0.000    1.000    0.000    1.200    0.000    0.000 
#    0.000    0.000    0.000    0.000    0.000    0.000 
#
# Total GULP energy -223135.241528 kJ/mol
# GULP energy per Si atom -5578.381038 kJ/mol
# Density = 1.921115 g / cm^3
# Si number density = 19.254977 Si / 1000 Ang^3
#
#
#
# Elastic Constant Matrix: (Units=GPa)
#
#
# Indices 1 2 3 4 5 6 
#
# 1 27.9449 3.0027 -9.0725 0.0000 0.0000 0.0000
# 2 3.0027 170.6834 72.3181 0.0000 0.0000 0.0000
# 3 -9.0725 72.3181 120.3857 0.0000 0.0000 0.0000
# 4 0.0000 0.0000 0.0000 11.4661 0.0000 0.0000
# 5 0.0000 0.0000 0.0000 0.0000 22.2466 0.0000
# 6 0.0000 0.0000 0.0000 0.0000 0.0000 13.7955
#
#
#
# Elastic Compliance Matrix: (Units=1/GPa)
#
#
# Indices 1 2 3 4 5 6 
#
# 1 0.037454 -0.002488 0.004317 0.000000 0.000000 0.000000
# 2 -0.002488 0.008024 -0.005008 0.000000 0.000000 0.000000
# 3 0.004317 -0.005008 0.011640 0.000000 0.000000 0.000000
# 4 0.000000 0.000000 0.000000 0.087213 0.000000 0.000000
# 5 0.000000 0.000000 0.000000 0.000000 0.044951 0.000000
# 6 0.000000 0.000000 0.000000 0.000000 0.000000 0.072488
#
#
# Mechanical properties :
#
#
# Convention : Reuss Voigt Hill
#
# Bulk Modulus (GPa) = 19.70025 50.16786 34.93405
# Shear Modulus (GPa) = 17.54092 26.35269 21.94680
#
# Velocity S-wave (km/s) = 3.02152 3.70350 3.37975
# Velocity P-wave (km/s) = 4.73564 6.66325 5.78036
#
# Compressibility (1/GPa) = 0.05076077
#
# Stress axis : x y z
#
# Youngs Moduli (GPa) = 26.69970 124.61959 85.90798
#
# Poissons Ratio (x) = 0.31006 -0.37088
# Poissons Ratio (y) = 0.06643 0.43022
# Poissons Ratio (z) = -0.11527 0.62409
#
# Static dielectric constant tensor:
#      x y z
#    x 1.715250 0.000000 0.000000 
#    y 0.000000 1.708860 0.000000 
#    z 0.000000 0.000000 1.622170 
# 
# From -- ./inp_files/25315.got.cif
#   From: 2010.05.17/outbox.cif.g08.bks.cpg/sg59_13_cif.got.tgz:25315.got - 2010.06.03 14:40:33.
