data_PCOD9449143
_publ_section_title
;
Structure prediction by ZEFSAII (Michael W. Deem and Ramdas Pophale) SiO2 
 PCOD9449143
Probable space group: P M M N
;
_chemical_formula_sum "Si O2"
_cell_formula_units_Z 64
_cell_length_a 19.296296
_cell_length_b 8.520245
_cell_length_c 20.413988
_cell_angle_alpha 90.000000
_cell_angle_beta 90.000000
_cell_angle_gamma 90.000000
_cell_volume 3356.246814
_symmetry_space_group_name_H-M "P M M N"
_symmetry_group_IT_number 59
_space_group.IT_coordinate_system_code '2'
_symmetry_cell_setting 'orthorhombic'
loop_
_space_group_symop_operation_xyz
x,y,z
1/2-x,1/2-y,z
1/2+x,-y,-z
-x,1/2+y,-z
-x,-y,-z
1/2+x,1/2+y,-z
1/2-x,y,z
x,1/2-y,z
loop_
_atom_site_type_symbol
_atom_site_label
_atom_site_fract_x
_atom_site_fract_y
_atom_site_fract_z
Si Si1 0.938684 0.936378 0.288151
Si Si2 0.581837 0.938028 0.654215
Si Si3 0.170729 0.058646 0.221415
Si Si4 0.436816 0.939954 0.859659
Si Si5 0.670609 0.439439 0.032659
Si Si6 0.169831 0.939999 0.611445
Si Si7 0.586800 0.939478 0.907969
Si Si8 0.577442 0.062285 0.512087
O O1 0.944524 0.750000 0.291441
O O2 0.938454 0.991600 0.213025
O O3 0.870468 0.992885 0.326196
O O4 0.004730 0.010799 0.325032
O O5 0.583614 0.750000 0.650876
O O6 0.632953 0.991738 0.712118
O O7 0.600366 0.005542 0.583545
O O8 0.250000 0.005888 0.217750
O O9 0.170650 0.250000 0.221595
O O10 0.127414 0.010237 0.157746
O O11 0.437569 0.750000 0.854094
O O12 0.370014 0.988358 0.901675
O O13 0.506679 0.986106 0.898791
O O14 0.750000 0.496235 0.029292
O O15 0.672019 0.250000 0.032361
O O16 0.625624 0.493983 0.970843
O O17 0.250000 0.987386 0.609117
O O18 0.167103 0.750000 0.614482
O O19 0.128194 0.990215 0.546243
O O20 0.589119 0.750000 0.911473
O O21 0.575224 0.250000 0.511216
O O22 0.500000 0.000000 0.500000
#
# Coordination Sequence:
#
# PCOD9449143 Si02
#       8
#     8   8   8   8   8   8   8   8
#     4  12  24  38  61  91 121 153 197 252 301 351
#     4  11  21  37  60  85 119 159 197 239 291 356
#     4   9  18  33  55  84 115 150 193 237 287 346
#     4  10  21  39  61  84 114 155 201 243 293 359
#     4  10  22  38  56  83 119 154 190 237 295 358
#     4  10  23  43  65  88 120 163 204 244 298 361
#     4  10  19  35  60  85 112 152 198 244 289 345
#     4  11  22  37  61  90 119 154 198 244 294 350
#
# _framework density 19.068919000000001
#
# number of rings (size 3 to 8) (size 9 to 14) (size 15 to 20)
#    0.000    1.625    2.500    2.625    0.000    3.500 
#    0.000    1.250    0.000    1.875    0.000    0.000 
#    0.000    0.000    0.000    0.000    0.000    0.000 
#
# Total GULP energy -357629.509824 kJ/mol
# GULP energy per Si atom -5587.961091 kJ/mol
# Density = 1.902552 g / cm^3
# Si number density = 19.068919 Si / 1000 Ang^3
#
#
#
# Elastic Constant Matrix: (Units=GPa)
#
#
# Indices 1 2 3 4 5 6 
#
# 1 125.7264 21.2727 48.5741 0.0000 0.0000 0.0000
# 2 21.2727 21.4175 13.3789 0.0000 0.0000 0.0000
# 3 48.5741 13.3789 96.7532 0.0000 0.0000 0.0000
# 4 0.0000 0.0000 0.0000 31.4956 0.0000 0.0000
# 5 0.0000 0.0000 0.0000 0.0000 33.2287 0.0000
# 6 0.0000 0.0000 0.0000 0.0000 0.0000 16.5891
#
#
#
# Elastic Compliance Matrix: (Units=1/GPa)
#
#
# Indices 1 2 3 4 5 6 
#
# 1 0.011048 -0.008219 -0.004410 0.000000 0.000000 0.000000
# 2 -0.008219 0.057219 -0.003786 0.000000 0.000000 0.000000
# 3 -0.004410 -0.003786 0.013073 0.000000 0.000000 0.000000
# 4 0.000000 0.000000 0.000000 0.031750 0.000000 0.000000
# 5 0.000000 0.000000 0.000000 0.000000 0.030094 0.000000
# 6 0.000000 0.000000 0.000000 0.000000 0.000000 0.060281
#
#
# Mechanical properties :
#
#
# Convention : Reuss Voigt Hill
#
# Bulk Modulus (GPa) = 20.61407 45.59428 33.10417
# Shear Modulus (GPa) = 19.80468 26.97411 23.38940
#
# Velocity S-wave (km/s) = 3.22620 3.76514 3.50604
# Velocity P-wave (km/s) = 4.97108 6.54705 5.81272
#
# Compressibility (1/GPa) = 0.04851056
#
# Stress axis : x y z
#
# Youngs Moduli (GPa) = 90.51229 17.47677 76.49228
#
# Poissons Ratio (x) = 0.14363 0.33735
# Poissons Ratio (y) = 0.74388 0.28960
# Poissons Ratio (z) = 0.39918 0.06617
#
# Static dielectric constant tensor:
#      x y z
#    x 1.654110 0.000000 0.000000 
#    y 0.000000 1.647730 0.000000 
#    z 0.000000 0.000000 1.635900 
# 
# From -- ./inp_files/30834.got.cif
#   From: 2010.05.17/outbox.cif.g08.bks.cpg/sg59_16_cif.got.tgz:30834.got - 2010.06.03 14:40:33.
