data_PCOD9449358
_publ_section_title
;
Structure prediction by ZEFSAII (Michael W. Deem and Ramdas Pophale) SiO2 
 PCOD9449358
Probable space group: P M M N
;
_chemical_formula_sum "Si O2"
_cell_formula_units_Z 64
_cell_length_a 9.539252
_cell_length_b 23.821107
_cell_length_c 18.322623
_cell_angle_alpha 90.000000
_cell_angle_beta 90.000000
_cell_angle_gamma 90.000000
_cell_volume 4163.551179
_symmetry_space_group_name_H-M "P M M N"
_symmetry_group_IT_number 59
_space_group.IT_coordinate_system_code '2'
_symmetry_cell_setting 'orthorhombic'
loop_
_space_group_symop_operation_xyz
x,y,z
1/2-x,1/2-y,z
1/2+x,-y,-z
-x,1/2+y,-z
-x,-y,-z
1/2+x,1/2+y,-z
1/2-x,y,z
x,1/2-y,z
loop_
_atom_site_type_symbol
_atom_site_label
_atom_site_fract_x
_atom_site_fract_y
_atom_site_fract_z
Si Si1 0.417021 0.683580 0.218562
Si Si2 0.918644 0.316157 0.229854
Si Si3 0.082607 0.120764 0.355544
Si Si4 0.082762 0.621268 0.367268
Si Si5 0.082592 0.498573 0.423528
Si Si6 0.910744 0.181776 0.063803
Si Si7 0.915786 0.683818 0.493689
Si Si8 0.410673 0.181694 0.925615
O O1 0.250000 0.677778 0.205438
O O2 0.443232 0.750000 0.233393
O O3 0.456354 0.646833 0.288844
O O4 0.502407 0.666780 0.146653
O O5 0.750000 0.320538 0.237465
O O6 0.954830 0.250000 0.239780
O O7 0.953442 0.332908 0.146336
O O8 0.997871 0.354013 0.288201
O O9 0.250000 0.124033 0.341638
O O10 0.051554 0.157438 0.427677
O O11 0.046907 0.056907 0.377424
O O12 0.250000 0.629602 0.375327
O O13 0.053910 0.555405 0.378774
O O14 0.003449 0.654073 0.430918
O O15 0.250000 0.496156 0.438895
O O16 0.000000 0.500000 0.500000
O O17 0.750000 0.163681 0.051129
O O18 0.909359 0.250000 0.062277
O O19 0.011576 0.162395 0.999172
O O20 0.750000 0.674657 0.480607
O O21 0.942889 0.750000 0.494244
O O22 0.250000 0.162862 0.922186
O O23 0.410001 0.250000 0.927793
#
# Coordination Sequence:
#
# PCOD9449358 Si02
#       8
#     8   8   8   8   8   8   8   8
#     4   9  17  29  44  64  93 124 151 184 230 279
#     4   9  18  31  47  70  98 126 158 194 230 274
#     4  10  20  33  48  67  93 125 157 191 238 287
#     4  10  20  33  50  70  90 118 159 202 238 274
#     4  10  20  35  53  70  89 117 158 204 242 280
#     4   8  14  26  43  63  91 125 155 184 223 270
#     4  10  20  32  46  66  94 126 155 185 231 289
#     4   9  16  25  40  65  94 123 155 185 217 267
#
# _framework density 15.371494
#
# number of rings (size 3 to 8) (size 9 to 14) (size 15 to 20)
#    0.000    2.625    1.250    1.875    0.000    5.000 
#    0.000    2.500    0.000    0.000    0.000    0.875 
#    0.000    0.000    0.000    0.000    0.000    0.000 
#
# Total GULP energy -356695.341343 kJ/mol
# GULP energy per Si atom -5573.364708 kJ/mol
# Density = 1.533651 g / cm^3
# Si number density = 15.371494 Si / 1000 Ang^3
#
#
#
# Elastic Constant Matrix: (Units=GPa)
#
#
# Indices 1 2 3 4 5 6 
#
# 1 48.2627 38.5757 67.2833 0.0000 0.0000 0.0000
# 2 38.5757 68.9928 59.5950 0.0000 0.0000 0.0000
# 3 67.2833 59.5950 138.1725 0.0000 0.0000 0.0000
# 4 0.0000 0.0000 0.0000 0.6869 0.0000 0.0000
# 5 0.0000 0.0000 0.0000 0.0000 4.6149 0.0000
# 6 0.0000 0.0000 0.0000 0.0000 0.0000 17.9103
#
#
#
# Elastic Compliance Matrix: (Units=1/GPa)
#
#
# Indices 1 2 3 4 5 6 
#
# 1 0.074684 -0.016486 -0.029257 0.000000 0.000000 0.000000
# 2 -0.016486 0.026740 -0.003505 0.000000 0.000000 0.000000
# 3 -0.029257 -0.003505 0.022996 0.000000 0.000000 0.000000
# 4 0.000000 0.000000 0.000000 1.455790 0.000000 0.000000
# 5 0.000000 0.000000 0.000000 0.000000 0.216689 0.000000
# 6 0.000000 0.000000 0.000000 0.000000 0.000000 0.055834
#
#
# Mechanical properties :
#
#
# Convention : Reuss Voigt Hill
#
# Bulk Modulus (GPa) = 38.57519 65.14845 51.86182
# Shear Modulus (GPa) = 2.55119 10.64071 6.59595
#
# Velocity S-wave (km/s) = 1.28969 2.63389 2.07373
# Velocity P-wave (km/s) = 5.23139 7.19198 6.28856
#
# Compressibility (1/GPa) = 0.02592340
#
# Stress axis : x y z
#
# Youngs Moduli (GPa) = 13.38968 37.39745 43.48602
#
# Poissons Ratio (x) = 0.61654 1.27227
# Poissons Ratio (y) = 0.22074 0.15243
# Poissons Ratio (z) = 0.39174 0.13108
#
# Static dielectric constant tensor:
#      x y z
#    x 1.513420 0.000000 0.000000 
#    y 0.000000 1.496330 0.000000 
#    z 0.000000 0.000000 1.493120 
# 
# From -- ./inp_files/26355.got.cif
#   From: 2010.05.17/outbox.cif.g08.bks.cpg/sg59_14_cif.got.tgz:26355.got - 2010.06.03 14:40:33.
