data_PCOD9449855
_publ_section_title
;
Structure prediction by ZEFSAII (Michael W. Deem and Ramdas Pophale) SiO2 
 PCOD9449855
Probable space group: P M M N
;
_chemical_formula_sum "Si O2"
_cell_formula_units_Z 40
_cell_length_a 13.855888
_cell_length_b 15.279215
_cell_length_c 11.126797
_cell_angle_alpha 90.000000
_cell_angle_beta 90.000000
_cell_angle_gamma 90.000000
_cell_volume 2355.621834
_symmetry_space_group_name_H-M "P M M N"
_symmetry_group_IT_number 59
_space_group.IT_coordinate_system_code '2'
_symmetry_cell_setting 'orthorhombic'
loop_
_space_group_symop_operation_xyz
x,y,z
1/2-x,1/2-y,z
1/2+x,-y,-z
-x,1/2+y,-z
-x,-y,-z
1/2+x,1/2+y,-z
1/2-x,y,z
x,1/2-y,z
loop_
_atom_site_type_symbol
_atom_site_label
_atom_site_fract_x
_atom_site_fract_y
_atom_site_fract_z
Si Si1 0.366236 0.250000 0.181993
Si Si2 0.365510 0.250000 0.458139
Si Si3 0.858784 0.250000 0.553513
Si Si4 0.865581 0.573910 0.956689
Si Si5 0.979861 0.079411 0.840382
Si Si6 0.504614 0.597619 0.444276
Si Si7 0.139051 0.750000 0.154486
O O1 0.250000 0.250000 0.190027
O O2 0.400443 0.250000 0.319293
O O3 0.392510 0.335389 0.107456
O O4 0.250000 0.250000 0.462901
O O5 0.406502 0.160956 0.518228
O O6 0.750000 0.250000 0.508557
O O7 0.857300 0.250000 0.699448
O O8 0.915043 0.338841 0.519216
O O9 0.750000 0.568242 0.970749
O O10 0.907437 0.499277 0.870228
O O11 0.923412 0.567907 0.081611
O O12 0.921943 0.165535 0.881143
O O13 0.002186 0.086847 0.699652
O O14 0.500000 0.500000 0.500000
O O15 0.250000 0.750000 0.111783
#
# Coordination Sequence:
#
# PCOD9449855 Si02
#       7
#     4   4   4   8   8   8   4
#     4   9  18  33  53  74  97 133 172 206 256 310
#     4  10  21  35  52  79 109 135 172 218 265 322
#     4   8  17  32  49  71  97 128 172 214 249 303
#     4  10  20  34  52  74 103 135 172 219 258 301
#     4  10  20  33  51  77 102 133 176 212 258 313
#     4  10  20  34  53  77 106 140 174 216 267 317
#     4   9  16  30  51  72  97 126 161 208 251 295
#
# _framework density 16.980654000000001
#
# number of rings (size 3 to 8) (size 9 to 14) (size 15 to 20)
#    0.000    2.400    0.000    3.000    0.000    2.400 
#    0.000    1.000    0.000    0.000    0.000    8.400 
#    0.000    0.000    0.000    0.000    0.000    0.000 
#
# Total GULP energy -222848.080688 kJ/mol
# GULP energy per Si atom -5571.202017 kJ/mol
# Density = 1.694201 g / cm^3
# Si number density = 16.980654 Si / 1000 Ang^3
#
#
#
# Elastic Constant Matrix: (Units=GPa)
#
#
# Indices 1 2 3 4 5 6 
#
# 1 114.0605 47.7209 31.3957 0.0000 0.0000 0.0000
# 2 47.7209 149.3169 29.1336 0.0000 0.0000 0.0000
# 3 31.3957 29.1336 67.5331 0.0000 0.0000 0.0000
# 4 0.0000 0.0000 0.0000 29.8151 0.0000 0.0000
# 5 0.0000 0.0000 0.0000 0.0000 9.6828 0.0000
# 6 0.0000 0.0000 0.0000 0.0000 0.0000 33.3664
#
#
#
# Elastic Compliance Matrix: (Units=1/GPa)
#
#
# Indices 1 2 3 4 5 6 
#
# 1 0.010998 -0.002749 -0.003927 0.000000 0.000000 0.000000
# 2 -0.002749 0.008000 -0.002173 0.000000 0.000000 0.000000
# 3 -0.003927 -0.002173 0.017571 0.000000 0.000000 0.000000
# 4 0.000000 0.000000 0.000000 0.033540 0.000000 0.000000
# 5 0.000000 0.000000 0.000000 0.000000 0.103276 0.000000
# 6 0.000000 0.000000 0.000000 0.000000 0.000000 0.029970
#
#
# Mechanical properties :
#
#
# Convention : Reuss Voigt Hill
#
# Bulk Modulus (GPa) = 52.99285 60.82344 56.90814
# Shear Modulus (GPa) = 21.99316 29.41688 25.70502
#
# Velocity S-wave (km/s) = 3.60278 4.16670 3.89496
# Velocity P-wave (km/s) = 6.97009 7.68411 7.33579
#
# Compressibility (1/GPa) = 0.01887047
#
# Stress axis : x y z
#
# Youngs Moduli (GPa) = 90.92321 125.00527 56.91263
#
# Poissons Ratio (x) = 0.34361 0.22351
# Poissons Ratio (y) = 0.24992 0.12368
# Poissons Ratio (z) = 0.35708 0.27166
#
# Static dielectric constant tensor:
#      x y z
#    x 1.572540 0.000000 0.000000 
#    y 0.000000 1.919980 0.000000 
#    z 0.000000 0.000000 1.562730 
# 
# From -- ./inp_files/8683.got.cif
#   From: 2010.05.17/outbox.cif.g08.bks.cpg/sg59_5_cif.got.tgz:8683.got - 2010.06.03 14:40:33.
