data_PCOD9449982
_publ_section_title
;
Structure prediction by ZEFSAII (Michael W. Deem and Ramdas Pophale) SiO2 
 PCOD9449982
Probable space group: P M M N
;
_chemical_formula_sum "Si O2"
_cell_formula_units_Z 48
_cell_length_a 24.234304
_cell_length_b 7.810474
_cell_length_c 11.206493
_cell_angle_alpha 90.000000
_cell_angle_beta 90.000000
_cell_angle_gamma 90.000000
_cell_volume 2121.180699
_symmetry_space_group_name_H-M "P M M N"
_symmetry_group_IT_number 59
_space_group.IT_coordinate_system_code '2'
_symmetry_cell_setting 'orthorhombic'
loop_
_space_group_symop_operation_xyz
x,y,z
1/2-x,1/2-y,z
1/2+x,-y,-z
-x,1/2+y,-z
-x,-y,-z
1/2+x,1/2+y,-z
1/2-x,y,z
x,1/2-y,z
loop_
_atom_site_type_symbol
_atom_site_label
_atom_site_fract_x
_atom_site_fract_y
_atom_site_fract_z
Si Si1 0.313466 0.044964 0.278811
Si Si2 0.517958 0.039940 0.801229
Si Si3 0.311677 0.951584 0.835157
Si Si4 0.412883 0.953357 0.431736
Si Si5 0.091802 0.050418 0.695795
Si Si6 0.884040 0.049361 0.950744
O O1 0.250000 0.988800 0.286629
O O2 0.314361 0.250000 0.264147
O O3 0.350591 0.998577 0.392728
O O4 0.344610 0.964882 0.165158
O O5 0.517741 0.250000 0.804106
O O6 0.549189 0.988477 0.678724
O O7 0.455336 0.980202 0.784968
O O8 0.556591 0.977193 0.909275
O O9 0.250000 0.023715 0.828014
O O10 0.306172 0.750000 0.861306
O O11 0.348882 0.968408 0.718008
O O12 0.349639 0.028532 0.940454
O O13 0.418460 0.750000 0.440321
O O14 0.427028 0.029189 0.559735
O O15 0.097822 0.250000 0.719923
O O16 0.893182 0.250000 0.976040
#
# Coordination Sequence:
#
# PCOD9449982 Si02
#       6
#     8   8   8   8   8   8
#     4  10  20  33  52  81 113 141 175 224 278 326
#     4   8  17  34  57  85 111 135 170 220 274 324
#     4  10  22  39  57  78 107 146 189 226 261 310
#     4  10  20  36  57  79 107 144 184 223 265 320
#     4  11  22  36  55  80 112 145 177 219 271 324
#     4   9  18  36  60  82 106 139 181 225 268 318
#
# _framework density 22.628909
#
# number of rings (size 3 to 8) (size 9 to 14) (size 15 to 20)
#    0.000    2.333    0.000    3.500    0.000    4.333 
#    0.000    7.500    0.000    0.000    0.000    0.000 
#    0.000    0.000    0.000    0.000    0.000    0.000 
#
# Total GULP energy -268075.480681 kJ/mol
# GULP energy per Si atom -5584.905848 kJ/mol
# Density = 2.257740 g / cm^3
# Si number density = 22.628909 Si / 1000 Ang^3
#
#
#
# Elastic Constant Matrix: (Units=GPa)
#
#
# Indices 1 2 3 4 5 6 
#
# 1 139.6569 2.6845 23.0582 0.0000 0.0000 0.0000
# 2 2.6845 39.1348 6.5820 0.0000 0.0000 0.0000
# 3 23.0582 6.5820 43.2869 0.0000 0.0000 0.0000
# 4 0.0000 0.0000 0.0000 14.9514 0.0000 0.0000
# 5 0.0000 0.0000 0.0000 0.0000 21.7364 0.0000
# 6 0.0000 0.0000 0.0000 0.0000 0.0000 10.5460
#
#
#
# Elastic Compliance Matrix: (Units=1/GPa)
#
#
# Indices 1 2 3 4 5 6 
#
# 1 0.007852 0.000169 -0.004208 0.000000 0.000000 0.000000
# 2 0.000169 0.026227 -0.004078 0.000000 0.000000 0.000000
# 3 -0.004208 -0.004078 0.025963 0.000000 0.000000 0.000000
# 4 0.000000 0.000000 0.000000 0.066883 0.000000 0.000000
# 5 0.000000 0.000000 0.000000 0.000000 0.046006 0.000000
# 6 0.000000 0.000000 0.000000 0.000000 0.000000 0.094822
#
#
# Mechanical properties :
#
#
# Convention : Reuss Voigt Hill
#
# Bulk Modulus (GPa) = 22.82689 31.85867 27.34278
# Shear Modulus (GPa) = 16.74531 22.09703 19.42117
#
# Velocity S-wave (km/s) = 2.72324 3.12828 2.93276
# Velocity P-wave (km/s) = 4.47185 5.21129 4.85566
#
# Compressibility (1/GPa) = 0.04380798
#
# Stress axis : x y z
#
# Youngs Moduli (GPa) = 127.35644 38.12868 38.51564
#
# Poissons Ratio (x) = -0.00645 0.16209
# Poissons Ratio (y) = -0.02155 0.15707
# Poissons Ratio (z) = 0.53596 0.15549
#
# Static dielectric constant tensor:
#      x y z
#    x 1.867250 0.000000 0.000000 
#    y 0.000000 1.816940 0.000000 
#    z 0.000000 0.000000 1.848120 
# 
# From -- ./inp_files/14382.got.cif
#   From: 2010.05.17/outbox.cif.g08.bks.cpg/sg59_8_cif.got.tgz:14382.got - 2010.06.03 14:40:33.
