data_PCOD9449157
_publ_section_title
;
Structure prediction by ZEFSAII (Michael W. Deem and Ramdas Pophale) SiO2 
 PCOD9449157
Probable space group: P M M N
;
_chemical_formula_sum "Si O2"
_cell_formula_units_Z 64
_cell_length_a 15.812124
_cell_length_b 21.730787
_cell_length_c 9.880087
_cell_angle_alpha 90.000000
_cell_angle_beta 90.000000
_cell_angle_gamma 90.000000
_cell_volume 3394.895693
_symmetry_space_group_name_H-M "P M M N"
_symmetry_group_IT_number 59
_space_group.IT_coordinate_system_code '2'
_symmetry_cell_setting 'orthorhombic'
loop_
_space_group_symop_operation_xyz
x,y,z
1/2-x,1/2-y,z
1/2+x,-y,-z
-x,1/2+y,-z
-x,-y,-z
1/2+x,1/2+y,-z
1/2-x,y,z
x,1/2-y,z
loop_
_atom_site_type_symbol
_atom_site_label
_atom_site_fract_x
_atom_site_fract_y
_atom_site_fract_z
Si Si1 0.610110 0.449177 0.770395
Si Si2 0.153764 0.909237 0.516160
Si Si3 0.547234 0.318483 0.850723
Si Si4 0.156057 0.033021 0.986200
Si Si5 0.445933 0.967566 0.754728
Si Si6 0.049432 0.139541 0.105575
Si Si7 0.003221 0.178150 0.550215
Si Si8 0.154076 0.177276 0.362475
O O1 0.656084 0.441775 0.629040
O O2 0.601265 0.381377 0.837943
O O3 0.519312 0.481228 0.738006
O O4 0.653550 0.494858 0.874784
O O5 0.250000 0.890332 0.553059
O O6 0.111591 0.954028 0.625868
O O7 0.083365 0.855680 0.493686
O O8 0.587904 0.250000 0.837523
O O9 0.490087 0.324762 0.713857
O O10 0.501014 0.320573 0.995809
O O11 0.250000 0.048460 0.945281
O O12 0.111124 0.991611 0.875964
O O13 0.102497 0.093494 0.012117
O O14 0.488060 0.903924 0.805384
O O15 0.112136 0.169895 0.214283
O O16 0.995360 0.250000 0.513420
O O17 0.085489 0.152348 0.471490
O O18 0.250000 0.151328 0.367590
O O19 0.161073 0.250000 0.390160
#
# Coordination Sequence:
#
# PCOD9449157 Si02
#       8
#     8   8   8   8   8   8   8   8
#     4  10  20  38  58  82 114 150 188 241 288 338
#     4  11  22  36  59  87 113 150 196 241 288 344
#     4  10  19  35  61  84 109 149 195 232 283 347
#     4  11  21  35  56  83 116 151 187 229 287 350
#     4  11  20  37  58  80 116 154 184 234 293 347
#     4  11  19  36  56  86 112 151 188 234 288 341
#     4   9  20  38  59  83 115 156 191 238 297 341
#     4  10  20  36  58  83 113 150 194 239 286 342
#
# _framework density 18.851832000000002
#
# number of rings (size 3 to 8) (size 9 to 14) (size 15 to 20)
#    0.000    1.625    3.750    2.625    0.000    0.250 
#    0.000    1.250    0.000    4.125    0.000    0.000 
#    0.000    0.000    0.000    0.000    0.000    0.000 
#
# Total GULP energy -356637.417056 kJ/mol
# GULP energy per Si atom -5572.459641 kJ/mol
# Density = 1.880892 g / cm^3
# Si number density = 18.851832 Si / 1000 Ang^3
#
#
#
# Elastic Constant Matrix: (Units=GPa)
#
#
# Indices 1 2 3 4 5 6 
#
# 1 148.3014 7.8922 -6.6238 0.0000 0.0000 0.0000
# 2 7.8922 56.1020 8.2583 0.0000 0.0000 0.0000
# 3 -6.6238 8.2583 58.6790 0.0000 0.0000 0.0000
# 4 0.0000 0.0000 0.0000 24.1454 0.0000 0.0000
# 5 0.0000 0.0000 0.0000 0.0000 -38.6750 0.0000
# 6 0.0000 0.0000 0.0000 0.0000 0.0000 -3.8043
#
#
#
# Elastic Compliance Matrix: (Units=1/GPa)
#
#
# Indices 1 2 3 4 5 6 
#
# 1 0.006843 -0.001099 0.000927 0.000000 0.000000 0.000000
# 2 -0.001099 0.018378 -0.002711 0.000000 0.000000 0.000000
# 3 0.000927 -0.002711 0.017528 0.000000 0.000000 0.000000
# 4 0.000000 0.000000 0.000000 0.041416 0.000000 0.000000
# 5 0.000000 0.000000 0.000000 0.000000 -0.025857 0.000000
# 6 0.000000 0.000000 0.000000 0.000000 0.000000 -0.262863
#
#
# Mechanical properties :
#
#
# Convention : Reuss Voigt Hill
#
# Bulk Modulus (GPa) = 27.03862 31.34841 29.19351
# Shear Modulus (GPa) = -26.81523 13.23694 -6.78914
#
# Velocity S-wave (km/s) = -3.77559 2.65270 -1.89977
# Velocity P-wave (km/s) = 2.15243 5.10366 3.27219
#
# Compressibility (1/GPa) = 0.03698414
#
# Stress axis : x y z
#
# Youngs Moduli (GPa) = 146.13628 54.41199 57.05152
#
# Poissons Ratio (x) = 0.05980 -0.05289
# Poissons Ratio (y) = 0.16062 0.15464
# Poissons Ratio (z) = -0.13549 0.14749
#
# Static dielectric constant tensor:
#      x y z
#    x 1.673450 0.000000 0.000000 
#    y 0.000000 2.083150 0.000000 
#    z 0.000000 0.000000 1.653020 
# 
# From -- ./inp_files/9598.got.cif
#   From: 2010.05.17/outbox.cif.g08.bks.cpg/sg59_5_cif.got.tgz:9598.got - 2010.06.03 14:40:33.
