data_PCOD9449969
_publ_section_title
;
Structure prediction by ZEFSAII (Michael W. Deem and Ramdas Pophale) SiO2 
 PCOD9449969
Probable space group: P M M N
;
_chemical_formula_sum "Si O2"
_cell_formula_units_Z 64
_cell_length_a 14.421872
_cell_length_b 8.730928
_cell_length_c 27.331259
_cell_angle_alpha 90.000000
_cell_angle_beta 90.000000
_cell_angle_gamma 90.000000
_cell_volume 3441.451720
_symmetry_space_group_name_H-M "P M M N"
_symmetry_group_IT_number 59
_space_group.IT_coordinate_system_code '2'
_symmetry_cell_setting 'orthorhombic'
loop_
_space_group_symop_operation_xyz
x,y,z
1/2-x,1/2-y,z
1/2+x,-y,-z
-x,1/2+y,-z
-x,-y,-z
1/2+x,1/2+y,-z
1/2-x,y,z
x,1/2-y,z
loop_
_atom_site_type_symbol
_atom_site_label
_atom_site_fract_x
_atom_site_fract_y
_atom_site_fract_z
Si Si1 0.855280 0.064917 0.664889
Si Si2 0.444430 0.933985 0.234461
Si Si3 0.355726 0.573133 0.887441
Si Si4 0.016394 0.929136 0.053152
Si Si5 0.142458 0.066677 0.135814
Si Si6 0.643836 0.064968 0.481404
Si Si7 0.850959 0.566567 0.220267
Si Si8 0.961967 0.933346 0.574693
O O1 0.750000 0.017869 0.652989
O O2 0.859324 0.250000 0.663226
O O3 0.881750 0.016981 0.719927
O O4 0.926591 0.999433 0.625670
O O5 0.436390 0.750000 0.229393
O O6 0.552212 0.970133 0.246258
O O7 0.412976 0.005576 0.183141
O O8 0.250000 0.563719 0.905417
O O9 0.387007 0.750000 0.891634
O O10 0.423143 0.463301 0.916593
O O11 0.354969 0.521780 0.831117
O O12 0.034376 0.750000 0.048698
O O13 0.096691 0.004632 0.086081
O O14 0.000000 0.000000 0.000000
O O15 0.250000 0.019368 0.139701
O O16 0.137739 0.250000 0.135620
O O17 0.750000 0.017746 0.471770
O O18 0.642605 0.250000 0.485618
O O19 0.566957 0.022003 0.440746
O O20 0.605334 0.996195 0.531998
O O21 0.750000 0.531540 0.243356
O O22 0.852309 0.750000 0.210890
O O23 0.956985 0.750000 0.575442
#
# Coordination Sequence:
#
# PCOD9449969 Si02
#       8
#     8   8   8   8   8   8   8   8
#     4  10  21  36  53  76 111 153 193 232 280 336
#     4  10  20  36  59  84 111 149 191 231 273 327
#     4  10  20  35  57  84 112 141 175 217 266 322
#     4  12  25  41  61  84 113 148 184 226 275 330
#     4  11  24  41  61  86 116 148 184 230 282 335
#     4   9  18  34  55  77 106 146 186 226 282 346
#     4   9  17  31  54  83 110 138 175 219 268 319
#     4  10  20  33  52  80 110 141 185 238 284 330
#
# _framework density 18.596803999999999
#
# number of rings (size 3 to 8) (size 9 to 14) (size 15 to 20)
#    0.000    1.875    1.250    3.000    0.000    5.750 
#    0.000    0.625    0.000    0.750    0.000    0.000 
#    0.000    0.000    0.000    0.000    0.000    0.000 
#
# Total GULP energy -357154.575602 kJ/mol
# GULP energy per Si atom -5580.540244 kJ/mol
# Density = 1.855448 g / cm^3
# Si number density = 18.596804 Si / 1000 Ang^3
#
#
#
# Elastic Constant Matrix: (Units=GPa)
#
#
# Indices 1 2 3 4 5 6 
#
# 1 131.4673 28.0314 39.6182 0.0000 0.0000 0.0000
# 2 28.0314 31.7656 20.0310 0.0000 0.0000 0.0000
# 3 39.6182 20.0310 77.7834 0.0000 0.0000 0.0000
# 4 0.0000 0.0000 0.0000 27.4450 0.0000 0.0000
# 5 0.0000 0.0000 0.0000 0.0000 19.2124 0.0000
# 6 0.0000 0.0000 0.0000 0.0000 0.0000 25.8777
#
#
#
# Elastic Compliance Matrix: (Units=1/GPa)
#
#
# Indices 1 2 3 4 5 6 
#
# 1 0.010066 -0.006745 -0.003390 0.000000 0.000000 0.000000
# 2 -0.006745 0.042104 -0.007407 0.000000 0.000000 0.000000
# 3 -0.003390 -0.007407 0.016490 0.000000 0.000000 0.000000
# 4 0.000000 0.000000 0.000000 0.036436 0.000000 0.000000
# 5 0.000000 0.000000 0.000000 0.000000 0.052050 0.000000
# 6 0.000000 0.000000 0.000000 0.000000 0.000000 0.038643
#
#
# Mechanical properties :
#
#
# Convention : Reuss Voigt Hill
#
# Bulk Modulus (GPa) = 29.78348 46.26417 38.02383
# Shear Modulus (GPa) = 20.65548 24.72942 22.69245
#
# Velocity S-wave (km/s) = 3.33633 3.65055 3.49697
# Velocity P-wave (km/s) = 5.55802 6.53454 6.06596
#
# Compressibility (1/GPa) = 0.03357566
#
# Stress axis : x y z
#
# Youngs Moduli (GPa) = 99.34148 23.75085 60.64120
#
# Poissons Ratio (x) = 0.16020 0.20558
# Poissons Ratio (y) = 0.67008 0.44917
# Poissons Ratio (z) = 0.33678 0.17592
#
# Static dielectric constant tensor:
#      x y z
#    x 1.681260 0.000000 0.000000 
#    y 0.000000 1.629300 0.000000 
#    z 0.000000 0.000000 1.604240 
# 
# From -- ./inp_files/32100.got.cif
#   From: 2010.05.17/outbox.cif.g08.bks.cpg/sg59_17_cif.got.tgz:32100.got - 2010.06.03 14:40:33.
