data_PCOD9449149
_publ_section_title
;
Structure prediction by ZEFSAII (Michael W. Deem and Ramdas Pophale) SiO2 
 PCOD9449149
Probable space group: P M M N
;
_chemical_formula_sum "Si O2"
_cell_formula_units_Z 64
_cell_length_a 25.868205
_cell_length_b 8.665650
_cell_length_c 14.753047
_cell_angle_alpha 90.000000
_cell_angle_beta 90.000000
_cell_angle_gamma 90.000000
_cell_volume 3307.113987
_symmetry_space_group_name_H-M "P M M N"
_symmetry_group_IT_number 59
_space_group.IT_coordinate_system_code '2'
_symmetry_cell_setting 'orthorhombic'
loop_
_space_group_symop_operation_xyz
x,y,z
1/2-x,1/2-y,z
1/2+x,-y,-z
-x,1/2+y,-z
-x,-y,-z
1/2+x,1/2+y,-z
1/2-x,y,z
x,1/2-y,z
loop_
_atom_site_type_symbol
_atom_site_label
_atom_site_fract_x
_atom_site_fract_y
_atom_site_fract_z
Si Si1 0.868545 0.935545 0.085681
Si Si2 0.190851 0.435248 0.731102
Si Si3 0.018314 0.932653 0.904534
Si Si4 0.595315 0.065137 0.377351
Si Si5 0.809635 0.562224 0.906831
Si Si6 0.310045 0.063915 0.297574
Si Si7 0.493849 0.565179 0.281959
Si Si8 0.098448 0.935888 0.413926
O O1 0.877542 0.750000 0.082606
O O2 0.827754 0.964817 0.165865
O O3 0.922101 0.017941 0.107313
O O4 0.845994 0.987365 0.988875
O O5 0.250000 0.484663 0.717439
O O6 0.188240 0.250000 0.717758
O O7 0.149712 0.514292 0.665305
O O8 0.013093 0.750000 0.905330
O O9 0.987466 0.999834 0.818934
O O10 0.000000 0.000000 0.000000
O O11 0.590526 0.250000 0.372811
O O12 0.591916 0.014357 0.482162
O O13 0.548601 0.990932 0.321179
O O14 0.750000 0.515368 0.922481
O O15 0.809917 0.750000 0.907583
O O16 0.824720 0.514174 0.805147
O O17 0.250000 0.021321 0.312072
O O18 0.312950 0.250000 0.300603
O O19 0.348621 0.994770 0.370325
O O20 0.493782 0.750000 0.277944
O O21 0.448792 0.512125 0.350069
O O22 0.098704 0.750000 0.413547
#
# Coordination Sequence:
#
# PCOD9449149 Si02
#       8
#     8   8   8   8   8   8   8   8
#     4  10  19  35  60  88 120 156 199 245 295 355
#     4  10  21  37  60  90 124 165 208 251 304 365
#     4  12  26  42  61  89 125 162 198 242 297 359
#     4  11  23  41  62  88 120 158 200 251 311 366
#     4   8  15  30  54  84 115 148 189 235 281 338
#     4   9  19  36  58  87 121 156 198 246 295 353
#     4  11  23  43  66  90 120 155 199 253 305 364
#     4  10  24  41  61  88 118 155 202 251 307 367
#
# _framework density 19.352219999999999
#
# number of rings (size 3 to 8) (size 9 to 14) (size 15 to 20)
#    0.000    1.875    1.250    3.375    1.750    4.500 
#    0.000    2.500    0.000    1.875    0.000    0.000 
#    0.000    0.000    0.000    0.000    0.000    0.000 
#
# Total GULP energy -357590.930015 kJ/mol
# GULP energy per Si atom -5587.358281 kJ/mol
# Density = 1.930817 g / cm^3
# Si number density = 19.352220 Si / 1000 Ang^3
#
#
#
# Elastic Constant Matrix: (Units=GPa)
#
#
# Indices 1 2 3 4 5 6 
#
# 1 81.0805 26.4525 49.4679 0.0000 0.0000 0.0000
# 2 26.4525 38.4047 39.4352 0.0000 0.0000 0.0000
# 3 49.4679 39.4352 146.9077 0.0000 0.0000 0.0000
# 4 0.0000 0.0000 0.0000 28.7577 0.0000 0.0000
# 5 0.0000 0.0000 0.0000 0.0000 14.9874 0.0000
# 6 0.0000 0.0000 0.0000 0.0000 0.0000 16.2290
#
#
#
# Elastic Compliance Matrix: (Units=1/GPa)
#
#
# Indices 1 2 3 4 5 6 
#
# 1 0.017187 -0.008139 -0.003602 0.000000 0.000000 0.000000
# 2 -0.008139 0.039801 -0.007943 0.000000 0.000000 0.000000
# 3 -0.003602 -0.007943 0.010152 0.000000 0.000000 0.000000
# 4 0.000000 0.000000 0.000000 0.034773 0.000000 0.000000
# 5 0.000000 0.000000 0.000000 0.000000 0.066723 0.000000
# 6 0.000000 0.000000 0.000000 0.000000 0.000000 0.061618
#
#
# Mechanical properties :
#
#
# Convention : Reuss Voigt Hill
#
# Bulk Modulus (GPa) = 36.00933 55.23380 45.62156
# Shear Modulus (GPa) = 17.92885 22.06396 19.99641
#
# Velocity S-wave (km/s) = 3.04707 3.38024 3.21797
# Velocity P-wave (km/s) = 5.57021 6.62102 6.11822
#
# Compressibility (1/GPa) = 0.02777058
#
# Stress axis : x y z
#
# Youngs Moduli (GPa) = 58.18497 25.12510 98.49930
#
# Poissons Ratio (x) = 0.20448 0.35484
# Poissons Ratio (y) = 0.47355 0.78242
# Poissons Ratio (z) = 0.20961 0.19958
#
# Static dielectric constant tensor:
#      x y z
#    x 1.656260 0.000000 0.000000 
#    y 0.000000 1.656790 0.000000 
#    z 0.000000 0.000000 1.677970 
# 
# From -- ./inp_files/24692.got.cif
#   From: 2010.05.17/outbox.cif.g08.bks.cpg/sg59_13_cif.got.tgz:24692.got - 2010.06.03 14:40:33.
