data_PCOD9449229
_publ_section_title
;
Structure prediction by ZEFSAII (Michael W. Deem and Ramdas Pophale) SiO2 
 PCOD9449229
Probable space group: P M M N
;
_chemical_formula_sum "Si O2"
_cell_formula_units_Z 32
_cell_length_a 15.251158
_cell_length_b 8.089542
_cell_length_c 12.123778
_cell_angle_alpha 90.000000
_cell_angle_beta 90.000000
_cell_angle_gamma 90.000000
_cell_volume 1495.769695
_symmetry_space_group_name_H-M "P M M N"
_symmetry_group_IT_number 59
_space_group.IT_coordinate_system_code '2'
_symmetry_cell_setting 'orthorhombic'
loop_
_space_group_symop_operation_xyz
x,y,z
1/2-x,1/2-y,z
1/2+x,-y,-z
-x,1/2+y,-z
-x,-y,-z
1/2+x,1/2+y,-z
1/2-x,y,z
x,1/2-y,z
loop_
_atom_site_type_symbol
_atom_site_label
_atom_site_fract_x
_atom_site_fract_y
_atom_site_fract_z
Si Si1 0.642175 0.250000 0.031723
Si Si2 0.647867 0.929150 0.157994
Si Si3 0.595521 0.565421 0.632179
Si Si4 0.145186 0.750000 0.223145
Si Si5 0.385161 0.939554 0.603798
O O1 0.750000 0.250000 0.038821
O O2 0.617627 0.250000 0.904158
O O3 0.609464 0.413594 0.094630
O O4 0.750000 0.921026 0.125035
O O5 0.607033 0.750000 0.135378
O O6 0.645905 0.965167 0.288296
O O7 0.622187 0.750000 0.668777
O O8 0.615001 0.415615 0.714414
O O9 0.636357 0.523366 0.512566
O O10 0.490744 0.566336 0.614090
O O11 0.250000 0.750000 0.225640
O O12 0.353657 0.750000 0.605417
#
# Coordination Sequence:
#
# PCOD9449229 Si02
#       5
#     4   8   8   4   8
#     4   9  20  39  57  79 115 153 195 240 284 332
#     4  10  20  34  58  87 113 148 191 239 290 336
#     4  10  22  38  59  87 116 153 191 229 289 350
#     4  11  24  41  61  83 114 157 197 236 281 338
#     4  10  19  36  62  86 117 154 185 232 291 347
#
# _framework density 21.393668999999999
#
# number of rings (size 3 to 8) (size 9 to 14) (size 15 to 20)
#    0.000    2.000    2.500    0.750    3.500    2.500 
#    0.000    3.750    0.000    0.000    0.000    0.000 
#    0.000    0.000    0.000    0.000    0.000    0.000 
#
# Total GULP energy -178765.451186 kJ/mol
# GULP energy per Si atom -5586.420350 kJ/mol
# Density = 2.134498 g / cm^3
# Si number density = 21.393669 Si / 1000 Ang^3
#
#
#
# Elastic Constant Matrix: (Units=GPa)
#
#
# Indices 1 2 3 4 5 6 
#
# 1 35.2954 10.8782 -4.6879 0.0000 0.0000 0.0000
# 2 10.8782 241.1848 94.2360 0.0000 0.0000 0.0000
# 3 -4.6879 94.2360 133.1883 0.0000 0.0000 0.0000
# 4 0.0000 0.0000 0.0000 -291.2943 0.0000 0.0000
# 5 0.0000 0.0000 0.0000 0.0000 25.3569 0.0000
# 6 0.0000 0.0000 0.0000 0.0000 0.0000 9.2811
#
#
#
# Elastic Compliance Matrix: (Units=1/GPa)
#
#
# Indices 1 2 3 4 5 6 
#
# 1 0.029433 -0.002394 0.002730 0.000000 0.000000 0.000000
# 2 -0.002394 0.005925 -0.004277 0.000000 0.000000 0.000000
# 3 0.002730 -0.004277 0.010630 0.000000 0.000000 0.000000
# 4 0.000000 0.000000 0.000000 -0.003433 0.000000 0.000000
# 5 0.000000 0.000000 0.000000 0.000000 0.039437 0.000000
# 6 0.000000 0.000000 0.000000 0.000000 0.000000 0.107745
#
#
# Mechanical properties :
#
#
# Convention : Reuss Voigt Hill
#
# Bulk Modulus (GPa) = 26.24224 67.83565 47.03895
# Shear Modulus (GPa) = 23.77318 -30.71511 -3.47096
#
# Velocity S-wave (km/s) = 3.33712 -3.79319 -1.27513
# Velocity P-wave (km/s) = 5.20975 3.54863 4.45726
#
# Compressibility (1/GPa) = 0.03810650
#
# Stress axis : x y z
#
# Youngs Moduli (GPa) = 33.97568 168.77325 94.07281
#
# Poissons Ratio (x) = 0.40407 -0.25681
# Poissons Ratio (y) = 0.08134 0.40230
# Poissons Ratio (z) = -0.09275 0.72176
#
# Static dielectric constant tensor:
#      x y z
#    x 1.805880 0.000000 0.000000 
#    y 0.000000 1.796030 0.000000 
#    z 0.000000 0.000000 1.728170 
# 
# From -- ./inp_files/16484.got.cif
#   From: 2010.05.17/outbox.cif.g08.bks.cpg/sg59_9_cif.got.tgz:16484.got - 2010.06.03 14:40:33.
