data_PCOD9449252
_publ_section_title
;
Structure prediction by ZEFSAII (Michael W. Deem and Ramdas Pophale) SiO2 
 PCOD9449252
Probable space group: P M M N
;
_chemical_formula_sum "Si O2"
_cell_formula_units_Z 56
_cell_length_a 8.034056
_cell_length_b 23.641141
_cell_length_c 13.802090
_cell_angle_alpha 90.000000
_cell_angle_beta 90.000000
_cell_angle_gamma 90.000000
_cell_volume 2621.489622
_symmetry_space_group_name_H-M "P M M N"
_symmetry_group_IT_number 59
_space_group.IT_coordinate_system_code '2'
_symmetry_cell_setting 'orthorhombic'
loop_
_space_group_symop_operation_xyz
x,y,z
1/2-x,1/2-y,z
1/2+x,-y,-z
-x,1/2+y,-z
-x,-y,-z
1/2+x,1/2+y,-z
1/2-x,y,z
x,1/2-y,z
loop_
_atom_site_type_symbol
_atom_site_label
_atom_site_fract_x
_atom_site_fract_y
_atom_site_fract_z
Si Si1 0.449143 0.750000 0.683995
Si Si2 0.048032 0.250000 0.092570
Si Si3 0.445509 0.871047 0.607765
Si Si4 0.945405 0.977544 0.712936
Si Si5 0.554552 0.918970 0.404741
Si Si6 0.953641 0.689141 0.284109
Si Si7 0.553114 0.665350 0.069478
Si Si8 0.550757 0.462312 0.909711
O O1 0.250000 0.750000 0.671323
O O2 0.483551 0.750000 0.798647
O O3 0.511503 0.808954 0.637196
O O4 0.250000 0.250000 0.099947
O O5 0.991504 0.303322 0.026759
O O6 0.250000 0.865931 0.586038
O O7 0.531227 0.898333 0.514080
O O8 0.468964 0.917915 0.691259
O O9 0.750000 0.966126 0.724794
O O10 0.008159 0.009164 0.809504
O O11 0.969533 0.022529 0.625862
O O12 0.750000 0.926846 0.385173
O O13 0.489005 0.866832 0.339221
O O14 0.750000 0.687228 0.285248
O O15 0.002566 0.750000 0.327614
O O16 0.011690 0.687226 0.172839
O O17 0.750000 0.677109 0.071109
O O18 0.523805 0.599083 0.072250
O O19 0.750000 0.457070 0.903587
O O20 0.500000 0.500000 0.000000
#
# Coordination Sequence:
#
# PCOD9449252 Si02
#       8
#     4   4   8   8   8   8   8   8
#     4  10  26  48  65  88 124 167 210 259 314 374
#     4  10  22  38  65  94 124 163 206 257 300 358
#     4  11  25  45  66  88 122 164 208 259 317 374
#     4  11  24  43  65  93 126 162 209 260 311 372
#     4  11  22  38  66  97 126 163 205 256 312 369
#     4   9  17  32  57  90 126 159 195 239 292 358
#     4  10  19  37  62  91 124 159 199 243 300 363
#     4  11  25  41  61  89 124 161 203 254 307 367
#
# _framework density 21.361901
#
# number of rings (size 3 to 8) (size 9 to 14) (size 15 to 20)
#    0.000    1.571    2.143    2.143    3.000    3.429 
#    0.000    0.000    0.000    1.714    0.000    0.000 
#    0.000    0.000    0.000    0.000    0.000    0.000 
#
# Total GULP energy -312899.605083 kJ/mol
# GULP energy per Si atom -5587.492948 kJ/mol
# Density = 2.131328 g / cm^3
# Si number density = 21.361901 Si / 1000 Ang^3
#
#
#
# Elastic Constant Matrix: (Units=GPa)
#
#
# Indices 1 2 3 4 5 6 
#
# 1 19.3596 -7.1520 -8.2444 0.0000 0.0000 0.0000
# 2 -7.1520 153.4629 38.6560 0.0000 0.0000 0.0000
# 3 -8.2444 38.6560 90.3641 0.0000 0.0000 0.0000
# 4 0.0000 0.0000 0.0000 33.7791 0.0000 0.0000
# 5 0.0000 0.0000 0.0000 0.0000 21.9694 0.0000
# 6 0.0000 0.0000 0.0000 0.0000 0.0000 -18.1387
#
#
#
# Elastic Compliance Matrix: (Units=1/GPa)
#
#
# Indices 1 2 3 4 5 6 
#
# 1 0.054021 0.001430 0.004317 0.000000 0.000000 0.000000
# 2 0.001430 0.007341 -0.003010 0.000000 0.000000 0.000000
# 3 0.004317 -0.003010 0.012748 0.000000 0.000000 0.000000
# 4 0.000000 0.000000 0.000000 0.029604 0.000000 0.000000
# 5 0.000000 0.000000 0.000000 0.000000 0.045518 0.000000
# 6 0.000000 0.000000 0.000000 0.000000 0.000000 -0.055131
#
#
# Mechanical properties :
#
#
# Convention : Reuss Voigt Hill
#
# Bulk Modulus (GPa) = 12.56540 34.41176 23.48858
# Shear Modulus (GPa) = 43.42006 23.51709 33.46857
#
# Velocity S-wave (km/s) = 4.51332 3.32156 3.96250
# Velocity P-wave (km/s) = 5.74935 5.55467 5.65284
#
# Compressibility (1/GPa) = 0.07958365
#
# Stress axis : x y z
#
# Youngs Moduli (GPa) = 18.51145 136.22026 78.44517
#
# Poissons Ratio (x) = -0.19482 -0.33863
# Poissons Ratio (y) = -0.02648 0.23611
# Poissons Ratio (z) = -0.07991 0.41001
#
# Static dielectric constant tensor:
#      x y z
#    x 1.768500 0.000000 0.000000 
#    y 0.000000 1.815530 0.000000 
#    z 0.000000 0.000000 1.768090 
# 
# From -- ./inp_files/21219.got.cif
#   From: 2010.05.17/outbox.cif.g08.bks.cpg/sg59_11_cif.got.tgz:21219.got - 2010.06.03 14:40:33.
