data_PCOD9449683
_publ_section_title
;
Structure prediction by ZEFSAII (Michael W. Deem and Ramdas Pophale) SiO2 
 PCOD9449683
Probable space group: P M M N
;
_chemical_formula_sum "Si O2"
_cell_formula_units_Z 64
_cell_length_a 12.892013
_cell_length_b 10.599768
_cell_length_c 23.415039
_cell_angle_alpha 90.000000
_cell_angle_beta 90.000000
_cell_angle_gamma 90.000000
_cell_volume 3199.720031
_symmetry_space_group_name_H-M "P M M N"
_symmetry_group_IT_number 59
_space_group.IT_coordinate_system_code '2'
_symmetry_cell_setting 'orthorhombic'
loop_
_space_group_symop_operation_xyz
x,y,z
1/2-x,1/2-y,z
1/2+x,-y,-z
-x,1/2+y,-z
-x,-y,-z
1/2+x,1/2+y,-z
1/2-x,y,z
x,1/2-y,z
loop_
_atom_site_type_symbol
_atom_site_label
_atom_site_fract_x
_atom_site_fract_y
_atom_site_fract_z
Si Si1 0.637203 0.964273 0.844872
Si Si2 0.535335 0.105342 0.421925
Si Si3 0.869593 0.393629 0.731691
Si Si4 0.407756 0.886560 0.044850
Si Si5 0.629757 0.396060 0.544327
Si Si6 0.637576 0.537882 0.062905
Si Si7 0.537943 0.398130 0.296295
Si Si8 0.592020 0.109958 0.174557
O O1 0.750000 0.904448 0.834776
O O2 0.630095 0.080482 0.800061
O O3 0.630156 0.011516 0.909590
O O4 0.533328 0.887979 0.832471
O O5 0.493439 0.250000 0.424316
O O6 0.611258 0.093483 0.475903
O O7 0.585083 0.089937 0.359391
O O8 0.446214 0.000099 0.429053
O O9 0.750000 0.407480 0.712513
O O10 0.903091 0.250000 0.719524
O O11 0.943016 0.502884 0.707136
O O12 0.369415 0.750000 0.061596
O O13 0.532987 0.887492 0.048749
O O14 0.372460 0.922220 0.981618
O O15 0.750000 0.418048 0.558128
O O16 0.604335 0.250000 0.560299
O O17 0.750000 0.598194 0.053891
O O18 0.630443 0.487512 0.127491
O O19 0.505733 0.250000 0.290140
O O20 0.608627 0.424363 0.240848
O O21 0.631934 0.250000 0.163271
#
# Coordination Sequence:
#
# PCOD9449683 Si02
#       8
#     8   8   8   8   8   8   8   8
#     4   9  17  29  46  69  95 123 158 200 246 296
#     4   9  18  33  52  74 101 134 169 203 243 291
#     4   9  17  28  43  65  93 126 165 208 253 300
#     4  10  20  33  50  71  93 120 156 198 246 300
#     4   9  18  33  53  77 104 132 163 202 247 293
#     4  10  21  35  50  71  97 123 156 200 248 295
#     4   9  18  32  48  67  96 132 167 203 241 286
#     4   9  18  32  48  68  96 129 163 197 236 285
#
# _framework density 20.001749
#
# number of rings (size 3 to 8) (size 9 to 14) (size 15 to 20)
#    0.000    2.750    0.000    1.125    0.000    4.250 
#    0.000    5.625    0.000    6.750    0.000    0.000 
#    0.000    5.000    0.000    0.000    0.000    0.000 
#
# Total GULP energy -356535.417948 kJ/mol
# GULP energy per Si atom -5570.865905 kJ/mol
# Density = 1.995622 g / cm^3
# Si number density = 20.001749 Si / 1000 Ang^3
#
#
#
# Elastic Constant Matrix: (Units=GPa)
#
#
# Indices 1 2 3 4 5 6 
#
# 1 87.6604 10.3388 -2.4468 0.0000 0.0000 0.0000
# 2 10.3388 67.5994 14.5034 0.0000 0.0000 0.0000
# 3 -2.4468 14.5034 115.0451 0.0000 0.0000 0.0000
# 4 0.0000 0.0000 0.0000 8.6226 0.0000 0.0000
# 5 0.0000 0.0000 0.0000 0.0000 4.5592 0.0000
# 6 0.0000 0.0000 0.0000 0.0000 0.0000 -6.4056
#
#
#
# Elastic Compliance Matrix: (Units=1/GPa)
#
#
# Indices 1 2 3 4 5 6 
#
# 1 0.011644 -0.001885 0.000485 0.000000 0.000000 0.000000
# 2 -0.001885 0.015509 -0.001995 0.000000 0.000000 0.000000
# 3 0.000485 -0.001995 0.008954 0.000000 0.000000 0.000000
# 4 0.000000 0.000000 0.000000 0.115974 0.000000 0.000000
# 5 0.000000 0.000000 0.000000 0.000000 0.219335 0.000000
# 6 0.000000 0.000000 0.000000 0.000000 0.000000 -0.156113
#
#
# Mechanical properties :
#
#
# Convention : Reuss Voigt Hill
#
# Bulk Modulus (GPa) = 34.10974 35.01062 34.56018
# Shear Modulus (GPa) = 21.56418 17.88254 19.72336
#
# Velocity S-wave (km/s) = 3.28703 2.99331 3.14360
# Velocity P-wave (km/s) = 5.61217 5.43031 5.52199
#
# Compressibility (1/GPa) = 0.02931714
#
# Stress axis : x y z
#
# Youngs Moduli (GPa) = 85.88473 64.47696 111.68057
#
# Poissons Ratio (x) = 0.12153 -0.05419
# Poissons Ratio (y) = 0.16188 0.22284
# Poissons Ratio (z) = -0.04168 0.12865
#
# Static dielectric constant tensor:
#      x y z
#    x 1.709110 0.000000 0.000000 
#    y 0.000000 1.703740 0.000000 
#    z 0.000000 0.000000 1.736680 
# 
# From -- ./inp_files/31985.got.cif
#   From: 2010.05.17/outbox.cif.g08.bks.cpg/sg59_16_cif.got.tgz:31985.got - 2010.06.03 14:40:33.
