data_PCOD9449974
_publ_section_title
;
Structure prediction by ZEFSAII (Michael W. Deem and Ramdas Pophale) SiO2 
 PCOD9449974
Probable space group: P M M N
;
_chemical_formula_sum "Si O2"
_cell_formula_units_Z 64
_cell_length_a 9.042441
_cell_length_b 19.378648
_cell_length_c 19.135012
_cell_angle_alpha 90.000000
_cell_angle_beta 90.000000
_cell_angle_gamma 90.000000
_cell_volume 3353.033534
_symmetry_space_group_name_H-M "P M M N"
_symmetry_group_IT_number 59
_space_group.IT_coordinate_system_code '2'
_symmetry_cell_setting 'orthorhombic'
loop_
_space_group_symop_operation_xyz
x,y,z
1/2-x,1/2-y,z
1/2+x,-y,-z
-x,1/2+y,-z
-x,-y,-z
1/2+x,1/2+y,-z
1/2-x,y,z
x,1/2-y,z
loop_
_atom_site_type_symbol
_atom_site_label
_atom_site_fract_x
_atom_site_fract_y
_atom_site_fract_z
Si Si1 0.073599 0.331325 0.416865
Si Si2 0.423632 0.168176 0.998720
Si Si3 0.072072 0.170465 0.705692
Si Si4 0.926278 0.540721 0.207255
Si Si5 0.074127 0.593650 0.712203
Si Si6 0.420101 0.667367 0.857074
Si Si7 0.425418 0.957712 0.062908
Si Si8 0.080765 0.666212 0.439283
O O1 0.250000 0.335872 0.421306
O O2 0.034870 0.250000 0.405999
O O3 0.012557 0.375624 0.352800
O O4 0.002458 0.354794 0.490130
O O5 0.250000 0.153123 0.989505
O O6 0.446532 0.250000 0.988116
O O7 0.475279 0.151218 0.077718
O O8 0.520725 0.120922 0.948566
O O9 0.250000 0.168659 0.698561
O O10 0.029061 0.250000 0.720112
O O11 0.031638 0.116623 0.765941
O O12 0.001111 0.147627 0.632340
O O13 0.750000 0.539181 0.192313
O O14 0.953461 0.486066 0.269156
O O15 0.012323 0.519640 0.137815
O O16 0.250000 0.603113 0.700300
O O17 0.036346 0.633887 0.783873
O O18 0.250000 0.645663 0.873121
O O19 0.420383 0.750000 0.848907
O O20 0.250000 0.964045 0.059412
O O21 0.500000 0.000000 0.000000
O O22 0.250000 0.642332 0.439382
O O23 0.081056 0.750000 0.440178
#
# Coordination Sequence:
#
# PCOD9449974 Si02
#       8
#     8   8   8   8   8   8   8   8
#     4  10  20  33  52  80 112 145 182 223 267 320
#     4  10  21  37  58  84 113 144 181 228 281 337
#     4   9  18  35  59  84 112 146 182 224 276 331
#     4  10  22  39  58  83 113 145 184 228 278 335
#     4  10  20  34  52  75 107 145 183 225 270 320
#     4   9  17  30  50  76 106 142 182 223 271 326
#     4  12  25  41  62  85 112 148 190 235 283 338
#     4   9  17  31  54  82 110 141 181 228 273 320
#
# _framework density 19.087192999999999
#
# number of rings (size 3 to 8) (size 9 to 14) (size 15 to 20)
#    0.000    2.125    0.000    3.375    0.000    6.500 
#    0.000    3.125    0.000    0.000    0.000    0.000 
#    0.000    0.000    0.000    0.000    0.000    0.000 
#
# Total GULP energy -357410.532285 kJ/mol
# GULP energy per Si atom -5584.539567 kJ/mol
# Density = 1.904375 g / cm^3
# Si number density = 19.087193 Si / 1000 Ang^3
#
#
#
# Elastic Constant Matrix: (Units=GPa)
#
#
# Indices 1 2 3 4 5 6 
#
# 1 72.0139 36.4998 48.9345 0.0000 0.0000 0.0000
# 2 36.4998 57.3590 38.8479 0.0000 0.0000 0.0000
# 3 48.9345 38.8479 91.5436 0.0000 0.0000 0.0000
# 4 0.0000 0.0000 0.0000 27.9248 0.0000 0.0000
# 5 0.0000 0.0000 0.0000 0.0000 33.3451 0.0000
# 6 0.0000 0.0000 0.0000 0.0000 0.0000 20.2068
#
#
#
# Elastic Compliance Matrix: (Units=1/GPa)
#
#
# Indices 1 2 3 4 5 6 
#
# 1 0.025126 -0.009672 -0.009327 0.000000 0.000000 0.000000
# 2 -0.009672 0.028189 -0.006792 0.000000 0.000000 0.000000
# 3 -0.009327 -0.006792 0.018792 0.000000 0.000000 0.000000
# 4 0.000000 0.000000 0.000000 0.035810 0.000000 0.000000
# 5 0.000000 0.000000 0.000000 0.000000 0.029989 0.000000
# 6 0.000000 0.000000 0.000000 0.000000 0.000000 0.049488
#
#
# Mechanical properties :
#
#
# Convention : Reuss Voigt Hill
#
# Bulk Modulus (GPa) = 48.72127 52.16456 50.44292
# Shear Modulus (GPa) = 20.34025 22.73763 21.53894
#
# Velocity S-wave (km/s) = 3.26797 3.45519 3.36288
# Velocity P-wave (km/s) = 6.31035 6.58079 6.44699
#
# Compressibility (1/GPa) = 0.02052492
#
# Stress axis : x y z
#
# Youngs Moduli (GPa) = 39.79950 35.47489 53.21507
#
# Poissons Ratio (x) = 0.34311 0.49632
# Poissons Ratio (y) = 0.38494 0.36145
# Poissons Ratio (z) = 0.37119 0.24096
#
# Static dielectric constant tensor:
#      x y z
#    x 1.641900 0.000000 0.000000 
#    y 0.000000 1.692610 0.000000 
#    z 0.000000 0.000000 1.630900 
# 
# From -- ./inp_files/26181.got.cif
#   From: 2010.05.17/outbox.cif.g08.bks.cpg/sg59_14_cif.got.tgz:26181.got - 2010.06.03 14:40:33.
