data_PCOD9449551
_publ_section_title
;
Structure prediction by ZEFSAII (Michael W. Deem and Ramdas Pophale) SiO2 
 PCOD9449551
Probable space group: P M M N
;
_chemical_formula_sum "Si O2"
_cell_formula_units_Z 64
_cell_length_a 9.707186
_cell_length_b 23.066611
_cell_length_c 15.641896
_cell_angle_alpha 90.000000
_cell_angle_beta 90.000000
_cell_angle_gamma 90.000000
_cell_volume 3502.406393
_symmetry_space_group_name_H-M "P M M N"
_symmetry_group_IT_number 59
_space_group.IT_coordinate_system_code '2'
_symmetry_cell_setting 'orthorhombic'
loop_
_space_group_symop_operation_xyz
x,y,z
1/2-x,1/2-y,z
1/2+x,-y,-z
-x,1/2+y,-z
-x,-y,-z
1/2+x,1/2+y,-z
1/2-x,y,z
x,1/2-y,z
loop_
_atom_site_type_symbol
_atom_site_label
_atom_site_fract_x
_atom_site_fract_y
_atom_site_fract_z
Si Si1 0.094080 0.319418 0.309004
Si Si2 0.082043 0.316238 0.980537
Si Si3 0.403182 0.818723 0.539796
Si Si4 0.416617 0.994510 0.774627
Si Si5 0.087802 0.104887 0.139617
Si Si6 0.592700 0.988999 0.417236
Si Si7 0.417138 0.371408 0.802557
Si Si8 0.907380 0.850782 0.384193
O O1 0.250000 0.330046 0.340824
O O2 0.079544 0.250000 0.298127
O O3 0.078217 0.350493 0.218735
O O4 0.986805 0.341897 0.378932
O O5 0.250000 0.315566 0.980692
O O6 0.037171 0.250000 0.996173
O O7 0.036349 0.339200 0.887867
O O8 0.042090 0.360983 0.054789
O O9 0.250000 0.843504 0.532656
O O10 0.392164 0.750000 0.554008
O O11 0.491451 0.826694 0.454891
O O12 0.250000 0.989166 0.780619
O O13 0.495152 0.949611 0.834736
O O14 0.454067 0.985009 0.674273
O O15 0.454567 0.060628 0.799446
O O16 0.250000 0.088850 0.130543
O O17 0.750000 0.007909 0.433826
O O18 0.596629 0.920074 0.398979
O O19 0.500000 0.000000 0.500000
O O20 0.250000 0.370283 0.801780
O O21 0.457390 0.341949 0.712934
O O22 0.750000 0.829005 0.393729
#
# Coordination Sequence:
#
# PCOD9449551 Si02
#       8
#     8   8   8   8   8   8   8   8
#     4   9  18  33  50  68  97 136 172 213 264 312
#     4   9  17  31  54  83 108 132 170 221 271 312
#     4  10  21  34  48  71 102 135 172 212 258 313
#     4   9  19  35  51  73 107 144 176 209 258 315
#     4  10  20  32  51  80 108 133 171 221 263 309
#     4   9  19  33  49  71 100 134 172 214 255 300
#     4   8  16  33  54  76 106 138 172 214 260 313
#     4   9  18  33  52  74 100 131 170 215 257 303
#
# _framework density 18.273152
#
# number of rings (size 3 to 8) (size 9 to 14) (size 15 to 20)
#    0.000    2.875    0.000    2.250    1.750    4.750 
#    0.000    3.125    0.000    1.875    0.000    0.000 
#    0.000    0.000    0.000    0.000    0.000    0.000 
#
# Total GULP energy -356787.524680 kJ/mol
# GULP energy per Si atom -5574.805073 kJ/mol
# Density = 1.823156 g / cm^3
# Si number density = 18.273152 Si / 1000 Ang^3
#
#
#
# Elastic Constant Matrix: (Units=GPa)
#
#
# Indices 1 2 3 4 5 6 
#
# 1 38.0017 2.0618 20.5343 0.0000 0.0000 0.0000
# 2 2.0618 23.2294 -1.1363 0.0000 0.0000 0.0000
# 3 20.5343 -1.1363 81.7208 0.0000 0.0000 0.0000
# 4 0.0000 0.0000 0.0000 31.5068 0.0000 0.0000
# 5 0.0000 0.0000 0.0000 0.0000 12.0654 0.0000
# 6 0.0000 0.0000 0.0000 0.0000 0.0000 21.7500
#
#
#
# Elastic Compliance Matrix: (Units=1/GPa)
#
#
# Indices 1 2 3 4 5 6 
#
# 1 0.030670 -0.003101 -0.007750 0.000000 0.000000 0.000000
# 2 -0.003101 0.043392 0.001383 0.000000 0.000000 0.000000
# 3 -0.007750 0.001383 0.014203 0.000000 0.000000 0.000000
# 4 0.000000 0.000000 0.000000 0.031739 0.000000 0.000000
# 5 0.000000 0.000000 0.000000 0.000000 0.082881 0.000000
# 6 0.000000 0.000000 0.000000 0.000000 0.000000 0.045977
#
#
# Mechanical properties :
#
#
# Convention : Reuss Voigt Hill
#
# Bulk Modulus (GPa) = 14.42409 20.65240 17.53825
# Shear Modulus (GPa) = 17.18745 21.16391 19.17568
#
# Velocity S-wave (km/s) = 3.07022 3.40692 3.24294
# Velocity P-wave (km/s) = 4.52538 5.17714 4.86219
#
# Compressibility (1/GPa) = 0.06932844
#
# Stress axis : x y z
#
# Youngs Moduli (GPa) = 32.60463 23.04585 70.40602
#
# Poissons Ratio (x) = 0.07147 0.54563
# Poissons Ratio (y) = 0.10112 -0.09735
# Poissons Ratio (z) = 0.25268 -0.03186
#
# Static dielectric constant tensor:
#      x y z
#    x 1.625570 0.000000 0.000000 
#    y 0.000000 1.644670 0.000000 
#    z 0.000000 0.000000 1.625390 
# 
# From -- ./inp_files/21614.got.cif
#   From: 2010.05.17/outbox.cif.g08.bks.cpg/sg59_11_cif.got.tgz:21614.got - 2010.06.03 14:40:33.
