data_PCOD9449433
_publ_section_title
;
Structure prediction by ZEFSAII (Michael W. Deem and Ramdas Pophale) SiO2 
 PCOD9449433
Probable space group: P M M N
;
_chemical_formula_sum "Si O2"
_cell_formula_units_Z 56
_cell_length_a 8.972670
_cell_length_b 21.555393
_cell_length_c 14.218214
_cell_angle_alpha 90.000000
_cell_angle_beta 90.000000
_cell_angle_gamma 90.000000
_cell_volume 2749.936638
_symmetry_space_group_name_H-M "P M M N"
_symmetry_group_IT_number 59
_space_group.IT_coordinate_system_code '2'
_symmetry_cell_setting 'orthorhombic'
loop_
_space_group_symop_operation_xyz
x,y,z
1/2-x,1/2-y,z
1/2+x,-y,-z
-x,1/2+y,-z
-x,-y,-z
1/2+x,1/2+y,-z
1/2-x,y,z
x,1/2-y,z
loop_
_atom_site_type_symbol
_atom_site_label
_atom_site_fract_x
_atom_site_fract_y
_atom_site_fract_z
Si Si1 0.577182 0.510576 0.900801
Si Si2 0.931133 0.180066 0.351129
Si Si3 0.927760 0.456928 0.419132
Si Si4 0.415774 0.322726 0.956299
Si Si5 0.576242 0.050797 0.714096
Si Si6 0.072046 0.865675 0.854078
Si Si7 0.929141 0.180930 0.754252
O O1 0.750000 0.524594 0.915939
O O2 0.569482 0.454495 0.827275
O O3 0.497327 0.566587 0.848333
O O4 0.500000 0.500000 0.000000
O O5 0.750000 0.179917 0.356044
O O6 0.979611 0.250000 0.381992
O O7 0.977919 0.115475 0.403842
O O8 0.971483 0.171567 0.240217
O O9 0.750000 0.455065 0.431675
O O10 0.000000 0.500000 0.500000
O O11 0.973154 0.498602 0.329842
O O12 0.250000 0.351692 0.955313
O O13 0.399109 0.250000 0.972425
O O14 0.492215 0.326954 0.854838
O O15 0.512127 0.344230 0.044749
O O16 0.750000 0.039667 0.687156
O O17 0.533367 0.121531 0.690159
O O18 0.250000 0.867315 0.856509
O O19 0.750000 0.178699 0.767371
O O20 0.966767 0.250000 0.717879
#
# Coordination Sequence:
#
# PCOD9449433 Si02
#       7
#     8   8   8   8   8   8   8
#     4  11  22  34  52  81 121 163 206 251 300 356
#     4   9  19  37  62  91 119 150 194 246 299 360
#     4  11  23  42  68  94 120 154 195 244 303 368
#     4  10  20  32  47  74 114 158 202 248 303 359
#     4  10  21  38  59  85 118 154 196 247 298 353
#     4  11  20  33  53  79 113 154 204 251 301 358
#     4   9  18  34  56  81 111 154 206 254 298 347
#
# _framework density 20.364107000000001
#
# number of rings (size 3 to 8) (size 9 to 14) (size 15 to 20)
#    0.000    1.857    1.429    3.000    0.000    3.714 
#    0.000    0.714    0.000    8.571    0.000    0.000 
#    0.000    0.000    0.000    0.000    0.000    0.000 
#
# Total GULP energy -312018.905748 kJ/mol
# GULP energy per Si atom -5571.766174 kJ/mol
# Density = 2.031776 g / cm^3
# Si number density = 20.364107 Si / 1000 Ang^3
#
#
#
# Elastic Constant Matrix: (Units=GPa)
#
#
# Indices 1 2 3 4 5 6 
#
# 1 38.3884 31.8465 17.1638 0.0000 0.0000 0.0000
# 2 31.8465 167.3137 25.3469 0.0000 0.0000 0.0000
# 3 17.1638 25.3469 48.8948 0.0000 0.0000 0.0000
# 4 0.0000 0.0000 0.0000 21.9901 0.0000 0.0000
# 5 0.0000 0.0000 0.0000 0.0000 23.5245 0.0000
# 6 0.0000 0.0000 0.0000 0.0000 0.0000 26.4308
#
#
#
# Elastic Compliance Matrix: (Units=1/GPa)
#
#
# Indices 1 2 3 4 5 6 
#
# 1 0.034545 -0.005142 -0.009461 0.000000 0.000000 0.000000
# 2 -0.005142 0.007252 -0.001954 0.000000 0.000000 0.000000
# 3 -0.009461 -0.001954 0.024786 0.000000 0.000000 0.000000
# 4 0.000000 0.000000 0.000000 0.045475 0.000000 0.000000
# 5 0.000000 0.000000 0.000000 0.000000 0.042509 0.000000
# 6 0.000000 0.000000 0.000000 0.000000 0.000000 0.037835
#
#
# Mechanical properties :
#
#
# Convention : Reuss Voigt Hill
#
# Bulk Modulus (GPa) = 29.87861 44.81235 37.34548
# Shear Modulus (GPa) = 21.12624 26.40507 23.76565
#
# Velocity S-wave (km/s) = 3.22440 3.60481 3.41990
# Velocity P-wave (km/s) = 5.34476 6.27531 5.82863
#
# Compressibility (1/GPa) = 0.03346875
#
# Stress axis : x y z
#
# Youngs Moduli (GPa) = 28.94741 137.90096 40.34494
#
# Poissons Ratio (x) = 0.70910 0.38170
# Poissons Ratio (y) = 0.14885 0.07884
# Poissons Ratio (z) = 0.27387 0.26948
#
# Static dielectric constant tensor:
#      x y z
#    x 1.866030 0.000000 0.000000 
#    y 0.000000 1.802860 0.000000 
#    z 0.000000 0.000000 1.784810 
# 
# From -- ./inp_files/21063.got.cif
#   From: 2010.05.17/outbox.cif.g08.bks.cpg/sg59_11_cif.got.tgz:21063.got - 2010.06.03 14:40:33.
