data_PCOD9449678
_publ_section_title
;
Structure prediction by ZEFSAII (Michael W. Deem and Ramdas Pophale) SiO2 
 PCOD9449678
Probable space group: P M M N
;
_chemical_formula_sum "Si O2"
_cell_formula_units_Z 56
_cell_length_a 8.912214
_cell_length_b 21.429514
_cell_length_c 13.817066
_cell_angle_alpha 90.000000
_cell_angle_beta 90.000000
_cell_angle_gamma 90.000000
_cell_volume 2638.844263
_symmetry_space_group_name_H-M "P M M N"
_symmetry_group_IT_number 59
_space_group.IT_coordinate_system_code '2'
_symmetry_cell_setting 'orthorhombic'
loop_
_space_group_symop_operation_xyz
x,y,z
1/2-x,1/2-y,z
1/2+x,-y,-z
-x,1/2+y,-z
-x,-y,-z
1/2+x,1/2+y,-z
1/2-x,y,z
x,1/2-y,z
loop_
_atom_site_type_symbol
_atom_site_label
_atom_site_fract_x
_atom_site_fract_y
_atom_site_fract_z
Si Si1 0.574614 0.499748 0.895764
Si Si2 0.930862 0.180301 0.345176
Si Si3 0.924639 0.453267 0.423703
Si Si4 0.420134 0.322483 0.949440
Si Si5 0.422981 0.063179 0.725411
Si Si6 0.072871 0.874850 0.862443
Si Si7 0.928205 0.180897 0.737633
O O1 0.750000 0.488623 0.901848
O O2 0.496321 0.449043 0.829000
O O3 0.534718 0.566171 0.849993
O O4 0.500000 0.500000 0.000000
O O5 0.750000 0.180587 0.358781
O O6 0.986400 0.250000 0.373012
O O7 0.984762 0.116640 0.399747
O O8 0.953633 0.169851 0.229535
O O9 0.750000 0.445967 0.450854
O O10 0.931343 0.497407 0.329206
O O11 0.000000 0.500000 0.500000
O O12 0.250000 0.349825 0.951949
O O13 0.406594 0.250000 0.975963
O O14 0.488891 0.321887 0.841654
O O15 0.528479 0.350050 0.031529
O O16 0.250000 0.080643 0.732535
O O17 0.511384 0.121326 0.678954
O O18 0.250000 0.892350 0.860645
O O19 0.750000 0.175328 0.751269
O O20 0.958650 0.250000 0.695801
#
# Coordination Sequence:
#
# PCOD9449678 Si02
#       7
#     8   8   8   8   8   8   8
#     4  12  24  37  55  82 120 165 210 256 306 361
#     4   9  18  36  63  92 122 156 197 248 306 369
#     4  10  22  42  67  95 124 158 201 249 309 376
#     4  10  20  33  49  75 115 161 206 250 302 361
#     4  11  22  40  62  87 120 157 200 252 308 368
#     4  11  20  34  54  81 117 156 205 255 308 367
#     4  10  21  37  57  83 115 156 208 259 305 357
#
# _framework density 21.221411
#
# number of rings (size 3 to 8) (size 9 to 14) (size 15 to 20)
#    0.000    1.571    1.429    4.286    0.000    3.429 
#    0.000    0.714    0.000    4.714    0.000    0.000 
#    0.000    0.000    0.000    0.000    0.000    0.000 
#
# Total GULP energy -312408.385651 kJ/mol
# GULP energy per Si atom -5578.721172 kJ/mol
# Density = 2.117311 g / cm^3
# Si number density = 21.221411 Si / 1000 Ang^3
#
#
#
# Elastic Constant Matrix: (Units=GPa)
#
#
# Indices 1 2 3 4 5 6 
#
# 1 79.2386 25.0075 17.3774 0.0000 0.0000 0.0000
# 2 25.0075 152.4157 7.7751 0.0000 0.0000 0.0000
# 3 17.3774 7.7751 27.3093 0.0000 0.0000 0.0000
# 4 0.0000 0.0000 0.0000 20.1398 0.0000 0.0000
# 5 0.0000 0.0000 0.0000 0.0000 22.9488 0.0000
# 6 0.0000 0.0000 0.0000 0.0000 0.0000 33.3773
#
#
#
# Elastic Compliance Matrix: (Units=1/GPa)
#
#
# Indices 1 2 3 4 5 6 
#
# 1 0.015267 -0.002039 -0.009134 0.000000 0.000000 0.000000
# 2 -0.002039 0.006930 -0.000676 0.000000 0.000000 0.000000
# 3 -0.009134 -0.000676 0.042622 0.000000 0.000000 0.000000
# 4 0.000000 0.000000 0.000000 0.049653 0.000000 0.000000
# 5 0.000000 0.000000 0.000000 0.000000 0.043575 0.000000
# 6 0.000000 0.000000 0.000000 0.000000 0.000000 0.029961
#
#
# Mechanical properties :
#
#
# Convention : Reuss Voigt Hill
#
# Bulk Modulus (GPa) = 24.31802 39.92038 32.11920
# Shear Modulus (GPa) = 22.18162 29.21341 25.69751
#
# Velocity S-wave (km/s) = 3.23654 3.71428 3.48361
# Velocity P-wave (km/s) = 5.04489 6.10301 5.59900
#
# Compressibility (1/GPa) = 0.04112176
#
# Stress axis : x y z
#
# Youngs Moduli (GPa) = 65.50197 144.30007 23.46203
#
# Poissons Ratio (x) = 0.29422 0.21430
# Poissons Ratio (y) = 0.13355 0.01585
# Poissons Ratio (z) = 0.59829 0.09749
#
# Static dielectric constant tensor:
#      x y z
#    x 1.729290 0.000000 0.000000 
#    y 0.000000 1.887410 0.000000 
#    z 0.000000 0.000000 1.804740 
# 
# From -- ./inp_files/21064.got.cif
#   From: 2010.05.17/outbox.cif.g08.bks.cpg/sg59_11_cif.got.tgz:21064.got - 2010.06.03 14:40:33.
