data_PCOD9450357
_publ_section_title
;
Structure prediction by ZEFSAII (Michael W. Deem and Ramdas Pophale) SiO2 
 PCOD9450357
Probable space group: P M M N
;
_chemical_formula_sum "Si O2"
_cell_formula_units_Z 56
_cell_length_a 19.669615
_cell_length_b 15.410797
_cell_length_c 10.340601
_cell_angle_alpha 90.000000
_cell_angle_beta 90.000000
_cell_angle_gamma 90.000000
_cell_volume 3134.488927
_symmetry_space_group_name_H-M "P M M N"
_symmetry_group_IT_number 59
_space_group.IT_coordinate_system_code '2'
_symmetry_cell_setting 'orthorhombic'
loop_
_space_group_symop_operation_xyz
x,y,z
1/2-x,1/2-y,z
1/2+x,-y,-z
-x,1/2+y,-z
-x,-y,-z
1/2+x,1/2+y,-z
1/2-x,y,z
x,1/2-y,z
loop_
_atom_site_type_symbol
_atom_site_label
_atom_site_fract_x
_atom_site_fract_y
_atom_site_fract_z
Si Si1 0.049827 0.154540 0.605651
Si Si2 0.583995 0.461657 0.299772
Si Si3 0.331145 0.522820 0.954098
Si Si4 0.170679 0.151330 0.096853
Si Si5 0.169526 0.843834 0.171566
Si Si6 0.429935 0.403624 0.322374
Si Si7 0.896168 0.404693 0.581598
O O1 0.067602 0.250000 0.659446
O O2 0.071597 0.149945 0.455377
O O3 0.968380 0.142343 0.602269
O O4 0.076566 0.065566 0.671511
O O5 0.629011 0.450440 0.173560
O O6 0.508585 0.420633 0.283290
O O7 0.614858 0.416700 0.428734
O O8 0.250000 0.534307 0.936497
O O9 0.342817 0.422368 0.990695
O O10 0.355296 0.580047 0.077077
O O11 0.250000 0.138948 0.139440
O O12 0.164281 0.250000 0.049705
O O13 0.117951 0.135694 0.213005
O O14 0.250000 0.841825 0.153019
O O15 0.140379 0.750000 0.134233
O O16 0.155919 0.859585 0.322546
O O17 0.403474 0.498373 0.362816
#
# Coordination Sequence:
#
# PCOD9450357 Si02
#       7
#     8   8   8   8   8   8   8
#     4   9  17  31  52  78 110 142 174 222 278 324
#     4   9  20  34  55  80 109 146 178 219 278 332
#     4  10  21  38  55  76 113 150 177 225 279 320
#     4  10  20  34  54  78 107 148 190 222 262 320
#     4  10  20  35  56  78 102 138 182 225 271 324
#     4   9  17  33  54  77 108 140 178 229 272 313
#     4   9  17  33  54  78 103 136 177 221 272 325
#
# _framework density 17.865750999999999
#
# number of rings (size 3 to 8) (size 9 to 14) (size 15 to 20)
#    0.000    2.571    1.429    2.571    0.000    1.714 
#    0.000    6.429    0.000    2.571    0.000    0.000 
#    0.000    0.000    0.000    0.000    0.000    0.000 
#
# Total GULP energy -311843.987101 kJ/mol
# GULP energy per Si atom -5568.642627 kJ/mol
# Density = 1.782509 g / cm^3
# Si number density = 17.865751 Si / 1000 Ang^3
#
#
#
# Elastic Constant Matrix: (Units=GPa)
#
#
# Indices 1 2 3 4 5 6 
#
# 1 26.6331 17.9762 35.8218 0.0000 0.0000 0.0000
# 2 17.9762 88.3145 30.1885 0.0000 0.0000 0.0000
# 3 35.8218 30.1885 97.8532 0.0000 0.0000 0.0000
# 4 0.0000 0.0000 0.0000 5.1450 0.0000 0.0000
# 5 0.0000 0.0000 0.0000 0.0000 29.8952 0.0000
# 6 0.0000 0.0000 0.0000 0.0000 0.0000 13.9816
#
#
#
# Elastic Compliance Matrix: (Units=1/GPa)
#
#
# Indices 1 2 3 4 5 6 
#
# 1 0.077444 -0.006788 -0.026256 0.000000 0.000000 0.000000
# 2 -0.006788 0.013253 -0.001604 0.000000 0.000000 0.000000
# 3 -0.026256 -0.001604 0.020326 0.000000 0.000000 0.000000
# 4 0.000000 0.000000 0.000000 0.194363 0.000000 0.000000
# 5 0.000000 0.000000 0.000000 0.000000 0.033450 0.000000
# 6 0.000000 0.000000 0.000000 0.000000 0.000000 0.071523
#
#
# Mechanical properties :
#
#
# Convention : Reuss Voigt Hill
#
# Bulk Modulus (GPa) = 23.96554 42.30819 33.13686
# Shear Modulus (GPa) = 10.13040 18.39197 14.26119
#
# Velocity S-wave (km/s) = 2.38382 3.21199 2.82838
# Velocity P-wave (km/s) = 4.58477 6.12278 5.40872
#
# Compressibility (1/GPa) = 0.04172658
#
# Stress axis : x y z
#
# Youngs Moduli (GPa) = 12.91258 75.45408 49.19833
#
# Poissons Ratio (x) = 0.51221 1.29176
# Poissons Ratio (y) = 0.08766 0.07890
# Poissons Ratio (z) = 0.33903 0.12100
#
# Static dielectric constant tensor:
#      x y z
#    x 1.603840 0.000000 0.000000 
#    y 0.000000 1.657090 0.000000 
#    z 0.000000 0.000000 1.591940 
# 
# From -- ./inp_files/11430.got.cif
#   From: 2010.05.17/outbox.cif.g08.bks.cpg/sg59_6_cif.got.tgz:11430.got - 2010.06.03 14:40:33.
