data_PCOD9450853
_publ_section_title
;
Structure prediction by ZEFSAII (Michael W. Deem and Ramdas Pophale) SiO2 
 PCOD9450853
Probable space group: P M M N
;
_chemical_formula_sum "Si O2"
_cell_formula_units_Z 64
_cell_length_a 8.961351
_cell_length_b 21.580799
_cell_length_c 17.186929
_cell_angle_alpha 90.000000
_cell_angle_beta 90.000000
_cell_angle_gamma 90.000000
_cell_volume 3323.833731
_symmetry_space_group_name_H-M "P M M N"
_symmetry_group_IT_number 59
_space_group.IT_coordinate_system_code '2'
_symmetry_cell_setting 'orthorhombic'
loop_
_space_group_symop_operation_xyz
x,y,z
1/2-x,1/2-y,z
1/2+x,-y,-z
-x,1/2+y,-z
-x,-y,-z
1/2+x,1/2+y,-z
1/2-x,y,z
x,1/2-y,z
loop_
_atom_site_type_symbol
_atom_site_label
_atom_site_fract_x
_atom_site_fract_y
_atom_site_fract_z
Si Si1 0.571445 0.435542 0.091271
Si Si2 0.931458 0.320652 0.196789
Si Si3 0.929864 0.679910 0.185049
Si Si4 0.575390 0.106376 0.351348
Si Si5 0.426110 0.510062 0.414724
Si Si6 0.575884 0.866566 0.355545
Si Si7 0.417176 0.320463 0.476209
Si Si8 0.927431 0.434495 0.906403
O O1 0.750000 0.441577 0.102667
O O2 0.520696 0.373272 0.135349
O O3 0.495859 0.499352 0.119390
O O4 0.542933 0.429431 0.999104
O O5 0.750000 0.318146 0.193054
O O6 0.985245 0.250000 0.185108
O O7 0.970066 0.348069 0.281498
O O8 0.750000 0.677267 0.176804
O O9 0.977702 0.750000 0.163769
O O10 0.965317 0.666696 0.275653
O O11 0.001799 0.624593 0.135926
O O12 0.750000 0.092189 0.342952
O O13 0.540818 0.140799 0.432037
O O14 0.482171 0.043872 0.357396
O O15 0.500000 0.500000 0.500000
O O16 0.250000 0.508329 0.424847
O O17 0.478923 0.574061 0.377021
O O18 0.750000 0.885895 0.348570
O O19 0.565767 0.823549 0.431334
O O20 0.250000 0.345653 0.458420
O O21 0.423583 0.250000 0.449716
O O22 0.750000 0.435180 0.894428
#
# Coordination Sequence:
#
# PCOD9450853 Si02
#       8
#     8   8   8   8   8   8   8   8
#     4   9  19  38  63  88 117 158 200 239 291 354
#     4   9  19  36  59  87 116 149 194 242 287 344
#     4  10  22  40  62  88 120 159 201 241 291 360
#     4  11  22  36  56  83 114 148 190 240 292 347
#     4  12  24  39  58  83 113 148 193 244 296 351
#     4  10  21  38  59  82 112 151 195 240 287 345
#     4  10  20  35  56  79 107 147 191 236 289 344
#     4  10  21  37  60  91 123 154 195 246 296 349
#
# _framework density 19.254873
#
# number of rings (size 3 to 8) (size 9 to 14) (size 15 to 20)
#    0.000    1.875    1.250    2.625    1.750    4.000 
#    0.000    1.875    0.000    4.125    0.000    0.000 
#    0.000    0.000    0.000    0.000    0.000    0.000 
#
# Total GULP energy -357262.260313 kJ/mol
# GULP energy per Si atom -5582.222817 kJ/mol
# Density = 1.921105 g / cm^3
# Si number density = 19.254873 Si / 1000 Ang^3
#
#
#
# Elastic Constant Matrix: (Units=GPa)
#
#
# Indices 1 2 3 4 5 6 
#
# 1 50.3194 46.6430 28.7463 0.0000 0.0000 0.0000
# 2 46.6430 163.2807 53.2695 0.0000 0.0000 0.0000
# 3 28.7463 53.2695 65.4399 0.0000 0.0000 0.0000
# 4 0.0000 0.0000 0.0000 28.7231 0.0000 0.0000
# 5 0.0000 0.0000 0.0000 0.0000 22.2753 0.0000
# 6 0.0000 0.0000 0.0000 0.0000 0.0000 26.8048
#
#
#
# Elastic Compliance Matrix: (Units=1/GPa)
#
#
# Indices 1 2 3 4 5 6 
#
# 1 0.030132 -0.005840 -0.008482 0.000000 0.000000 0.000000
# 2 -0.005840 0.009471 -0.005144 0.000000 0.000000 0.000000
# 3 -0.008482 -0.005144 0.023195 0.000000 0.000000 0.000000
# 4 0.000000 0.000000 0.000000 0.034815 0.000000 0.000000
# 5 0.000000 0.000000 0.000000 0.000000 0.044893 0.000000
# 6 0.000000 0.000000 0.000000 0.000000 0.000000 0.037307
#
#
# Mechanical properties :
#
#
# Convention : Reuss Voigt Hill
#
# Bulk Modulus (GPa) = 41.90304 59.59529 50.74917
# Shear Modulus (GPa) = 22.05546 25.58607 23.82077
#
# Velocity S-wave (km/s) = 3.38812 3.64924 3.52110
# Velocity P-wave (km/s) = 6.09224 6.98383 6.55321
#
# Compressibility (1/GPa) = 0.02386461
#
# Stress axis : x y z
#
# Youngs Moduli (GPa) = 33.18677 105.58528 43.11332
#
# Poissons Ratio (x) = 0.61666 0.36570
# Poissons Ratio (y) = 0.19382 0.22178
# Poissons Ratio (z) = 0.28150 0.54314
#
# Static dielectric constant tensor:
#      x y z
#    x -0.204030 0.000000 0.000000 
#    y 0.000000 1.658960 0.000000 
#    z 0.000000 0.000000 1.671290 
# 
# From -- ./inp_files/26279.got.cif
#   From: 2010.05.17/outbox.cif.g08.bks.cpg/sg59_14_cif.got.tgz:26279.got - 2010.06.03 14:40:33.
