data_PCOD9450449
_publ_section_title
;
Structure prediction by ZEFSAII (Michael W. Deem and Ramdas Pophale) SiO2 
 PCOD9450449
Probable space group: P M M N
;
_chemical_formula_sum "Si O2"
_cell_formula_units_Z 48
_cell_length_a 10.182995
_cell_length_b 8.896806
_cell_length_c 29.813243
_cell_angle_alpha 90.000000
_cell_angle_beta 90.000000
_cell_angle_gamma 90.000000
_cell_volume 2700.964469
_symmetry_space_group_name_H-M "P M M N"
_symmetry_group_IT_number 59
_space_group.IT_coordinate_system_code '2'
_symmetry_cell_setting 'orthorhombic'
loop_
_space_group_symop_operation_xyz
x,y,z
1/2-x,1/2-y,z
1/2+x,-y,-z
-x,1/2+y,-z
-x,-y,-z
1/2+x,1/2+y,-z
1/2-x,y,z
x,1/2-y,z
loop_
_atom_site_type_symbol
_atom_site_label
_atom_site_fract_x
_atom_site_fract_y
_atom_site_fract_z
Si Si1 0.590872 0.922150 0.131354
Si Si2 0.403845 0.570205 0.774727
Si Si3 0.250000 0.069419 0.462195
Si Si4 0.404512 0.569943 0.962965
Si Si5 0.599913 0.069006 0.703151
Si Si6 0.968751 0.431597 0.600820
Si Si7 0.250000 0.432304 0.565887
O O1 0.750000 0.920483 0.131889
O O2 0.544591 0.750000 0.130060
O O3 0.551852 0.002286 0.177476
O O4 0.554862 0.009114 0.086068
O O5 0.250000 0.528469 0.767618
O O6 0.410984 0.750000 0.776553
O O7 0.495133 0.506858 0.735623
O O8 0.250000 0.250000 0.461168
O O9 0.250000 0.019358 0.514020
O O10 0.124987 0.006282 0.435696
O O11 0.250000 0.528940 0.970262
O O12 0.412904 0.750000 0.963816
O O13 0.500000 0.500000 0.000000
O O14 0.750000 0.028230 0.714705
O O15 0.587445 0.250000 0.706673
O O16 0.573841 0.028866 0.651209
O O17 0.958035 0.250000 0.596687
O O18 0.117721 0.478554 0.590878
O O19 0.250000 0.250000 0.565590
#
# Coordination Sequence:
#
# PCOD9450449 Si02
#       7
#     8   8   4   8   8   8   4
#     4   9  17  32  55  81 109 144 185 228 274 325
#     4  10  21  36  56  83 112 141 175 220 274 329
#     4  11  21  35  55  83 113 143 177 217 268 325
#     4  10  20  34  54  81 114 151 190 233 280 329
#     4  10  21  37  57  80 104 138 183 223 265 322
#     4  10  20  38  59  79 106 143 182 221 266 320
#     4   9  20  35  57  85 109 137 181 227 266 313
#
# _framework density 17.771429999999999
#
# number of rings (size 3 to 8) (size 9 to 14) (size 15 to 20)
#    0.000    2.167    0.833    2.250    1.167    5.000 
#    0.000    2.083    0.000    5.000    0.000    0.000 
#    0.000    0.000    0.000    0.000    0.000    0.000 
#
# Total GULP energy -267896.134569 kJ/mol
# GULP energy per Si atom -5581.169470 kJ/mol
# Density = 1.773098 g / cm^3
# Si number density = 17.771430 Si / 1000 Ang^3
#
#
#
# Elastic Constant Matrix: (Units=GPa)
#
#
# Indices 1 2 3 4 5 6 
#
# 1 102.3876 36.4897 52.7129 0.0000 0.0000 0.0000
# 2 36.4897 50.8189 43.1645 0.0000 0.0000 0.0000
# 3 52.7129 43.1645 113.3003 0.0000 0.0000 0.0000
# 4 0.0000 0.0000 0.0000 33.1089 0.0000 0.0000
# 5 0.0000 0.0000 0.0000 0.0000 36.0128 0.0000
# 6 0.0000 0.0000 0.0000 0.0000 0.0000 22.9217
#
#
#
# Elastic Compliance Matrix: (Units=1/GPa)
#
#
# Indices 1 2 3 4 5 6 
#
# 1 0.014279 -0.006816 -0.004047 0.000000 0.000000 0.000000
# 2 -0.006816 0.032345 -0.009152 0.000000 0.000000 0.000000
# 3 -0.004047 -0.009152 0.014195 0.000000 0.000000 0.000000
# 4 0.000000 0.000000 0.000000 0.030203 0.000000 0.000000
# 5 0.000000 0.000000 0.000000 0.000000 0.027768 0.000000
# 6 0.000000 0.000000 0.000000 0.000000 0.000000 0.043627
#
#
# Mechanical properties :
#
#
# Convention : Reuss Voigt Hill
#
# Bulk Modulus (GPa) = 48.09700 59.02678 53.56189
# Shear Modulus (GPa) = 23.88047 27.35133 25.61590
#
# Velocity S-wave (km/s) = 3.66971 3.92734 3.80071
# Velocity P-wave (km/s) = 6.71406 7.33839 7.03315
#
# Compressibility (1/GPa) = 0.02079132
#
# Stress axis : x y z
#
# Youngs Moduli (GPa) = 70.03148 30.91687 70.44549
#
# Poissons Ratio (x) = 0.21072 0.28508
# Poissons Ratio (y) = 0.47732 0.64468
# Poissons Ratio (z) = 0.28340 0.28294
#
# Static dielectric constant tensor:
#      x y z
#    x 1.606420 0.000000 0.000000 
#    y 0.000000 1.600420 0.000000 
#    z 0.000000 0.000000 1.578290 
# 
# From -- ./inp_files/33063.got.cif
#   From: 2010.05.17/outbox.cif.g08.bks.cpg/sg59_17_cif.got.tgz:33063.got - 2010.06.03 14:40:33.
