data_PCOD9450115
_publ_section_title
;
Structure prediction by ZEFSAII (Michael W. Deem and Ramdas Pophale) SiO2 
 PCOD9450115
Probable space group: P M M N
;
_chemical_formula_sum "Si O2"
_cell_formula_units_Z 40
_cell_length_a 18.839691
_cell_length_b 7.519690
_cell_length_c 13.184647
_cell_angle_alpha 90.000000
_cell_angle_beta 90.000000
_cell_angle_gamma 90.000000
_cell_volume 1867.850957
_symmetry_space_group_name_H-M "P M M N"
_symmetry_group_IT_number 59
_space_group.IT_coordinate_system_code '2'
_symmetry_cell_setting 'orthorhombic'
loop_
_space_group_symop_operation_xyz
x,y,z
1/2-x,1/2-y,z
1/2+x,-y,-z
-x,1/2+y,-z
-x,-y,-z
1/2+x,1/2+y,-z
1/2-x,y,z
x,1/2-y,z
loop_
_atom_site_type_symbol
_atom_site_label
_atom_site_fract_x
_atom_site_fract_y
_atom_site_fract_z
Si Si1 0.330277 0.036463 0.991892
Si Si2 0.330795 0.037381 0.365496
Si Si3 0.331105 0.536660 0.594190
Si Si4 0.413978 0.962440 0.788858
Si Si5 0.426440 0.468149 0.178310
O O1 0.250000 0.969133 0.005237
O O2 0.327379 0.250000 0.001736
O O3 0.384351 0.972145 0.078312
O O4 0.360698 0.995530 0.881299
O O5 0.250000 0.967627 0.355352
O O6 0.326835 0.250000 0.354061
O O7 0.382825 0.973824 0.277633
O O8 0.355741 0.001350 0.479917
O O9 0.250000 0.468986 0.604011
O O10 0.327838 0.750000 0.604305
O O11 0.381032 0.468057 0.683831
O O12 0.420996 0.750000 0.777390
O O13 0.492412 0.030038 0.815762
O O14 0.427143 0.250000 0.176727
#
# Coordination Sequence:
#
# PCOD9450115 Si02
#       5
#     8   8   8   8   8
#     4  10  20  34  53  75  99 128 163 204 247 290
#     4   9  17  31  52  74  96 127 167 205 241 288
#     4   9  18  32  48  68  97 130 162 199 244 290
#     4  10  20  34  52  73 100 133 165 199 243 294
#     4   9  18  33  52  74 100 129 162 202 248 293
#
# _framework density 21.414984
#
# number of rings (size 3 to 8) (size 9 to 14) (size 15 to 20)
#    0.000    2.600    0.000    1.800    0.000    5.200 
#    0.000    4.000    0.000    2.400    0.000    0.000 
#    0.000    0.000    0.000    0.000    0.000    0.000 
#
# Total GULP energy -223409.676707 kJ/mol
# GULP energy per Si atom -5585.241918 kJ/mol
# Density = 2.136624 g / cm^3
# Si number density = 21.414984 Si / 1000 Ang^3
#
#
#
# Elastic Constant Matrix: (Units=GPa)
#
#
# Indices 1 2 3 4 5 6 
#
# 1 48.3530 -1.8627 -2.8491 0.0000 0.0000 0.0000
# 2 -1.8627 53.0803 -11.7880 0.0000 0.0000 0.0000
# 3 -2.8491 -11.7880 61.5301 0.0000 0.0000 0.0000
# 4 0.0000 0.0000 0.0000 31.1918 0.0000 0.0000
# 5 0.0000 0.0000 0.0000 0.0000 172.5875 0.0000
# 6 0.0000 0.0000 0.0000 0.0000 0.0000 10.0946
#
#
#
# Elastic Compliance Matrix: (Units=1/GPa)
#
#
# Indices 1 2 3 4 5 6 
#
# 1 0.020787 0.000985 0.001151 0.000000 0.000000 0.000000
# 2 0.000985 0.019723 0.003824 0.000000 0.000000 0.000000
# 3 0.001151 0.003824 0.017038 0.000000 0.000000 0.000000
# 4 0.000000 0.000000 0.000000 0.032060 0.000000 0.000000
# 5 0.000000 0.000000 0.000000 0.000000 0.005794 0.000000
# 6 0.000000 0.000000 0.000000 0.000000 0.000000 0.099063
#
#
# Mechanical properties :
#
#
# Convention : Reuss Voigt Hill
#
# Bulk Modulus (GPa) = 14.39479 14.44043 14.41761
# Shear Modulus (GPa) = 24.30714 54.73899 39.52307
#
# Velocity S-wave (km/s) = 3.37271 5.06128 4.30068
# Velocity P-wave (km/s) = 4.68010 6.39634 5.60431
#
# Compressibility (1/GPa) = 0.06946957
#
# Stress axis : x y z
#
# Youngs Moduli (GPa) = 48.10694 50.70166 58.69176
#
# Poissons Ratio (x) = -0.04995 -0.06757
# Poissons Ratio (y) = -0.04739 -0.22445
# Poissons Ratio (z) = -0.05538 -0.19389
#
# Static dielectric constant tensor:
#      x y z
#    x 1.757260 0.000000 0.000000 
#    y 0.000000 1.813630 0.000000 
#    z 0.000000 0.000000 1.731340 
# 
# From -- ./inp_files/7127.got.cif
#   From: 2010.05.17/outbox.cif.g08.bks.cpg/sg59_4_cif.got.tgz:7127.got - 2010.06.03 14:40:33.
