data_PCOD9450577
_publ_section_title
;
Structure prediction by ZEFSAII (Michael W. Deem and Ramdas Pophale) SiO2 
 PCOD9450577
Probable space group: P M M N
;
_chemical_formula_sum "Si O2"
_cell_formula_units_Z 64
_cell_length_a 24.012721
_cell_length_b 8.665624
_cell_length_c 15.273989
_cell_angle_alpha 90.000000
_cell_angle_beta 90.000000
_cell_angle_gamma 90.000000
_cell_volume 3178.291230
_symmetry_space_group_name_H-M "P M M N"
_symmetry_group_IT_number 59
_space_group.IT_coordinate_system_code '2'
_symmetry_cell_setting 'orthorhombic'
loop_
_space_group_symop_operation_xyz
x,y,z
1/2-x,1/2-y,z
1/2+x,-y,-z
-x,1/2+y,-z
-x,-y,-z
1/2+x,1/2+y,-z
1/2-x,y,z
x,1/2-y,z
loop_
_atom_site_type_symbol
_atom_site_label
_atom_site_fract_x
_atom_site_fract_y
_atom_site_fract_z
Si Si1 0.686169 0.436552 0.011868
Si Si2 0.686431 0.935062 0.367838
Si Si3 0.600799 0.437095 0.858677
Si Si4 0.010775 0.933916 0.782069
Si Si5 0.646089 0.072031 0.541924
Si Si6 0.631846 0.564307 0.185711
Si Si7 0.809783 0.438138 0.718242
Si Si8 0.981644 0.072149 0.592433
O O1 0.750000 0.483674 0.989767
O O2 0.686047 0.250000 0.013728
O O3 0.667982 0.501687 0.105414
O O4 0.637998 0.481869 0.942615
O O5 0.750000 0.991780 0.377406
O O6 0.688064 0.750000 0.364902
O O7 0.659254 0.988184 0.277313
O O8 0.650780 0.984425 0.451373
O O9 0.595833 0.250000 0.858069
O O10 0.540209 0.507049 0.842292
O O11 0.638978 0.487553 0.776855
O O12 0.012807 0.750000 0.783660
O O13 0.068942 0.002423 0.815816
O O14 0.914855 0.070183 0.584776
O O15 0.660938 0.250000 0.524008
O O16 0.685111 0.008159 0.618532
O O17 0.499094 0.989174 0.681342
O O18 0.631275 0.750000 0.183436
O O19 0.750000 0.481678 0.756341
O O20 0.811954 0.250000 0.716004
O O21 0.000612 0.250000 0.597416
O O22 0.000000 0.000000 0.500000
#
# Coordination Sequence:
#
# PCOD9450577 Si02
#       8
#     8   8   8   8   8   8   8   8
#     4  10  22  41  68 101 130 159 202 257 316 378
#     4  10  22  39  58  84 119 158 201 251 309 368
#     4  10  20  39  64  91 126 165 202 246 303 371
#     4  12  25  41  62  91 126 164 210 263 317 374
#     4  10  20  34  55  84 117 155 201 246 295 356
#     4  11  24  43  66  88 119 166 213 261 318 379
#     4   9  16  30  55  85 116 152 194 238 289 355
#     4  11  22  38  59  86 121 165 213 260 308 367
#
# _framework density 20.136606
#
# number of rings (size 3 to 8) (size 9 to 14) (size 15 to 20)
#    0.000    1.625    1.250    3.750    0.000    8.000 
#    0.000    0.000    0.000    1.125    0.000    0.000 
#    0.000    0.000    0.000    0.000    0.000    0.000 
#
# Total GULP energy -357444.657765 kJ/mol
# GULP energy per Si atom -5585.072778 kJ/mol
# Density = 2.009077 g / cm^3
# Si number density = 20.136606 Si / 1000 Ang^3
#
#
#
# Elastic Constant Matrix: (Units=GPa)
#
#
# Indices 1 2 3 4 5 6 
#
# 1 63.7498 12.9749 14.1178 0.0000 0.0000 0.0000
# 2 12.9749 31.9995 16.0692 0.0000 0.0000 0.0000
# 3 14.1178 16.0692 96.6045 0.0000 0.0000 0.0000
# 4 0.0000 0.0000 0.0000 23.0219 0.0000 0.0000
# 5 0.0000 0.0000 0.0000 0.0000 29.8662 0.0000
# 6 0.0000 0.0000 0.0000 0.0000 0.0000 19.8355
#
#
#
# Elastic Compliance Matrix: (Units=1/GPa)
#
#
# Indices 1 2 3 4 5 6 
#
# 1 0.017290 -0.006265 -0.001485 0.000000 0.000000 0.000000
# 2 -0.006265 0.036369 -0.005134 0.000000 0.000000 0.000000
# 3 -0.001485 -0.005134 0.011422 0.000000 0.000000 0.000000
# 4 0.000000 0.000000 0.000000 0.043437 0.000000 0.000000
# 5 0.000000 0.000000 0.000000 0.000000 0.033483 0.000000
# 6 0.000000 0.000000 0.000000 0.000000 0.000000 0.050415
#
#
# Mechanical properties :
#
#
# Convention : Reuss Voigt Hill
#
# Bulk Modulus (GPa) = 25.43621 30.96417 28.20019
# Shear Modulus (GPa) = 21.61806 24.49086 23.05446
#
# Velocity S-wave (km/s) = 3.28009 3.49124 3.38731
# Velocity P-wave (km/s) = 5.19659 5.62691 5.41603
#
# Compressibility (1/GPa) = 0.03931403
#
# Stress axis : x y z
#
# Youngs Moduli (GPa) = 57.83608 27.49597 87.54697
#
# Poissons Ratio (x) = 0.17227 0.12998
# Poissons Ratio (y) = 0.36235 0.44947
# Poissons Ratio (z) = 0.08587 0.14116
#
# Static dielectric constant tensor:
#      x y z
#    x 1.787100 0.000000 0.000000 
#    y 0.000000 1.760910 0.000000 
#    z 0.000000 0.000000 1.704360 
# 
# From -- ./inp_files/28159.got.cif
#   From: 2010.05.17/outbox.cif.g08.bks.cpg/sg59_15_cif.got.tgz:28159.got - 2010.06.03 14:40:33.
