data_PCOD9450575
_publ_section_title
;
Structure prediction by ZEFSAII (Michael W. Deem and Ramdas Pophale) SiO2 
 PCOD9450575
Probable space group: P M M N
;
_chemical_formula_sum "Si O2"
_cell_formula_units_Z 56
_cell_length_a 8.908838
_cell_length_b 14.350404
_cell_length_c 23.374097
_cell_angle_alpha 90.000000
_cell_angle_beta 90.000000
_cell_angle_gamma 90.000000
_cell_volume 2988.271353
_symmetry_space_group_name_H-M "P M M N"
_symmetry_group_IT_number 59
_space_group.IT_coordinate_system_code '2'
_symmetry_cell_setting 'orthorhombic'
loop_
_space_group_symop_operation_xyz
x,y,z
1/2-x,1/2-y,z
1/2+x,-y,-z
-x,1/2+y,-z
-x,-y,-z
1/2+x,1/2+y,-z
1/2-x,y,z
x,1/2-y,z
loop_
_atom_site_type_symbol
_atom_site_label
_atom_site_fract_x
_atom_site_fract_y
_atom_site_fract_z
Si Si1 0.929264 0.358151 0.406349
Si Si2 0.929269 0.035380 0.636900
Si Si3 0.924757 0.861481 0.470708
Si Si4 0.069884 0.859458 0.245278
Si Si5 0.425261 0.861361 0.030883
Si Si6 0.429113 0.358528 0.092737
Si Si7 0.428781 0.465155 0.861569
O O1 0.750000 0.367759 0.405455
O O2 0.967471 0.250000 0.394670
O O3 0.005009 0.431292 0.363891
O O4 0.990332 0.380872 0.469941
O O5 0.750000 0.032775 0.630663
O O6 0.965832 0.091091 0.694661
O O7 0.000593 0.087635 0.582630
O O8 0.750000 0.888307 0.476108
O O9 0.932411 0.750000 0.461608
O O10 0.250000 0.866777 0.236189
O O11 0.031975 0.750000 0.247317
O O12 0.986434 0.910416 0.193782
O O13 0.250000 0.888418 0.027471
O O14 0.432170 0.750000 0.041056
O O15 0.505147 0.913430 0.082631
O O16 0.505794 0.879233 0.970506
O O17 0.250000 0.370910 0.092556
O O18 0.462205 0.250000 0.105127
O O19 0.505625 0.430491 0.135691
O O20 0.250000 0.466500 0.863924
#
# Coordination Sequence:
#
# PCOD9450575 Si02
#       7
#     8   8   8   8   8   8   8
#     4  10  21  37  57  82 114 150 188 231 278 330
#     4  11  22  37  59  84 112 147 187 232 282 335
#     4  10  20  34  55  84 117 151 187 229 278 333
#     4  10  23  43  63  83 110 146 188 231 275 328
#     4  10  20  35  57  85 118 153 188 230 280 333
#     4  10  21  38  60  85 114 148 188 233 279 331
#     4  12  24  37  57  84 115 150 188 232 281 333
#
# _framework density 18.739930999999999
#
# number of rings (size 3 to 8) (size 9 to 14) (size 15 to 20)
#    0.000    1.571    0.000    5.143    0.000    7.143 
#    0.000    0.714    0.000    0.857    0.000    0.000 
#    0.000    0.000    0.000    0.000    0.000    0.000 
#
# Total GULP energy -313165.213469 kJ/mol
# GULP energy per Si atom -5592.235955 kJ/mol
# Density = 1.869728 g / cm^3
# Si number density = 18.739931 Si / 1000 Ang^3
#
#
#
# Elastic Constant Matrix: (Units=GPa)
#
#
# Indices 1 2 3 4 5 6 
#
# 1 103.8468 75.9037 61.3923 0.0000 0.0000 0.0000
# 2 75.9037 126.3358 86.2979 0.0000 0.0000 0.0000
# 3 61.3923 86.2979 78.8130 0.0000 0.0000 0.0000
# 4 0.0000 0.0000 0.0000 33.1810 0.0000 0.0000
# 5 0.0000 0.0000 0.0000 0.0000 28.2322 0.0000
# 6 0.0000 0.0000 0.0000 0.0000 0.0000 33.2585
#
#
#
# Elastic Compliance Matrix: (Units=1/GPa)
#
#
# Indices 1 2 3 4 5 6 
#
# 1 0.018637 -0.005081 -0.008954 0.000000 0.000000 0.000000
# 2 -0.005081 0.032790 -0.031946 0.000000 0.000000 0.000000
# 3 -0.008954 -0.031946 0.054643 0.000000 0.000000 0.000000
# 4 0.000000 0.000000 0.000000 0.030138 0.000000 0.000000
# 5 0.000000 0.000000 0.000000 0.000000 0.035421 0.000000
# 6 0.000000 0.000000 0.000000 0.000000 0.000000 0.030068
#
#
# Mechanical properties :
#
#
# Convention : Reuss Voigt Hill
#
# Bulk Modulus (GPa) = 70.88254 84.02037 77.45145
# Shear Modulus (GPa) = 16.75831 24.62781 20.69306
#
# Velocity S-wave (km/s) = 2.99366 3.62911 3.32659
# Velocity P-wave (km/s) = 7.06086 7.90524 7.49495
#
# Compressibility (1/GPa) = 0.01410785
#
# Stress axis : x y z
#
# Youngs Moduli (GPa) = 53.65797 30.49724 18.30059
#
# Poissons Ratio (x) = 0.15495 0.16386
# Poissons Ratio (y) = 0.27262 0.58463
# Poissons Ratio (z) = 0.48045 0.97427
#
# Static dielectric constant tensor:
#      x y z
#    x 1.622830 0.000000 0.000000 
#    y 0.000000 1.674930 0.000000 
#    z 0.000000 0.000000 1.603580 
# 
# From -- ./inp_files/29045.got.cif
#   From: 2010.05.17/outbox.cif.g08.bks.cpg/sg59_15_cif.got.tgz:29045.got - 2010.06.03 14:40:33.
