data_PCOD9450201
_publ_section_title
;
Structure prediction by ZEFSAII (Michael W. Deem and Ramdas Pophale) SiO2 
 PCOD9450201
Probable space group: P M M N
;
_chemical_formula_sum "Si O2"
_cell_formula_units_Z 64
_cell_length_a 18.660674
_cell_length_b 7.897722
_cell_length_c 22.382692
_cell_angle_alpha 90.000000
_cell_angle_beta 90.000000
_cell_angle_gamma 90.000000
_cell_volume 3298.689871
_symmetry_space_group_name_H-M "P M M N"
_symmetry_group_IT_number 59
_space_group.IT_coordinate_system_code '2'
_symmetry_cell_setting 'orthorhombic'
loop_
_space_group_symop_operation_xyz
x,y,z
1/2-x,1/2-y,z
1/2+x,-y,-z
-x,1/2+y,-z
-x,-y,-z
1/2+x,1/2+y,-z
1/2-x,y,z
x,1/2-y,z
loop_
_atom_site_type_symbol
_atom_site_label
_atom_site_fract_x
_atom_site_fract_y
_atom_site_fract_z
Si Si1 0.601305 0.547158 0.752568
Si Si2 0.669375 0.952156 0.268307
Si Si3 0.474567 0.950722 0.065460
Si Si4 0.915747 0.957649 0.620929
Si Si5 0.667900 0.545100 0.503030
Si Si6 0.580788 0.451272 0.384997
Si Si7 0.954420 0.544645 0.185827
Si Si8 0.670804 0.954152 0.874124
O O1 0.610305 0.750000 0.751420
O O2 0.613899 0.485511 0.685391
O O3 0.519600 0.508214 0.771044
O O4 0.648872 0.482128 0.807780
O O5 0.750000 0.021886 0.270341
O O6 0.674793 0.750000 0.260379
O O7 0.619402 0.017853 0.214556
O O8 0.627025 0.980268 0.329877
O O9 0.478163 0.750000 0.069189
O O10 0.524277 0.018333 0.119768
O O11 0.393345 0.001218 0.081321
O O12 0.500000 0.000000 0.000000
O O13 0.915559 0.750000 0.620814
O O14 0.869023 0.012953 0.564520
O O15 0.998573 0.013469 0.615139
O O16 0.750000 0.485833 0.497513
O O17 0.669286 0.750000 0.504068
O O18 0.620403 0.492517 0.446657
O O19 0.577645 0.250000 0.377696
O O20 0.952646 0.750000 0.184751
O O21 0.750000 0.014866 0.890834
O O22 0.672734 0.750000 0.871310
#
# Coordination Sequence:
#
# PCOD9450201 Si02
#       8
#     8   8   8   8   8   8   8   8
#     4   9  16  30  52  76 103 132 166 209 257 307
#     4  10  20  34  53  76 101 130 166 209 257 307
#     4  10  20  35  56  81 109 145 184 220 260 307
#     4   9  18  32  51  75  99 128 168 211 257 308
#     4  10  21  36  51  68  95 132 172 213 257 306
#     4  11  21  34  52  73  99 130 167 211 258 309
#     4   9  18  33  52  75 103 133 169 208 250 303
#     4   9  18  32  53  82 112 142 177 217 262 313
#
# _framework density 19.401641999999999
#
# number of rings (size 3 to 8) (size 9 to 14) (size 15 to 20)
#    0.000    2.375    1.250    1.500    0.000    3.250 
#    0.000    4.375    0.000    2.250    0.000    1.750 
#    0.000    0.000    0.000    0.000    0.000    0.000 
#
# Total GULP energy -357091.162067 kJ/mol
# GULP energy per Si atom -5579.549407 kJ/mol
# Density = 1.935748 g / cm^3
# Si number density = 19.401642 Si / 1000 Ang^3
#
#
#
# Elastic Constant Matrix: (Units=GPa)
#
#
# Indices 1 2 3 4 5 6 
#
# 1 94.0182 6.2946 62.7554 0.0000 0.0000 0.0000
# 2 6.2946 17.8605 1.8108 0.0000 0.0000 0.0000
# 3 62.7554 1.8108 145.0435 0.0000 0.0000 0.0000
# 4 0.0000 0.0000 0.0000 12.4715 0.0000 0.0000
# 5 0.0000 0.0000 0.0000 0.0000 17.0210 0.0000
# 6 0.0000 0.0000 0.0000 0.0000 0.0000 19.4897
#
#
#
# Elastic Compliance Matrix: (Units=1/GPa)
#
#
# Indices 1 2 3 4 5 6 
#
# 1 0.015346 -0.004741 -0.006581 0.000000 0.000000 0.000000
# 2 -0.004741 0.057525 0.001333 0.000000 0.000000 0.000000
# 3 -0.006581 0.001333 0.009725 0.000000 0.000000 0.000000
# 4 0.000000 0.000000 0.000000 0.080183 0.000000 0.000000
# 5 0.000000 0.000000 0.000000 0.000000 0.058751 0.000000
# 6 0.000000 0.000000 0.000000 0.000000 0.000000 0.051309
#
#
# Mechanical properties :
#
#
# Convention : Reuss Voigt Hill
#
# Bulk Modulus (GPa) = 15.96952 44.29376 30.13164
# Shear Modulus (GPa) = 15.93932 22.20052 19.06992
#
# Velocity S-wave (km/s) = 2.86937 3.38636 3.13853
# Velocity P-wave (km/s) = 4.38481 6.17814 5.35705
#
# Compressibility (1/GPa) = 0.06261929
#
# Stress axis : x y z
#
# Youngs Moduli (GPa) = 65.16332 17.38363 102.82764
#
# Poissons Ratio (x) = 0.08242 0.67666
# Poissons Ratio (y) = 0.30896 -0.13709
# Poissons Ratio (z) = 0.42881 -0.02318
#
# Static dielectric constant tensor:
#      x y z
#    x 1.673370 0.000000 0.000000 
#    y 0.000000 1.714030 0.000000 
#    z 0.000000 0.000000 1.779440 
# 
# From -- ./inp_files/30672.got.cif
#   From: 2010.05.17/outbox.cif.g08.bks.cpg/sg59_16_cif.got.tgz:30672.got - 2010.06.03 14:40:33.
