data_PCOD9450565
_publ_section_title
;
Structure prediction by ZEFSAII (Michael W. Deem and Ramdas Pophale) SiO2 
 PCOD9450565
Probable space group: P M M N
;
_chemical_formula_sum "Si O2"
_cell_formula_units_Z 48
_cell_length_a 8.843037
_cell_length_b 14.025273
_cell_length_c 21.260149
_cell_angle_alpha 90.000000
_cell_angle_beta 90.000000
_cell_angle_gamma 90.000000
_cell_volume 2636.811412
_symmetry_space_group_name_H-M "P M M N"
_symmetry_group_IT_number 59
_space_group.IT_coordinate_system_code '2'
_symmetry_cell_setting 'orthorhombic'
loop_
_space_group_symop_operation_xyz
x,y,z
1/2-x,1/2-y,z
1/2+x,-y,-z
-x,1/2+y,-z
-x,-y,-z
1/2+x,1/2+y,-z
1/2-x,y,z
x,1/2-y,z
loop_
_atom_site_type_symbol
_atom_site_label
_atom_site_fract_x
_atom_site_fract_y
_atom_site_fract_z
Si Si1 0.574798 0.864622 0.466510
Si Si2 0.430216 0.861527 0.601393
Si Si3 0.931481 0.641588 0.972884
Si Si4 0.569893 0.039456 0.655879
Si Si5 0.069344 0.549515 0.096542
Si Si6 0.568990 0.862215 0.221607
O O1 0.750000 0.895531 0.469989
O O2 0.572552 0.750000 0.459981
O O3 0.490605 0.887070 0.531662
O O4 0.494947 0.908975 0.406201
O O5 0.250000 0.874073 0.603644
O O6 0.464892 0.750000 0.611913
O O7 0.510657 0.931320 0.650125
O O8 0.750000 0.636645 0.983436
O O9 0.969358 0.750000 0.954863
O O10 0.968535 0.559943 0.922042
O O11 0.013328 0.612220 0.037417
O O12 0.750000 0.042414 0.655746
O O13 0.505111 0.091189 0.717081
O O14 0.250000 0.557514 0.103007
O O15 0.990023 0.585480 0.159354
O O16 0.750000 0.870234 0.225906
O O17 0.530279 0.750000 0.218188
#
# Coordination Sequence:
#
# PCOD9450565 Si02
#       6
#     8   8   8   8   8   8
#     4  10  20  35  56  82 112 144 180 225 276 328
#     4  10  21  38  59  81 107 141 182 227 274 326
#     4   9  18  34  56  82 114 150 184 220 266 319
#     4  12  24  37  56  81 110 143 181 227 276 328
#     4  10  20  34  55  84 114 145 184 228 272 319
#     4  11  24  41  59  79 108 146 184 223 272 331
#
# _framework density 18.203804000000002
#
# number of rings (size 3 to 8) (size 9 to 14) (size 15 to 20)
#    0.000    1.667    0.000    5.000    0.000    8.333 
#    0.000    0.833    0.000    3.000    0.000    0.000 
#    0.000    0.000    0.000    0.000    0.000    0.000 
#
# Total GULP energy -268284.478233 kJ/mol
# GULP energy per Si atom -5589.259963 kJ/mol
# Density = 1.816237 g / cm^3
# Si number density = 18.203804 Si / 1000 Ang^3
#
#
#
# Elastic Constant Matrix: (Units=GPa)
#
#
# Indices 1 2 3 4 5 6 
#
# 1 97.8546 64.6608 60.1500 0.0000 0.0000 0.0000
# 2 64.6608 131.3684 75.6898 0.0000 0.0000 0.0000
# 3 60.1500 75.6898 102.9439 0.0000 0.0000 0.0000
# 4 0.0000 0.0000 0.0000 22.2493 0.0000 0.0000
# 5 0.0000 0.0000 0.0000 0.0000 33.8395 0.0000
# 6 0.0000 0.0000 0.0000 0.0000 0.0000 30.1565
#
#
#
# Elastic Compliance Matrix: (Units=1/GPa)
#
#
# Indices 1 2 3 4 5 6 
#
# 1 0.017484 -0.004719 -0.006747 0.000000 0.000000 0.000000
# 2 -0.004719 0.014481 -0.007890 0.000000 0.000000 0.000000
# 3 -0.006747 -0.007890 0.019457 0.000000 0.000000 0.000000
# 4 0.000000 0.000000 0.000000 0.044945 0.000000 0.000000
# 5 0.000000 0.000000 0.000000 0.000000 0.029551 0.000000
# 6 0.000000 0.000000 0.000000 0.000000 0.000000 0.033160
#
#
# Mechanical properties :
#
#
# Convention : Reuss Voigt Hill
#
# Bulk Modulus (GPa) = 78.66736 81.46312 80.06524
# Shear Modulus (GPa) = 24.74926 26.02683 25.38804
#
# Velocity S-wave (km/s) = 3.69123 3.78530 3.73856
# Velocity P-wave (km/s) = 7.84063 7.99703 7.91921
#
# Compressibility (1/GPa) = 0.01271175
#
# Stress axis : x y z
#
# Youngs Moduli (GPa) = 57.19379 69.05782 51.39553
#
# Poissons Ratio (x) = 0.32588 0.34674
# Poissons Ratio (y) = 0.26989 0.40549
# Poissons Ratio (z) = 0.38586 0.54484
#
# Static dielectric constant tensor:
#      x y z
#    x 1.607110 0.000000 0.000000 
#    y 0.000000 1.655120 0.000000 
#    z 0.000000 0.000000 1.575750 
# 
# From -- ./inp_files/25472.got.cif
#   From: 2010.05.17/outbox.cif.g08.bks.cpg/sg59_13_cif.got.tgz:25472.got - 2010.06.03 14:40:33.
