data_PCOD9450847
_publ_section_title
;
Structure prediction by ZEFSAII (Michael W. Deem and Ramdas Pophale) SiO2 
 PCOD9450847
Probable space group: P M M N
;
_chemical_formula_sum "Si O2"
_cell_formula_units_Z 48
_cell_length_a 29.260673
_cell_length_b 7.597445
_cell_length_c 10.377907
_cell_angle_alpha 90.000000
_cell_angle_beta 90.000000
_cell_angle_gamma 90.000000
_cell_volume 2307.074665
_symmetry_space_group_name_H-M "P M M N"
_symmetry_group_IT_number 59
_space_group.IT_coordinate_system_code '2'
_symmetry_cell_setting 'orthorhombic'
loop_
_space_group_symop_operation_xyz
x,y,z
1/2-x,1/2-y,z
1/2+x,-y,-z
-x,1/2+y,-z
-x,-y,-z
1/2+x,1/2+y,-z
1/2-x,y,z
x,1/2-y,z
loop_
_atom_site_type_symbol
_atom_site_label
_atom_site_fract_x
_atom_site_fract_y
_atom_site_fract_z
Si Si1 0.100553 0.456682 0.738556
Si Si2 0.004860 0.461734 0.847970
Si Si3 0.250000 0.039212 0.404411
Si Si4 0.348638 0.458599 0.488504
Si Si5 0.592891 0.037133 0.763784
Si Si6 0.750000 0.462140 0.899574
Si Si7 0.653464 0.036636 0.006662
O O1 0.092285 0.250000 0.712622
O O2 0.123869 0.533178 0.610642
O O3 0.135330 0.472720 0.857117
O O4 0.051995 0.531450 0.787355
O O5 0.005720 0.250000 0.838078
O O6 0.959364 0.524466 0.774631
O O7 0.000000 0.500000 0.000000
O O8 0.250000 0.250000 0.422074
O O9 0.202431 0.969250 0.463244
O O10 0.250000 0.007826 0.251095
O O11 0.342827 0.250000 0.511699
O O12 0.378988 0.479781 0.360666
O O13 0.592799 0.250000 0.763186
O O14 0.619241 0.980198 0.892970
O O15 0.750000 0.250000 0.906302
O O16 0.796039 0.524455 0.968301
O O17 0.653305 0.250000 0.009336
#
# Coordination Sequence:
#
# PCOD9450847 Si02
#       7
#     8   8   4   8   8   4   8
#     4  10  22  38  56  81 115 148 181 225 275 328
#     4  10  20  35  56  82 111 144 183 226 275 326
#     4  10  20  35  56  78 106 144 184 221 268 326
#     4  10  22  38  55  80 112 146 183 225 273 328
#     4  10  20  35  57  83 109 142 184 227 270 323
#     4  10  20  35  56  82 110 138 180 233 276 320
#     4  10  20  35  56  82 110 140 180 228 273 322
#
# _framework density 20.805571
#
# number of rings (size 3 to 8) (size 9 to 14) (size 15 to 20)
#    0.000    2.000    3.333    0.000    0.000    4.000 
#    0.000    0.833    0.000    0.000    0.000    0.000 
#    0.000    0.000    0.000    0.000    0.000    0.000 
#
# Total GULP energy -268092.624863 kJ/mol
# GULP energy per Si atom -5585.263018 kJ/mol
# Density = 2.075822 g / cm^3
# Si number density = 20.805571 Si / 1000 Ang^3
#
#
#
# Elastic Constant Matrix: (Units=GPa)
#
#
# Indices 1 2 3 4 5 6 
#
# 1 187.5558 6.6353 67.1208 0.0000 0.0000 0.0000
# 2 6.6353 41.8490 -10.6471 0.0000 0.0000 0.0000
# 3 67.1208 -10.6471 122.3339 0.0000 0.0000 0.0000
# 4 0.0000 0.0000 0.0000 24.1074 0.0000 0.0000
# 5 0.0000 0.0000 0.0000 0.0000 23.3158 0.0000
# 6 0.0000 0.0000 0.0000 0.0000 0.0000 5.4439
#
#
#
# Elastic Compliance Matrix: (Units=1/GPa)
#
#
# Indices 1 2 3 4 5 6 
#
# 1 0.006806 -0.002075 -0.003915 0.000000 0.000000 0.000000
# 2 -0.002075 0.025069 0.003320 0.000000 0.000000 0.000000
# 3 -0.003915 0.003320 0.010611 0.000000 0.000000 0.000000
# 4 0.000000 0.000000 0.000000 0.041481 0.000000 0.000000
# 5 0.000000 0.000000 0.000000 0.000000 0.042889 0.000000
# 6 0.000000 0.000000 0.000000 0.000000 0.000000 0.183692
#
#
# Mechanical properties :
#
#
# Convention : Reuss Voigt Hill
#
# Bulk Modulus (GPa) = 26.91980 53.10630 40.01305
# Shear Modulus (GPa) = 15.23131 29.81540 22.52336
#
# Velocity S-wave (km/s) = 2.70863 3.78967 3.29380
# Velocity P-wave (km/s) = 4.76960 6.68799 5.80854
#
# Compressibility (1/GPa) = 0.03714738
#
# Stress axis : x y z
#
# Youngs Moduli (GPa) = 146.92458 39.88955 94.23870
#
# Poissons Ratio (x) = 0.08278 0.36894
# Poissons Ratio (y) = 0.30490 -0.31291
# Poissons Ratio (z) = 0.57520 -0.13245
#
# Static dielectric constant tensor:
#      x y z
#    x 1.762970 0.000000 0.000000 
#    y 0.000000 1.784400 0.000000 
#    z 0.000000 0.000000 1.684160 
# 
# From -- ./inp_files/12985.got.cif
#   From: 2010.05.17/outbox.cif.g08.bks.cpg/sg59_7_cif.got.tgz:12985.got - 2010.06.03 14:40:33.
