data_PCOD9450042
_publ_section_title
;
Structure prediction by ZEFSAII (Michael W. Deem and Ramdas Pophale) SiO2 
 PCOD9450042
Probable space group: P M M N
;
_chemical_formula_sum "Si O2"
_cell_formula_units_Z 64
_cell_length_a 8.867038
_cell_length_b 19.596560
_cell_length_c 20.874856
_cell_angle_alpha 90.000000
_cell_angle_beta 90.000000
_cell_angle_gamma 90.000000
_cell_volume 3627.286834
_symmetry_space_group_name_H-M "P M M N"
_symmetry_group_IT_number 59
_space_group.IT_coordinate_system_code '2'
_symmetry_cell_setting 'orthorhombic'
loop_
_space_group_symop_operation_xyz
x,y,z
1/2-x,1/2-y,z
1/2+x,-y,-z
-x,1/2+y,-z
-x,-y,-z
1/2+x,1/2+y,-z
1/2-x,y,z
x,1/2-y,z
loop_
_atom_site_type_symbol
_atom_site_label
_atom_site_fract_x
_atom_site_fract_y
_atom_site_fract_z
Si Si1 0.572164 0.828455 0.249042
Si Si2 0.570526 0.960904 0.682511
Si Si3 0.069261 0.671345 0.736320
Si Si4 0.069240 0.037237 0.061199
Si Si5 0.930184 0.454144 0.811418
Si Si6 0.070217 0.462867 0.561239
Si Si7 0.931433 0.327952 0.112977
Si Si8 0.569965 0.171317 0.610818
O O1 0.750000 0.838108 0.260821
O O2 0.547402 0.750000 0.229364
O O3 0.513025 0.882610 0.198142
O O4 0.484824 0.839193 0.316005
O O5 0.750000 0.964187 0.671730
O O6 0.516295 0.883810 0.693996
O O7 0.535758 0.000930 0.748463
O O8 0.485901 0.997114 0.624339
O O9 0.250000 0.661842 0.730522
O O10 0.035110 0.750000 0.719928
O O11 0.030288 0.661756 0.811660
O O12 0.250000 0.038194 0.056864
O O13 0.008389 0.113705 0.071390
O O14 0.025976 0.994815 0.125006
O O15 0.000000 0.000000 0.000000
O O16 0.750000 0.443171 0.812946
O O17 0.250000 0.463282 0.557885
O O18 0.000000 0.500000 0.500000
O O19 0.009881 0.385594 0.568174
O O20 0.750000 0.333326 0.107799
O O21 0.973631 0.250000 0.096165
O O22 0.750000 0.162394 0.608106
O O23 0.533905 0.250000 0.593806
#
# Coordination Sequence:
#
# PCOD9450042 Si02
#       8
#     8   8   8   8   8   8   8   8
#     4  10  20  33  54  86 117 147 189 238 286 337
#     4  11  21  36  58  86 117 148 189 237 283 339
#     4   9  18  33  55  85 118 151 190 236 287 340
#     4  11  23  39  57  83 115 152 194 238 286 341
#     4  10  21  36  56  82 114 148 187 233 285 340
#     4  12  25  41  61  86 118 155 194 238 286 341
#     4   9  18  34  57  84 113 147 188 233 283 342
#     4  10  20  36  59  86 117 152 190 233 283 340
#
# _framework density 17.644041999999999
#
# number of rings (size 3 to 8) (size 9 to 14) (size 15 to 20)
#    0.000    1.750    2.500    3.375    0.000    3.500 
#    0.000    2.500    0.000    4.500    0.000    0.000 
#    0.000    0.000    0.000    0.000    0.000    0.000 
#
# Total GULP energy -357444.607428 kJ/mol
# GULP energy per Si atom -5585.071991 kJ/mol
# Density = 1.760388 g / cm^3
# Si number density = 17.644042 Si / 1000 Ang^3
#
#
#
# Elastic Constant Matrix: (Units=GPa)
#
#
# Indices 1 2 3 4 5 6 
#
# 1 72.3538 71.1273 58.9292 0.0000 0.0000 0.0000
# 2 71.1273 151.9093 72.3784 0.0000 0.0000 0.0000
# 3 58.9292 72.3784 100.9475 0.0000 0.0000 0.0000
# 4 0.0000 0.0000 0.0000 30.1420 0.0000 0.0000
# 5 0.0000 0.0000 0.0000 0.0000 26.3967 0.0000
# 6 0.0000 0.0000 0.0000 0.0000 0.0000 36.8564
#
#
#
# Elastic Compliance Matrix: (Units=1/GPa)
#
#
# Indices 1 2 3 4 5 6 
#
# 1 0.033765 -0.009748 -0.012721 0.000000 0.000000 0.000000
# 2 -0.009748 0.012813 -0.003496 0.000000 0.000000 0.000000
# 3 -0.012721 -0.003496 0.019839 0.000000 0.000000 0.000000
# 4 0.000000 0.000000 0.000000 0.033176 0.000000 0.000000
# 5 0.000000 0.000000 0.000000 0.000000 0.037884 0.000000
# 6 0.000000 0.000000 0.000000 0.000000 0.000000 0.027132
#
#
# Mechanical properties :
#
#
# Convention : Reuss Voigt Hill
#
# Bulk Modulus (GPa) = 69.03390 81.12001 75.07695
# Shear Modulus (GPa) = 22.58672 26.86406 24.72539
#
# Velocity S-wave (km/s) = 3.58178 3.90623 3.74752
# Velocity P-wave (km/s) = 7.50442 8.14988 7.83380
#
# Compressibility (1/GPa) = 0.01448564
#
# Stress axis : x y z
#
# Youngs Moduli (GPa) = 29.61646 78.04553 50.40603
#
# Poissons Ratio (x) = 0.76082 0.64122
# Poissons Ratio (y) = 0.28871 0.17622
# Poissons Ratio (z) = 0.37676 0.27285
#
# Static dielectric constant tensor:
#      x y z
#    x 1.589380 0.000000 0.000000 
#    y 0.000000 1.607970 0.000000 
#    z 0.000000 0.000000 1.572800 
# 
# From -- ./inp_files/29447.got.cif
#   From: 2010.05.17/outbox.cif.g08.bks.cpg/sg59_15_cif.got.tgz:29447.got - 2010.06.03 14:40:33.
