data_PCOD9450729
_publ_section_title
;
Structure prediction by ZEFSAII (Michael W. Deem and Ramdas Pophale) SiO2 
 PCOD9450729
Probable space group: P M M N
;
_chemical_formula_sum "Si O2"
_cell_formula_units_Z 48
_cell_length_a 18.688987
_cell_length_b 8.376648
_cell_length_c 16.154601
_cell_angle_alpha 90.000000
_cell_angle_beta 90.000000
_cell_angle_gamma 90.000000
_cell_volume 2529.020000
_symmetry_space_group_name_H-M "P M M N"
_symmetry_group_IT_number 59
_space_group.IT_coordinate_system_code '2'
_symmetry_cell_setting 'orthorhombic'
loop_
_space_group_symop_operation_xyz
x,y,z
1/2-x,1/2-y,z
1/2+x,-y,-z
-x,1/2+y,-z
-x,-y,-z
1/2+x,1/2+y,-z
1/2-x,y,z
x,1/2-y,z
loop_
_atom_site_type_symbol
_atom_site_label
_atom_site_fract_x
_atom_site_fract_y
_atom_site_fract_z
Si Si1 0.667737 0.444939 0.501312
Si Si2 0.584175 0.058922 0.665285
Si Si3 0.167237 0.443210 0.174409
Si Si4 0.663070 0.564726 0.006559
Si Si5 0.168080 0.558835 0.816775
Si Si6 0.577930 0.443515 0.340632
O O1 0.750000 0.497427 0.496547
O O2 0.668153 0.250000 0.501241
O O3 0.630195 0.497620 0.586159
O O4 0.622266 0.495282 0.421466
O O5 0.585904 0.250000 0.665482
O O6 0.619300 0.998292 0.749935
O O7 0.502958 0.002292 0.656823
O O8 0.250000 0.494998 0.186483
O O9 0.167607 0.250000 0.171139
O O10 0.140805 0.499427 0.083568
O O11 0.750000 0.557736 0.004218
O O12 0.642372 0.750000 0.012425
O O13 0.640764 0.481204 0.091271
O O14 0.250000 0.497716 0.808477
O O15 0.171497 0.750000 0.809787
O O16 0.118243 0.500351 0.742544
O O17 0.577266 0.250000 0.339966
#
# Coordination Sequence:
#
# PCOD9450729 Si02
#       6
#     8   8   8   8   8   8
#     4   9  18  34  56  79 101 129 168 212 256 302
#     4  11  22  34  51  77 108 138 169 209 255 299
#     4   9  18  34  55  77 102 135 174 211 251 304
#     4   8  15  29  50  75 102 132 165 206 257 305
#     4   9  17  30  51  78 102 128 169 216 256 298
#     4  10  20  35  54  74 102 139 172 204 249 307
#
# _framework density 18.979683000000001
#
# number of rings (size 3 to 8) (size 9 to 14) (size 15 to 20)
#    0.000    2.667    0.000    3.000    0.000    4.333 
#    0.000    3.333    0.000    3.500    0.000    0.000 
#    0.000    0.000    0.000    0.000    0.000    0.000 
#
# Total GULP energy -267716.188683 kJ/mol
# GULP energy per Si atom -5577.420598 kJ/mol
# Density = 1.893648 g / cm^3
# Si number density = 18.979683 Si / 1000 Ang^3
#
#
#
# Elastic Constant Matrix: (Units=GPa)
#
#
# Indices 1 2 3 4 5 6 
#
# 1 98.4387 8.2886 63.0563 0.0000 0.0000 0.0000
# 2 8.2886 7.5226 13.5277 0.0000 0.0000 0.0000
# 3 63.0563 13.5277 155.5052 0.0000 0.0000 0.0000
# 4 0.0000 0.0000 0.0000 73.4074 0.0000 0.0000
# 5 0.0000 0.0000 0.0000 0.0000 -5.5208 0.0000
# 6 0.0000 0.0000 0.0000 0.0000 0.0000 19.5711
#
#
#
# Elastic Compliance Matrix: (Units=1/GPa)
#
#
# Indices 1 2 3 4 5 6 
#
# 1 0.013960 -0.006167 -0.005124 0.000000 0.000000 0.000000
# 2 -0.006167 0.160309 -0.011445 0.000000 0.000000 0.000000
# 3 -0.005124 -0.011445 0.009504 0.000000 0.000000 0.000000
# 4 0.000000 0.000000 0.000000 0.013623 0.000000 0.000000
# 5 0.000000 0.000000 0.000000 0.000000 -0.181132 0.000000
# 6 0.000000 0.000000 0.000000 0.000000 0.000000 0.051096
#
#
# Mechanical properties :
#
#
# Convention : Reuss Voigt Hill
#
# Bulk Modulus (GPa) = 7.23059 47.91241 27.57150
# Shear Modulus (GPa) = 31.45988 29.26447 30.36217
#
# Velocity S-wave (km/s) = 4.07573 3.93094 4.00399
# Velocity P-wave (km/s) = 5.09575 6.77510 5.99452
#
# Compressibility (1/GPa) = 0.13830121
#
# Stress axis : x y z
#
# Youngs Moduli (GPa) = 71.63157 6.23795 105.21703
#
# Poissons Ratio (x) = 0.03847 0.53917
# Poissons Ratio (y) = 0.44174 1.20421
# Poissons Ratio (z) = 0.36707 0.07139
#
# Static dielectric constant tensor:
#      x y z
#    x 1.627590 0.000000 0.000000 
#    y 0.000000 1.665320 0.000000 
#    z 0.000000 0.000000 1.667860 
# 
# From -- ./inp_files/23636.got.cif
#   From: 2010.05.17/outbox.cif.g08.bks.cpg/sg59_12_cif.got.tgz:23636.got - 2010.06.03 14:40:33.
