data_PCOD9450031
_publ_section_title
;
Structure prediction by ZEFSAII (Michael W. Deem and Ramdas Pophale) SiO2 
 PCOD9450031
Probable space group: P M M N
;
_chemical_formula_sum "Si O2"
_cell_formula_units_Z 64
_cell_length_a 15.919759
_cell_length_b 7.934192
_cell_length_c 24.706103
_cell_angle_alpha 90.000000
_cell_angle_beta 90.000000
_cell_angle_gamma 90.000000
_cell_volume 3120.638358
_symmetry_space_group_name_H-M "P M M N"
_symmetry_group_IT_number 59
_space_group.IT_coordinate_system_code '2'
_symmetry_cell_setting 'orthorhombic'
loop_
_space_group_symop_operation_xyz
x,y,z
1/2-x,1/2-y,z
1/2+x,-y,-z
-x,1/2+y,-z
-x,-y,-z
1/2+x,1/2+y,-z
1/2-x,y,z
x,1/2-y,z
loop_
_atom_site_type_symbol
_atom_site_label
_atom_site_fract_x
_atom_site_fract_y
_atom_site_fract_z
Si Si1 0.842136 0.553532 0.678379
Si Si2 0.494363 0.449849 0.742259
Si Si3 0.157772 0.046025 0.668974
Si Si4 0.411624 0.950799 0.555710
Si Si5 0.003106 0.047403 0.864540
Si Si6 0.154511 0.455829 0.939986
Si Si7 0.896458 0.054067 0.562650
Si Si8 0.344820 0.046648 0.064007
O O1 0.750000 0.482041 0.691081
O O2 0.842501 0.750000 0.692569
O O3 0.918841 0.472642 0.710422
O O4 0.858201 0.537396 0.614153
O O5 0.479340 0.250000 0.746791
O O6 0.417961 0.519372 0.706150
O O7 0.497654 0.518749 0.803150
O O8 0.250000 0.995226 0.688626
O O9 0.154270 0.250000 0.668373
O O10 0.144028 0.987114 0.607628
O O11 0.426352 0.750000 0.551101
O O12 0.374526 0.007158 0.497841
O O13 0.502228 0.036123 0.564935
O O14 0.011045 0.250000 0.862167
O O15 0.082462 0.984024 0.899467
O O16 0.916924 0.009939 0.895612
O O17 0.250000 0.506675 0.925842
O O18 0.153544 0.250000 0.939587
O O19 0.137485 0.508323 0.002071
O O20 0.873098 0.250000 0.567554
O O21 0.250000 0.990245 0.078242
O O22 0.344169 0.250000 0.063768
#
# Coordination Sequence:
#
# PCOD9450031 Si02
#       8
#     8   8   8   8   8   8   8   8
#     4  11  24  40  59  82 107 141 186 231 276 328
#     4  10  22  39  56  78 109 144 183 228 277 325
#     4  10  21  37  57  80 108 144 184 226 274 328
#     4  10  20  34  56  85 114 144 178 218 270 331
#     4  10  20  33  54  82 108 139 183 230 272 316
#     4   8  15  30  53  81 112 144 178 218 266 322
#     4  10  20  35  57  84 113 143 176 220 275 330
#     4   9  18  33  53  78 110 147 182 217 266 326
#
# _framework density 20.508624000000001
#
# number of rings (size 3 to 8) (size 9 to 14) (size 15 to 20)
#    0.000    2.250    1.250    2.250    0.000    5.000 
#    0.000    7.500    0.000    1.125    0.000    1.750 
#    0.000    0.000    0.000    0.000    0.000    0.000 
#
# Total GULP energy -357320.787656 kJ/mol
# GULP energy per Si atom -5583.137307 kJ/mol
# Density = 2.046195 g / cm^3
# Si number density = 20.508624 Si / 1000 Ang^3
#
#
#
# Elastic Constant Matrix: (Units=GPa)
#
#
# Indices 1 2 3 4 5 6 
#
# 1 136.8585 -0.5279 95.3140 0.0000 0.0000 0.0000
# 2 -0.5279 19.3707 3.8668 0.0000 0.0000 0.0000
# 3 95.3140 3.8668 146.8905 0.0000 0.0000 0.0000
# 4 0.0000 0.0000 0.0000 1.4264 0.0000 0.0000
# 5 0.0000 0.0000 0.0000 0.0000 -5.2819 0.0000
# 6 0.0000 0.0000 0.0000 0.0000 0.0000 18.1916
#
#
#
# Elastic Compliance Matrix: (Units=1/GPa)
#
#
# Indices 1 2 3 4 5 6 
#
# 1 0.013417 0.002115 -0.008762 0.000000 0.000000 0.000000
# 2 0.002115 0.052230 -0.002747 0.000000 0.000000 0.000000
# 3 -0.008762 -0.002747 0.012565 0.000000 0.000000 0.000000
# 4 0.000000 0.000000 0.000000 0.701054 0.000000 0.000000
# 5 0.000000 0.000000 0.000000 0.000000 -0.189327 0.000000
# 6 0.000000 0.000000 0.000000 0.000000 0.000000 0.054970
#
#
# Mechanical properties :
#
#
# Convention : Reuss Voigt Hill
#
# Bulk Modulus (GPa) = 16.82810 55.60286 36.21548
# Shear Modulus (GPa) = 7.31523 16.49836 11.90679
#
# Velocity S-wave (km/s) = 1.89067 2.83938 2.41213
# Velocity P-wave (km/s) = 3.60408 6.15794 5.04527
#
# Compressibility (1/GPa) = 0.05942440
#
# Stress axis : x y z
#
# Youngs Moduli (GPa) = 74.53269 19.14599 79.58409
#
# Poissons Ratio (x) = -0.04049 0.69729
# Poissons Ratio (y) = -0.15761 0.21862
# Poissons Ratio (z) = 0.65303 0.05260
#
# Static dielectric constant tensor:
#      x y z
#    x 1.727130 0.000000 0.000000 
#    y 0.000000 1.752300 0.000000 
#    z 0.000000 0.000000 1.717710 
# 
# From -- ./inp_files/32245.got.cif
#   From: 2010.05.17/outbox.cif.g08.bks.cpg/sg59_17_cif.got.tgz:32245.got - 2010.06.03 14:40:33.
