data_PCOD9450529
_publ_section_title
;
Structure prediction by ZEFSAII (Michael W. Deem and Ramdas Pophale) SiO2 
 PCOD9450529
Probable space group: P M M N
;
_chemical_formula_sum "Si O2"
_cell_formula_units_Z 48
_cell_length_a 7.827193
_cell_length_b 14.385908
_cell_length_c 21.011892
_cell_angle_alpha 90.000000
_cell_angle_beta 90.000000
_cell_angle_gamma 90.000000
_cell_volume 2365.965901
_symmetry_space_group_name_H-M "P M M N"
_symmetry_group_IT_number 59
_space_group.IT_coordinate_system_code '2'
_symmetry_cell_setting 'orthorhombic'
loop_
_space_group_symop_operation_xyz
x,y,z
1/2-x,1/2-y,z
1/2+x,-y,-z
-x,1/2+y,-z
-x,-y,-z
1/2+x,1/2+y,-z
1/2-x,y,z
x,1/2-y,z
loop_
_atom_site_type_symbol
_atom_site_label
_atom_site_fract_x
_atom_site_fract_y
_atom_site_fract_z
Si Si1 0.550144 0.151330 0.376015
Si Si2 0.548330 0.545527 0.088926
Si Si3 0.548857 0.147024 0.035718
Si Si4 0.046114 0.106733 0.513472
Si Si5 0.453810 0.855605 0.216708
Si Si6 0.956186 0.556990 0.351639
O O1 0.750000 0.150261 0.358253
O O2 0.475780 0.250000 0.352078
O O3 0.536794 0.154207 0.452729
O O4 0.478338 0.050282 0.355735
O O5 0.750000 0.544231 0.074855
O O6 0.479224 0.441552 0.074926
O O7 0.521733 0.580495 0.159979
O O8 0.468587 0.616398 0.037908
O O9 0.750000 0.152773 0.050791
O O10 0.474525 0.250000 0.046037
O O11 0.250000 0.123212 0.510070
O O12 0.987793 0.117365 0.586611
O O13 0.000000 0.000000 0.500000
O O14 0.250000 0.853180 0.210649
O O15 0.519781 0.750000 0.210578
O O16 0.498203 0.896367 0.285540
O O17 0.750000 0.551673 0.357347
#
# Coordination Sequence:
#
# PCOD9450529 Si02
#       6
#     8   8   8   8   8   8
#     4   9  18  33  53  77 105 136 169 208 259 317
#     4  10  20  34  55  82 109 139 175 212 250 296
#     4   9  18  34  56  82 112 142 171 206 250 298
#     4   9  17  30  49  73 100 130 167 212 260 307
#     4  11  24  39  54  73 100 136 174 213 261 312
#     4   9  19  35  53  74 101 134 172 213 255 303
#
# _framework density 20.287697999999999
#
# number of rings (size 3 to 8) (size 9 to 14) (size 15 to 20)
#    0.000    2.500    0.000    3.000    0.000    8.667 
#    0.000    4.167    0.000    5.000    0.000    0.000 
#    0.000    0.000    0.000    0.000    0.000    0.000 
#
# Total GULP energy -267482.774832 kJ/mol
# GULP energy per Si atom -5572.557809 kJ/mol
# Density = 2.024152 g / cm^3
# Si number density = 20.287698 Si / 1000 Ang^3
#
#
#
# Elastic Constant Matrix: (Units=GPa)
#
#
# Indices 1 2 3 4 5 6 
#
# 1 26.9019 0.1131 -12.6159 0.0000 0.0000 0.0000
# 2 0.1131 127.9143 36.0228 0.0000 0.0000 0.0000
# 3 -12.6159 36.0228 100.6717 0.0000 0.0000 0.0000
# 4 0.0000 0.0000 0.0000 1.6277 0.0000 0.0000
# 5 0.0000 0.0000 0.0000 0.0000 26.2428 0.0000
# 6 0.0000 0.0000 0.0000 0.0000 0.0000 12.5872
#
#
#
# Elastic Compliance Matrix: (Units=1/GPa)
#
#
# Indices 1 2 3 4 5 6 
#
# 1 0.039785 -0.001601 0.005558 0.000000 0.000000 0.000000
# 2 -0.001601 0.008758 -0.003334 0.000000 0.000000 0.000000
# 3 0.005558 -0.003334 0.011823 0.000000 0.000000 0.000000
# 4 0.000000 0.000000 0.000000 0.614354 0.000000 0.000000
# 5 0.000000 0.000000 0.000000 0.000000 0.038106 0.000000
# 6 0.000000 0.000000 0.000000 0.000000 0.000000 0.079446
#
#
# Mechanical properties :
#
#
# Convention : Reuss Voigt Hill
#
# Bulk Modulus (GPa) = 16.23017 33.61422 24.92219
# Shear Modulus (GPa) = 6.16095 23.55607 14.85851
#
# Velocity S-wave (km/s) = 1.74453 3.41119 2.70921
# Velocity P-wave (km/s) = 3.47494 5.66742 4.70079
#
# Compressibility (1/GPa) = 0.06161364
#
# Stress axis : x y z
#
# Youngs Moduli (GPa) = 25.13481 114.17889 84.58090
#
# Poissons Ratio (x) = 0.18275 -0.47014
# Poissons Ratio (y) = 0.04023 0.28203
# Poissons Ratio (z) = -0.13971 0.38073
#
# Static dielectric constant tensor:
#      x y z
#    x 1.750190 0.000000 0.000000 
#    y 0.000000 1.778980 0.000000 
#    z 0.000000 0.000000 1.688290 
# 
# From -- ./inp_files/25413.got.cif
#   From: 2010.05.17/outbox.cif.g08.bks.cpg/sg59_13_cif.got.tgz:25413.got - 2010.06.03 14:40:33.
