data_PCOD9450313
_publ_section_title
;
Structure prediction by ZEFSAII (Michael W. Deem and Ramdas Pophale) SiO2 
 PCOD9450313
Probable space group: P M M N
;
_chemical_formula_sum "Si O2"
_cell_formula_units_Z 48
_cell_length_a 16.177411
_cell_length_b 17.224606
_cell_length_c 9.245146
_cell_angle_alpha 90.000000
_cell_angle_beta 90.000000
_cell_angle_gamma 90.000000
_cell_volume 2576.155593
_symmetry_space_group_name_H-M "P M M N"
_symmetry_group_IT_number 59
_space_group.IT_coordinate_system_code '2'
_symmetry_cell_setting 'orthorhombic'
loop_
_space_group_symop_operation_xyz
x,y,z
1/2-x,1/2-y,z
1/2+x,-y,-z
-x,1/2+y,-z
-x,-y,-z
1/2+x,1/2+y,-z
1/2-x,y,z
x,1/2-y,z
loop_
_atom_site_type_symbol
_atom_site_label
_atom_site_fract_x
_atom_site_fract_y
_atom_site_fract_z
Si Si1 0.575997 0.406915 0.919568
Si Si2 0.250000 0.839132 0.069429
Si Si3 0.428049 0.844415 0.405475
Si Si4 0.250000 0.344310 0.594110
Si Si5 0.412615 0.407255 0.090834
Si Si6 0.750000 0.656128 0.069751
Si Si7 0.410949 0.155991 0.414286
Si Si8 0.250000 0.840226 0.421908
O O1 0.664048 0.376754 0.977248
O O2 0.562510 0.374915 0.757447
O O3 0.583597 0.499606 0.913052
O O4 0.498041 0.381091 0.015252
O O5 0.250000 0.750000 0.026596
O O6 0.250000 0.842647 0.245947
O O7 0.425013 0.750000 0.398121
O O8 0.504983 0.866809 0.504038
O O9 0.339034 0.873259 0.464913
O O10 0.250000 0.250000 0.593715
O O11 0.250000 0.367426 0.761554
O O12 0.168051 0.369144 0.508710
O O13 0.407647 0.378360 0.254773
O O14 0.332360 0.376143 0.006501
O O15 0.750000 0.750000 0.060148
O O16 0.409269 0.250000 0.404610
O O17 0.250000 0.750000 0.466880
#
# Coordination Sequence:
#
# PCOD9450313 Si02
#       8
#     8   4   8   4   8   4   8   4
#     4  10  21  37  56  80 113 151 189 224 276 346
#     4   9  17  32  57  81 100 130 182 238 272 314
#     4   9  17  32  55  78 103 140 187 233 272 325
#     4   9  19  35  55  79 104 137 184 233 278 330
#     4  11  23  36  54  82 117 153 184 228 282 338
#     4  11  22  38  61  83 108 148 194 235 282 341
#     4  10  20  34  53  80 112 143 184 236 281 324
#     4   7  12  25  47  73  94 121 166 216 262 303
#
# _framework density 18.632415000000002
#
# number of rings (size 3 to 8) (size 9 to 14) (size 15 to 20)
#    0.000    2.333    0.000    4.000    0.000    5.333 
#    0.000    0.833    0.000    1.000    0.000    0.000 
#    0.000    0.000    0.000    0.000    0.000    0.000 
#
# Total GULP energy -267793.685991 kJ/mol
# GULP energy per Si atom -5579.035125 kJ/mol
# Density = 1.859001 g / cm^3
# Si number density = 18.632415 Si / 1000 Ang^3
#
#
#
# Elastic Constant Matrix: (Units=GPa)
#
#
# Indices 1 2 3 4 5 6 
#
# 1 234.1954 42.5077 109.7312 0.0000 0.0000 0.0000
# 2 42.5077 28.4285 26.6921 0.0000 0.0000 0.0000
# 3 109.7312 26.6921 132.7611 0.0000 0.0000 0.0000
# 4 0.0000 0.0000 0.0000 18.4918 0.0000 0.0000
# 5 0.0000 0.0000 0.0000 0.0000 -9.2930 0.0000
# 6 0.0000 0.0000 0.0000 0.0000 0.0000 20.0396
#
#
#
# Elastic Compliance Matrix: (Units=1/GPa)
#
#
# Indices 1 2 3 4 5 6 
#
# 1 0.007976 -0.007071 -0.005171 0.000000 0.000000 0.000000
# 2 -0.007071 0.049631 -0.004134 0.000000 0.000000 0.000000
# 3 -0.005171 -0.004134 0.012637 0.000000 0.000000 0.000000
# 4 0.000000 0.000000 0.000000 0.054078 0.000000 0.000000
# 5 0.000000 0.000000 0.000000 0.000000 -0.107607 0.000000
# 6 0.000000 0.000000 0.000000 0.000000 0.000000 0.049901
#
#
# Mechanical properties :
#
#
# Convention : Reuss Voigt Hill
#
# Bulk Modulus (GPa) = 26.67212 83.69410 55.18311
# Shear Modulus (GPa) = 44.69650 20.27793 32.48721
#
# Velocity S-wave (km/s) = 4.90313 3.30254 4.18016
# Velocity P-wave (km/s) = 6.81177 7.71741 7.27869
#
# Compressibility (1/GPa) = 0.03749234
#
# Stress axis : x y z
#
# Youngs Moduli (GPa) = 125.37255 20.14878 79.13081
#
# Poissons Ratio (x) = 0.14248 0.40917
# Poissons Ratio (y) = 0.88656 0.32710
# Poissons Ratio (z) = 0.64828 0.08329
#
# Static dielectric constant tensor:
#      x y z
#    x 1.669160 0.000000 0.000000 
#    y 0.000000 1.627870 0.000000 
#    z 0.000000 0.000000 1.602100 
# 
# From -- ./inp_files/9109.got.cif
#   From: 2010.05.17/outbox.cif.g08.bks.cpg/sg59_5_cif.got.tgz:9109.got - 2010.06.03 14:40:33.
