data_PCOD9450078
_publ_section_title
;
Structure prediction by ZEFSAII (Michael W. Deem and Ramdas Pophale) SiO2 
 PCOD9450078
Probable space group: P M M N
;
_chemical_formula_sum "Si O2"
_cell_formula_units_Z 60
_cell_length_a 7.263440
_cell_length_b 15.762560
_cell_length_c 22.468698
_cell_angle_alpha 90.000000
_cell_angle_beta 90.000000
_cell_angle_gamma 90.000000
_cell_volume 2572.450419
_symmetry_space_group_name_H-M "P M M N"
_symmetry_group_IT_number 59
_space_group.IT_coordinate_system_code '2'
_symmetry_cell_setting 'orthorhombic'
loop_
_space_group_symop_operation_xyz
x,y,z
1/2-x,1/2-y,z
1/2+x,-y,-z
-x,1/2+y,-z
-x,-y,-z
1/2+x,1/2+y,-z
1/2-x,y,z
x,1/2-y,z
loop_
_atom_site_type_symbol
_atom_site_label
_atom_site_fract_x
_atom_site_fract_y
_atom_site_fract_z
Si Si1 0.974645 0.841530 0.645666
Si Si2 0.974247 0.598830 0.907134
Si Si3 0.527880 0.401209 0.772541
Si Si4 0.530735 1.000000 0.570074
Si Si5 0.025753 0.598830 0.092866
Si Si6 1.000000 0.250000 0.000000
Si Si7 0.027880 0.098791 0.227459
Si Si8 0.525355 0.341530 0.645666
O O1 0.750000 0.844405 0.646963
O O2 0.029565 0.750000 0.622621
O O3 0.034852 0.852402 0.714195
O O4 0.039115 0.917110 0.604007
O O5 0.750000 0.600387 0.909395
O O6 0.027376 0.500000 0.920952
O O7 0.033116 0.618969 0.839389
O O8 0.034459 0.673874 0.950449
O O9 0.750000 0.393011 0.774448
O O10 0.466884 0.381031 0.839389
O O11 0.485828 0.500000 0.762217
O O12 0.465148 0.352402 0.714195
O O13 0.750000 0.000000 0.578684
O O14 0.460885 0.082890 0.604008
O O15 0.500000 0.000000 0.500000
O O16 0.250000 0.600387 0.090605
O O17 0.965541 0.673874 0.049551
O O18 0.250000 0.106990 0.225552
O O19 0.750000 0.344405 0.646963
O O20 0.470435 0.250000 0.622621
#
# Coordination Sequence:
#
# PCOD9450078 Si02
#       8
#     8   8   8   8   8   4   8   8
#     4   9  16  26  45  72 101 126 154 195 243 292
#     4   9  19  32  45  65  95 126 158 201 251 302
#     4   8  13  25  44  66  94 122 149 191 247 299
#     4  10  20  34  50  74 106 139 168 202 246 303
#     4   9  19  32  45  65  95 126 158 201 251 302
#     4  12  20  28  44  68  96 128 158 188 234 312
#     4   8  13  25  44  66  94 122 149 191 247 299
#     4   9  16  26  45  72 101 126 154 195 243 292
#
# _framework density 23.324064
#
# number of rings (size 3 to 8) (size 9 to 14) (size 15 to 20)
#    0.000    2.933    1.333    2.400    1.867    0.533 
#    0.000    0.000    0.000    0.000    0.000    3.733 
#    0.000    0.000    0.000    0.000    0.000    0.000 
#
# Total GULP energy -334004.787562 kJ/mol
# GULP energy per Si atom -5566.746459 kJ/mol
# Density = 2.327098 g / cm^3
# Si number density = 23.324064 Si / 1000 Ang^3
#
#
#
# Elastic Constant Matrix: (Units=GPa)
#
#
# Indices 1 2 3 4 5 6 
#
# 1 101.0360 10.5048 -0.6839 0.0000 0.0000 0.0000
# 2 10.5048 232.5452 148.2411 0.0000 0.0000 0.0000
# 3 -0.6839 148.2411 177.0550 0.0000 0.0000 0.0000
# 4 0.0000 0.0000 0.0000 -40.0034 0.0000 0.0000
# 5 0.0000 0.0000 0.0000 0.0000 39.3552 0.0000
# 6 0.0000 0.0000 0.0000 0.0000 0.0000 -16.8458
#
#
#
# Elastic Compliance Matrix: (Units=1/GPa)
#
#
# Indices 1 2 3 4 5 6 
#
# 1 0.010010 -0.001023 0.000895 0.000000 0.000000 0.000000
# 2 -0.001023 0.009327 -0.007813 0.000000 0.000000 0.000000
# 3 0.000895 -0.007813 0.012193 0.000000 0.000000 0.000000
# 4 0.000000 0.000000 0.000000 -0.024998 0.000000 0.000000
# 5 0.000000 0.000000 0.000000 0.000000 0.025410 0.000000
# 6 0.000000 0.000000 0.000000 0.000000 0.000000 -0.059362
#
#
# Mechanical properties :
#
#
# Convention : Reuss Voigt Hill
#
# Bulk Modulus (GPa) = 63.90525 91.86227 77.88376
# Shear Modulus (GPa) = -790.84323 20.00614 -385.41854
#
# Velocity S-wave (km/s) = -18.43376 2.93191 -12.86871
# Velocity P-wave (km/s) = 20.63039 7.13668 13.68724
#
# Compressibility (1/GPa) = 0.01564817
#
# Stress axis : x y z
#
# Youngs Moduli (GPa) = 99.90169 107.21429 82.01377
#
# Poissons Ratio (x) = 0.10964 -0.07339
# Poissons Ratio (y) = 0.10216 0.64079
# Poissons Ratio (z) = -0.08940 0.83768
#
# Static dielectric constant tensor:
#      x y z
#    x 2.002160 0.000000 0.000000 
#    y 0.000000 1.842600 0.000000 
#    z 0.000000 0.000000 1.824780 
# 
# From -- ./inp_files/30149.got.cif
#   From: 2010.05.17/outbox.cif.g08.bks.cpg/sg59_16_cif.got.tgz:30149.got - 2010.06.03 14:40:33.
