data_PCOD9450219
_publ_section_title
;
Structure prediction by ZEFSAII (Michael W. Deem and Ramdas Pophale) SiO2 
 PCOD9450219
Probable space group: P M M N
;
_chemical_formula_sum "Si O2"
_cell_formula_units_Z 64
_cell_length_a 13.942336
_cell_length_b 9.293941
_cell_length_c 24.634383
_cell_angle_alpha 90.000000
_cell_angle_beta 90.000000
_cell_angle_gamma 90.000000
_cell_volume 3192.104829
_symmetry_space_group_name_H-M "P M M N"
_symmetry_group_IT_number 59
_space_group.IT_coordinate_system_code '2'
_symmetry_cell_setting 'orthorhombic'
loop_
_space_group_symop_operation_xyz
x,y,z
1/2-x,1/2-y,z
1/2+x,-y,-z
-x,1/2+y,-z
-x,-y,-z
1/2+x,1/2+y,-z
1/2-x,y,z
x,1/2-y,z
loop_
_atom_site_type_symbol
_atom_site_label
_atom_site_fract_x
_atom_site_fract_y
_atom_site_fract_z
Si Si1 0.138683 0.580316 0.754766
Si Si2 0.959993 0.420200 0.582329
Si Si3 0.367224 0.082474 0.079841
Si Si4 0.632723 0.914901 0.135595
Si Si5 0.639378 0.078873 0.468420
Si Si6 0.632907 0.084448 0.027835
Si Si7 0.960042 0.578667 0.690218
Si Si8 0.861281 0.924844 0.802225
O O1 0.250000 0.551870 0.743624
O O2 0.127783 0.750000 0.768276
O O3 0.108202 0.491394 0.807733
O O4 0.072237 0.552580 0.703078
O O5 0.970310 0.250000 0.589626
O O6 0.888735 0.444708 0.531591
O O7 0.926632 0.494595 0.637607
O O8 0.061535 0.490843 0.565599
O O9 0.250000 0.079378 0.081348
O O10 0.393766 0.250000 0.074196
O O11 0.398806 0.025272 0.138980
O O12 0.397585 0.994558 0.027229
O O13 0.750000 0.913691 0.134384
O O14 0.600149 0.750000 0.133463
O O15 0.602326 0.003626 0.082586
O O16 0.750000 0.040484 0.458422
O O17 0.627528 0.250000 0.457514
O O18 0.750000 0.081990 0.027876
O O19 0.603298 0.250000 0.028271
O O20 0.944884 0.750000 0.683085
O O21 0.911075 0.531965 0.746581
O O22 0.750000 0.964609 0.798514
O O23 0.867077 0.750000 0.804567
#
# Coordination Sequence:
#
# PCOD9450219 Si02
#       8
#     8   8   8   8   8   8   8   8
#     4   9  18  32  48  67  94 129 168 208 250 299
#     4  10  21  36  55  84 117 144 178 223 264 305
#     4   8  13  23  40  61  86 117 155 201 252 305
#     4   9  16  26  42  64  89 119 158 204 254 307
#     4   9  19  38  62  84 111 149 185 217 259 309
#     4   9  15  22  36  61  91 120 152 195 249 310
#     4  10  20  34  53  76 104 141 179 212 252 305
#     4   8  15  29  49  72  97 128 170 217 260 305
#
# _framework density 20.049468000000001
#
# number of rings (size 3 to 8) (size 9 to 14) (size 15 to 20)
#    0.000    3.000    0.000    1.875    0.000    5.250 
#    0.000    1.875    0.000    1.500    0.000    0.000 
#    0.000    0.000    0.000    0.000    0.000    0.000 
#
# Total GULP energy -357274.416646 kJ/mol
# GULP energy per Si atom -5582.412760 kJ/mol
# Density = 2.000383 g / cm^3
# Si number density = 20.049468 Si / 1000 Ang^3
#
#
#
# Elastic Constant Matrix: (Units=GPa)
#
#
# Indices 1 2 3 4 5 6 
#
# 1 46.3971 -7.5451 -5.4147 0.0000 0.0000 0.0000
# 2 -7.5451 40.0157 25.9980 0.0000 0.0000 0.0000
# 3 -5.4147 25.9980 82.4457 0.0000 0.0000 0.0000
# 4 0.0000 0.0000 0.0000 40.4656 0.0000 0.0000
# 5 0.0000 0.0000 0.0000 0.0000 16.5015 0.0000
# 6 0.0000 0.0000 0.0000 0.0000 0.0000 7.9758
#
#
#
# Elastic Compliance Matrix: (Units=1/GPa)
#
#
# Indices 1 2 3 4 5 6 
#
# 1 0.022237 0.004080 0.000174 0.000000 0.000000 0.000000
# 2 0.004080 0.032178 -0.009879 0.000000 0.000000 0.000000
# 3 0.000174 -0.009879 0.015256 0.000000 0.000000 0.000000
# 4 0.000000 0.000000 0.000000 0.024712 0.000000 0.000000
# 5 0.000000 0.000000 0.000000 0.000000 0.060601 0.000000
# 6 0.000000 0.000000 0.000000 0.000000 0.000000 0.125379
#
#
# Mechanical properties :
#
#
# Convention : Reuss Voigt Hill
#
# Bulk Modulus (GPa) = 17.11737 21.65944 19.38841
# Shear Modulus (GPa) = 16.07276 23.37659 19.72467
#
# Velocity S-wave (km/s) = 2.83442 3.41830 3.13996
# Velocity P-wave (km/s) = 4.38954 5.13869 4.77882
#
# Compressibility (1/GPa) = 0.05842017
#
# Stress axis : x y z
#
# Youngs Moduli (GPa) = 44.97041 31.07745 65.54913
#
# Poissons Ratio (x) = -0.12679 -0.01140
# Poissons Ratio (y) = -0.18347 0.64755
# Poissons Ratio (z) = -0.00782 0.30701
#
# Static dielectric constant tensor:
#      x y z
#    x 1.760790 0.000000 0.000000 
#    y 0.000000 1.673090 0.000000 
#    z 0.000000 0.000000 1.685410 
# 
# From -- ./inp_files/32258.got.cif
#   From: 2010.05.17/outbox.cif.g08.bks.cpg/sg59_17_cif.got.tgz:32258.got - 2010.06.03 14:40:33.
