data_PCOD9450341
_publ_section_title
;
Structure prediction by ZEFSAII (Michael W. Deem and Ramdas Pophale) SiO2 
 PCOD9450341
Probable space group: P M M N
;
_chemical_formula_sum "Si O2"
_cell_formula_units_Z 56
_cell_length_a 7.638695
_cell_length_b 18.842021
_cell_length_c 19.962212
_cell_angle_alpha 90.000000
_cell_angle_beta 90.000000
_cell_angle_gamma 90.000000
_cell_volume 2873.130264
_symmetry_space_group_name_H-M "P M M N"
_symmetry_group_IT_number 59
_space_group.IT_coordinate_system_code '2'
_symmetry_cell_setting 'orthorhombic'
loop_
_space_group_symop_operation_xyz
x,y,z
1/2-x,1/2-y,z
1/2+x,-y,-z
-x,1/2+y,-z
-x,-y,-z
1/2+x,1/2+y,-z
1/2-x,y,z
x,1/2-y,z
loop_
_atom_site_type_symbol
_atom_site_label
_atom_site_fract_x
_atom_site_fract_y
_atom_site_fract_z
Si Si1 0.039269 0.398690 0.277049
Si Si2 0.456032 0.415969 0.421720
Si Si3 0.035648 0.330903 0.699406
Si Si4 0.040014 0.328229 0.141246
Si Si5 0.043364 0.973547 0.926242
Si Si6 0.036967 0.417977 0.569128
Si Si7 0.460485 0.045506 0.793177
O O1 0.250000 0.390898 0.279069
O O2 0.970452 0.385721 0.352025
O O3 0.973396 0.351411 0.215044
O O4 0.999869 0.479527 0.255710
O O5 0.250000 0.398681 0.422393
O O6 0.475427 0.501484 0.418654
O O7 0.525598 0.395164 0.494986
O O8 0.250000 0.330791 0.699819
O O9 0.977597 0.250000 0.705347
O O10 0.982584 0.366931 0.629255
O O11 0.975528 0.382317 0.759327
O O12 0.250000 0.324657 0.146170
O O13 0.974944 0.250000 0.122471
O O14 0.003653 0.392253 0.090367
O O15 0.250000 0.977763 0.919673
O O16 0.968754 0.022348 0.865948
O O17 0.000000 0.000000 0.000000
O O18 0.250000 0.420212 0.568297
O O19 0.250000 0.051574 0.797505
#
# Coordination Sequence:
#
# PCOD9450341 Si02
#       7
#     8   8   8   8   8   8   8
#     4   9  16  27  45  68  94 122 155 196 239 281
#     4   9  16  25  40  64  90 117 153 197 240 282
#     4   9  16  27  44  65  90 120 156 199 239 273
#     4   9  18  33  52  74 101 133 164 196 242 296
#     4  10  20  34  54  78 102 128 161 200 241 289
#     4   9  16  26  41  61  87 119 157 196 237 283
#     4   9  17  30  48  69  91 119 158 195 229 278
#
# _framework density 19.490936000000001
#
# number of rings (size 3 to 8) (size 9 to 14) (size 15 to 20)
#    0.000    2.857    1.429    0.429    0.000    0.857 
#    0.000    1.429    0.000    8.571    0.000    0.000 
#    0.000    3.429    0.000    0.000    0.000    0.000 
#
# Total GULP energy -312099.126601 kJ/mol
# GULP energy per Si atom -5573.198689 kJ/mol
# Density = 1.944657 g / cm^3
# Si number density = 19.490936 Si / 1000 Ang^3
#
#
#
# Elastic Constant Matrix: (Units=GPa)
#
#
# Indices 1 2 3 4 5 6 
#
# 1 32.8271 8.5401 2.8234 0.0000 0.0000 0.0000
# 2 8.5401 124.5698 87.2193 0.0000 0.0000 0.0000
# 3 2.8234 87.2193 170.0402 0.0000 0.0000 0.0000
# 4 0.0000 0.0000 0.0000 16.7944 0.0000 0.0000
# 5 0.0000 0.0000 0.0000 0.0000 8.1272 0.0000
# 6 0.0000 0.0000 0.0000 0.0000 0.0000 14.5991
#
#
#
# Elastic Compliance Matrix: (Units=1/GPa)
#
#
# Indices 1 2 3 4 5 6 
#
# 1 0.031104 -0.002763 0.000901 0.000000 0.000000 0.000000
# 2 -0.002763 0.012772 -0.006505 0.000000 0.000000 0.000000
# 3 0.000901 -0.006505 0.009203 0.000000 0.000000 0.000000
# 4 0.000000 0.000000 0.000000 0.059544 0.000000 0.000000
# 5 0.000000 0.000000 0.000000 0.000000 0.123043 0.000000
# 6 0.000000 0.000000 0.000000 0.000000 0.000000 0.068497
#
#
# Mechanical properties :
#
#
# Convention : Reuss Voigt Hill
#
# Bulk Modulus (GPa) = 27.51523 58.28921 42.90222
# Shear Modulus (GPa) = 15.01447 23.16110 19.08779
#
# Velocity S-wave (km/s) = 2.77849 3.45091 3.13280
# Velocity P-wave (km/s) = 4.94378 6.77120 5.92833
#
# Compressibility (1/GPa) = 0.03634350
#
# Stress axis : x y z
#
# Youngs Moduli (GPa) = 32.15025 78.29775 108.66340
#
# Poissons Ratio (x) = 0.21635 -0.09789
# Poissons Ratio (y) = 0.08883 0.70688
# Poissons Ratio (z) = -0.02896 0.50934
#
# Static dielectric constant tensor:
#      x y z
#    x 1.439500 0.000000 0.000000 
#    y 0.000000 1.652260 0.000000 
#    z 0.000000 0.000000 1.677370 
# 
# From -- ./inp_files/29314.got.cif
#   From: 2010.05.17/outbox.cif.g08.bks.cpg/sg59_15_cif.got.tgz:29314.got - 2010.06.03 14:40:33.
