data_PCOD9450679
_publ_section_title
;
Structure prediction by ZEFSAII (Michael W. Deem and Ramdas Pophale) SiO2 
 PCOD9450679
Probable space group: P M M N
;
_chemical_formula_sum "Si O2"
_cell_formula_units_Z 48
_cell_length_a 9.833033
_cell_length_b 9.733417
_cell_length_c 27.536860
_cell_angle_alpha 90.000000
_cell_angle_beta 90.000000
_cell_angle_gamma 90.000000
_cell_volume 2635.525625
_symmetry_space_group_name_H-M "P M M N"
_symmetry_group_IT_number 59
_space_group.IT_coordinate_system_code '2'
_symmetry_cell_setting 'orthorhombic'
loop_
_space_group_symop_operation_xyz
x,y,z
1/2-x,1/2-y,z
1/2+x,-y,-z
-x,1/2+y,-z
-x,-y,-z
1/2+x,1/2+y,-z
1/2-x,y,z
x,1/2-y,z
loop_
_atom_site_type_symbol
_atom_site_label
_atom_site_fract_x
_atom_site_fract_y
_atom_site_fract_z
Si Si1 0.409635 0.586099 0.295608
Si Si2 0.405307 0.090612 0.797920
Si Si3 0.412173 0.750000 0.544312
Si Si4 0.485662 0.582486 0.889695
Si Si5 0.401040 0.250000 0.548839
Si Si6 0.250000 0.918481 0.077818
Si Si7 0.092538 0.510530 0.618070
Si Si8 0.750000 0.085610 0.035501
O O1 0.250000 0.550513 0.293403
O O2 0.419449 0.750000 0.306347
O O3 0.486167 0.565483 0.244521
O O4 0.491847 0.505381 0.336920
O O5 0.250000 0.082598 0.779063
O O6 0.424148 0.250000 0.815309
O O7 0.423602 0.979665 0.840342
O O8 0.250000 0.750000 0.535157
O O9 0.490471 0.750000 0.493877
O O10 0.446737 0.624156 0.579065
O O11 0.503529 0.750000 0.887876
O O12 0.620801 0.494256 0.898928
O O13 0.382543 0.546741 0.933637
O O14 0.250000 0.250000 0.526283
O O15 0.411984 0.124025 0.585233
O O16 0.250000 0.750000 0.083256
O O17 0.250000 0.956201 0.020426
O O18 0.250000 0.533375 0.634079
O O19 0.750000 0.250000 0.034711
#
# Coordination Sequence:
#
# PCOD9450679 Si02
#       8
#     8   8   4   8   4   4   8   4
#     4  10  21  37  60  88 113 146 194 247 296 346
#     4  10  21  38  61  87 114 152 198 246 298 362
#     4  10  22  36  54  84 120 154 190 238 285 346
#     4  11  22  40  62  90 125 162 202 250 308 363
#     4  10  20  34  58  84 112 154 198 234 287 346
#     4  11  23  39  61  91 125 167 205 251 300 349
#     4  10  20  37  58  82 115 153 194 239 290 348
#     4   9  20  39  63  89 125 161 207 251 296 363
#
# _framework density 18.212686999999999
#
# number of rings (size 3 to 8) (size 9 to 14) (size 15 to 20)
#    0.000    1.833    1.667    2.250    1.167    2.000 
#    1.500    2.500    0.000    0.000    0.000    0.000 
#    0.000    0.000    0.000    0.000    0.000    0.000 
#
# Total GULP energy -267657.962589 kJ/mol
# GULP energy per Si atom -5576.207554 kJ/mol
# Density = 1.817123 g / cm^3
# Si number density = 18.212687 Si / 1000 Ang^3
#
#
#
# Elastic Constant Matrix: (Units=GPa)
#
#
# Indices 1 2 3 4 5 6 
#
# 1 104.7995 8.2972 30.6266 0.0000 0.0000 0.0000
# 2 8.2972 62.3316 1.1392 0.0000 0.0000 0.0000
# 3 30.6266 1.1392 57.5421 0.0000 0.0000 0.0000
# 4 0.0000 0.0000 0.0000 89.5014 0.0000 0.0000
# 5 0.0000 0.0000 0.0000 0.0000 34.8211 0.0000
# 6 0.0000 0.0000 0.0000 0.0000 0.0000 25.8553
#
#
#
# Elastic Compliance Matrix: (Units=1/GPa)
#
#
# Indices 1 2 3 4 5 6 
#
# 1 0.011422 -0.001410 -0.006051 0.000000 0.000000 0.000000
# 2 -0.001410 0.016223 0.000429 0.000000 0.000000 0.000000
# 3 -0.006051 0.000429 0.020591 0.000000 0.000000 0.000000
# 4 0.000000 0.000000 0.000000 0.011173 0.000000 0.000000
# 5 0.000000 0.000000 0.000000 0.000000 0.028718 0.000000
# 6 0.000000 0.000000 0.000000 0.000000 0.000000 0.038677
#
#
# Mechanical properties :
#
#
# Convention : Reuss Voigt Hill
#
# Bulk Modulus (GPa) = 29.26380 33.86657 31.56518
# Shear Modulus (GPa) = 32.83877 42.34291 37.59084
#
# Velocity S-wave (km/s) = 4.25086 4.82697 4.54805
# Velocity P-wave (km/s) = 6.34002 7.04993 6.70438
#
# Compressibility (1/GPa) = 0.03417191
#
# Stress axis : x y z
#
# Youngs Moduli (GPa) = 87.54927 61.64070 48.56501
#
# Poissons Ratio (x) = 0.08690 0.29389
# Poissons Ratio (y) = 0.12343 -0.02084
# Poissons Ratio (z) = 0.52980 -0.02646
#
# Static dielectric constant tensor:
#      x y z
#    x 1.644820 0.000000 0.000000 
#    y 0.000000 1.596280 0.000000 
#    z 0.000000 0.000000 1.596160 
# 
# From -- ./inp_files/33118.got.cif
#   From: 2010.05.17/outbox.cif.g08.bks.cpg/sg59_17_cif.got.tgz:33118.got - 2010.06.03 14:40:33.
