data_PCOD9450493
_publ_section_title
;
Structure prediction by ZEFSAII (Michael W. Deem and Ramdas Pophale) SiO2 
 PCOD9450493
Probable space group: P M M N
;
_chemical_formula_sum "Si O2"
_cell_formula_units_Z 64
_cell_length_a 24.079063
_cell_length_b 7.624716
_cell_length_c 16.406585
_cell_angle_alpha 90.000000
_cell_angle_beta 90.000000
_cell_angle_gamma 90.000000
_cell_volume 3012.183657
_symmetry_space_group_name_H-M "P M M N"
_symmetry_group_IT_number 59
_space_group.IT_coordinate_system_code '2'
_symmetry_cell_setting 'orthorhombic'
loop_
_space_group_symop_operation_xyz
x,y,z
1/2-x,1/2-y,z
1/2+x,-y,-z
-x,1/2+y,-z
-x,-y,-z
1/2+x,1/2+y,-z
1/2-x,y,z
x,1/2-y,z
loop_
_atom_site_type_symbol
_atom_site_label
_atom_site_fract_x
_atom_site_fract_y
_atom_site_fract_z
Si Si1 0.312584 0.461683 0.167521
Si Si2 0.423712 0.954663 0.231857
Si Si3 0.001405 0.459958 0.904100
Si Si4 0.686225 0.536927 0.014574
Si Si5 0.616858 0.535667 0.170032
Si Si6 0.020740 0.451253 0.395005
Si Si7 0.406755 0.451677 0.542769
Si Si8 0.184594 0.464982 0.667865
O O1 0.250000 0.519587 0.184621
O O2 0.312519 0.250000 0.166065
O O3 0.358147 0.522055 0.230577
O O4 0.328074 0.524440 0.076219
O O5 0.437097 0.750000 0.239305
O O6 0.447687 0.021541 0.145710
O O7 0.453162 0.044852 0.306722
O O8 0.003468 0.250000 0.901854
O O9 0.054105 0.521692 0.850130
O O10 0.000000 0.500000 0.000000
O O11 0.750000 0.490329 0.029622
O O12 0.682986 0.750000 0.013357
O O13 0.649495 0.477350 0.089180
O O14 0.616728 0.750000 0.172999
O O15 0.650208 0.479964 0.250939
O O16 0.010265 0.250000 0.419676
O O17 0.065749 0.526639 0.459766
O O18 0.960829 0.542689 0.398270
O O19 0.392396 0.250000 0.524011
O O20 0.353220 0.524295 0.590637
O O21 0.250000 0.517681 0.667797
O O22 0.184580 0.250000 0.667699
#
# Coordination Sequence:
#
# PCOD9450493 Si02
#       8
#     8   8   8   8   8   8   8   8
#     4   9  18  33  52  72  96 130 172 215 256 301
#     4  11  22  35  52  76 106 135 167 212 264 314
#     4  10  21  34  49  72 103 140 176 215 262 308
#     4   8  13  22  39  64  92 123 161 203 241 280
#     4   9  15  24  41  67  99 131 165 204 247 299
#     4  10  20  34  55  79 102 136 178 217 263 317
#     4   9  18  34  54  78 107 134 169 218 266 314
#     4   9  16  27  47  75 106 138 169 207 260 319
#
# _framework density 21.247043000000001
#
# number of rings (size 3 to 8) (size 9 to 14) (size 15 to 20)
#    0.000    2.625    0.000    3.375    0.000    6.250 
#    0.000    0.625    0.000    2.625    0.000    0.000 
#    0.000    4.000    0.000    0.000    0.000    0.000 
#
# Total GULP energy -356876.635213 kJ/mol
# GULP energy per Si atom -5576.197425 kJ/mol
# Density = 2.119868 g / cm^3
# Si number density = 21.247043 Si / 1000 Ang^3
#
#
#
# Elastic Constant Matrix: (Units=GPa)
#
#
# Indices 1 2 3 4 5 6 
#
# 1 135.4417 0.1669 58.0974 0.0000 0.0000 0.0000
# 2 0.1669 45.0901 5.4228 0.0000 0.0000 0.0000
# 3 58.0974 5.4228 82.5860 0.0000 0.0000 0.0000
# 4 0.0000 0.0000 0.0000 6.2010 0.0000 0.0000
# 5 0.0000 0.0000 0.0000 0.0000 36.5086 0.0000
# 6 0.0000 0.0000 0.0000 0.0000 0.0000 13.2101
#
#
#
# Elastic Compliance Matrix: (Units=1/GPa)
#
#
# Indices 1 2 3 4 5 6 
#
# 1 0.010607 0.000865 -0.007519 0.000000 0.000000 0.000000
# 2 0.000865 0.022425 -0.002081 0.000000 0.000000 0.000000
# 3 -0.007519 -0.002081 0.017535 0.000000 0.000000 0.000000
# 4 0.000000 0.000000 0.000000 0.161264 0.000000 0.000000
# 5 0.000000 0.000000 0.000000 0.000000 0.027391 0.000000
# 6 0.000000 0.000000 0.000000 0.000000 0.000000 0.075699
#
#
# Mechanical properties :
#
#
# Convention : Reuss Voigt Hill
#
# Bulk Modulus (GPa) = 30.21404 43.38799 36.80101
# Shear Modulus (GPa) = 14.55928 24.47932 19.51930
#
# Velocity S-wave (km/s) = 2.62054 3.39798 3.03427
# Velocity P-wave (km/s) = 4.83814 5.98833 5.44370
#
# Compressibility (1/GPa) = 0.03309720
#
# Stress axis : x y z
#
# Youngs Moduli (GPa) = 94.27396 44.59329 57.03017
#
# Poissons Ratio (x) = -0.03857 0.42880
# Poissons Ratio (y) = -0.08155 0.11868
# Poissons Ratio (z) = 0.70883 0.09280
#
# Static dielectric constant tensor:
#      x y z
#    x 1.784740 0.000000 0.000000 
#    y 0.000000 1.859680 0.000000 
#    z 0.000000 0.000000 1.759620 
# 
# From -- ./inp_files/24779.got.cif
#   From: 2010.05.17/outbox.cif.g08.bks.cpg/sg59_13_cif.got.tgz:24779.got - 2010.06.03 14:40:33.
