data_PCOD9450268
_publ_section_title
;
Structure prediction by ZEFSAII (Michael W. Deem and Ramdas Pophale) SiO2 
 PCOD9450268
Probable space group: P M M N
;
_chemical_formula_sum "Si O2"
_cell_formula_units_Z 48
_cell_length_a 15.439747
_cell_length_b 9.621680
_cell_length_c 17.502986
_cell_angle_alpha 90.000000
_cell_angle_beta 90.000000
_cell_angle_gamma 90.000000
_cell_volume 2600.178925
_symmetry_space_group_name_H-M "P M M N"
_symmetry_group_IT_number 59
_space_group.IT_coordinate_system_code '2'
_symmetry_cell_setting 'orthorhombic'
loop_
_space_group_symop_operation_xyz
x,y,z
1/2-x,1/2-y,z
1/2+x,-y,-z
-x,1/2+y,-z
-x,-y,-z
1/2+x,1/2+y,-z
1/2-x,y,z
x,1/2-y,z
loop_
_atom_site_type_symbol
_atom_site_label
_atom_site_fract_x
_atom_site_fract_y
_atom_site_fract_z
Si Si1 0.750000 0.416576 0.069349
Si Si2 0.402355 0.415099 0.205696
Si Si3 0.605986 0.415177 0.192677
Si Si4 0.088570 0.907786 0.352476
Si Si5 0.381613 0.407553 0.661960
Si Si6 0.750000 0.915143 0.913112
Si Si7 0.350209 0.408958 0.489524
O O1 0.750000 0.250000 0.056661
O O2 0.665170 0.451335 0.120146
O O3 0.750000 0.497521 0.990218
O O4 0.396922 0.250000 0.223366
O O5 0.502936 0.444954 0.183818
O O6 0.377863 0.503236 0.280649
O O7 0.335027 0.444813 0.138113
O O8 0.614252 0.250000 0.204966
O O9 0.640243 0.495138 0.267250
O O10 0.122490 0.750000 0.354274
O O11 0.985574 0.901919 0.340825
O O12 0.104390 0.988335 0.431170
O O13 0.349491 0.250000 0.672991
O O14 0.354160 0.455078 0.577698
O O15 0.750000 0.750000 0.929872
O O16 0.250000 0.403593 0.466644
O O17 0.385495 0.250000 0.486331
#
# Coordination Sequence:
#
# PCOD9450268 Si02
#       7
#     4   8   8   8   8   4   8
#     4  10  22  38  56  83 114 141 170 213 272 327
#     4   9  19  37  58  79 107 143 181 219 263 319
#     4   9  19  36  57  80 109 144 177 215 267 323
#     4  10  20  34  53  78 106 137 178 225 270 314
#     4   9  19  35  54  77 104 138 181 224 264 311
#     4  10  22  38  58  83 106 137 180 219 260 319
#     4  10  21  34  49  73 106 144 182 219 263 313
#
# _framework density 18.460269
#
# number of rings (size 3 to 8) (size 9 to 14) (size 15 to 20)
#    0.000    2.500    0.000    1.000    2.333    3.667 
#    0.000    0.000    0.000    0.000    0.000    0.000 
#    0.000    0.000    0.000    0.000    0.000    0.000 
#
# Total GULP energy -267766.486559 kJ/mol
# GULP energy per Si atom -5578.468470 kJ/mol
# Density = 1.841825 g / cm^3
# Si number density = 18.460269 Si / 1000 Ang^3
#
#
#
# Elastic Constant Matrix: (Units=GPa)
#
#
# Indices 1 2 3 4 5 6 
#
# 1 70.2088 43.6491 58.6586 0.0000 0.0000 0.0000
# 2 43.6491 71.5666 87.4243 0.0000 0.0000 0.0000
# 3 58.6586 87.4243 157.8053 0.0000 0.0000 0.0000
# 4 0.0000 0.0000 0.0000 38.8841 0.0000 0.0000
# 5 0.0000 0.0000 0.0000 0.0000 30.8270 0.0000
# 6 0.0000 0.0000 0.0000 0.0000 0.0000 10.2748
#
#
#
# Elastic Compliance Matrix: (Units=1/GPa)
#
#
# Indices 1 2 3 4 5 6 
#
# 1 0.023241 -0.011204 -0.002432 0.000000 0.000000 0.000000
# 2 -0.011204 0.048629 -0.022776 0.000000 0.000000 0.000000
# 3 -0.002432 -0.022776 0.019859 0.000000 0.000000 0.000000
# 4 0.000000 0.000000 0.000000 0.025717 0.000000 0.000000
# 5 0.000000 0.000000 0.000000 0.000000 0.032439 0.000000
# 6 0.000000 0.000000 0.000000 0.000000 0.000000 0.097326
#
#
# Mechanical properties :
#
#
# Convention : Reuss Voigt Hill
#
# Bulk Modulus (GPa) = 52.89612 75.44939 64.17276
# Shear Modulus (GPa) = 15.32169 23.32040 19.32104
#
# Velocity S-wave (km/s) = 2.88407 3.55811 3.23867
# Velocity P-wave (km/s) = 6.30925 7.60527 6.98738
#
# Compressibility (1/GPa) = 0.01890498
#
# Stress axis : x y z
#
# Youngs Moduli (GPa) = 43.02823 20.56400 50.35581
#
# Poissons Ratio (x) = 0.23040 0.12246
# Poissons Ratio (y) = 0.48208 1.14689
# Poissons Ratio (z) = 0.10464 0.46836
#
# Static dielectric constant tensor:
#      x y z
#    x 1.661870 0.000000 0.000000 
#    y 0.000000 1.640190 0.000000 
#    z 0.000000 0.000000 1.595450 
# 
# From -- ./inp_files/23754.got.cif
#   From: 2010.05.17/outbox.cif.g08.bks.cpg/sg59_12_cif.got.tgz:23754.got - 2010.06.03 14:40:33.
