data_PCOD9450036
_publ_section_title
;
Structure prediction by ZEFSAII (Michael W. Deem and Ramdas Pophale) SiO2 
 PCOD9450036
Probable space group: P M M N
;
_chemical_formula_sum "Si O2"
_cell_formula_units_Z 48
_cell_length_a 15.016721
_cell_length_b 8.467552
_cell_length_c 20.295040
_cell_angle_alpha 90.000000
_cell_angle_beta 90.000000
_cell_angle_gamma 90.000000
_cell_volume 2580.613090
_symmetry_space_group_name_H-M "P M M N"
_symmetry_group_IT_number 59
_space_group.IT_coordinate_system_code '2'
_symmetry_cell_setting 'orthorhombic'
loop_
_space_group_symop_operation_xyz
x,y,z
1/2-x,1/2-y,z
1/2+x,-y,-z
-x,1/2+y,-z
-x,-y,-z
1/2+x,1/2+y,-z
1/2-x,y,z
x,1/2-y,z
loop_
_atom_site_type_symbol
_atom_site_label
_atom_site_fract_x
_atom_site_fract_y
_atom_site_fract_z
Si Si1 0.146576 0.440301 0.091438
Si Si2 0.985215 0.940106 0.170576
Si Si3 0.647117 0.557489 0.056621
Si Si4 0.442706 0.437946 0.437812
Si Si5 0.440068 0.058726 0.682273
Si Si6 0.750000 0.559025 0.376707
Si Si7 0.250000 0.562417 0.473875
O O1 0.250000 0.482650 0.100753
O O2 0.140495 0.250000 0.093419
O O3 0.082138 0.511611 0.145523
O O4 0.120018 0.492800 0.017204
O O5 0.978848 0.750000 0.171483
O O6 0.916090 0.999121 0.114980
O O7 0.962604 0.995897 0.243957
O O8 0.750000 0.511676 0.067097
O O9 0.645187 0.750000 0.056541
O O10 0.500000 0.500000 0.500000
O O11 0.442776 0.250000 0.440703
O O12 0.491265 0.495327 0.371714
O O13 0.341358 0.497513 0.442983
O O14 0.443878 0.250000 0.680975
O O15 0.340080 0.012785 0.660965
O O16 0.750000 0.750000 0.382916
O O17 0.750000 0.487894 0.449531
O O18 0.250000 0.750000 0.468796
#
# Coordination Sequence:
#
# PCOD9450036 Si02
#       7
#     8   8   8   8   8   4   4
#     4   9  18  34  54  75 104 147 192 235 281 335
#     4  10  20  33  54  83 112 145 184 232 284 334
#     4   8  15  29  52  81 110 141 184 231 279 336
#     4  12  24  41  64  90 120 155 196 240 287 342
#     4  10  22  38  57  86 120 152 188 235 289 347
#     4  10  20  36  60  86 118 153 188 229 284 349
#     4  12  24  40  66  94 118 149 192 243 292 345
#
# _framework density 18.60023
#
# number of rings (size 3 to 8) (size 9 to 14) (size 15 to 20)
#    0.000    2.000    1.667    3.750    1.167    1.000 
#    1.500    0.000    0.000    1.500    0.000    0.000 
#    0.000    0.000    0.000    0.000    0.000    0.000 
#
# Total GULP energy -268036.489412 kJ/mol
# GULP energy per Si atom -5584.093529 kJ/mol
# Density = 1.855790 g / cm^3
# Si number density = 18.600230 Si / 1000 Ang^3
#
#
#
# Elastic Constant Matrix: (Units=GPa)
#
#
# Indices 1 2 3 4 5 6 
#
# 1 158.2115 36.1556 106.1373 0.0000 0.0000 0.0000
# 2 36.1556 29.8334 36.7849 0.0000 0.0000 0.0000
# 3 106.1373 36.7849 159.5694 0.0000 0.0000 0.0000
# 4 0.0000 0.0000 0.0000 20.8790 0.0000 0.0000
# 5 0.0000 0.0000 0.0000 0.0000 9.0435 0.0000
# 6 0.0000 0.0000 0.0000 0.0000 0.0000 25.6653
#
#
#
# Elastic Compliance Matrix: (Units=1/GPa)
#
#
# Indices 1 2 3 4 5 6 
#
# 1 0.012313 -0.006740 -0.006636 0.000000 0.000000 0.000000
# 2 -0.006740 0.050520 -0.007163 0.000000 0.000000 0.000000
# 3 -0.006636 -0.007163 0.012332 0.000000 0.000000 0.000000
# 4 0.000000 0.000000 0.000000 0.047895 0.000000 0.000000
# 5 0.000000 0.000000 0.000000 0.000000 0.110577 0.000000
# 6 0.000000 0.000000 0.000000 0.000000 0.000000 0.038963
#
#
# Mechanical properties :
#
#
# Convention : Reuss Voigt Hill
#
# Bulk Modulus (GPa) = 29.33702 78.41890 53.87796
# Shear Modulus (GPa) = 15.38272 22.35332 18.86802
#
# Velocity S-wave (km/s) = 2.87891 3.47043 3.18842
# Velocity P-wave (km/s) = 5.18242 7.63611 6.52563
#
# Compressibility (1/GPa) = 0.03408663
#
# Stress axis : x y z
#
# Youngs Moduli (GPa) = 81.21672 19.79425 81.08839
#
# Poissons Ratio (x) = 0.13340 0.53811
# Poissons Ratio (y) = 0.54737 0.58086
# Poissons Ratio (z) = 0.53897 0.14179
#
# Static dielectric constant tensor:
#      x y z
#    x 1.697890 0.000000 0.000000 
#    y 0.000000 1.642890 0.000000 
#    z 0.000000 0.000000 1.625740 
# 
# From -- ./inp_files/25624.got.cif
#   From: 2010.05.17/outbox.cif.g08.bks.cpg/sg59_13_cif.got.tgz:25624.got - 2010.06.03 14:40:33.
