data_PCOD9450416
_publ_section_title
;
Structure prediction by ZEFSAII (Michael W. Deem and Ramdas Pophale) SiO2 
 PCOD9450416
Probable space group: P M M N
;
_chemical_formula_sum "Si O2"
_cell_formula_units_Z 48
_cell_length_a 8.882459
_cell_length_b 10.145949
_cell_length_c 29.903599
_cell_angle_alpha 90.000000
_cell_angle_beta 90.000000
_cell_angle_gamma 90.000000
_cell_volume 2694.941528
_symmetry_space_group_name_H-M "P M M N"
_symmetry_group_IT_number 59
_space_group.IT_coordinate_system_code '2'
_symmetry_cell_setting 'orthorhombic'
loop_
_space_group_symop_operation_xyz
x,y,z
1/2-x,1/2-y,z
1/2+x,-y,-z
-x,1/2+y,-z
-x,-y,-z
1/2+x,1/2+y,-z
1/2-x,y,z
x,1/2-y,z
loop_
_atom_site_type_symbol
_atom_site_label
_atom_site_fract_x
_atom_site_fract_y
_atom_site_fract_z
Si Si1 0.069863 0.904603 0.037016
Si Si2 0.568830 0.250000 0.567615
Si Si3 0.430178 0.098556 0.303917
Si Si4 0.431220 0.903715 0.224224
Si Si5 0.567578 0.250000 0.464378
Si Si6 0.077573 0.090149 0.869203
Si Si7 0.930865 0.018272 0.397997
O O1 0.250000 0.911562 0.035577
O O2 0.026487 0.750000 0.030108
O O3 0.011966 0.946388 0.086123
O O4 0.000000 0.000000 0.000000
O O5 0.750000 0.250000 0.569034
O O6 0.517828 0.250000 0.515635
O O7 0.504958 0.121075 0.591366
O O8 0.250000 0.083189 0.311129
O O9 0.457321 0.250000 0.290332
O O10 0.476156 0.996353 0.265362
O O11 0.514220 0.069680 0.350101
O O12 0.250000 0.908574 0.220187
O O13 0.473008 0.750000 0.232023
O O14 0.502218 0.949955 0.177447
O O15 0.750000 0.250000 0.464901
O O16 0.520633 0.378161 0.436370
O O17 0.250000 0.045369 0.871977
O O18 0.077017 0.250000 0.868343
O O19 0.750000 0.008838 0.398563
#
# Coordination Sequence:
#
# PCOD9450416 Si02
#       7
#     8   4   8   8   4   8   8
#     4  10  20  34  54  80 111 148 189 232 279 331
#     4  11  23  39  59  85 113 145 185 229 270 321
#     4  10  21  37  56  80 110 146 184 222 273 334
#     4   9  18  33  54  78 104 137 179 228 275 323
#     4   9  20  39  61  83 113 147 183 223 272 329
#     4   9  17  31  52  78 107 140 181 229 279 329
#     4  11  22  39  59  84 114 146 181 226 278 328
#
# _framework density 17.811146000000001
#
# number of rings (size 3 to 8) (size 9 to 14) (size 15 to 20)
#    0.000    2.167    0.833    2.250    1.167    3.667 
#    0.000    3.333    0.000    3.000    0.000    0.000 
#    0.000    0.000    0.000    0.000    0.000    0.000 
#
# Total GULP energy -267892.050419 kJ/mol
# GULP energy per Si atom -5581.084384 kJ/mol
# Density = 1.777061 g / cm^3
# Si number density = 17.811146 Si / 1000 Ang^3
#
#
#
# Elastic Constant Matrix: (Units=GPa)
#
#
# Indices 1 2 3 4 5 6 
#
# 1 48.4658 34.0236 37.9975 0.0000 0.0000 0.0000
# 2 34.0236 92.8892 43.9650 0.0000 0.0000 0.0000
# 3 37.9975 43.9650 110.7488 0.0000 0.0000 0.0000
# 4 0.0000 0.0000 0.0000 36.1668 0.0000 0.0000
# 5 0.0000 0.0000 0.0000 0.0000 35.2706 0.0000
# 6 0.0000 0.0000 0.0000 0.0000 0.0000 11.2522
#
#
#
# Elastic Compliance Matrix: (Units=1/GPa)
#
#
# Indices 1 2 3 4 5 6 
#
# 1 0.032601 -0.008185 -0.007936 0.000000 0.000000 0.000000
# 2 -0.008185 0.015311 -0.003270 0.000000 0.000000 0.000000
# 3 -0.007936 -0.003270 0.013050 0.000000 0.000000 0.000000
# 4 0.000000 0.000000 0.000000 0.027650 0.000000 0.000000
# 5 0.000000 0.000000 0.000000 0.000000 0.028352 0.000000
# 6 0.000000 0.000000 0.000000 0.000000 0.000000 0.088872
#
#
# Mechanical properties :
#
#
# Convention : Reuss Voigt Hill
#
# Bulk Modulus (GPa) = 45.08443 53.78620 49.43532
# Shear Modulus (GPa) = 19.84035 25.61242 22.72639
#
# Velocity S-wave (km/s) = 3.34118 3.79621 3.57594
# Velocity P-wave (km/s) = 6.34445 7.03410 6.69816
#
# Compressibility (1/GPa) = 0.02218061
#
# Stress axis : x y z
#
# Youngs Moduli (GPa) = 30.67395 65.31153 76.62608
#
# Poissons Ratio (x) = 0.53457 0.60811
# Poissons Ratio (y) = 0.25107 0.25057
# Poissons Ratio (z) = 0.24343 0.21357
#
# Static dielectric constant tensor:
#      x y z
#    x 1.598330 0.000000 0.000000 
#    y 0.000000 1.598780 0.000000 
#    z 0.000000 0.000000 1.582420 
# 
# From -- ./inp_files/33012.got.cif
#   From: 2010.05.17/outbox.cif.g08.bks.cpg/sg59_17_cif.got.tgz:33012.got - 2010.06.03 14:40:33.
