data_PCOD9450593
_publ_section_title
;
Structure prediction by ZEFSAII (Michael W. Deem and Ramdas Pophale) SiO2 
 PCOD9450593
Probable space group: P M M N
;
_chemical_formula_sum "Si O2"
_cell_formula_units_Z 56
_cell_length_a 19.000444
_cell_length_b 8.871395
_cell_length_c 18.081112
_cell_angle_alpha 90.000000
_cell_angle_beta 90.000000
_cell_angle_gamma 90.000000
_cell_volume 3047.760265
_symmetry_space_group_name_H-M "P M M N"
_symmetry_group_IT_number 59
_space_group.IT_coordinate_system_code '2'
_symmetry_cell_setting 'orthorhombic'
loop_
_space_group_symop_operation_xyz
x,y,z
1/2-x,1/2-y,z
1/2+x,-y,-z
-x,1/2+y,-z
-x,-y,-z
1/2+x,1/2+y,-z
1/2-x,y,z
x,1/2-y,z
loop_
_atom_site_type_symbol
_atom_site_label
_atom_site_fract_x
_atom_site_fract_y
_atom_site_fract_z
Si Si1 0.832675 0.928711 0.415655
Si Si2 0.918612 0.930029 0.265425
Si Si3 0.570355 0.429370 0.535593
Si Si4 0.568477 0.929707 0.697143
Si Si5 0.333794 0.929711 0.870082
Si Si6 0.665501 0.072533 0.819995
Si Si7 0.664472 0.576287 0.974504
O O1 0.750000 0.957829 0.406939
O O2 0.842176 0.750000 0.431568
O O3 0.873506 0.961067 0.339533
O O4 0.866546 0.023660 0.481488
O O5 0.928469 0.750000 0.260113
O O6 0.876509 0.990644 0.194899
O O7 0.993279 0.010846 0.274092
O O8 0.500000 0.500000 0.500000
O O9 0.562722 0.250000 0.540170
O O10 0.580573 0.497421 0.616836
O O11 0.567887 0.750000 0.691004
O O12 0.627038 0.984535 0.754811
O O13 0.250000 0.960568 0.861323
O O14 0.343532 0.750000 0.867415
O O15 0.356311 0.992914 0.950138
O O16 0.750000 0.054633 0.814523
O O17 0.649434 0.250000 0.815372
O O18 0.642476 0.007856 0.899716
O O19 0.750000 0.575732 0.973989
O O20 0.641215 0.750000 0.974401
#
# Coordination Sequence:
#
# PCOD9450593 Si02
#       7
#     8   8   8   8   8   8   8
#     4  10  22  40  63  91 122 157 198 246 298 352
#     4  11  22  38  60  86 120 160 200 244 296 355
#     4  12  24  41  64  88 117 157 200 243 295 354
#     4  12  25  41  63  89 119 157 198 243 297 357
#     4  10  20  34  55  85 121 160 203 248 294 349
#     4  10  21  39  63  90 120 154 196 247 300 354
#     4   9  17  32  56  85 117 155 199 245 297 354
#
# _framework density 18.374148999999999
#
# number of rings (size 3 to 8) (size 9 to 14) (size 15 to 20)
#    0.000    1.429    1.429    4.714    0.000    5.429 
#    0.000    0.714    0.000    0.000    0.000    0.000 
#    0.000    0.000    0.000    0.000    0.000    0.000 
#
# Total GULP energy -313042.641690 kJ/mol
# GULP energy per Si atom -5590.047173 kJ/mol
# Density = 1.833233 g / cm^3
# Si number density = 18.374149 Si / 1000 Ang^3
#
#
#
# Elastic Constant Matrix: (Units=GPa)
#
#
# Indices 1 2 3 4 5 6 
#
# 1 47.8299 52.2746 40.0992 0.0000 0.0000 0.0000
# 2 52.2746 142.9667 86.7565 0.0000 0.0000 0.0000
# 3 40.0992 86.7565 164.9973 0.0000 0.0000 0.0000
# 4 0.0000 0.0000 0.0000 38.1643 0.0000 0.0000
# 5 0.0000 0.0000 0.0000 0.0000 -7.3921 0.0000
# 6 0.0000 0.0000 0.0000 0.0000 0.0000 27.7374
#
#
#
# Elastic Compliance Matrix: (Units=1/GPa)
#
#
# Indices 1 2 3 4 5 6 
#
# 1 0.035598 -0.011405 -0.002654 0.000000 0.000000 0.000000
# 2 -0.011405 0.013926 -0.004551 0.000000 0.000000 0.000000
# 3 -0.002654 -0.004551 0.009099 0.000000 0.000000 0.000000
# 4 0.000000 0.000000 0.000000 0.026203 0.000000 0.000000
# 5 0.000000 0.000000 0.000000 0.000000 -0.135280 0.000000
# 6 0.000000 0.000000 0.000000 0.000000 0.000000 0.036052
#
#
# Mechanical properties :
#
#
# Convention : Reuss Voigt Hill
#
# Bulk Modulus (GPa) = 46.72445 79.33939 63.03192
# Shear Modulus (GPa) = 166.93005 23.47949 95.20477
#
# Velocity S-wave (km/s) = 9.54189 3.57859 7.20604
# Velocity P-wave (km/s) = 12.11947 7.76844 10.17915
#
# Compressibility (1/GPa) = 0.02140207
#
# Stress axis : x y z
#
# Youngs Moduli (GPa) = 28.09146 71.80569 109.90688
#
# Poissons Ratio (x) = 0.81897 0.29173
# Poissons Ratio (y) = 0.32039 0.50016
# Poissons Ratio (z) = 0.07456 0.32677
#
# Static dielectric constant tensor:
#      x y z
#    x 1.618090 0.000000 0.000000 
#    y 0.000000 1.616390 0.000000 
#    z 0.000000 0.000000 1.601920 
# 
# From -- ./inp_files/24213.got.cif
#   From: 2010.05.17/outbox.cif.g08.bks.cpg/sg59_13_cif.got.tgz:24213.got - 2010.06.03 14:40:33.
