data_PCOD9450160
_publ_section_title
;
Structure prediction by ZEFSAII (Michael W. Deem and Ramdas Pophale) SiO2 
 PCOD9450160
Probable space group: P M M N
;
_chemical_formula_sum "Si O2"
_cell_formula_units_Z 48
_cell_length_a 7.671886
_cell_length_b 17.779579
_cell_length_c 16.835676
_cell_angle_alpha 90.000000
_cell_angle_beta 90.000000
_cell_angle_gamma 90.000000
_cell_volume 2296.435084
_symmetry_space_group_name_H-M "P M M N"
_symmetry_group_IT_number 59
_space_group.IT_coordinate_system_code '2'
_symmetry_cell_setting 'orthorhombic'
loop_
_space_group_symop_operation_xyz
x,y,z
1/2-x,1/2-y,z
1/2+x,-y,-z
-x,1/2+y,-z
-x,-y,-z
1/2+x,1/2+y,-z
1/2-x,y,z
x,1/2-y,z
loop_
_atom_site_type_symbol
_atom_site_label
_atom_site_fract_x
_atom_site_fract_y
_atom_site_fract_z
Si Si1 0.548723 0.593749 0.895035
Si Si2 0.961694 0.603981 0.540410
Si Si3 0.044307 0.056288 0.802902
Si Si4 0.950345 0.250000 0.181777
Si Si5 0.538390 0.750000 0.636397
Si Si6 0.955599 0.948309 0.375519
Si Si7 0.964207 0.662378 0.057780
O O1 0.750000 0.573332 0.905162
O O2 0.471187 0.525314 0.844695
O O3 0.535291 0.673414 0.849790
O O4 0.475586 0.612925 0.982308
O O5 0.750000 0.600757 0.538619
O O6 0.014879 0.677425 0.587142
O O7 0.025534 0.600768 0.449277
O O8 0.023919 0.532215 0.590092
O O9 0.250000 0.070999 0.795873
O O10 0.976274 0.120281 0.862543
O O11 0.970114 0.057235 0.713362
O O12 0.750000 0.250000 0.155391
O O13 0.962139 0.250000 0.276228
O O14 0.750000 0.750000 0.643866
O O15 0.750000 0.931596 0.369613
O O16 0.750000 0.662349 0.055576
O O17 0.016772 0.750000 0.051906
#
# Coordination Sequence:
#
# PCOD9450160 Si02
#       7
#     8   8   8   4   4   8   8
#     4  11  21  36  57  79 109 145 182 220 268 325
#     4   9  18  33  52  73 102 138 172 210 259 314
#     4  10  20  34  55  83 110 139 183 229 268 315
#     4  12  24  36  54  81 112 140 176 227 276 320
#     4  10  20  34  52  77 106 136 174 215 262 322
#     4   9  18  33  51  75 104 135 172 216 259 305
#     4   9  18  35  56  78 108 145 181 221 269 319
#
# _framework density 20.901962999999999
#
# number of rings (size 3 to 8) (size 9 to 14) (size 15 to 20)
#    0.000    2.167    0.833    2.750    0.000    4.000 
#    1.500    0.833    0.000    0.000    0.000    0.000 
#    0.000    0.000    0.000    0.000    0.000    0.000 
#
# Total GULP energy -267917.609290 kJ/mol
# GULP energy per Si atom -5581.616860 kJ/mol
# Density = 2.085439 g / cm^3
# Si number density = 20.901963 Si / 1000 Ang^3
#
#
#
# Elastic Constant Matrix: (Units=GPa)
#
#
# Indices 1 2 3 4 5 6 
#
# 1 37.0816 -10.5979 2.1503 0.0000 0.0000 0.0000
# 2 -10.5979 21.5568 31.8535 0.0000 0.0000 0.0000
# 3 2.1503 31.8535 198.0705 0.0000 0.0000 0.0000
# 4 0.0000 0.0000 0.0000 21.3404 0.0000 0.0000
# 5 0.0000 0.0000 0.0000 0.0000 10.8443 0.0000
# 6 0.0000 0.0000 0.0000 0.0000 0.0000 -48.5418
#
#
#
# Elastic Compliance Matrix: (Units=1/GPa)
#
#
# Indices 1 2 3 4 5 6 
#
# 1 0.033590 0.022368 -0.003962 0.000000 0.000000 0.000000
# 2 0.022368 0.075744 -0.012424 0.000000 0.000000 0.000000
# 3 -0.003962 -0.012424 0.007090 0.000000 0.000000 0.000000
# 4 0.000000 0.000000 0.000000 0.046860 0.000000 0.000000
# 5 0.000000 0.000000 0.000000 0.000000 0.092214 0.000000
# 6 0.000000 0.000000 0.000000 0.000000 0.000000 -0.020601
#
#
# Mechanical properties :
#
#
# Convention : Reuss Voigt Hill
#
# Bulk Modulus (GPa) = 7.78886 33.72453 20.75669
# Shear Modulus (GPa) = 18.81622 12.28213 15.54917
#
# Velocity S-wave (km/s) = 3.00361 2.42669 2.73043
# Velocity P-wave (km/s) = 3.97031 4.90116 4.46009
#
# Compressibility (1/GPa) = 0.12838848
#
# Stress axis : x y z
#
# Youngs Moduli (GPa) = 29.77065 13.20237 141.04934
#
# Poissons Ratio (x) = -0.29531 0.55882
# Poissons Ratio (y) = -0.66591 1.75238
# Poissons Ratio (z) = 0.11795 0.16402
#
# Static dielectric constant tensor:
#      x y z
#    x 1.802230 0.000000 0.000000 
#    y 0.000000 1.700210 0.000000 
#    z 0.000000 0.000000 1.769430 
# 
# From -- ./inp_files/20510.got.cif
#   From: 2010.05.17/outbox.cif.g08.bks.cpg/sg59_11_cif.got.tgz:20510.got - 2010.06.03 14:40:33.
