data_PCOD9450135
_publ_section_title
;
Structure prediction by ZEFSAII (Michael W. Deem and Ramdas Pophale) SiO2 
 PCOD9450135
Probable space group: P M M N
;
_chemical_formula_sum "Si O2"
_cell_formula_units_Z 48
_cell_length_a 7.508955
_cell_length_b 15.571303
_cell_length_c 19.590368
_cell_angle_alpha 90.000000
_cell_angle_beta 90.000000
_cell_angle_gamma 90.000000
_cell_volume 2290.588371
_symmetry_space_group_name_H-M "P M M N"
_symmetry_group_IT_number 59
_space_group.IT_coordinate_system_code '2'
_symmetry_cell_setting 'orthorhombic'
loop_
_space_group_symop_operation_xyz
x,y,z
1/2-x,1/2-y,z
1/2+x,-y,-z
-x,1/2+y,-z
-x,-y,-z
1/2+x,1/2+y,-z
1/2-x,y,z
x,1/2-y,z
loop_
_atom_site_type_symbol
_atom_site_label
_atom_site_fract_x
_atom_site_fract_y
_atom_site_fract_z
Si Si1 0.031358 0.495249 0.241409
Si Si2 0.467289 0.155965 0.142103
Si Si3 0.458373 0.843103 0.157527
Si Si4 0.538522 0.150098 0.507964
Si Si5 0.534903 0.506986 0.602186
Si Si6 0.461206 0.399297 0.993950
O O1 0.250000 0.494612 0.241181
O O2 0.973160 0.416806 0.193851
O O3 0.967719 0.581000 0.203564
O O4 0.974997 0.489736 0.319656
O O5 0.250000 0.151732 0.139799
O O6 0.518861 0.250000 0.165901
O O7 0.528357 0.141765 0.064293
O O8 0.250000 0.838637 0.175223
O O9 0.539545 0.750000 0.169224
O O10 0.466524 0.865044 0.077348
O O11 0.750000 0.157351 0.519198
O O12 0.470977 0.250000 0.507378
O O13 0.513069 0.093879 0.438941
O O14 0.469935 0.080629 0.564410
O O15 0.750000 0.502910 0.601336
O O16 0.250000 0.385204 0.991110
O O17 0.500000 0.500000 0.000000
#
# Coordination Sequence:
#
# PCOD9450135 Si02
#       6
#     8   8   8   8   8   8
#     4   9  17  31  49  74 104 130 163 207 252 298
#     4   9  17  29  47  70  96 126 161 205 255 299
#     4  10  20  34  52  75 103 134 169 212 260 306
#     4   9  18  33  52  75 105 136 165 203 254 304
#     4   9  18  32  53  78 102 132 173 211 244 296
#     4  11  20  33  53  73  98 132 175 218 259 304
#
# _framework density 20.955314999999999
#
# number of rings (size 3 to 8) (size 9 to 14) (size 15 to 20)
#    0.000    2.500    1.667    1.000    0.000    2.667 
#    0.000    5.833    0.000    0.000    0.000    2.333 
#    0.000    0.000    0.000    0.000    0.000    0.000 
#
# Total GULP energy -267797.030557 kJ/mol
# GULP energy per Si atom -5579.104803 kJ/mol
# Density = 2.090762 g / cm^3
# Si number density = 20.955315 Si / 1000 Ang^3
#
#
#
# Elastic Constant Matrix: (Units=GPa)
#
#
# Indices 1 2 3 4 5 6 
#
# 1 55.4921 -2.2563 -7.7354 0.0000 0.0000 0.0000
# 2 -2.2563 185.6638 64.5365 0.0000 0.0000 0.0000
# 3 -7.7354 64.5365 130.7377 0.0000 0.0000 0.0000
# 4 0.0000 0.0000 0.0000 -47.0001 0.0000 0.0000
# 5 0.0000 0.0000 0.0000 0.0000 3.9846 0.0000
# 6 0.0000 0.0000 0.0000 0.0000 0.0000 -8.1121
#
#
#
# Elastic Compliance Matrix: (Units=1/GPa)
#
#
# Indices 1 2 3 4 5 6 
#
# 1 0.018176 -0.000185 0.001167 0.000000 0.000000 0.000000
# 2 -0.000185 0.006504 -0.003221 0.000000 0.000000 0.000000
# 3 0.001167 -0.003221 0.009308 0.000000 0.000000 0.000000
# 4 0.000000 0.000000 0.000000 -0.021277 0.000000 0.000000
# 5 0.000000 0.000000 0.000000 0.000000 0.250968 0.000000
# 6 0.000000 0.000000 0.000000 0.000000 0.000000 -0.123273
#
#
# Mechanical properties :
#
#
# Convention : Reuss Voigt Hill
#
# Bulk Modulus (GPa) = 33.88843 53.44257 43.66550
# Shear Modulus (GPa) = 32.31627 10.93106 21.62366
#
# Velocity S-wave (km/s) = 3.93128 2.28641 3.21580
# Velocity P-wave (km/s) = 6.06742 5.70340 5.88822
#
# Compressibility (1/GPa) = 0.02950859
#
# Stress axis : x y z
#
# Youngs Moduli (GPa) = 55.01850 153.76214 107.43376
#
# Poissons Ratio (x) = 0.02839 -0.12533
# Poissons Ratio (y) = 0.01016 0.34608
# Poissons Ratio (z) = -0.06418 0.49531
#
# Static dielectric constant tensor:
#      x y z
#    x 1.748840 0.000000 0.000000 
#    y 0.000000 1.752010 0.000000 
#    z 0.000000 0.000000 1.717900 
# 
# From -- ./inp_files/25496.got.cif
#   From: 2010.05.17/outbox.cif.g08.bks.cpg/sg59_13_cif.got.tgz:25496.got - 2010.06.03 14:40:33.
