data_PCOD9450978
_publ_section_title
;
Structure prediction by ZEFSAII (Michael W. Deem and Ramdas Pophale) SiO2 
 PCOD9450978
Probable space group: P M M N
;
_chemical_formula_sum "Si O2"
_cell_formula_units_Z 48
_cell_length_a 8.756994
_cell_length_b 16.540399
_cell_length_c 18.352047
_cell_angle_alpha 90.000000
_cell_angle_beta 90.000000
_cell_angle_gamma 90.000000
_cell_volume 2658.187104
_symmetry_space_group_name_H-M "P M M N"
_symmetry_group_IT_number 59
_space_group.IT_coordinate_system_code '2'
_symmetry_cell_setting 'orthorhombic'
loop_
_space_group_symop_operation_xyz
x,y,z
1/2-x,1/2-y,z
1/2+x,-y,-z
-x,1/2+y,-z
-x,-y,-z
1/2+x,1/2+y,-z
1/2-x,y,z
x,1/2-y,z
loop_
_atom_site_type_symbol
_atom_site_label
_atom_site_fract_x
_atom_site_fract_y
_atom_site_fract_z
Si Si1 0.068208 0.157725 0.664707
Si Si2 0.068840 0.988281 0.420626
Si Si3 0.433947 0.416571 0.277318
Si Si4 0.931693 0.564175 0.187909
Si Si5 0.433458 0.584529 0.030451
Si Si6 0.933777 0.250000 0.221127
Si Si7 0.935373 0.250000 0.050894
O O1 0.250000 0.150133 0.651118
O O2 0.022635 0.250000 0.655240
O O3 0.042705 0.128510 0.747493
O O4 0.980643 0.097772 0.611717
O O5 0.250000 0.993459 0.425979
O O6 0.019544 0.052136 0.357942
O O7 0.000000 0.000000 0.500000
O O8 0.250000 0.417033 0.273150
O O9 0.500829 0.480574 0.219260
O O10 0.499941 0.329462 0.259025
O O11 0.750000 0.555377 0.176053
O O12 0.012537 0.589618 0.113819
O O13 0.250000 0.580679 0.025814
O O14 0.500000 0.500000 0.000000
O O15 0.484809 0.666029 0.987707
O O16 0.750000 0.250000 0.224707
O O17 0.979308 0.250000 0.135736
O O18 0.750000 0.250000 0.047794
#
# Coordination Sequence:
#
# PCOD9450978 Si02
#       7
#     8   8   8   8   8   4   4
#     4   9  19  36  58  84 114 150 187 228 280 336
#     4  10  21  38  60  85 116 150 186 231 281 336
#     4  10  21  38  59  85 114 151 194 234 283 341
#     4  10  20  35  57  83 114 149 190 237 285 342
#     4  11  22  38  57  81 113 152 194 242 298 353
#     4  11  21  37  61  85 112 147 194 245 287 336
#     4   9  22  39  55  79 114 151 190 237 293 344
#
# _framework density 18.057418999999999
#
# number of rings (size 3 to 8) (size 9 to 14) (size 15 to 20)
#    0.000    2.000    0.000    3.250    1.167    4.333 
#    1.500    3.750    0.000    0.000    0.000    0.000 
#    0.000    0.000    0.000    0.000    0.000    0.000 
#
# Total GULP energy -268035.210228 kJ/mol
# GULP energy per Si atom -5584.066880 kJ/mol
# Density = 1.801632 g / cm^3
# Si number density = 18.057419 Si / 1000 Ang^3
#
#
#
# Elastic Constant Matrix: (Units=GPa)
#
#
# Indices 1 2 3 4 5 6 
#
# 1 54.0207 48.6643 47.2827 0.0000 0.0000 0.0000
# 2 48.6643 162.7480 89.3974 0.0000 0.0000 0.0000
# 3 47.2827 89.3974 130.7387 0.0000 0.0000 0.0000
# 4 0.0000 0.0000 0.0000 8.9975 0.0000 0.0000
# 5 0.0000 0.0000 0.0000 0.0000 35.5329 0.0000
# 6 0.0000 0.0000 0.0000 0.0000 0.0000 29.5936
#
#
#
# Elastic Compliance Matrix: (Units=1/GPa)
#
#
# Indices 1 2 3 4 5 6 
#
# 1 0.029158 -0.004687 -0.007341 0.000000 0.000000 0.000000
# 2 -0.004687 0.010594 -0.005549 0.000000 0.000000 0.000000
# 3 -0.007341 -0.005549 0.014098 0.000000 0.000000 0.000000
# 4 0.000000 0.000000 0.000000 0.111142 0.000000 0.000000
# 5 0.000000 0.000000 0.000000 0.000000 0.028143 0.000000
# 6 0.000000 0.000000 0.000000 0.000000 0.000000 0.033791
#
#
# Mechanical properties :
#
#
# Convention : Reuss Voigt Hill
#
# Bulk Modulus (GPa) = 53.48267 79.79958 66.64113
# Shear Modulus (GPa) = 18.63502 25.63566 22.13534
#
# Velocity S-wave (km/s) = 3.21594 3.77194 3.50498
# Velocity P-wave (km/s) = 6.59334 7.95350 7.30514
#
# Compressibility (1/GPa) = 0.01869765
#
# Stress axis : x y z
#
# Youngs Moduli (GPa) = 34.29541 94.39375 70.93174
#
# Poissons Ratio (x) = 0.44238 0.52069
# Poissons Ratio (y) = 0.16073 0.39360
# Poissons Ratio (z) = 0.25175 0.52380
#
# Static dielectric constant tensor:
#      x y z
#    x 1.612520 0.000000 0.000000 
#    y 0.000000 1.603080 0.000000 
#    z 0.000000 0.000000 1.601050 
# 
# From -- ./inp_files/25596.got.cif
#   From: 2010.05.17/outbox.cif.g08.bks.cpg/sg59_13_cif.got.tgz:25596.got - 2010.06.03 14:40:33.
