data_PCOD9450850
_publ_section_title
;
Structure prediction by ZEFSAII (Michael W. Deem and Ramdas Pophale) SiO2 
 PCOD9450850
Probable space group: P M M N
;
_chemical_formula_sum "Si O2"
_cell_formula_units_Z 56
_cell_length_a 14.266914
_cell_length_b 15.848879
_cell_length_c 12.819231
_cell_angle_alpha 90.000000
_cell_angle_beta 90.000000
_cell_angle_gamma 90.000000
_cell_volume 2898.615209
_symmetry_space_group_name_H-M "P M M N"
_symmetry_group_IT_number 59
_space_group.IT_coordinate_system_code '2'
_symmetry_cell_setting 'orthorhombic'
loop_
_space_group_symop_operation_xyz
x,y,z
1/2-x,1/2-y,z
1/2+x,-y,-z
-x,1/2+y,-z
-x,-y,-z
1/2+x,1/2+y,-z
1/2-x,y,z
x,1/2-y,z
loop_
_atom_site_type_symbol
_atom_site_label
_atom_site_fract_x
_atom_site_fract_y
_atom_site_fract_z
Si Si1 0.988178 0.916820 0.174390
Si Si2 0.144132 0.656252 0.716381
Si Si3 0.359243 0.028400 0.633477
Si Si4 0.139680 0.843807 0.310281
Si Si5 0.454489 0.398419 0.197536
Si Si6 0.646576 0.652548 0.000675
Si Si7 0.362200 0.028622 0.400453
O O1 0.919458 0.931716 0.273949
O O2 0.070637 0.855306 0.212148
O O3 0.928805 0.888387 0.076417
O O4 0.032116 0.007873 0.152475
O O5 0.250000 0.650907 0.762576
O O6 0.137288 0.750000 0.667924
O O7 0.136400 0.573797 0.643617
O O8 0.056058 0.645086 0.793245
O O9 0.250000 0.051938 0.645011
O O10 0.392014 0.051065 0.517560
O O11 0.250000 0.848233 0.282265
O O12 0.124016 0.750000 0.357056
O O13 0.120902 0.928653 0.377817
O O14 0.385512 0.352636 0.119090
O O15 0.412752 0.415654 0.312659
O O16 0.750000 0.613942 0.013035
O O17 0.651314 0.750000 0.030954
O O18 0.250000 0.040534 0.393084
#
# Coordination Sequence:
#
# PCOD9450850 Si02
#       7
#     8   8   8   8   8   8   8
#     4  10  20  35  56  79 104 137 174 214 257 307
#     4   9  18  32  50  75 108 141 171 206 251 305
#     4   9  18  33  54  79 106 137 173 213 256 304
#     4   9  18  32  50  75 108 141 171 206 251 305
#     4  10  20  35  56  79 104 137 174 214 257 307
#     4  11  23  38  57  79 103 133 172 219 266 310
#     4   9  18  33  54  79 106 137 173 213 256 304
#
# _framework density 19.319572000000001
#
# number of rings (size 3 to 8) (size 9 to 14) (size 15 to 20)
#    0.000    2.429    0.000    2.143    0.000    6.857 
#    0.000    3.571    0.000    5.143    0.000   10.000 
#    0.000    0.000    0.000    0.000    0.000    0.000 
#
# Total GULP energy -312071.377812 kJ/mol
# GULP energy per Si atom -5572.703175 kJ/mol
# Density = 1.927560 g / cm^3
# Si number density = 19.319572 Si / 1000 Ang^3
#
#
#
# Elastic Constant Matrix: (Units=GPa)
#
#
# Indices 1 2 3 4 5 6 
#
# 1 59.0794 1.0761 7.3637 0.0000 0.0000 0.0000
# 2 1.0761 41.7945 10.1937 0.0000 0.0000 0.0000
# 3 7.3637 10.1937 56.2328 0.0000 0.0000 0.0000
# 4 0.0000 0.0000 0.0000 1.9277 0.0000 0.0000
# 5 0.0000 0.0000 0.0000 0.0000 24.9437 0.0000
# 6 0.0000 0.0000 0.0000 0.0000 0.0000 20.7575
#
#
#
# Elastic Compliance Matrix: (Units=1/GPa)
#
#
# Indices 1 2 3 4 5 6 
#
# 1 0.017208 0.000111 -0.002274 0.000000 0.000000 0.000000
# 2 0.000111 0.025034 -0.004553 0.000000 0.000000 0.000000
# 3 -0.002274 -0.004553 0.018906 0.000000 0.000000 0.000000
# 4 0.000000 0.000000 0.000000 0.518755 0.000000 0.000000
# 5 0.000000 0.000000 0.000000 0.000000 0.040090 0.000000
# 6 0.000000 0.000000 0.000000 0.000000 0.000000 0.048175
#
#
# Mechanical properties :
#
#
# Convention : Reuss Voigt Hill
#
# Bulk Modulus (GPa) = 20.95623 21.59707 21.27665
# Shear Modulus (GPa) = 7.16841 18.75733 12.96287
#
# Velocity S-wave (km/s) = 1.92834 3.11930 2.59312
# Velocity P-wave (km/s) = 3.97853 4.91696 4.47243
#
# Compressibility (1/GPa) = 0.04771851
#
# Stress axis : x y z
#
# Youngs Moduli (GPa) = 58.11343 39.94546 52.89263
#
# Poissons Ratio (x) = -0.00445 0.12025
# Poissons Ratio (y) = -0.00648 0.24080
# Poissons Ratio (z) = 0.13212 0.18186
#
# Static dielectric constant tensor:
#      x y z
#    x 1.711980 0.000000 0.000000 
#    y 0.000000 1.682400 0.000000 
#    z 0.000000 0.000000 1.655450 
# 
# From -- ./inp_files/16968.got.cif
#   From: 2010.05.17/outbox.cif.g08.bks.cpg/sg59_9_cif.got.tgz:16968.got - 2010.06.03 14:40:33.
