data_PCOD9450113
_publ_section_title
;
Structure prediction by ZEFSAII (Michael W. Deem and Ramdas Pophale) SiO2 
 PCOD9450113
Probable space group: P M M N
;
_chemical_formula_sum "Si O2"
_cell_formula_units_Z 56
_cell_length_a 20.830428
_cell_length_b 7.399279
_cell_length_c 15.879055
_cell_angle_alpha 90.000000
_cell_angle_beta 90.000000
_cell_angle_gamma 90.000000
_cell_volume 2447.441105
_symmetry_space_group_name_H-M "P M M N"
_symmetry_group_IT_number 59
_space_group.IT_coordinate_system_code '2'
_symmetry_cell_setting 'orthorhombic'
loop_
_space_group_symop_operation_xyz
x,y,z
1/2-x,1/2-y,z
1/2+x,-y,-z
-x,1/2+y,-z
-x,-y,-z
1/2+x,1/2+y,-z
1/2-x,y,z
x,1/2-y,z
loop_
_atom_site_type_symbol
_atom_site_label
_atom_site_fract_x
_atom_site_fract_y
_atom_site_fract_z
Si Si1 0.822901 0.531888 0.190795
Si Si2 0.414345 0.029159 0.657331
Si Si3 0.321637 0.537620 0.004318
Si Si4 0.047497 0.534067 0.076799
Si Si5 0.679736 0.040549 0.685025
Si Si6 0.321437 0.031544 0.511687
Si Si7 0.041716 0.528909 0.262272
O O1 0.750000 0.472729 0.209905
O O2 0.823394 0.750000 0.191850
O O3 0.872651 0.472281 0.261475
O O4 0.837388 0.477142 0.095080
O O5 0.413769 0.250000 0.656106
O O6 0.377372 0.969174 0.573702
O O7 0.487442 0.970813 0.671886
O O8 0.250000 0.460972 0.017405
O O9 0.317679 0.750000 0.024550
O O10 0.381515 0.461418 0.055708
O O11 0.053267 0.750000 0.083043
O O12 0.022841 0.473587 0.167698
O O13 0.000000 0.500000 0.000000
O O14 0.750000 0.961595 0.706274
O O15 0.681721 0.250000 0.712045
O O16 0.613822 0.963586 0.720819
O O17 0.673363 0.034572 0.583772
O O18 0.250000 0.981734 0.543730
O O19 0.323484 0.250000 0.508582
O O20 0.042779 0.750000 0.266352
#
# Coordination Sequence:
#
# PCOD9450113 Si02
#       7
#     8   8   8   8   8   8   8
#     4   9  16  27  46  70  94 122 156 192 230 275
#     4   9  16  27  45  69  95 121 153 190 225 271
#     4   9  18  31  46  67  95 124 155 194 240 286
#     4  10  20  34  52  72  96 127 161 198 240 285
#     4   9  18  33  51  70  93 121 156 196 232 269
#     4   9  17  30  49  71  94 121 151 184 227 276
#     4   9  18  31  48  70  93 121 156 192 231 272
#
# _framework density 22.881039999999999
#
# number of rings (size 3 to 8) (size 9 to 14) (size 15 to 20)
#    0.000    2.857    0.000    1.286    0.000    4.571 
#    0.000    4.286    0.000    5.143    0.000    4.000 
#    0.000    0.000    0.000    0.000    0.000    0.000 
#
# Total GULP energy -312683.039284 kJ/mol
# GULP energy per Si atom -5583.625701 kJ/mol
# Density = 2.282896 g / cm^3
# Si number density = 22.881040 Si / 1000 Ang^3
#
#
#
# Elastic Constant Matrix: (Units=GPa)
#
#
# Indices 1 2 3 4 5 6 
#
# 1 117.5567 2.9685 35.8317 0.0000 0.0000 0.0000
# 2 2.9685 77.1198 -6.9782 0.0000 0.0000 0.0000
# 3 35.8317 -6.9782 41.5927 0.0000 0.0000 0.0000
# 4 0.0000 0.0000 0.0000 9.0732 0.0000 0.0000
# 5 0.0000 0.0000 0.0000 0.0000 42.1908 0.0000
# 6 0.0000 0.0000 0.0000 0.0000 0.0000 -1.1888
#
#
#
# Elastic Compliance Matrix: (Units=1/GPa)
#
#
# Indices 1 2 3 4 5 6 
#
# 1 0.011679 -0.001381 -0.010293 0.000000 0.000000 0.000000
# 2 -0.001381 0.013330 0.003426 0.000000 0.000000 0.000000
# 3 -0.010293 0.003426 0.033485 0.000000 0.000000 0.000000
# 4 0.000000 0.000000 0.000000 0.110215 0.000000 0.000000
# 5 0.000000 0.000000 0.000000 0.000000 0.023702 0.000000
# 6 0.000000 0.000000 0.000000 0.000000 0.000000 -0.841171
#
#
# Mechanical properties :
#
#
# Convention : Reuss Voigt Hill
#
# Bulk Modulus (GPa) = 23.81062 33.32370 28.56716
# Shear Modulus (GPa) = -8.08712 23.64484 7.77886
#
# Velocity S-wave (km/s) = -1.88204 3.21811 1.84583
# Velocity P-wave (km/s) = 2.38874 5.32953 4.12976
#
# Compressibility (1/GPa) = 0.04199807
#
# Stress axis : x y z
#
# Youngs Moduli (GPa) = 85.62623 75.01879 29.86454
#
# Poissons Ratio (x) = 0.10359 0.30739
# Poissons Ratio (y) = 0.11824 -0.10232
# Poissons Ratio (z) = 0.88133 -0.25702
#
# Static dielectric constant tensor:
#      x y z
#    x 1.862960 0.000000 0.000000 
#    y 0.000000 1.893430 0.000000 
#    z 0.000000 0.000000 1.802650 
# 
# From -- ./inp_files/20980.got.cif
#   From: 2010.05.17/outbox.cif.g08.bks.cpg/sg59_11_cif.got.tgz:20980.got - 2010.06.03 14:40:33.
