data_PCOD9450611
_publ_section_title
;
Structure prediction by ZEFSAII (Michael W. Deem and Ramdas Pophale) SiO2 
 PCOD9450611
Probable space group: P M M N
;
_chemical_formula_sum "Si O2"
_cell_formula_units_Z 56
_cell_length_a 8.626608
_cell_length_b 15.208910
_cell_length_c 22.057218
_cell_angle_alpha 90.000000
_cell_angle_beta 90.000000
_cell_angle_gamma 90.000000
_cell_volume 2893.935779
_symmetry_space_group_name_H-M "P M M N"
_symmetry_group_IT_number 59
_space_group.IT_coordinate_system_code '2'
_symmetry_cell_setting 'orthorhombic'
loop_
_space_group_symop_operation_xyz
x,y,z
1/2-x,1/2-y,z
1/2+x,-y,-z
-x,1/2+y,-z
-x,-y,-z
1/2+x,1/2+y,-z
1/2-x,y,z
x,1/2-y,z
loop_
_atom_site_type_symbol
_atom_site_label
_atom_site_fract_x
_atom_site_fract_y
_atom_site_fract_z
Si Si1 0.565612 0.589480 0.934814
Si Si2 0.062799 0.852432 0.505854
Si Si3 0.565205 0.001179 0.590905
Si Si4 0.432312 0.105543 0.932026
Si Si5 0.427732 0.649855 0.193903
Si Si6 0.434266 0.847896 0.811424
Si Si7 0.932667 0.503884 0.275858
O O1 0.750000 0.570241 0.935676
O O2 0.471015 0.498424 0.931193
O O3 0.521178 0.642093 0.875098
O O4 0.528561 0.634375 0.999397
O O5 0.250000 0.850045 0.506745
O O6 0.009698 0.750000 0.505270
O O7 0.006408 0.912480 0.561953
O O8 0.014474 0.912646 0.447988
O O9 0.750000 0.995181 0.585276
O O10 0.517498 0.011084 0.660354
O O11 0.250000 0.120316 0.921814
O O12 0.525933 0.145711 0.876628
O O13 0.250000 0.619891 0.200363
O O14 0.439557 0.750000 0.214821
O O15 0.535094 0.587092 0.233193
O O16 0.250000 0.861791 0.822617
O O17 0.455313 0.750000 0.787166
O O18 0.486915 0.920385 0.763557
O O19 0.750000 0.494239 0.287230
#
# Coordination Sequence:
#
# PCOD9450611 Si02
#       7
#     8   8   8   8   8   8   8
#     4  10  20  34  56  83 111 144 187 240 299 356
#     4   9  19  38  63  90 122 159 197 237 283 338
#     4  10  21  37  60  91 124 158 195 239 291 340
#     4  10  20  35  56  82 111 146 187 237 298 360
#     4  11  24  40  59  84 114 151 195 245 299 351
#     4  10  22  39  58  81 111 150 195 242 295 353
#     4  11  23  40  61  85 118 160 200 240 288 343
#
# _framework density 19.350809000000002
#
# number of rings (size 3 to 8) (size 9 to 14) (size 15 to 20)
#    0.000    1.857    1.429    2.143    0.000    6.286 
#    0.000    5.714    0.000    0.000    0.000    0.000 
#    0.000    0.000    0.000    0.000    0.000    0.000 
#
# Total GULP energy -312652.679374 kJ/mol
# GULP energy per Si atom -5583.083560 kJ/mol
# Density = 1.930677 g / cm^3
# Si number density = 19.350809 Si / 1000 Ang^3
#
#
#
# Elastic Constant Matrix: (Units=GPa)
#
#
# Indices 1 2 3 4 5 6 
#
# 1 14.8822 11.0314 5.9044 0.0000 0.0000 0.0000
# 2 11.0314 95.7665 33.4469 0.0000 0.0000 0.0000
# 3 5.9044 33.4469 95.8979 0.0000 0.0000 0.0000
# 4 0.0000 0.0000 0.0000 -89.5625 0.0000 0.0000
# 5 0.0000 0.0000 0.0000 0.0000 34.8971 0.0000
# 6 0.0000 0.0000 0.0000 0.0000 0.0000 17.6563
#
#
#
# Elastic Compliance Matrix: (Units=1/GPa)
#
#
# Indices 1 2 3 4 5 6 
#
# 1 0.073738 -0.007867 -0.001796 0.000000 0.000000 0.000000
# 2 -0.007867 0.012730 -0.003955 0.000000 0.000000 0.000000
# 3 -0.001796 -0.003955 0.011918 0.000000 0.000000 0.000000
# 4 0.000000 0.000000 0.000000 -0.011165 0.000000 0.000000
# 5 0.000000 0.000000 0.000000 0.000000 0.028656 0.000000
# 6 0.000000 0.000000 0.000000 0.000000 0.000000 0.056637
#
#
# Mechanical properties :
#
#
# Convention : Reuss Voigt Hill
#
# Bulk Modulus (GPa) = 14.05499 34.14579 24.10039
# Shear Modulus (GPa) = 22.37471 3.00911 12.69191
#
# Velocity S-wave (km/s) = 3.40408 1.24836 2.56380
# Velocity P-wave (km/s) = 4.76754 4.44543 4.60930
#
# Compressibility (1/GPa) = 0.07114912
#
# Stress axis : x y z
#
# Youngs Moduli (GPa) = 13.56146 78.55652 83.90719
#
# Poissons Ratio (x) = 0.61797 0.15073
# Poissons Ratio (y) = 0.10668 0.33189
# Poissons Ratio (z) = 0.02436 0.31073
#
# Static dielectric constant tensor:
#      x y z
#    x 1.662340 0.000000 0.000000 
#    y 0.000000 1.688380 0.000000 
#    z 0.000000 0.000000 1.654450 
# 
# From -- ./inp_files/29098.got.cif
#   From: 2010.05.17/outbox.cif.g08.bks.cpg/sg59_15_cif.got.tgz:29098.got - 2010.06.03 14:40:33.
