data_PCOD9450907
_publ_section_title
;
Structure prediction by ZEFSAII (Michael W. Deem and Ramdas Pophale) SiO2 
 PCOD9450907
Probable space group: P M M N
;
_chemical_formula_sum "Si O2"
_cell_formula_units_Z 56
_cell_length_a 14.874489
_cell_length_b 10.622105
_cell_length_c 17.778426
_cell_angle_alpha 90.000000
_cell_angle_beta 90.000000
_cell_angle_gamma 90.000000
_cell_volume 2808.962578
_symmetry_space_group_name_H-M "P M M N"
_symmetry_group_IT_number 59
_space_group.IT_coordinate_system_code '2'
_symmetry_cell_setting 'orthorhombic'
loop_
_space_group_symop_operation_xyz
x,y,z
1/2-x,1/2-y,z
1/2+x,-y,-z
-x,1/2+y,-z
-x,-y,-z
1/2+x,1/2+y,-z
1/2-x,y,z
x,1/2-y,z
loop_
_atom_site_type_symbol
_atom_site_label
_atom_site_fract_x
_atom_site_fract_y
_atom_site_fract_z
Si Si1 0.352796 0.546593 0.138390
Si Si2 0.902190 0.604818 0.555858
Si Si3 0.384524 0.609979 0.552014
Si Si4 0.355606 0.105755 0.986161
Si Si5 0.644603 0.397088 0.269402
Si Si6 0.354646 0.387500 0.286746
Si Si7 0.949645 0.891009 0.170434
O O1 0.250000 0.600224 0.139246
O O2 0.354795 0.443821 0.204530
O O3 0.442997 0.619200 0.160213
O O4 0.367887 0.485042 0.056909
O O5 0.867092 0.750000 0.554804
O O6 0.856194 0.508697 0.498351
O O7 0.896714 0.548190 0.640475
O O8 0.008025 0.615005 0.540298
O O9 0.350290 0.750000 0.531409
O O10 0.364991 0.590676 0.640305
O O11 0.250000 0.102234 0.966790
O O12 0.377760 0.250000 0.008288
O O13 0.410579 0.074397 0.911677
O O14 0.750000 0.417914 0.249693
O O15 0.622968 0.250000 0.250865
O O16 0.582818 0.499923 0.227312
O O17 0.250000 0.378862 0.307131
O O18 0.397640 0.250000 0.283079
O O19 0.915472 0.750000 0.190642
#
# Coordination Sequence:
#
# PCOD9450907 Si02
#       7
#     8   8   8   8   8   8   8
#     4  10  20  35  56  82 114 153 196 237 279 336
#     4   9  17  30  49  75 106 139 178 224 274 331
#     4   9  18  33  52  74 104 141 180 225 277 333
#     4   9  18  34  57  85 115 148 190 238 286 339
#     4  10  22  40  61  85 113 149 197 247 291 342
#     4   9  17  30  50  76 104 136 178 227 274 321
#     4  11  23  38  58  85 119 156 191 235 293 347
#
# _framework density 19.936184999999998
#
# number of rings (size 3 to 8) (size 9 to 14) (size 15 to 20)
#    0.000    2.429    0.000    2.143    0.000    6.286 
#    0.000    4.286    0.000    1.714    0.000    0.000 
#    0.000    0.000    0.000    0.000    0.000    0.000 
#
# Total GULP energy -311821.965832 kJ/mol
# GULP energy per Si atom -5568.249390 kJ/mol
# Density = 1.989081 g / cm^3
# Si number density = 19.936185 Si / 1000 Ang^3
#
#
#
# Elastic Constant Matrix: (Units=GPa)
#
#
# Indices 1 2 3 4 5 6 
#
# 1 75.2451 33.5948 16.5050 0.0000 0.0000 0.0000
# 2 33.5948 99.8526 64.9252 0.0000 0.0000 0.0000
# 3 16.5050 64.9252 86.1934 0.0000 0.0000 0.0000
# 4 0.0000 0.0000 0.0000 50.1372 0.0000 0.0000
# 5 0.0000 0.0000 0.0000 0.0000 5.2884 0.0000
# 6 0.0000 0.0000 0.0000 0.0000 0.0000 16.2218
#
#
#
# Elastic Compliance Matrix: (Units=1/GPa)
#
#
# Indices 1 2 3 4 5 6 
#
# 1 0.015799 -0.006563 0.001918 0.000000 0.000000 0.000000
# 2 -0.006563 0.022354 -0.015581 0.000000 0.000000 0.000000
# 3 0.001918 -0.015581 0.022971 0.000000 0.000000 0.000000
# 4 0.000000 0.000000 0.000000 0.019945 0.000000 0.000000
# 5 0.000000 0.000000 0.000000 0.000000 0.189094 0.000000
# 6 0.000000 0.000000 0.000000 0.000000 0.000000 0.061646
#
#
# Mechanical properties :
#
#
# Convention : Reuss Voigt Hill
#
# Bulk Modulus (GPa) = 48.37418 54.59345 51.48382
# Shear Modulus (GPa) = 13.18730 24.08055 18.63392
#
# Velocity S-wave (km/s) = 2.57471 3.47923 3.06057
# Velocity P-wave (km/s) = 5.75813 6.60179 6.19434
#
# Compressibility (1/GPa) = 0.02067218
#
# Stress axis : x y z
#
# Youngs Moduli (GPa) = 63.29427 44.73496 43.53268
#
# Poissons Ratio (x) = 0.29358 -0.08349
# Poissons Ratio (y) = 0.41537 0.67830
# Poissons Ratio (z) = -0.12139 0.69703
#
# Static dielectric constant tensor:
#      x y z
#    x 1.748180 0.000000 0.000000 
#    y 0.000000 1.720260 0.000000 
#    z 0.000000 0.000000 1.662800 
# 
# From -- ./inp_files/23235.got.cif
#   From: 2010.05.17/outbox.cif.g08.bks.cpg/sg59_12_cif.got.tgz:23235.got - 2010.06.03 14:40:33.
