data_PCOD9450699
_publ_section_title
;
Structure prediction by ZEFSAII (Michael W. Deem and Ramdas Pophale) SiO2 
 PCOD9450699
Probable space group: P M M N
;
_chemical_formula_sum "Si O2"
_cell_formula_units_Z 64
_cell_length_a 7.768732
_cell_length_b 21.450151
_cell_length_c 17.505105
_cell_angle_alpha 90.000000
_cell_angle_beta 90.000000
_cell_angle_gamma 90.000000
_cell_volume 2917.059003
_symmetry_space_group_name_H-M "P M M N"
_symmetry_group_IT_number 59
_space_group.IT_coordinate_system_code '2'
_symmetry_cell_setting 'orthorhombic'
loop_
_space_group_symop_operation_xyz
x,y,z
1/2-x,1/2-y,z
1/2+x,-y,-z
-x,1/2+y,-z
-x,-y,-z
1/2+x,1/2+y,-z
1/2-x,y,z
x,1/2-y,z
loop_
_atom_site_type_symbol
_atom_site_label
_atom_site_fract_x
_atom_site_fract_y
_atom_site_fract_z
Si Si1 0.944684 0.865193 0.892380
Si Si2 0.952080 0.999199 0.128855
Si Si3 0.548339 0.129032 0.942912
Si Si4 0.448399 0.445090 0.713257
Si Si5 0.449888 0.174991 0.269490
Si Si6 0.958185 0.317860 0.783633
Si Si7 0.042313 0.062823 0.544616
Si Si8 0.461047 0.177562 0.439533
O O1 0.750000 0.841520 0.888761
O O2 0.028101 0.848578 0.810442
O O3 0.951505 0.939923 0.898791
O O4 0.017541 0.843668 0.973392
O O5 0.750000 0.015086 0.133119
O O6 0.021063 0.981368 0.213446
O O7 0.966641 0.938268 0.076009
O O8 0.750000 0.117571 0.935799
O O9 0.496173 0.173057 0.872775
O O10 0.250000 0.465763 0.707493
O O11 0.456105 0.373254 0.738003
O O12 0.528908 0.447464 0.629953
O O13 0.250000 0.153323 0.270178
O O14 0.450884 0.250000 0.266839
O O15 0.520871 0.158786 0.353526
O O16 0.750000 0.323445 0.777297
O O17 0.009736 0.250000 0.756309
O O18 0.250000 0.069176 0.550243
O O19 0.982768 0.125392 0.500465
O O20 0.000000 0.000000 0.500000
O O21 0.250000 0.177744 0.437742
O O22 0.511852 0.250000 0.454580
#
# Coordination Sequence:
#
# PCOD9450699 Si02
#       8
#     8   8   8   8   8   8   8   8
#     4  11  21  31  50  77 101 130 172 217 262 314
#     4  10  20  35  52  70 101 139 174 214 260 311
#     4  10  20  35  52  73 103 136 172 214 261 313
#     4   9  20  36  52  77 109 140 176 218 263 316
#     4   8  16  31  49  72 101 131 169 215 254 299
#     4   9  19  36  57  79 104 138 178 218 262 316
#     4  10  21  35  55  85 116 144 179 225 277 327
#     4   8  15  31  54  77 104 141 183 222 260 311
#
# _framework density 21.939906000000001
#
# number of rings (size 3 to 8) (size 9 to 14) (size 15 to 20)
#    0.000    2.625    0.000    2.250    1.750    2.750 
#    0.000    1.250    0.000    1.500    0.000    3.500 
#    0.000    0.000    0.000    0.000    0.000    0.000 
#
# Total GULP energy -356940.114866 kJ/mol
# GULP energy per Si atom -5577.189295 kJ/mol
# Density = 2.188997 g / cm^3
# Si number density = 21.939906 Si / 1000 Ang^3
#
#
#
# Elastic Constant Matrix: (Units=GPa)
#
#
# Indices 1 2 3 4 5 6 
#
# 1 31.8480 -5.3962 4.2438 0.0000 0.0000 0.0000
# 2 -5.3962 32.1334 21.8636 0.0000 0.0000 0.0000
# 3 4.2438 21.8636 151.1926 0.0000 0.0000 0.0000
# 4 0.0000 0.0000 0.0000 6.0886 0.0000 0.0000
# 5 0.0000 0.0000 0.0000 0.0000 6.8704 0.0000
# 6 0.0000 0.0000 0.0000 0.0000 0.0000 13.0580
#
#
#
# Elastic Compliance Matrix: (Units=1/GPa)
#
#
# Indices 1 2 3 4 5 6 
#
# 1 0.032806 0.006805 -0.001905 0.000000 0.000000 0.000000
# 2 0.006805 0.035928 -0.005386 0.000000 0.000000 0.000000
# 3 -0.001905 -0.005386 0.007446 0.000000 0.000000 0.000000
# 4 0.000000 0.000000 0.000000 0.164240 0.000000 0.000000
# 5 0.000000 0.000000 0.000000 0.000000 0.145552 0.000000
# 6 0.000000 0.000000 0.000000 0.000000 0.000000 0.076581
#
#
# Mechanical properties :
#
#
# Convention : Reuss Voigt Hill
#
# Bulk Modulus (GPa) = 13.29642 28.51073 20.90358
# Shear Modulus (GPa) = 10.23341 18.16760 14.20050
#
# Velocity S-wave (km/s) = 2.16204 2.88073 2.54686
# Velocity P-wave (km/s) = 3.50800 4.90794 4.26580
#
# Compressibility (1/GPa) = 0.07520820
#
# Stress axis : x y z
#
# Youngs Moduli (GPa) = 30.48223 27.83342 134.29159
#
# Poissons Ratio (x) = -0.18941 0.25582
# Poissons Ratio (y) = -0.20744 0.72336
# Poissons Ratio (z) = 0.05807 0.14992
#
# Static dielectric constant tensor:
#      x y z
#    x 1.824780 0.000000 0.000000 
#    y 0.000000 1.782480 0.000000 
#    z 0.000000 0.000000 1.852610 
# 
# From -- ./inp_files/21451.got.cif
#   From: 2010.05.17/outbox.cif.g08.bks.cpg/sg59_11_cif.got.tgz:21451.got - 2010.06.03 14:40:33.
