data_PCOD9450154
_publ_section_title
;
Structure prediction by ZEFSAII (Michael W. Deem and Ramdas Pophale) SiO2 
 PCOD9450154
Probable space group: P M M N
;
_chemical_formula_sum "Si O2"
_cell_formula_units_Z 40
_cell_length_a 8.011647
_cell_length_b 7.561290
_cell_length_c 30.504975
_cell_angle_alpha 90.000000
_cell_angle_beta 90.000000
_cell_angle_gamma 90.000000
_cell_volume 1847.942161
_symmetry_space_group_name_H-M "P M M N"
_symmetry_group_IT_number 59
_space_group.IT_coordinate_system_code '2'
_symmetry_cell_setting 'orthorhombic'
loop_
_space_group_symop_operation_xyz
x,y,z
1/2-x,1/2-y,z
1/2+x,-y,-z
-x,1/2+y,-z
-x,-y,-z
1/2+x,1/2+y,-z
1/2-x,y,z
x,1/2-y,z
loop_
_atom_site_type_symbol
_atom_site_label
_atom_site_fract_x
_atom_site_fract_y
_atom_site_fract_z
Si Si1 0.048682 0.550391 0.548966
Si Si2 0.561137 0.037601 0.950721
Si Si3 0.945430 0.466591 0.357249
Si Si4 0.750000 0.037264 0.208198
Si Si5 0.932507 0.966203 0.736855
Si Si6 0.250000 0.461513 0.894375
O O1 0.250000 0.544835 0.550758
O O2 0.988098 0.750000 0.552192
O O3 0.993536 0.465371 0.595153
O O4 0.000000 0.500000 0.500000
O O5 0.750000 0.969463 0.944121
O O6 0.568827 0.250000 0.945777
O O7 0.418173 0.969813 0.917808
O O8 0.500000 0.000000 0.000000
O O9 0.750000 0.513258 0.352145
O O10 0.950920 0.250000 0.358492
O O11 0.039779 0.521811 0.313569
O O12 0.750000 0.250000 0.212490
O O13 0.584600 0.972479 0.233093
O O14 0.750000 0.994960 0.157146
O O15 0.750000 0.021611 0.752435
O O16 0.936090 0.750000 0.736803
O O17 0.250000 0.250000 0.901194
#
# Coordination Sequence:
#
# PCOD9450154 Si02
#       6
#     8   8   8   4   8   4
#     4   9  18  30  45  67  96 128 161 200 249 303
#     4  10  20  35  57  83 110 142 182 223 261 305
#     4   8  13  25  44  65  91 123 158 202 254 302
#     4  10  20  34  52  76 106 134 168 220 263 296
#     4   9  16  27  47  74 100 126 162 211 263 306
#     4  10  22  38  54  78 112 148 178 210 261 316
#
# _framework density 21.645700999999999
#
# number of rings (size 3 to 8) (size 9 to 14) (size 15 to 20)
#    0.000    2.800    2.000    1.200    0.000    2.800 
#    0.000    2.000    0.000    1.200    0.000    0.000 
#    0.000    0.000    0.000    0.000    0.000    0.000 
#
# Total GULP energy -223050.735186 kJ/mol
# GULP energy per Si atom -5576.268380 kJ/mol
# Density = 2.159643 g / cm^3
# Si number density = 21.645701 Si / 1000 Ang^3
#
#
#
# Elastic Constant Matrix: (Units=GPa)
#
#
# Indices 1 2 3 4 5 6 
#
# 1 177.8062 10.4901 107.6747 0.0000 0.0000 0.0000
# 2 10.4901 43.3113 0.6453 0.0000 0.0000 0.0000
# 3 107.6747 0.6453 193.3607 0.0000 0.0000 0.0000
# 4 0.0000 0.0000 0.0000 17.8420 0.0000 0.0000
# 5 0.0000 0.0000 0.0000 0.0000 26.7596 0.0000
# 6 0.0000 0.0000 0.0000 0.0000 0.0000 1.9963
#
#
#
# Elastic Compliance Matrix: (Units=1/GPa)
#
#
# Indices 1 2 3 4 5 6 
#
# 1 0.008660 -0.002026 -0.004815 0.000000 0.000000 0.000000
# 2 -0.002026 0.023564 0.001049 0.000000 0.000000 0.000000
# 3 -0.004815 0.001049 0.007850 0.000000 0.000000 0.000000
# 4 0.000000 0.000000 0.000000 0.056048 0.000000 0.000000
# 5 0.000000 0.000000 0.000000 0.000000 0.037370 0.000000
# 6 0.000000 0.000000 0.000000 0.000000 0.000000 0.500917
#
#
# Mechanical properties :
#
#
# Convention : Reuss Voigt Hill
#
# Bulk Modulus (GPa) = 35.10058 72.45538 53.77798
# Shear Modulus (GPa) = 7.62791 29.03079 18.32935
#
# Velocity S-wave (km/s) = 1.87926 3.66619 2.91312
# Velocity P-wave (km/s) = 4.57821 7.17407 6.01778
#
# Compressibility (1/GPa) = 0.02848955
#
# Stress axis : x y z
#
# Youngs Moduli (GPa) = 115.47683 42.43822 127.39286
#
# Poissons Ratio (x) = 0.08597 0.61346
# Poissons Ratio (y) = 0.23392 -0.13368
# Poissons Ratio (z) = 0.55608 -0.04453
#
# Static dielectric constant tensor:
#      x y z
#    x 1.987010 0.000000 0.000000 
#    y 0.000000 1.853830 0.000000 
#    z 0.000000 0.000000 1.775060 
# 
# From -- ./inp_files/32429.got.cif
#   From: 2010.05.17/outbox.cif.g08.bks.cpg/sg59_17_cif.got.tgz:32429.got - 2010.06.03 14:40:33.
