data_PCOD9450087
_publ_section_title
;
Structure prediction by ZEFSAII (Michael W. Deem and Ramdas Pophale) SiO2 
 PCOD9450087
Probable space group: P M M N
;
_chemical_formula_sum "Si O2"
_cell_formula_units_Z 64
_cell_length_a 14.175118
_cell_length_b 8.928040
_cell_length_c 32.295566
_cell_angle_alpha 90.000000
_cell_angle_beta 90.000000
_cell_angle_gamma 90.000000
_cell_volume 4087.198313
_symmetry_space_group_name_H-M "P M M N"
_symmetry_group_IT_number 59
_space_group.IT_coordinate_system_code '2'
_symmetry_cell_setting 'orthorhombic'
loop_
_space_group_symop_operation_xyz
x,y,z
1/2-x,1/2-y,z
1/2+x,-y,-z
-x,1/2+y,-z
-x,-y,-z
1/2+x,1/2+y,-z
1/2-x,y,z
x,1/2-y,z
loop_
_atom_site_type_symbol
_atom_site_label
_atom_site_fract_x
_atom_site_fract_y
_atom_site_fract_z
Si Si1 0.638765 0.429908 0.852226
Si Si2 0.643351 0.930532 0.017376
Si Si3 0.136649 0.575531 0.475405
Si Si4 0.137593 0.927990 0.319943
Si Si5 0.467037 0.071464 0.397361
Si Si6 0.360943 0.428200 0.563809
Si Si7 0.135472 0.077767 0.233814
Si Si8 0.954184 0.069277 0.938014
O O1 0.750000 0.465062 0.858711
O O2 0.631859 0.250000 0.847789
O O3 0.605872 0.505830 0.809697
O O4 0.580408 0.477007 0.892641
O O5 0.750000 0.976531 0.028007
O O6 0.641781 0.750000 0.013844
O O7 0.611454 0.999771 0.973648
O O8 0.561663 0.972427 0.050135
O O9 0.250000 0.570477 0.470539
O O10 0.108013 0.750000 0.477430
O O11 0.089844 0.495729 0.436433
O O12 0.114064 0.493354 0.518457
O O13 0.250000 0.958048 0.324728
O O14 0.124051 0.750000 0.323358
O O15 0.081278 0.011599 0.355799
O O16 0.107992 0.985558 0.274556
O O17 0.465667 0.250000 0.398706
O O18 0.572425 0.008645 0.403279
O O19 0.250000 0.457434 0.570560
O O20 0.376071 0.250000 0.564311
O O21 0.250000 0.075101 0.233122
O O22 0.105337 0.250000 0.237217
O O23 0.946362 0.250000 0.940169
#
# Coordination Sequence:
#
# PCOD9450087 Si02
#       8
#     8   8   8   8   8   8   8   8
#     4   9  16  26  41  61  85 114 147 181 218 263
#     4   9  17  28  41  59  86 118 151 190 233 270
#     4  10  20  34  51  71  97 127 158 192 229 270
#     4  10  20  34  51  71  97 126 154 185 223 271
#     4  12  23  33  49  72  98 126 156 190 228 273
#     4  10  21  37  54  70  91 121 158 198 235 271
#     4   9  17  29  45  66  92 119 145 177 222 273
#     4   9  17  28  42  61  85 116 154 190 225 269
#
# _framework density 15.658647999999999
#
# number of rings (size 3 to 8) (size 9 to 14) (size 15 to 20)
#    0.000    2.250    0.000    3.750    0.000    6.500 
#    0.000    1.250    0.000    0.000    0.000    0.875 
#    0.000    5.000    0.000    0.000    0.000    0.000 
#
# Total GULP energy -357089.789048 kJ/mol
# GULP energy per Si atom -5579.527954 kJ/mol
# Density = 1.562301 g / cm^3
# Si number density = 15.658648 Si / 1000 Ang^3
#
#
#
# Elastic Constant Matrix: (Units=GPa)
#
#
# Indices 1 2 3 4 5 6 
#
# 1 73.0051 40.9159 55.7848 0.0000 0.0000 0.0000
# 2 40.9159 80.3830 61.2828 0.0000 0.0000 0.0000
# 3 55.7848 61.2828 125.0084 0.0000 0.0000 0.0000
# 4 0.0000 0.0000 0.0000 28.9005 0.0000 0.0000
# 5 0.0000 0.0000 0.0000 0.0000 23.8690 0.0000
# 6 0.0000 0.0000 0.0000 0.0000 0.0000 19.3259
#
#
#
# Elastic Compliance Matrix: (Units=1/GPa)
#
#
# Indices 1 2 3 4 5 6 
#
# 1 0.022495 -0.006063 -0.007066 0.000000 0.000000 0.000000
# 2 -0.006063 0.021499 -0.007834 0.000000 0.000000 0.000000
# 3 -0.007066 -0.007834 0.014993 0.000000 0.000000 0.000000
# 4 0.000000 0.000000 0.000000 0.034602 0.000000 0.000000
# 5 0.000000 0.000000 0.000000 0.000000 0.041895 0.000000
# 6 0.000000 0.000000 0.000000 0.000000 0.000000 0.051744
#
#
# Mechanical properties :
#
#
# Convention : Reuss Voigt Hill
#
# Bulk Modulus (GPa) = 58.61280 66.04036 62.32658
# Shear Modulus (GPa) = 21.29099 22.44662 21.86880
#
# Velocity S-wave (km/s) = 3.69141 3.79026 3.74116
# Velocity P-wave (km/s) = 7.46200 7.83718 7.65189
#
# Compressibility (1/GPa) = 0.01706112
#
# Stress axis : x y z
#
# Youngs Moduli (GPa) = 44.45398 46.51374 66.69779
#
# Poissons Ratio (x) = 0.28203 0.47129
# Poissons Ratio (y) = 0.26954 0.52249
# Poissons Ratio (z) = 0.31411 0.36438
#
# Static dielectric constant tensor:
#      x y z
#    x 1.532920 0.000000 0.000000 
#    y 0.000000 1.520470 0.000000 
#    z 0.000000 0.000000 1.498060 
# 
# From -- ./inp_files/33314.got.cif
#   From: 2010.05.17/outbox.cif.g08.bks.cpg/sg59_17_cif.got.tgz:33314.got - 2010.06.03 14:40:33.
