data_PCOD9450896
_publ_section_title
;
Structure prediction by ZEFSAII (Michael W. Deem and Ramdas Pophale) SiO2 
 PCOD9450896
Probable space group: P M M N
;
_chemical_formula_sum "Si O2"
_cell_formula_units_Z 64
_cell_length_a 15.059394
_cell_length_b 25.260214
_cell_length_c 7.740151
_cell_angle_alpha 90.000000
_cell_angle_beta 90.000000
_cell_angle_gamma 90.000000
_cell_volume 2944.380648
_symmetry_space_group_name_H-M "P M M N"
_symmetry_group_IT_number 59
_space_group.IT_coordinate_system_code '2'
_symmetry_cell_setting 'orthorhombic'
loop_
_space_group_symop_operation_xyz
x,y,z
1/2-x,1/2-y,z
1/2+x,-y,-z
-x,1/2+y,-z
-x,-y,-z
1/2+x,1/2+y,-z
1/2-x,y,z
x,1/2-y,z
loop_
_atom_site_type_symbol
_atom_site_label
_atom_site_fract_x
_atom_site_fract_y
_atom_site_fract_z
Si Si1 0.980942 0.692377 0.284097
Si Si2 0.646910 0.118116 0.198779
Si Si3 0.651316 0.015255 0.735813
Si Si4 0.352158 0.100207 0.328967
Si Si5 0.985634 0.689481 0.694786
Si Si6 0.149715 0.103119 0.742189
Si Si7 0.352101 0.870277 0.216181
Si Si8 0.407809 0.507178 0.895668
O O1 0.961551 0.750000 0.211852
O O2 0.967508 0.693546 0.489975
O O3 0.919216 0.647853 0.200014
O O4 0.082860 0.676364 0.263367
O O5 0.750000 0.120034 0.257089
O O6 0.581558 0.162256 0.276334
O O7 0.605166 0.059351 0.220269
O O8 0.646268 0.126268 0.991408
O O9 0.750000 0.014564 0.656123
O O10 0.612579 0.073740 0.703819
O O11 0.608350 0.959152 0.691458
O O12 0.658481 0.013461 0.943121
O O13 0.250000 0.100630 0.262291
O O14 0.412467 0.145979 0.245491
O O15 0.347021 0.107401 0.534786
O O16 0.981207 0.750000 0.763499
O O17 0.250000 0.110428 0.808055
O O18 0.114528 0.045704 0.794094
O O19 0.250000 0.863963 0.269975
O O20 0.500000 0.500000 0.000000
#
# Coordination Sequence:
#
# PCOD9450896 Si02
#       8
#     8   8   8   8   8   8   8   8
#     4  10  22  38  54  76 107 143 186 231 274 323
#     4  10  21  37  56  80 110 143 180 222 271 327
#     4   9  17  32  53  78 108 137 168 209 264 327
#     4   9  19  35  56  82 110 141 179 227 278 327
#     4  10  22  38  54  75 105 143 186 229 273 323
#     4  10  20  35  56  82 111 143 181 224 273 329
#     4   9  19  36  57  80 107 141 178 219 271 329
#     4  11  20  33  56  83 111 143 175 215 269 329
#
# _framework density 21.736319999999999
#
# number of rings (size 3 to 8) (size 9 to 14) (size 15 to 20)
#    0.000    2.250    0.000    4.125    0.000    3.000 
#    0.000    9.375    0.000    0.000    0.000    3.500 
#    0.000    0.000    0.000    0.000    0.000    0.000 
#
# Total GULP energy -356957.263246 kJ/mol
# GULP energy per Si atom -5577.457238 kJ/mol
# Density = 2.168685 g / cm^3
# Si number density = 21.736320 Si / 1000 Ang^3
#
#
#
# Elastic Constant Matrix: (Units=GPa)
#
#
# Indices 1 2 3 4 5 6 
#
# 1 85.8493 10.0222 1.0190 0.0000 0.0000 0.0000
# 2 10.0222 94.8131 3.8672 0.0000 0.0000 0.0000
# 3 1.0190 3.8672 23.5551 0.0000 0.0000 0.0000
# 4 0.0000 0.0000 0.0000 71.8822 0.0000 0.0000
# 5 0.0000 0.0000 0.0000 0.0000 22.1606 0.0000
# 6 0.0000 0.0000 0.0000 0.0000 0.0000 4.7442
#
#
#
# Elastic Compliance Matrix: (Units=1/GPa)
#
#
# Indices 1 2 3 4 5 6 
#
# 1 0.011796 -0.001234 -0.000308 0.000000 0.000000 0.000000
# 2 -0.001234 0.010747 -0.001711 0.000000 0.000000 0.000000
# 3 -0.000308 -0.001711 0.042748 0.000000 0.000000 0.000000
# 4 0.000000 0.000000 0.000000 0.013912 0.000000 0.000000
# 5 0.000000 0.000000 0.000000 0.000000 0.045125 0.000000
# 6 0.000000 0.000000 0.000000 0.000000 0.000000 0.210784
#
#
# Mechanical properties :
#
#
# Convention : Reuss Voigt Hill
#
# Bulk Modulus (GPa) = 17.01112 26.00381 21.50746
# Shear Modulus (GPa) = 13.84225 32.37802 23.11014
#
# Velocity S-wave (km/s) = 2.52628 3.86370 3.26422
# Velocity P-wave (km/s) = 4.04383 5.64743 4.91152
#
# Compressibility (1/GPa) = 0.05878509
#
# Stress axis : x y z
#
# Youngs Moduli (GPa) = 84.77401 93.04633 23.39302
#
# Poissons Ratio (x) = 0.11485 0.00720
# Poissons Ratio (y) = 0.10464 0.04003
# Poissons Ratio (z) = 0.02608 0.15921
#
# Static dielectric constant tensor:
#      x y z
#    x 1.823520 0.000000 0.000000 
#    y 0.000000 1.819860 0.000000 
#    z 0.000000 0.000000 1.809800 
# 
# From -- ./inp_files/9621.got.cif
#   From: 2010.05.17/outbox.cif.g08.bks.cpg/sg59_5_cif.got.tgz:9621.got - 2010.06.03 14:40:33.
