data_PCOD9450431
_publ_section_title
;
Structure prediction by ZEFSAII (Michael W. Deem and Ramdas Pophale) SiO2 
 PCOD9450431
Probable space group: P M M N
;
_chemical_formula_sum "Si O2"
_cell_formula_units_Z 64
_cell_length_a 19.066163
_cell_length_b 8.962317
_cell_length_c 21.048745
_cell_angle_alpha 90.000000
_cell_angle_beta 90.000000
_cell_angle_gamma 90.000000
_cell_volume 3596.746332
_symmetry_space_group_name_H-M "P M M N"
_symmetry_group_IT_number 59
_space_group.IT_coordinate_system_code '2'
_symmetry_cell_setting 'orthorhombic'
loop_
_space_group_symop_operation_xyz
x,y,z
1/2-x,1/2-y,z
1/2+x,-y,-z
-x,1/2+y,-z
-x,-y,-z
1/2+x,1/2+y,-z
1/2-x,y,z
x,1/2-y,z
loop_
_atom_site_type_symbol
_atom_site_label
_atom_site_fract_x
_atom_site_fract_y
_atom_site_fract_z
Si Si1 0.334465 0.574908 0.629001
Si Si2 0.835288 0.922062 0.502698
Si Si3 0.072385 0.428992 0.256940
Si Si4 0.918902 0.928207 0.257269
Si Si5 0.169746 0.929861 0.004148
Si Si6 0.666033 0.073320 0.634987
Si Si7 0.425881 0.427763 0.111572
Si Si8 0.410490 0.929609 0.876868
O O1 0.250000 0.561289 0.633031
O O2 0.352114 0.750000 0.632115
O O3 0.357202 0.506442 0.561305
O O4 0.370069 0.487681 0.686484
O O5 0.750000 0.922680 0.502504
O O6 0.858302 0.750000 0.502481
O O7 0.856627 0.004805 0.567258
O O8 0.065841 0.250000 0.261927
O O9 0.126127 0.491994 0.308181
O O10 0.094590 0.463877 0.184316
O O11 0.996482 0.503277 0.266693
O O12 0.921862 0.750000 0.256934
O O13 0.893446 0.989530 0.188981
O O14 0.250000 0.980042 0.011242
O O15 0.168418 0.750000 0.006523
O O16 0.120956 0.991335 0.059828
O O17 0.138530 0.972693 0.935522
O O18 0.750000 0.051590 0.640941
O O19 0.652160 0.250000 0.636245
O O20 0.419159 0.250000 0.103036
O O21 0.508530 0.464945 0.105807
O O22 0.406503 0.750000 0.867148
#
# Coordination Sequence:
#
# PCOD9450431 Si02
#       8
#     8   8   8   8   8   8   8   8
#     4  10  20  35  56  80 108 144 182 220 265 318
#     4   9  17  31  52  78 108 142 181 223 266 316
#     4  10  21  38  57  78 107 143 183 223 268 322
#     4  11  22  36  56  82 110 139 176 223 273 321
#     4  10  21  35  53  79 109 138 170 214 265 314
#     4  10  20  34  54  81 111 143 181 224 270 320
#     4   9  19  35  55  76 100 136 178 218 259 310
#     4   9  19  37  56  75 103 140 180 215 256 316
#
# _framework density 17.793859000000001
#
# number of rings (size 3 to 8) (size 9 to 14) (size 15 to 20)
#    0.000    2.250    0.000    3.750    0.000    7.250 
#    0.000    4.375    0.000    0.000    0.000    0.000 
#    0.000    0.000    0.000    0.000    0.000    0.000 
#
# Total GULP energy -357262.517383 kJ/mol
# GULP energy per Si atom -5582.226834 kJ/mol
# Density = 1.775336 g / cm^3
# Si number density = 17.793859 Si / 1000 Ang^3
#
#
#
# Elastic Constant Matrix: (Units=GPa)
#
#
# Indices 1 2 3 4 5 6 
#
# 1 18.2735 26.4200 25.5161 0.0000 0.0000 0.0000
# 2 26.4200 90.3905 51.0619 0.0000 0.0000 0.0000
# 3 25.5161 51.0619 91.8602 0.0000 0.0000 0.0000
# 4 0.0000 0.0000 0.0000 38.3276 0.0000 0.0000
# 5 0.0000 0.0000 0.0000 0.0000 30.9636 0.0000
# 6 0.0000 0.0000 0.0000 0.0000 0.0000 26.2191
#
#
#
# Elastic Compliance Matrix: (Units=1/GPa)
#
#
# Indices 1 2 3 4 5 6 
#
# 1 0.114010 -0.022499 -0.019162 0.000000 0.000000 0.000000
# 2 -0.022499 0.020567 -0.005183 0.000000 0.000000 0.000000
# 3 -0.019162 -0.005183 0.019090 0.000000 0.000000 0.000000
# 4 0.000000 0.000000 0.000000 0.026091 0.000000 0.000000
# 5 0.000000 0.000000 0.000000 0.000000 0.032296 0.000000
# 6 0.000000 0.000000 0.000000 0.000000 0.000000 0.038140
#
#
# Mechanical properties :
#
#
# Convention : Reuss Voigt Hill
#
# Bulk Modulus (GPa) = 16.67255 45.16892 30.92073
# Shear Modulus (GPa) = 13.74094 25.60380 19.67237
#
# Velocity S-wave (km/s) = 2.78192 3.79741 3.32862
# Velocity P-wave (km/s) = 4.43947 6.68332 5.67343
#
# Compressibility (1/GPa) = 0.05997883
#
# Stress axis : x y z
#
# Youngs Moduli (GPa) = 8.77113 48.62122 52.38353
#
# Poissons Ratio (x) = 1.09392 1.00380
# Poissons Ratio (y) = 0.19734 0.27151
# Poissons Ratio (z) = 0.16808 0.25201
#
# Static dielectric constant tensor:
#      x y z
#    x 1.592400 0.000000 0.000000 
#    y 0.000000 1.595610 0.000000 
#    z 0.000000 0.000000 1.586280 
# 
# From -- ./inp_files/28258.got.cif
#   From: 2010.05.17/outbox.cif.g08.bks.cpg/sg59_15_cif.got.tgz:28258.got - 2010.06.03 14:40:33.
