data_PCOD9450068
_publ_section_title
;
Structure prediction by ZEFSAII (Michael W. Deem and Ramdas Pophale) SiO2 
 PCOD9450068
Probable space group: P M M N
;
_chemical_formula_sum "Si O2"
_cell_formula_units_Z 58
_cell_length_a 29.908710
_cell_length_b 7.743054
_cell_length_c 12.795145
_cell_angle_alpha 90.000000
_cell_angle_beta 90.000000
_cell_angle_gamma 90.000000
_cell_volume 2963.160540
_symmetry_space_group_name_H-M "P M M N"
_symmetry_group_IT_number 59
_space_group.IT_coordinate_system_code '2'
_symmetry_cell_setting 'orthorhombic'
loop_
_space_group_symop_operation_xyz
x,y,z
1/2-x,1/2-y,z
1/2+x,-y,-z
-x,1/2+y,-z
-x,-y,-z
1/2+x,1/2+y,-z
1/2-x,y,z
x,1/2-y,z
loop_
_atom_site_type_symbol
_atom_site_label
_atom_site_fract_x
_atom_site_fract_y
_atom_site_fract_z
Si Si1 0.098246 0.954517 0.112146
Si Si2 0.820685 0.953759 0.260180
Si Si3 0.199768 0.045041 0.504035
Si Si4 0.250000 0.750000 0.798539
Si Si5 0.999989 0.458776 0.173812
Si Si6 0.373619 0.951430 0.336902
Si Si7 0.029568 0.044840 0.400879
Si Si8 0.900809 0.039402 0.115763
O O1 0.107125 0.750000 0.112544
O O2 0.118269 0.029176 0.220468
O O3 0.044559 0.977019 0.116759
O O4 0.114446 0.020065 0.999885
O O5 0.806685 0.750000 0.252958
O O6 0.820195 0.005692 0.383190
O O7 0.788603 0.095024 0.206753
O O8 0.868717 0.970823 0.205827
O O9 0.250000 0.970484 0.493724
O O10 0.204036 0.250000 0.509329
O O11 0.167421 0.011025 0.407158
O O12 0.000948 0.250000 0.169514
O O13 0.006128 0.515545 0.294082
O O14 0.952160 0.515934 0.131977
O O15 0.366758 0.750000 0.321223
O O16 0.419992 0.975698 0.399370
O O17 0.033459 0.250000 0.394870
O O18 0.000000 0.000000 0.500000
O O19 0.899969 0.250000 0.118931
#
# Coordination Sequence:
#
# PCOD9450068 Si02
#       8
#     8   8   8   2   8   8   8   8
#     4   9  19  36  56  82 118 158 200 245 296 353
#     4  11  24  40  63  95 121 156 201 241 304 372
#     4  10  22  40  61  86 115 144 190 248 296 357
#     4  12  22  44  68  86 126 164 186 252 316 348
#     4   9  19  33  53  80 112 155 204 243 293 356
#     4  10  21  35  57  83 111 153 197 235 291 357
#     4  10  20  34  49  75 114 153 191 237 288 347
#     4  10  20  36  58  86 121 158 200 253 303 352
#
# _framework density 19.573695000000001
#
# number of rings (size 3 to 8) (size 9 to 14) (size 15 to 20)
#    0.000    2.069    1.379    1.448    2.897    2.483 
#    0.000    0.000    1.517    0.000    0.000    0.000 
#    0.000    0.000    0.000    0.000    0.000    0.000 
#
# Total GULP energy -322957.087374 kJ/mol
# GULP energy per Si atom -5568.225644 kJ/mol
# Density = 1.952914 g / cm^3
# Si number density = 19.573695 Si / 1000 Ang^3
#
#
#
# Elastic Constant Matrix: (Units=GPa)
#
#
# Indices 1 2 3 4 5 6 
#
# 1 87.6313 -1.1161 89.0666 0.0000 0.0000 0.0000
# 2 -1.1161 50.5110 7.4116 0.0000 0.0000 0.0000
# 3 89.0666 7.4116 116.6031 0.0000 0.0000 0.0000
# 4 0.0000 0.0000 0.0000 12.3175 0.0000 0.0000
# 5 0.0000 0.0000 0.0000 0.0000 30.7944 0.0000
# 6 0.0000 0.0000 0.0000 0.0000 0.0000 31.3703
#
#
#
# Elastic Compliance Matrix: (Units=1/GPa)
#
#
# Indices 1 2 3 4 5 6 
#
# 1 0.053532 0.007250 -0.041351 0.000000 0.000000 0.000000
# 2 0.007250 0.020966 -0.006871 0.000000 0.000000 0.000000
# 3 -0.041351 -0.006871 0.040598 0.000000 0.000000 0.000000
# 4 0.000000 0.000000 0.000000 0.081185 0.000000 0.000000
# 5 0.000000 0.000000 0.000000 0.000000 0.032473 0.000000
# 6 0.000000 0.000000 0.000000 0.000000 0.000000 0.031877
#
#
# Mechanical properties :
#
#
# Convention : Reuss Voigt Hill
#
# Bulk Modulus (GPa) = 30.16254 49.49662 39.82958
# Shear Modulus (GPa) = 14.13922 25.52201 19.83061
#
# Velocity S-wave (km/s) = 2.69059 3.61486 3.18642
# Velocity P-wave (km/s) = 5.00954 6.53951 5.82498
#
# Compressibility (1/GPa) = 0.03315371
#
# Stress axis : x y z
#
# Youngs Moduli (GPa) = 18.68044 47.69627 24.63148
#
# Poissons Ratio (x) = -0.34581 1.01853
# Poissons Ratio (y) = -0.13544 0.16924
# Poissons Ratio (z) = 0.77245 0.32771
#
# Static dielectric constant tensor:
#      x y z
#    x 0.117770 0.000000 0.000000 
#    y 0.000000 1.723920 0.000000 
#    z 0.000000 0.000000 1.728770 
# 
# From -- ./inp_files/18930.got.cif
#   From: 2010.05.17/outbox.cif.g08.bks.cpg/sg59_10_cif.got.tgz:18930.got - 2010.06.03 14:40:33.
