data_PCOD9450149
_publ_section_title
;
Structure prediction by ZEFSAII (Michael W. Deem and Ramdas Pophale) SiO2 
 PCOD9450149
Probable space group: P M M N
;
_chemical_formula_sum "Si O2"
_cell_formula_units_Z 64
_cell_length_a 8.791526
_cell_length_b 23.596508
_cell_length_c 16.181819
_cell_angle_alpha 90.000000
_cell_angle_beta 90.000000
_cell_angle_gamma 90.000000
_cell_volume 3356.907244
_symmetry_space_group_name_H-M "P M M N"
_symmetry_group_IT_number 59
_space_group.IT_coordinate_system_code '2'
_symmetry_cell_setting 'orthorhombic'
loop_
_space_group_symop_operation_xyz
x,y,z
1/2-x,1/2-y,z
1/2+x,-y,-z
-x,1/2+y,-z
-x,-y,-z
1/2+x,1/2+y,-z
1/2-x,y,z
x,1/2-y,z
loop_
_atom_site_type_symbol
_atom_site_label
_atom_site_fract_x
_atom_site_fract_y
_atom_site_fract_z
Si Si1 0.065291 0.815661 0.832144
Si Si2 0.571404 0.183699 0.656726
Si Si3 0.428065 0.419089 0.717532
Si Si4 0.424385 0.317413 0.477810
Si Si5 0.930331 0.997656 0.591795
Si Si6 0.571296 0.470874 0.876564
Si Si7 0.068611 0.916039 0.948852
Si Si8 0.430713 0.614626 0.668426
O O1 0.250000 0.812771 0.828992
O O2 0.011113 0.750000 0.832783
O O3 0.025778 0.854916 0.911219
O O4 0.017839 0.851836 0.750947
O O5 0.750000 0.170346 0.651250
O O6 0.555861 0.250000 0.675153
O O7 0.488783 0.144672 0.722890
O O8 0.491063 0.173159 0.568670
O O9 0.250000 0.421233 0.701526
O O10 0.517150 0.447388 0.641732
O O11 0.471545 0.452281 0.799688
O O12 0.250000 0.338440 0.472328
O O13 0.423250 0.250000 0.463876
O O14 0.528485 0.346209 0.409482
O O15 0.750000 0.994677 0.585080
O O16 0.990489 0.944706 0.646141
O O17 0.000000 0.000000 0.500000
O O18 0.750000 0.469645 0.855395
O O19 0.522530 0.533778 0.903897
O O20 0.545740 0.428553 0.954160
O O21 0.250000 0.923911 0.932982
O O22 0.250000 0.605210 0.675147
#
# Coordination Sequence:
#
# PCOD9450149 Si02
#       8
#     8   8   8   8   8   8   8   8
#     4   9  18  33  55  83 114 149 189 234 284 341
#     4  10  21  38  59  81 106 138 179 227 277 328
#     4  12  24  39  59  83 113 147 185 228 277 334
#     4  10  20  34  52  75 106 146 191 234 276 324
#     4  12  25  41  59  82 115 152 192 238 290 344
#     4  10  20  35  58  87 115 146 187 235 288 342
#     4   9  18  35  59  85 113 145 186 234 285 343
#     4  11  21  34  54  81 113 149 191 235 284 342
#
# _framework density 19.065168
#
# number of rings (size 3 to 8) (size 9 to 14) (size 15 to 20)
#    0.000    1.625    0.000    5.625    0.000    3.500 
#    0.000    1.250    0.000    4.125    0.000    0.000 
#    0.000    0.000    0.000    0.000    0.000    0.000 
#
# Total GULP energy -357511.110141 kJ/mol
# GULP energy per Si atom -5586.111096 kJ/mol
# Density = 1.902178 g / cm^3
# Si number density = 19.065168 Si / 1000 Ang^3
#
#
#
# Elastic Constant Matrix: (Units=GPa)
#
#
# Indices 1 2 3 4 5 6 
#
# 1 88.5449 37.5033 25.2480 0.0000 0.0000 0.0000
# 2 37.5033 103.0253 38.6102 0.0000 0.0000 0.0000
# 3 25.2480 38.6102 36.2551 0.0000 0.0000 0.0000
# 4 0.0000 0.0000 0.0000 25.2967 0.0000 0.0000
# 5 0.0000 0.0000 0.0000 0.0000 24.0675 0.0000
# 6 0.0000 0.0000 0.0000 0.0000 0.0000 30.5069
#
#
#
# Elastic Compliance Matrix: (Units=1/GPa)
#
#
# Indices 1 2 3 4 5 6 
#
# 1 0.014463 -0.002480 -0.007431 0.000000 0.000000 0.000000
# 2 -0.002480 0.016578 -0.015928 0.000000 0.000000 0.000000
# 3 -0.007431 -0.015928 0.049720 0.000000 0.000000 0.000000
# 4 0.000000 0.000000 0.000000 0.039531 0.000000 0.000000
# 5 0.000000 0.000000 0.000000 0.000000 0.041550 0.000000
# 6 0.000000 0.000000 0.000000 0.000000 0.000000 0.032779
#
#
# Mechanical properties :
#
#
# Convention : Reuss Voigt Hill
#
# Bulk Modulus (GPa) = 34.38412 47.83869 41.11141
# Shear Modulus (GPa) = 19.53166 24.40514 21.96840
#
# Velocity S-wave (km/s) = 3.20420 3.58172 3.39821
# Velocity P-wave (km/s) = 5.63591 6.50012 6.08338
#
# Compressibility (1/GPa) = 0.02908319
#
# Stress axis : x y z
#
# Youngs Moduli (GPa) = 69.14207 60.31911 20.11256
#
# Poissons Ratio (x) = 0.14959 0.14945
# Poissons Ratio (y) = 0.17147 0.32036
# Poissons Ratio (z) = 0.51379 0.96078
#
# Static dielectric constant tensor:
#      x y z
#    x 1.640950 0.000000 0.000000 
#    y 0.000000 1.727420 0.000000 
#    z 0.000000 0.000000 1.649020 
# 
# From -- ./inp_files/21554.got.cif
#   From: 2010.05.17/outbox.cif.g08.bks.cpg/sg59_11_cif.got.tgz:21554.got - 2010.06.03 14:40:33.
