data_PCOD9450016
_publ_section_title
;
Structure prediction by ZEFSAII (Michael W. Deem and Ramdas Pophale) SiO2 
 PCOD9450016
Probable space group: P M M N
;
_chemical_formula_sum "Si O2"
_cell_formula_units_Z 64
_cell_length_a 8.687483
_cell_length_b 19.253432
_cell_length_c 21.444148
_cell_angle_alpha 90.000000
_cell_angle_beta 90.000000
_cell_angle_gamma 90.000000
_cell_volume 3586.831037
_symmetry_space_group_name_H-M "P M M N"
_symmetry_group_IT_number 59
_space_group.IT_coordinate_system_code '2'
_symmetry_cell_setting 'orthorhombic'
loop_
_space_group_symop_operation_xyz
x,y,z
1/2-x,1/2-y,z
1/2+x,-y,-z
-x,1/2+y,-z
-x,-y,-z
1/2+x,1/2+y,-z
1/2-x,y,z
x,1/2-y,z
loop_
_atom_site_type_symbol
_atom_site_label
_atom_site_fract_x
_atom_site_fract_y
_atom_site_fract_z
Si Si1 0.433487 0.422978 0.496704
Si Si2 0.936178 0.029497 0.806798
Si Si3 0.565628 0.394357 0.252235
Si Si4 0.934032 0.536051 0.938824
Si Si5 0.935622 0.328971 0.119014
Si Si6 0.565543 0.170016 0.604571
Si Si7 0.936192 0.669717 0.620885
Si Si8 0.437318 0.672624 0.250607
O O1 0.500000 0.500000 0.500000
O O2 0.250000 0.427238 0.493108
O O3 0.482684 0.381412 0.558111
O O4 0.487937 0.379035 0.436352
O O5 0.750000 0.026745 0.802482
O O6 0.988167 0.107011 0.789692
O O7 0.980496 0.006538 0.876530
O O8 0.003717 0.971973 0.760010
O O9 0.750000 0.395125 0.256338
O O10 0.521922 0.351211 0.189792
O O11 0.497245 0.360130 0.313967
O O12 0.750000 0.536813 0.941896
O O13 0.994753 0.613871 0.927038
O O14 0.000000 0.500000 0.000000
O O15 0.750000 0.332229 0.115024
O O16 0.984387 0.250000 0.106801
O O17 0.750000 0.160248 0.600345
O O18 0.531535 0.250000 0.587657
O O19 0.521578 0.160725 0.676957
O O20 0.750000 0.668727 0.622152
O O21 0.984874 0.750000 0.612323
O O22 0.250000 0.674008 0.248396
O O23 0.490406 0.750000 0.231979
#
# Coordination Sequence:
#
# PCOD9450016 Si02
#       8
#     8   8   8   8   8   8   8   8
#     4  11  24  39  54  74 103 138 179 223 267 317
#     4   9  18  33  54  79 107 141 180 219 261 313
#     4  10  20  33  53  82 112 139 171 215 268 319
#     4  10  20  34  53  78 109 146 185 221 261 312
#     4   9  18  34  55  79 108 141 177 219 268 319
#     4   9  18  34  56  79 102 132 170 214 267 323
#     4  10  22  39  56  74 101 139 177 214 261 317
#     4   8  15  30  54  80 103 130 169 217 265 313
#
# _framework density 17.843048
#
# number of rings (size 3 to 8) (size 9 to 14) (size 15 to 20)
#    0.000    2.500    0.000    2.625    1.750    3.750 
#    0.000    0.625    0.000    3.375    0.000    0.000 
#    0.000    0.000    0.000    0.000    0.000    0.000 
#
# Total GULP energy -357096.557693 kJ/mol
# GULP energy per Si atom -5579.633714 kJ/mol
# Density = 1.780244 g / cm^3
# Si number density = 17.843048 Si / 1000 Ang^3
#
#
#
# Elastic Constant Matrix: (Units=GPa)
#
#
# Indices 1 2 3 4 5 6 
#
# 1 15.7782 39.7005 22.9328 0.0000 0.0000 0.0000
# 2 39.7005 190.1316 99.7873 0.0000 0.0000 0.0000
# 3 22.9328 99.7873 84.7668 0.0000 0.0000 0.0000
# 4 0.0000 0.0000 0.0000 27.9880 0.0000 0.0000
# 5 0.0000 0.0000 0.0000 0.0000 26.5553 0.0000
# 6 0.0000 0.0000 0.0000 0.0000 0.0000 26.7412
#
#
#
# Elastic Compliance Matrix: (Units=1/GPa)
#
#
# Indices 1 2 3 4 5 6 
#
# 1 0.136003 -0.023778 -0.008802 0.000000 0.000000 0.000000
# 2 -0.023778 0.017920 -0.014662 0.000000 0.000000 0.000000
# 3 -0.008802 -0.014662 0.031439 0.000000 0.000000 0.000000
# 4 0.000000 0.000000 0.000000 0.035730 0.000000 0.000000
# 5 0.000000 0.000000 0.000000 0.000000 0.037657 0.000000
# 6 0.000000 0.000000 0.000000 0.000000 0.000000 0.037395
#
#
# Mechanical properties :
#
#
# Convention : Reuss Voigt Hill
#
# Bulk Modulus (GPa) = 11.00408 68.39088 39.69748
# Shear Modulus (GPa) = 11.87873 24.80731 18.34302
#
# Velocity S-wave (km/s) = 2.58298 3.73273 3.20975
# Velocity P-wave (km/s) = 3.88282 7.54917 6.00276
#
# Compressibility (1/GPa) = 0.09087542
#
# Stress axis : x y z
#
# Youngs Moduli (GPa) = 7.35280 55.80474 31.80811
#
# Poissons Ratio (x) = 1.32694 0.27999
# Poissons Ratio (y) = 0.17484 0.46637
# Poissons Ratio (z) = 0.06472 0.81821
#
# Static dielectric constant tensor:
#      x y z
#    x 1.608400 0.000000 0.000000 
#    y 0.000000 1.556790 0.000000 
#    z 0.000000 0.000000 1.584920 
# 
# From -- ./inp_files/29498.got.cif
#   From: 2010.05.17/outbox.cif.g08.bks.cpg/sg59_15_cif.got.tgz:29498.got - 2010.06.03 14:40:33.
