data_PCOD9450121
_publ_section_title
;
Structure prediction by ZEFSAII (Michael W. Deem and Ramdas Pophale) SiO2 
 PCOD9450121
Probable space group: P M M N
;
_chemical_formula_sum "Si O2"
_cell_formula_units_Z 64
_cell_length_a 15.540813
_cell_length_b 8.458288
_cell_length_c 24.843618
_cell_angle_alpha 90.000000
_cell_angle_beta 90.000000
_cell_angle_gamma 90.000000
_cell_volume 3265.660596
_symmetry_space_group_name_H-M "P M M N"
_symmetry_group_IT_number 59
_space_group.IT_coordinate_system_code '2'
_symmetry_cell_setting 'orthorhombic'
loop_
_space_group_symop_operation_xyz
x,y,z
1/2-x,1/2-y,z
1/2+x,-y,-z
-x,1/2+y,-z
-x,-y,-z
1/2+x,1/2+y,-z
1/2-x,y,z
x,1/2-y,z
loop_
_atom_site_type_symbol
_atom_site_label
_atom_site_fract_x
_atom_site_fract_y
_atom_site_fract_z
Si Si1 0.990126 0.440503 0.202913
Si Si2 0.350833 0.933197 0.499161
Si Si3 0.615183 0.432984 0.618614
Si Si4 0.155180 0.559354 0.263588
Si Si5 0.155914 0.561320 0.716402
Si Si6 0.148369 0.941068 0.008214
Si Si7 0.911730 0.571376 0.391306
Si Si8 0.006782 0.558595 0.919951
O O1 0.984773 0.250000 0.202238
O O2 0.917282 0.502433 0.243868
O O3 0.081092 0.488664 0.227466
O O4 0.981168 0.494646 0.141484
O O5 0.250000 0.935147 0.512471
O O6 0.380398 0.750000 0.496911
O O7 0.361377 0.003917 0.439353
O O8 0.399284 0.016246 0.547683
O O9 0.646396 0.250000 0.616375
O O10 0.648557 0.500735 0.674647
O O11 0.512493 0.432709 0.621921
O O12 0.250000 0.524360 0.242459
O O13 0.144332 0.750000 0.265732
O O14 0.250000 0.496604 0.729444
O O15 0.157702 0.750000 0.723578
O O16 0.135016 0.529815 0.654062
O O17 0.250000 0.993525 0.009000
O O18 0.151011 0.750000 0.009114
O O19 0.084263 0.997354 0.056057
O O20 0.089808 0.989266 0.956205
O O21 0.879779 0.750000 0.386489
O O22 0.003441 0.750000 0.921577
#
# Coordination Sequence:
#
# PCOD9450121 Si02
#       8
#     8   8   8   8   8   8   8   8
#     4  10  21  37  56  80 111 144 181 226 270 313
#     4  10  20  34  52  73  98 130 170 215 264 325
#     4   9  18  34  54  75  98 131 174 216 263 321
#     4  10  20  36  58  80 105 141 183 224 268 322
#     4  10  21  37  56  77 103 140 183 222 265 321
#     4   9  18  34  57  84 113 146 185 225 263 308
#     4  11  21  34  53  76 103 133 169 218 273 325
#     4   9  19  35  55  81 113 148 182 221 270 316
#
# _framework density 19.597871999999999
#
# number of rings (size 3 to 8) (size 9 to 14) (size 15 to 20)
#    0.000    2.250    1.250    1.500    0.000    5.500 
#    0.000    6.250    0.000    1.500    0.000    3.500 
#    0.000    0.000    0.000    0.000    0.000    0.000 
#
# Total GULP energy -356874.458136 kJ/mol
# GULP energy per Si atom -5576.163408 kJ/mol
# Density = 1.955327 g / cm^3
# Si number density = 19.597872 Si / 1000 Ang^3
#
#
#
# Elastic Constant Matrix: (Units=GPa)
#
#
# Indices 1 2 3 4 5 6 
#
# 1 105.6567 13.9707 27.7620 0.0000 0.0000 0.0000
# 2 13.9707 4.5495 4.7040 0.0000 0.0000 0.0000
# 3 27.7620 4.7040 90.0338 0.0000 0.0000 0.0000
# 4 0.0000 0.0000 0.0000 13.0419 0.0000 0.0000
# 5 0.0000 0.0000 0.0000 0.0000 264.7772 0.0000
# 6 0.0000 0.0000 0.0000 0.0000 0.0000 10.8333
#
#
#
# Elastic Compliance Matrix: (Units=1/GPa)
#
#
# Indices 1 2 3 4 5 6 
#
# 1 0.016482 -0.047948 -0.002577 0.000000 0.000000 0.000000
# 2 -0.047948 0.371848 -0.004643 0.000000 0.000000 0.000000
# 3 -0.002577 -0.004643 0.012144 0.000000 0.000000 0.000000
# 4 0.000000 0.000000 0.000000 0.076676 0.000000 0.000000
# 5 0.000000 0.000000 0.000000 0.000000 0.003777 0.000000
# 6 0.000000 0.000000 0.000000 0.000000 0.000000 0.092308
#
#
# Mechanical properties :
#
#
# Convention : Reuss Voigt Hill
#
# Bulk Modulus (GPa) = 3.44665 32.56817 18.00741
# Shear Modulus (GPa) = 6.40792 67.98402 37.19597
#
# Velocity S-wave (km/s) = 1.81019 5.89617 4.36128
# Velocity P-wave (km/s) = 2.47620 7.93772 5.87958
#
# Compressibility (1/GPa) = 0.29013681
#
# Stress axis : x y z
#
# Youngs Moduli (GPa) = 60.67281 2.68927 82.34415
#
# Poissons Ratio (x) = 0.12895 0.21220
# Poissons Ratio (y) = 2.90917 0.38233
# Poissons Ratio (z) = 0.15635 0.01249
#
# Static dielectric constant tensor:
#      x y z
#    x 1.688550 0.000000 0.000000 
#    y 0.000000 1.696110 0.000000 
#    z 0.000000 0.000000 1.691280 
# 
# From -- ./inp_files/32217.got.cif
#   From: 2010.05.17/outbox.cif.g08.bks.cpg/sg59_17_cif.got.tgz:32217.got - 2010.06.03 14:40:33.
