data_PCOD9450462
_publ_section_title
;
Structure prediction by ZEFSAII (Michael W. Deem and Ramdas Pophale) SiO2 
 PCOD9450462
Probable space group: P M M N
;
_chemical_formula_sum "Si O2"
_cell_formula_units_Z 64
_cell_length_a 8.762487
_cell_length_b 14.405880
_cell_length_c 27.208641
_cell_angle_alpha 90.000000
_cell_angle_beta 90.000000
_cell_angle_gamma 90.000000
_cell_volume 3434.583110
_symmetry_space_group_name_H-M "P M M N"
_symmetry_group_IT_number 59
_space_group.IT_coordinate_system_code '2'
_symmetry_cell_setting 'orthorhombic'
loop_
_space_group_symop_operation_xyz
x,y,z
1/2-x,1/2-y,z
1/2+x,-y,-z
-x,1/2+y,-z
-x,-y,-z
1/2+x,1/2+y,-z
1/2-x,y,z
x,1/2-y,z
loop_
_atom_site_type_symbol
_atom_site_label
_atom_site_fract_x
_atom_site_fract_y
_atom_site_fract_z
Si Si1 0.571184 0.016073 0.946653
Si Si2 0.434057 0.357247 0.477689
Si Si3 0.432478 0.028954 0.575675
Si Si4 0.434429 0.644747 0.336318
Si Si5 0.432590 0.351083 0.221220
Si Si6 0.926193 0.355870 0.113329
Si Si7 0.933161 0.443992 0.764972
Si Si8 0.067342 0.357822 0.863919
O O1 0.750000 0.033133 0.951108
O O2 0.496464 0.096912 0.913755
O O3 0.535727 0.923069 0.916120
O O4 0.500000 0.000000 0.000000
O O5 0.250000 0.359420 0.474075
O O6 0.483362 0.250000 0.473766
O O7 0.502711 0.427731 0.437814
O O8 0.476011 0.402005 0.530537
O O9 0.250000 0.024994 0.577759
O O10 0.498164 0.072536 0.625130
O O11 0.250000 0.640018 0.338217
O O12 0.481487 0.750000 0.348420
O O13 0.481165 0.619090 0.280783
O O14 0.250000 0.352393 0.211419
O O15 0.466666 0.250000 0.244560
O O16 0.521913 0.355070 0.169848
O O17 0.468176 0.448128 0.247378
O O18 0.750000 0.387327 0.109274
O O19 0.935111 0.250000 0.095290
O O20 0.750000 0.435716 0.770593
O O21 0.006363 0.413221 0.816358
O O22 0.250000 0.363303 0.864516
O O23 0.021554 0.250000 0.859763
#
# Coordination Sequence:
#
# PCOD9450462 Si02
#       8
#     8   8   8   8   8   8   8   8
#     4  12  25  41  61  84 113 148 184 227 276 332
#     4   9  18  34  56  81 111 150 195 241 291 350
#     4  10  20  34  54  82 115 149 191 243 295 347
#     4  10  21  36  54  79 114 155 199 243 287 338
#     4   9  17  31  54  83 110 139 178 222 270 323
#     4  10  20  35  57  84 112 141 175 218 268 323
#     4  10  20  36  59  85 114 152 194 237 279 328
#     4  11  24  41  61  86 116 149 187 232 282 337
#
# _framework density 18.633991999999999
#
# number of rings (size 3 to 8) (size 9 to 14) (size 15 to 20)
#    0.000    1.875    1.250    3.000    0.000    4.750 
#    0.000    0.625    0.000    2.250    0.000    0.000 
#    0.000    0.000    0.000    0.000    0.000    0.000 
#
# Total GULP energy -357198.759606 kJ/mol
# GULP energy per Si atom -5581.230619 kJ/mol
# Density = 1.859158 g / cm^3
# Si number density = 18.633992 Si / 1000 Ang^3
#
#
#
# Elastic Constant Matrix: (Units=GPa)
#
#
# Indices 1 2 3 4 5 6 
#
# 1 34.9814 29.1587 20.4473 0.0000 0.0000 0.0000
# 2 29.1587 133.3512 35.8701 0.0000 0.0000 0.0000
# 3 20.4473 35.8701 70.8626 0.0000 0.0000 0.0000
# 4 0.0000 0.0000 0.0000 21.0846 0.0000 0.0000
# 5 0.0000 0.0000 0.0000 0.0000 24.1174 0.0000
# 6 0.0000 0.0000 0.0000 0.0000 0.0000 25.9436
#
#
#
# Elastic Compliance Matrix: (Units=1/GPa)
#
#
# Indices 1 2 3 4 5 6 
#
# 1 0.038446 -0.006277 -0.007916 0.000000 0.000000 0.000000
# 2 -0.006277 0.009706 -0.003102 0.000000 0.000000 0.000000
# 3 -0.007916 -0.003102 0.017966 0.000000 0.000000 0.000000
# 4 0.000000 0.000000 0.000000 0.047428 0.000000 0.000000
# 5 0.000000 0.000000 0.000000 0.000000 0.041464 0.000000
# 6 0.000000 0.000000 0.000000 0.000000 0.000000 0.038545
#
#
# Mechanical properties :
#
#
# Convention : Reuss Voigt Hill
#
# Bulk Modulus (GPa) = 31.71796 45.57193 38.64494
# Shear Modulus (GPa) = 20.95078 24.47708 22.71393
#
# Velocity S-wave (km/s) = 3.35674 3.62825 3.49514
# Velocity P-wave (km/s) = 5.66411 6.48550 6.08867
#
# Compressibility (1/GPa) = 0.03152788
#
# Stress axis : x y z
#
# Youngs Moduli (GPa) = 26.01042 103.02972 55.66048
#
# Poissons Ratio (x) = 0.64675 0.44061
# Poissons Ratio (y) = 0.16328 0.17265
# Poissons Ratio (z) = 0.20590 0.31957
#
# Static dielectric constant tensor:
#      x y z
#    x 1.624660 0.000000 0.000000 
#    y 0.000000 1.674310 0.000000 
#    z 0.000000 0.000000 1.609430 
# 
# From -- ./inp_files/31618.got.cif
#   From: 2010.05.17/outbox.cif.g08.bks.cpg/sg59_16_cif.got.tgz:31618.got - 2010.06.03 14:40:33.
