data_PCOD9450549
_publ_section_title
;
Structure prediction by ZEFSAII (Michael W. Deem and Ramdas Pophale) SiO2 
 PCOD9450549
Probable space group: P M M N
;
_chemical_formula_sum "Si O2"
_cell_formula_units_Z 48
_cell_length_a 15.524400
_cell_length_b 17.573200
_cell_length_c 9.846668
_cell_angle_alpha 90.000000
_cell_angle_beta 90.000000
_cell_angle_gamma 90.000000
_cell_volume 2686.302839
_symmetry_space_group_name_H-M "P M M N"
_symmetry_group_IT_number 59
_space_group.IT_coordinate_system_code '2'
_symmetry_cell_setting 'orthorhombic'
loop_
_space_group_symop_operation_xyz
x,y,z
1/2-x,1/2-y,z
1/2+x,-y,-z
-x,1/2+y,-z
-x,-y,-z
1/2+x,1/2+y,-z
1/2-x,y,z
x,1/2-y,z
loop_
_atom_site_type_symbol
_atom_site_label
_atom_site_fract_x
_atom_site_fract_y
_atom_site_fract_z
Si Si1 0.001816 0.838762 0.526594
Si Si2 0.151492 0.055269 0.405022
Si Si3 0.845351 0.062836 0.833887
Si Si4 0.490537 0.338863 0.800099
Si Si5 0.411217 0.481738 0.921656
Si Si6 0.649529 0.059844 0.350022
O O1 0.002428 0.750000 0.558653
O O2 0.089475 0.877602 0.578737
O O3 0.921029 0.880940 0.595292
O O4 0.990957 0.846988 0.363615
O O5 0.250000 0.081838 0.382504
O O6 0.131541 0.990909 0.293259
O O7 0.148190 0.012578 0.549400
O O8 0.750000 0.094592 0.810683
O O9 0.916757 0.128131 0.847187
O O10 0.844687 0.007137 0.963578
O O11 0.479179 0.250000 0.833257
O O12 0.420677 0.395432 0.868099
O O13 0.392653 0.533935 0.791291
O O14 0.500000 0.500000 0.000000
O O15 0.750000 0.082282 0.333327
#
# Coordination Sequence:
#
# PCOD9450549 Si02
#       6
#     8   8   8   8   8   8
#     4  11  21  35  57  85 118 150 187 242 298 346
#     4  10  20  36  59  83 111 149 197 243 285 342
#     4  10  20  36  57  82 109 145 189 232 281 341
#     4  10  20  34  55  83 113 143 183 234 289 348
#     4  10  20  36  58  81 111 150 194 236 275 341
#     4  11  21  36  59  85 115 151 194 239 287 345
#
# _framework density 17.868424999999998
#
# number of rings (size 3 to 8) (size 9 to 14) (size 15 to 20)
#    0.000    1.667    3.333    3.000    0.000    1.000 
#    0.000    9.167    0.000    7.000    0.000    0.000 
#    0.000    0.000    0.000    0.000    0.000    0.000 
#
# Total GULP energy -267603.344537 kJ/mol
# GULP energy per Si atom -5575.069678 kJ/mol
# Density = 1.782776 g / cm^3
# Si number density = 17.868425 Si / 1000 Ang^3
#
#
#
# Elastic Constant Matrix: (Units=GPa)
#
#
# Indices 1 2 3 4 5 6 
#
# 1 67.7023 35.3076 0.3831 0.0000 0.0000 0.0000
# 2 35.3076 72.0849 13.0644 0.0000 0.0000 0.0000
# 3 0.3831 13.0644 83.6842 0.0000 0.0000 0.0000
# 4 0.0000 0.0000 0.0000 23.6133 0.0000 0.0000
# 5 0.0000 0.0000 0.0000 0.0000 18.5423 0.0000
# 6 0.0000 0.0000 0.0000 0.0000 0.0000 -0.3448
#
#
#
# Elastic Compliance Matrix: (Units=1/GPa)
#
#
# Indices 1 2 3 4 5 6 
#
# 1 0.020015 -0.010072 0.001481 0.000000 0.000000 0.000000
# 2 -0.010072 0.019345 -0.002974 0.000000 0.000000 0.000000
# 3 0.001481 -0.002974 0.012407 0.000000 0.000000 0.000000
# 4 0.000000 0.000000 0.000000 0.042349 0.000000 0.000000
# 5 0.000000 0.000000 0.000000 0.000000 0.053931 0.000000
# 6 0.000000 0.000000 0.000000 0.000000 0.000000 -2.900358
#
#
# Mechanical properties :
#
#
# Convention : Reuss Voigt Hill
#
# Bulk Modulus (GPa) = 34.92008 35.66464 35.29236
# Shear Modulus (GPa) = -1.83848 20.00991 9.08571
#
# Velocity S-wave (km/s) = -1.01545 3.35004 2.25739
# Velocity P-wave (km/s) = 4.26737 5.91326 5.15641
#
# Compressibility (1/GPa) = 0.02863682
#
# Stress axis : x y z
#
# Youngs Moduli (GPa) = 49.96335 51.69382 80.59852
#
# Poissons Ratio (x) = 0.52064 -0.11934
# Poissons Ratio (y) = 0.50321 0.23969
# Poissons Ratio (z) = -0.07398 0.15373
#
# Static dielectric constant tensor:
#      x y z
#    x 1.625390 0.000000 0.000000 
#    y 0.000000 1.582730 0.000000 
#    z 0.000000 0.000000 1.634860 
# 
# From -- ./inp_files/9014.got.cif
#   From: 2010.05.17/outbox.cif.g08.bks.cpg/sg59_5_cif.got.tgz:9014.got - 2010.06.03 14:40:33.
