data_PCOD9450658
_publ_section_title
;
Structure prediction by ZEFSAII (Michael W. Deem and Ramdas Pophale) SiO2 
 PCOD9450658
Probable space group: P M M N
;
_chemical_formula_sum "Si O2"
_cell_formula_units_Z 56
_cell_length_a 21.416326
_cell_length_b 14.384108
_cell_length_c 9.388729
_cell_angle_alpha 90.000000
_cell_angle_beta 90.000000
_cell_angle_gamma 90.000000
_cell_volume 2892.242529
_symmetry_space_group_name_H-M "P M M N"
_symmetry_group_IT_number 59
_space_group.IT_coordinate_system_code '2'
_symmetry_cell_setting 'orthorhombic'
loop_
_space_group_symop_operation_xyz
x,y,z
1/2-x,1/2-y,z
1/2+x,-y,-z
-x,1/2+y,-z
-x,-y,-z
1/2+x,1/2+y,-z
1/2-x,y,z
x,1/2-y,z
loop_
_atom_site_type_symbol
_atom_site_label
_atom_site_fract_x
_atom_site_fract_y
_atom_site_fract_z
Si Si1 0.824137 0.142034 0.328561
Si Si2 0.434498 0.542943 0.187128
Si Si3 0.177335 0.538084 0.384734
Si Si4 0.543455 0.639706 0.365504
Si Si5 0.968269 0.854664 0.700948
Si Si6 0.179652 0.140187 0.558260
Si Si7 0.585975 0.143339 0.101206
O O1 0.750000 0.137123 0.324129
O O2 0.842648 0.250000 0.346021
O O3 0.843651 0.084958 0.466686
O O4 0.851725 0.109736 0.178889
O O5 0.370462 0.572071 0.265743
O O6 0.495287 0.581897 0.270504
O O7 0.434193 0.432311 0.206885
O O8 0.435176 0.579309 0.027392
O O9 0.250000 0.561516 0.356166
O O10 0.174504 0.428060 0.422478
O O11 0.532936 0.750000 0.340661
O O12 0.530943 0.621177 0.533585
O O13 0.617867 0.620975 0.347024
O O14 0.942867 0.750000 0.713403
O O15 0.036734 0.855013 0.769709
O O16 0.250000 0.122491 0.618106
O O17 0.176335 0.250000 0.522790
O O18 0.592522 0.250000 0.048888
#
# Coordination Sequence:
#
# PCOD9450658 Si02
#       7
#     8   8   8   8   8   8   8
#     4   9  19  37  58  78 106 148 190 223 265 331
#     4  12  22  34  56  84 117 141 180 236 288 319
#     4  10  21  35  57  86 112 142 184 230 277 328
#     4  10  20  34  57  86 111 142 182 227 278 327
#     4  10  21  37  54  75 105 146 187 219 266 336
#     4   9  18  34  55  81 112 143 180 226 275 328
#     4  10  22  37  53  76 108 147 185 224 275 332
#
# _framework density 19.362138000000002
#
# number of rings (size 3 to 8) (size 9 to 14) (size 15 to 20)
#    0.000    2.000    1.429    2.143    2.000    2.857 
#    0.000    0.000    0.000    0.000    0.000    1.000 
#    0.000    5.714    0.000    0.000    0.000    0.000 
#
# Total GULP energy -312260.960598 kJ/mol
# GULP energy per Si atom -5576.088582 kJ/mol
# Density = 1.931807 g / cm^3
# Si number density = 19.362138 Si / 1000 Ang^3
#
#
#
# Elastic Constant Matrix: (Units=GPa)
#
#
# Indices 1 2 3 4 5 6 
#
# 1 97.2028 20.3132 34.2329 0.0000 0.0000 0.0000
# 2 20.3132 55.0019 27.4518 0.0000 0.0000 0.0000
# 3 34.2329 27.4518 61.5853 0.0000 0.0000 0.0000
# 4 0.0000 0.0000 0.0000 20.2814 0.0000 0.0000
# 5 0.0000 0.0000 0.0000 0.0000 18.9336 0.0000
# 6 0.0000 0.0000 0.0000 0.0000 0.0000 22.5870
#
#
#
# Elastic Compliance Matrix: (Units=1/GPa)
#
#
# Indices 1 2 3 4 5 6 
#
# 1 0.012890 -0.001523 -0.006486 0.000000 0.000000 0.000000
# 2 -0.001523 0.023563 -0.009657 0.000000 0.000000 0.000000
# 3 -0.006486 -0.009657 0.024148 0.000000 0.000000 0.000000
# 4 0.000000 0.000000 0.000000 0.049306 0.000000 0.000000
# 5 0.000000 0.000000 0.000000 0.000000 0.052816 0.000000
# 6 0.000000 0.000000 0.000000 0.000000 0.000000 0.044273
#
#
# Mechanical properties :
#
#
# Convention : Reuss Voigt Hill
#
# Bulk Modulus (GPa) = 39.57432 41.97618 40.77525
# Shear Modulus (GPa) = 19.93996 21.14654 20.54325
#
# Velocity S-wave (km/s) = 3.21260 3.30837 3.26084
# Velocity P-wave (km/s) = 5.85187 6.02663 5.93990
#
# Compressibility (1/GPa) = 0.02526891
#
# Stress axis : x y z
#
# Youngs Moduli (GPa) = 77.57682 42.43853 41.41201
#
# Poissons Ratio (x) = 0.06465 0.26861
# Poissons Ratio (y) = 0.11818 0.39990
# Poissons Ratio (z) = 0.50318 0.40982
#
# Static dielectric constant tensor:
#      x y z
#    x 1.750210 0.000000 0.000000 
#    y 0.000000 1.742330 0.000000 
#    z 0.000000 0.000000 1.628390 
# 
# From -- ./inp_files/11449.got.cif
#   From: 2010.05.17/outbox.cif.g08.bks.cpg/sg59_6_cif.got.tgz:11449.got - 2010.06.03 14:40:33.
