data_PCOD9450489
_publ_section_title
;
Structure prediction by ZEFSAII (Michael W. Deem and Ramdas Pophale) SiO2 
 PCOD9450489
Probable space group: P M M N
;
_chemical_formula_sum "Si O2"
_cell_formula_units_Z 48
_cell_length_a 10.611384
_cell_length_b 19.586445
_cell_length_c 11.589129
_cell_angle_alpha 90.000000
_cell_angle_beta 90.000000
_cell_angle_gamma 90.000000
_cell_volume 2408.676333
_symmetry_space_group_name_H-M "P M M N"
_symmetry_group_IT_number 59
_space_group.IT_coordinate_system_code '2'
_symmetry_cell_setting 'orthorhombic'
loop_
_space_group_symop_operation_xyz
x,y,z
1/2-x,1/2-y,z
1/2+x,-y,-z
-x,1/2+y,-z
-x,-y,-z
1/2+x,1/2+y,-z
1/2-x,y,z
x,1/2-y,z
loop_
_atom_site_type_symbol
_atom_site_label
_atom_site_fract_x
_atom_site_fract_y
_atom_site_fract_z
Si Si1 0.112135 0.499478 0.178096
Si Si2 0.400398 0.887382 0.834182
Si Si3 0.608072 0.146913 0.917433
Si Si4 0.101617 0.824476 0.592617
Si Si5 0.023648 0.563095 0.413362
Si Si6 0.891564 0.673355 0.266315
O O1 0.250000 0.465757 0.166114
O O2 0.108772 0.564703 0.094841
O O3 0.100194 0.531597 0.306504
O O4 0.993099 0.451727 0.156521
O O5 0.250000 0.905143 0.826430
O O6 0.443603 0.851468 0.716095
O O7 0.413679 0.840383 0.947515
O O8 0.750000 0.169824 0.884581
O O9 0.499575 0.170847 0.831420
O O10 0.250000 0.817456 0.608458
O O11 0.047800 0.750000 0.564980
O O12 0.085427 0.879146 0.492302
O O13 0.000000 0.500000 0.500000
O O14 0.914821 0.608630 0.350826
O O15 0.750000 0.667016 0.218270
O O16 0.899981 0.750000 0.319469
#
# Coordination Sequence:
#
# PCOD9450489 Si02
#       6
#     8   8   8   8   8   8
#     4  10  20  34  54  86 119 152 197 251 302 355
#     4  10  20  36  58  87 119 157 199 243 298 361
#     4   9  20  37  59  87 120 158 203 247 295 358
#     4  10  21  37  57  84 119 156 197 246 297 354
#     4  11  21  38  60  85 115 158 202 249 297 358
#     4  10  23  41  62  91 124 159 201 251 308 363
#
# _framework density 19.927956999999999
#
# number of rings (size 3 to 8) (size 9 to 14) (size 15 to 20)
#    0.000    2.000    1.667    1.500    0.000    6.333 
#    0.000    1.667    0.000    0.500    0.000    0.000 
#    0.000    0.000    0.000    0.000    0.000    0.000 
#
# Total GULP energy -267340.945896 kJ/mol
# GULP energy per Si atom -5569.603039 kJ/mol
# Density = 1.988260 g / cm^3
# Si number density = 19.927957 Si / 1000 Ang^3
#
#
#
# Elastic Constant Matrix: (Units=GPa)
#
#
# Indices 1 2 3 4 5 6 
#
# 1 106.5420 41.8585 30.0045 0.0000 0.0000 0.0000
# 2 41.8585 95.7632 9.5583 0.0000 0.0000 0.0000
# 3 30.0045 9.5583 90.7369 0.0000 0.0000 0.0000
# 4 0.0000 0.0000 0.0000 -2.6465 0.0000 0.0000
# 5 0.0000 0.0000 0.0000 0.0000 17.6752 0.0000
# 6 0.0000 0.0000 0.0000 0.0000 0.0000 20.7116
#
#
#
# Elastic Compliance Matrix: (Units=1/GPa)
#
#
# Indices 1 2 3 4 5 6 
#
# 1 0.012374 -0.005053 -0.003559 0.000000 0.000000 0.000000
# 2 -0.005053 0.012617 0.000342 0.000000 0.000000 0.000000
# 3 -0.003559 0.000342 0.012162 0.000000 0.000000 0.000000
# 4 0.000000 0.000000 0.000000 -0.377864 0.000000 0.000000
# 5 0.000000 0.000000 0.000000 0.000000 0.056577 0.000000
# 6 0.000000 0.000000 0.000000 0.000000 0.000000 0.048282
#
#
# Mechanical properties :
#
#
# Convention : Reuss Voigt Hill
#
# Bulk Modulus (GPa) = 48.51747 50.65386 49.58567
# Shear Modulus (GPa) = -23.53602 21.25612 -1.13995
#
# Velocity S-wave (km/s) = -3.44038 3.26950 -0.75715
# Velocity P-wave (km/s) = 2.93559 6.30290 4.91651
#
# Compressibility (1/GPa) = 0.02061113
#
# Stress axis : x y z
#
# Youngs Moduli (GPa) = 80.81631 79.25730 82.22430
#
# Poissons Ratio (x) = 0.40051 0.29267
# Poissons Ratio (y) = 0.40839 -0.02811
# Poissons Ratio (z) = 0.28766 -0.02710
#
# Static dielectric constant tensor:
#      x y z
#    x 1.698160 0.000000 0.000000 
#    y 0.000000 1.732400 0.000000 
#    z 0.000000 0.000000 1.759390 
# 
# From -- ./inp_files/15779.got.cif
#   From: 2010.05.17/outbox.cif.g08.bks.cpg/sg59_8_cif.got.tgz:15779.got - 2010.06.03 14:40:33.
