data_PCOD9450344
_publ_section_title
;
Structure prediction by ZEFSAII (Michael W. Deem and Ramdas Pophale) SiO2 
 PCOD9450344
Probable space group: P M M N
;
_chemical_formula_sum "Si O2"
_cell_formula_units_Z 56
_cell_length_a 14.666948
_cell_length_b 8.530197
_cell_length_c 25.041156
_cell_angle_alpha 90.000000
_cell_angle_beta 90.000000
_cell_angle_gamma 90.000000
_cell_volume 3132.948003
_symmetry_space_group_name_H-M "P M M N"
_symmetry_group_IT_number 59
_space_group.IT_coordinate_system_code '2'
_symmetry_cell_setting 'orthorhombic'
loop_
_space_group_symop_operation_xyz
x,y,z
1/2-x,1/2-y,z
1/2+x,-y,-z
-x,1/2+y,-z
-x,-y,-z
1/2+x,1/2+y,-z
1/2-x,y,z
x,1/2-y,z
loop_
_atom_site_type_symbol
_atom_site_label
_atom_site_fract_x
_atom_site_fract_y
_atom_site_fract_z
Si Si1 0.946762 0.439513 0.654693
Si Si2 0.507789 0.562541 0.770386
Si Si3 0.145655 0.560580 0.143872
Si Si4 0.750000 0.060462 0.612405
Si Si5 0.506912 0.937779 0.059773
Si Si6 0.443846 0.060706 0.550395
Si Si7 0.250000 0.060465 0.509198
Si Si8 0.355002 0.560420 0.854047
O O1 0.946798 0.250000 0.655943
O O2 0.984040 0.499660 0.710734
O O3 0.842800 0.490340 0.641917
O O4 0.009665 0.492187 0.605249
O O5 0.507258 0.750000 0.769489
O O6 0.594635 0.504038 0.804178
O O7 0.418229 0.509934 0.803901
O O8 0.250000 0.507945 0.139576
O O9 0.145234 0.750000 0.146662
O O10 0.082680 0.514068 0.093729
O O11 0.750000 0.250000 0.611073
O O12 0.750000 0.002649 0.551261
O O13 0.511002 0.750000 0.059141
O O14 0.593344 0.001309 0.092993
O O15 0.500000 0.000000 0.000000
O O16 0.446662 0.250000 0.550240
O O17 0.340244 0.010277 0.540613
O O18 0.500000 0.000000 0.500000
O O19 0.250000 0.250000 0.505969
O O20 0.250000 0.507939 0.850654
O O21 0.355288 0.750000 0.855056
#
# Coordination Sequence:
#
# PCOD9450344 Si02
#       8
#     8   8   8   4   8   8   4   8
#     4  10  21  36  53  76 106 140 175 212 260 321
#     4  10  21  36  55  80 106 133 174 224 268 311
#     4   9  19  36  56  76 104 143 179 211 256 314
#     4  10  20  34  54  78 102 136 178 211 252 321
#     4  10  20  34  54  83 115 145 181 222 263 311
#     4  10  20  35  55  77 105 137 172 215 265 316
#     4  10  20  34  54  80 106 132 168 219 270 311
#     4   9  19  38  60  78 104 144 184 225 274 321
#
# _framework density 17.874538999999999
#
# number of rings (size 3 to 8) (size 9 to 14) (size 15 to 20)
#    0.000    2.286    1.429    0.857    1.000    3.429 
#    1.286    1.429    0.000    0.000    0.000    0.000 
#    0.000    0.000    0.000    0.000    0.000    0.000 
#
# Total GULP energy -312470.708391 kJ/mol
# GULP energy per Si atom -5579.834078 kJ/mol
# Density = 1.783386 g / cm^3
# Si number density = 17.874539 Si / 1000 Ang^3
#
#
#
# Elastic Constant Matrix: (Units=GPa)
#
#
# Indices 1 2 3 4 5 6 
#
# 1 187.2964 25.7783 97.8893 0.0000 0.0000 0.0000
# 2 25.7783 5.2557 22.1201 0.0000 0.0000 0.0000
# 3 97.8893 22.1201 183.1662 0.0000 0.0000 0.0000
# 4 0.0000 0.0000 0.0000 33.5669 0.0000 0.0000
# 5 0.0000 0.0000 0.0000 0.0000 10.7014 0.0000
# 6 0.0000 0.0000 0.0000 0.0000 0.0000 18.6359
#
#
#
# Elastic Compliance Matrix: (Units=1/GPa)
#
#
# Indices 1 2 3 4 5 6 
#
# 1 0.016776 -0.090598 0.001976 0.000000 0.000000 0.000000
# 2 -0.090598 0.876215 -0.057398 0.000000 0.000000 0.000000
# 3 0.001976 -0.057398 0.011335 0.000000 0.000000 0.000000
# 4 0.000000 0.000000 0.000000 0.029791 0.000000 0.000000
# 5 0.000000 0.000000 0.000000 0.000000 0.093446 0.000000
# 6 0.000000 0.000000 0.000000 0.000000 0.000000 0.053660
#
#
# Mechanical properties :
#
#
# Convention : Reuss Voigt Hill
#
# Bulk Modulus (GPa) = 1.63323 74.14373 37.88848
# Shear Modulus (GPa) = 3.16985 27.90954 15.53970
#
# Velocity S-wave (km/s) = 1.33313 3.95576 2.95172
# Velocity P-wave (km/s) = 1.81255 7.90153 5.73234
#
# Compressibility (1/GPa) = 0.61228515
#
# Stress axis : x y z
#
# Youngs Moduli (GPa) = 59.60933 1.14127 88.21855
#
# Poissons Ratio (x) = 0.10340 -0.17428
# Poissons Ratio (y) = 5.40046 5.06361
# Poissons Ratio (z) = -0.11776 0.06551
#
# Static dielectric constant tensor:
#      x y z
#    x 1.624920 0.000000 0.000000 
#    y 0.000000 1.612140 0.000000 
#    z 0.000000 0.000000 1.574570 
# 
# From -- ./inp_files/30488.got.cif
#   From: 2010.05.17/outbox.cif.g08.bks.cpg/sg59_16_cif.got.tgz:30488.got - 2010.06.03 14:40:33.
