data_PCOD9450741
_publ_section_title
;
Structure prediction by ZEFSAII (Michael W. Deem and Ramdas Pophale) SiO2 
 PCOD9450741
Probable space group: P M M N
;
_chemical_formula_sum "Si O2"
_cell_formula_units_Z 64
_cell_length_a 18.452040
_cell_length_b 9.096032
_cell_length_c 20.305243
_cell_angle_alpha 90.000000
_cell_angle_beta 90.000000
_cell_angle_gamma 90.000000
_cell_volume 3408.039017
_symmetry_space_group_name_H-M "P M M N"
_symmetry_group_IT_number 59
_space_group.IT_coordinate_system_code '2'
_symmetry_cell_setting 'orthorhombic'
loop_
_space_group_symop_operation_xyz
x,y,z
1/2-x,1/2-y,z
1/2+x,-y,-z
-x,1/2+y,-z
-x,-y,-z
1/2+x,1/2+y,-z
1/2-x,y,z
x,1/2-y,z
loop_
_atom_site_type_symbol
_atom_site_label
_atom_site_fract_x
_atom_site_fract_y
_atom_site_fract_z
Si Si1 0.599048 0.419737 0.049076
Si Si2 0.568682 0.075700 0.417131
Si Si3 0.073954 0.420524 0.081561
Si Si4 0.165360 0.425479 0.470070
Si Si5 0.168154 0.081701 0.680296
Si Si6 0.923415 0.072649 0.635117
Si Si7 0.951889 0.425060 0.786716
Si Si8 0.118756 0.078851 0.822597
O O1 0.616217 0.250000 0.040556
O O2 0.512739 0.432510 0.066182
O O3 0.637034 0.486048 0.113289
O O4 0.611483 0.503878 0.980919
O O5 0.559171 0.250000 0.426628
O O6 0.612983 0.002608 0.476906
O O7 0.618148 0.036883 0.354128
O O8 0.492955 0.995363 0.402470
O O9 0.092333 0.250000 0.084605
O O10 0.086498 0.495940 0.152040
O O11 0.250000 0.449442 0.485800
O O12 0.152292 0.250000 0.469259
O O13 0.144917 0.499215 0.400539
O O14 0.250000 0.074202 0.655001
O O15 0.140523 0.250000 0.667925
O O16 0.167630 0.060944 0.758573
O O17 0.923396 0.250000 0.628995
O O18 0.929149 0.034538 0.712660
O O19 0.942406 0.250000 0.793540
O O20 0.037609 0.456059 0.796334
O O21 0.118476 0.250000 0.842167
#
# Coordination Sequence:
#
# PCOD9450741 Si02
#       8
#     8   8   8   8   8   8   8   8
#     4   9  16  25  39  62  93 132 173 214 262 314
#     4  12  24  38  59  85 114 146 185 230 276 329
#     4   9  16  25  40  65  97 132 170 213 260 313
#     4  11  25  44  63  84 113 147 183 226 277 331
#     4  10  20  35  54  76 106 146 189 232 281 336
#     4  11  22  39  62  87 115 147 185 227 277 333
#     4   9  17  30  49  73 104 138 171 215 266 320
#     4   9  16  29  46  67  98 136 177 220 269 322
#
# _framework density 18.779128
#
# number of rings (size 3 to 8) (size 9 to 14) (size 15 to 20)
#    0.000    2.000    1.250    3.375    0.000    7.250 
#    0.000    0.000    0.000    0.000    0.000    0.875 
#    0.000    5.000    0.000    0.000    0.000    0.000 
#
# Total GULP energy -357170.127460 kJ/mol
# GULP energy per Si atom -5580.783242 kJ/mol
# Density = 1.873639 g / cm^3
# Si number density = 18.779128 Si / 1000 Ang^3
#
#
#
# Elastic Constant Matrix: (Units=GPa)
#
#
# Indices 1 2 3 4 5 6 
#
# 1 22.3377 18.9459 25.5158 0.0000 0.0000 0.0000
# 2 18.9459 76.6284 67.9870 0.0000 0.0000 0.0000
# 3 25.5158 67.9870 139.5171 0.0000 0.0000 0.0000
# 4 0.0000 0.0000 0.0000 37.6101 0.0000 0.0000
# 5 0.0000 0.0000 0.0000 0.0000 -6.6794 0.0000
# 6 0.0000 0.0000 0.0000 0.0000 0.0000 14.4181
#
#
#
# Elastic Compliance Matrix: (Units=1/GPa)
#
#
# Indices 1 2 3 4 5 6 
#
# 1 0.059894 -0.008967 -0.006584 0.000000 0.000000 0.000000
# 2 -0.008967 0.024332 -0.010217 0.000000 0.000000 0.000000
# 3 -0.006584 -0.010217 0.013351 0.000000 0.000000 0.000000
# 4 0.000000 0.000000 0.000000 0.026589 0.000000 0.000000
# 5 0.000000 0.000000 0.000000 0.000000 -0.149714 0.000000
# 6 0.000000 0.000000 0.000000 0.000000 0.000000 0.069357
#
#
# Mechanical properties :
#
#
# Convention : Reuss Voigt Hill
#
# Bulk Modulus (GPa) = 21.72021 51.48674 36.60347
# Shear Modulus (GPa) = 45.17097 17.47205 31.32151
#
# Velocity S-wave (km/s) = 4.90979 3.05355 4.08841
# Velocity P-wave (km/s) = 6.61307 6.31734 6.46689
#
# Compressibility (1/GPa) = 0.04604006
#
# Stress axis : x y z
#
# Youngs Moduli (GPa) = 16.69629 41.09847 74.90310
#
# Poissons Ratio (x) = 0.36851 0.49319
# Poissons Ratio (y) = 0.14971 0.76529
# Poissons Ratio (z) = 0.10993 0.41991
#
# Static dielectric constant tensor:
#      x y z
#    x 1.648040 0.000000 0.000000 
#    y 0.000000 1.627880 0.000000 
#    z 0.000000 0.000000 1.670930 
# 
# From -- ./inp_files/30661.got.cif
#   From: 2010.05.17/outbox.cif.g08.bks.cpg/sg59_16_cif.got.tgz:30661.got - 2010.06.03 14:40:33.
