data_PCOD9450445
_publ_section_title
;
Structure prediction by ZEFSAII (Michael W. Deem and Ramdas Pophale) SiO2 
 PCOD9450445
Probable space group: P M M N
;
_chemical_formula_sum "Si O2"
_cell_formula_units_Z 48
_cell_length_a 9.857800
_cell_length_b 8.010274
_cell_length_c 30.389172
_cell_angle_alpha 90.000000
_cell_angle_beta 90.000000
_cell_angle_gamma 90.000000
_cell_volume 2399.640824
_symmetry_space_group_name_H-M "P M M N"
_symmetry_group_IT_number 59
_space_group.IT_coordinate_system_code '2'
_symmetry_cell_setting 'orthorhombic'
loop_
_space_group_symop_operation_xyz
x,y,z
1/2-x,1/2-y,z
1/2+x,-y,-z
-x,1/2+y,-z
-x,-y,-z
1/2+x,1/2+y,-z
1/2-x,y,z
x,1/2-y,z
loop_
_atom_site_type_symbol
_atom_site_label
_atom_site_fract_x
_atom_site_fract_y
_atom_site_fract_z
Si Si1 0.750000 0.548384 0.944947
Si Si2 0.408092 0.951375 0.458268
Si Si3 0.407543 0.454393 0.624557
Si Si4 0.404288 0.447577 0.198757
Si Si5 0.487801 0.053967 0.891850
Si Si6 0.750000 0.954853 0.046338
Si Si7 0.904822 0.448737 0.703708
O O1 0.750000 0.750000 0.943641
O O2 0.876224 0.480852 0.918205
O O3 0.750000 0.491980 0.995706
O O4 0.250000 0.010990 0.459807
O O5 0.401202 0.750000 0.456647
O O6 0.494323 0.006621 0.415561
O O7 0.500000 0.000000 0.500000
O O8 0.250000 0.509188 0.620834
O O9 0.403835 0.250000 0.624289
O O10 0.484009 0.510868 0.669039
O O11 0.250000 0.509677 0.189040
O O12 0.397459 0.250000 0.204175
O O13 0.498094 0.484498 0.157182
O O14 0.445168 0.521054 0.245760
O O15 0.463630 0.250000 0.886940
O O16 0.375530 0.985327 0.924835
O O17 0.750000 0.750000 0.044783
O O18 0.750000 0.515565 0.697547
O O19 0.896241 0.250000 0.696832
#
# Coordination Sequence:
#
# PCOD9450445 Si02
#       7
#     4   8   8   8   8   4   8
#     4  11  21  37  59  83 113 143 177 223 276 327
#     4  10  20  34  54  81 113 150 192 237 283 332
#     4   9  17  31  52  78 107 140 181 229 279 330
#     4  10  20  35  55  79 108 139 176 222 274 326
#     4  11  21  37  59  82 108 143 186 226 267 322
#     4   9  22  39  55  81 113 143 179 227 272 319
#     4   9  17  31  53  77  99 129 175 223 268 323
#
# _framework density 20.002994999999999
#
# number of rings (size 3 to 8) (size 9 to 14) (size 15 to 20)
#    0.000    2.167    0.833    2.750    0.000    3.667 
#    1.500    5.000    0.000    3.000    0.000    0.000 
#    0.000    0.000    0.000    0.000    0.000    0.000 
#
# Total GULP energy -267748.521708 kJ/mol
# GULP energy per Si atom -5578.094202 kJ/mol
# Density = 1.995747 g / cm^3
# Si number density = 20.002995 Si / 1000 Ang^3
#
#
#
# Elastic Constant Matrix: (Units=GPa)
#
#
# Indices 1 2 3 4 5 6 
#
# 1 143.3857 -5.9567 80.5602 0.0000 0.0000 0.0000
# 2 -5.9567 10.6459 -3.0617 0.0000 0.0000 0.0000
# 3 80.5602 -3.0617 164.3462 0.0000 0.0000 0.0000
# 4 0.0000 0.0000 0.0000 22.0256 0.0000 0.0000
# 5 0.0000 0.0000 0.0000 0.0000 83.4014 0.0000
# 6 0.0000 0.0000 0.0000 0.0000 0.0000 8.6444
#
#
#
# Elastic Compliance Matrix: (Units=1/GPa)
#
#
# Indices 1 2 3 4 5 6 
#
# 1 0.009802 0.004125 -0.004728 0.000000 0.000000 0.000000
# 2 0.004125 0.096175 -0.000230 0.000000 0.000000 0.000000
# 3 -0.004728 -0.000230 0.008398 0.000000 0.000000 0.000000
# 4 0.000000 0.000000 0.000000 0.045402 0.000000 0.000000
# 5 0.000000 0.000000 0.000000 0.000000 0.011990 0.000000
# 6 0.000000 0.000000 0.000000 0.000000 0.000000 0.115682
#
#
# Mechanical properties :
#
#
# Convention : Reuss Voigt Hill
#
# Bulk Modulus (GPa) = 8.87250 51.27349 30.07300
# Shear Modulus (GPa) = 15.30528 39.27000 27.28764
#
# Velocity S-wave (km/s) = 2.76913 4.43561 3.69748
# Velocity P-wave (km/s) = 3.83006 7.20565 5.77022
#
# Compressibility (1/GPa) = 0.11270776
#
# Stress axis : x y z
#
# Youngs Moduli (GPa) = 102.02105 10.39775 119.07623
#
# Poissons Ratio (x) = -0.04289 0.56298
# Poissons Ratio (y) = -0.42082 0.02742
# Poissons Ratio (z) = 0.48235 0.00239
#
# Static dielectric constant tensor:
#      x y z
#    x 1.682240 0.000000 0.000000 
#    y 0.000000 1.728880 0.000000 
#    z 0.000000 0.000000 1.686820 
# 
# From -- ./inp_files/33094.got.cif
#   From: 2010.05.17/outbox.cif.g08.bks.cpg/sg59_17_cif.got.tgz:33094.got - 2010.06.03 14:40:33.
