data_PCOD9450001
_publ_section_title
;
Structure prediction by ZEFSAII (Michael W. Deem and Ramdas Pophale) SiO2 
 PCOD9450001
Probable space group: P M M N
;
_chemical_formula_sum "Si O2"
_cell_formula_units_Z 40
_cell_length_a 7.501149
_cell_length_b 13.717637
_cell_length_c 15.394893
_cell_angle_alpha 90.000000
_cell_angle_beta 90.000000
_cell_angle_gamma 90.000000
_cell_volume 1584.104301
_symmetry_space_group_name_H-M "P M M N"
_symmetry_group_IT_number 59
_space_group.IT_coordinate_system_code '2'
_symmetry_cell_setting 'orthorhombic'
loop_
_space_group_symop_operation_xyz
x,y,z
1/2-x,1/2-y,z
1/2+x,-y,-z
-x,1/2+y,-z
-x,-y,-z
1/2+x,1/2+y,-z
1/2-x,y,z
x,1/2-y,z
loop_
_atom_site_type_symbol
_atom_site_label
_atom_site_fract_x
_atom_site_fract_y
_atom_site_fract_z
Si Si1 0.045542 0.647264 0.821248
Si Si2 0.963919 0.928299 0.197131
Si Si3 0.038094 0.930124 0.386738
Si Si4 0.538809 0.886410 0.012753
Si Si5 0.456166 0.143936 0.427919
O O1 0.250000 0.644754 0.790454
O O2 0.963881 0.750000 0.789681
O O3 0.964366 0.540616 0.802737
O O4 0.046496 0.654013 0.925935
O O5 0.750000 0.935542 0.186281
O O6 0.025061 0.869726 0.111573
O O7 0.002485 0.887400 0.291892
O O8 0.250000 0.933816 0.400827
O O9 0.961143 0.872117 0.468045
O O10 0.967160 0.042390 0.390919
O O11 0.750000 0.865439 0.007888
O O12 0.500000 0.000000 0.000000
O O13 0.250000 0.146445 0.400029
O O14 0.536836 0.250000 0.408189
#
# Coordination Sequence:
#
# PCOD9450001 Si02
#       5
#     8   8   8   8   8
#     4   9  18  32  49  71 100 132 167 208 252 297
#     4   9  18  32  49  70  99 134 166 198 245 302
#     4  10  20  33  53  81 106 130 168 214 255 300
#     4   9  17  30  48  68  92 126 165 200 238 287
#     4   9  19  37  57  75 101 136 168 203 254 312
#
# _framework density 25.250862000000001
#
# number of rings (size 3 to 8) (size 9 to 14) (size 15 to 20)
#    0.000    2.800    0.000    2.400    0.000    6.400 
#    0.000    1.000    0.000    1.200    0.000    0.000 
#    0.000    0.000    0.000    0.000    0.000    0.000 
#
# Total GULP energy -223164.702482 kJ/mol
# GULP energy per Si atom -5579.117562 kJ/mol
# Density = 2.519339 g / cm^3
# Si number density = 25.250862 Si / 1000 Ang^3
#
#
#
# Elastic Constant Matrix: (Units=GPa)
#
#
# Indices 1 2 3 4 5 6 
#
# 1 86.7493 1.7397 -12.2763 0.0000 0.0000 0.0000
# 2 1.7397 92.4336 -3.6363 0.0000 0.0000 0.0000
# 3 -12.2763 -3.6363 172.4068 0.0000 0.0000 0.0000
# 4 0.0000 0.0000 0.0000 -14.9400 0.0000 0.0000
# 5 0.0000 0.0000 0.0000 0.0000 16.5415 0.0000
# 6 0.0000 0.0000 0.0000 0.0000 0.0000 -7.4318
#
#
#
# Elastic Compliance Matrix: (Units=1/GPa)
#
#
# Indices 1 2 3 4 5 6 
#
# 1 0.011648 -0.000187 0.000825 0.000000 0.000000 0.000000
# 2 -0.000187 0.010831 0.000215 0.000000 0.000000 0.000000
# 3 0.000825 0.000215 0.005864 0.000000 0.000000 0.000000
# 4 0.000000 0.000000 0.000000 -0.066934 0.000000 0.000000
# 5 0.000000 0.000000 0.000000 0.000000 0.060454 0.000000
# 6 0.000000 0.000000 0.000000 0.000000 0.000000 -0.134558
#
#
# Mechanical properties :
#
#
# Convention : Reuss Voigt Hill
#
# Bulk Modulus (GPa) = 33.27805 35.91597 34.59701
# Shear Modulus (GPa) = -47.89880 23.21812 -12.34034
#
# Velocity S-wave (km/s) = -4.36009 3.03561 -2.21308
# Velocity P-wave (km/s) = 3.48419 5.15181 2.68343
#
# Compressibility (1/GPa) = 0.03004984
#
# Stress axis : x y z
#
# Youngs Moduli (GPa) = 85.85140 92.33137 170.54517
#
# Poissons Ratio (x) = 0.01724 -0.14078
# Poissons Ratio (y) = 0.01603 -0.03669
# Poissons Ratio (z) = -0.07087 -0.01986
#
# Static dielectric constant tensor:
#      x y z
#    x 1.958180 0.000000 0.000000 
#    y 0.000000 2.021320 0.000000 
#    z 0.000000 0.000000 2.000190 
# 
# From -- ./inp_files/19873.got.cif
#   From: 2010.05.17/outbox.cif.g08.bks.cpg/sg59_10_cif.got.tgz:19873.got - 2010.06.03 14:40:33.
