data_PCOD9450818
_publ_section_title
;
Structure prediction by ZEFSAII (Michael W. Deem and Ramdas Pophale) SiO2 
 PCOD9450818
Probable space group: P M M N
;
_chemical_formula_sum "Si O2"
_cell_formula_units_Z 56
_cell_length_a 8.015518
_cell_length_b 13.857400
_cell_length_c 23.452722
_cell_angle_alpha 90.000000
_cell_angle_beta 90.000000
_cell_angle_gamma 90.000000
_cell_volume 2604.993252
_symmetry_space_group_name_H-M "P M M N"
_symmetry_group_IT_number 59
_space_group.IT_coordinate_system_code '2'
_symmetry_cell_setting 'orthorhombic'
loop_
_space_group_symop_operation_xyz
x,y,z
1/2-x,1/2-y,z
1/2+x,-y,-z
-x,1/2+y,-z
-x,-y,-z
1/2+x,1/2+y,-z
1/2-x,y,z
x,1/2-y,z
loop_
_atom_site_type_symbol
_atom_site_label
_atom_site_fract_x
_atom_site_fract_y
_atom_site_fract_z
Si Si1 0.545957 0.931875 0.705655
Si Si2 0.552822 0.107726 0.992067
Si Si3 0.443345 0.861114 0.255847
Si Si4 0.447767 0.855147 0.458933
Si Si5 0.951924 0.250000 0.089120
Si Si6 0.430746 0.137153 0.864496
Si Si7 0.949543 0.750000 0.779589
Si Si8 0.952151 0.934829 0.577956
O O1 0.750000 0.936899 0.709909
O O2 0.488280 0.848996 0.749570
O O3 0.505061 0.901262 0.641210
O O4 0.484009 0.042368 0.714997
O O5 0.750000 0.122571 0.990778
O O6 0.489302 0.132816 0.929301
O O7 0.491207 0.162614 0.048340
O O8 0.500000 0.000000 0.000000
O O9 0.250000 0.854932 0.272887
O O10 0.510222 0.750000 0.264702
O O11 0.453663 0.889975 0.188465
O O12 0.250000 0.852661 0.447382
O O13 0.517271 0.750000 0.442070
O O14 0.476055 0.872734 0.526230
O O15 0.510916 0.953775 0.430144
O O16 0.750000 0.250000 0.092917
O O17 0.016172 0.250000 0.153036
O O18 0.250000 0.087648 0.859328
O O19 0.411171 0.250000 0.854403
O O20 0.750000 0.750000 0.771405
O O21 0.750000 0.933590 0.572318
#
# Coordination Sequence:
#
# PCOD9450818 Si02
#       8
#     8   8   8   8   4   8   4   8
#     4   9  19  35  55  81 107 142 190 234 275 324
#     4  11  23  39  59  83 110 142 180 227 278 333
#     4   9  18  33  54  78 106 140 180 230 283 335
#     4   9  18  32  51  79 114 146 177 223 280 328
#     4  10  24  44  60  82 116 146 183 228 277 336
#     4  10  20  35  55  80 108 138 176 219 273 337
#     4  10  22  38  56  78 110 148 189 232 271 322
#     4   9  18  33  54  79 108 143 188 230 270 324
#
# _framework density 21.497174999999999
#
# number of rings (size 3 to 8) (size 9 to 14) (size 15 to 20)
#    0.000    2.429    0.714    0.857    3.000    2.571 
#    0.000    4.286    0.000    0.000    0.000    2.000 
#    0.000    0.000    0.000    0.000    0.000    0.000 
#
# Total GULP energy -311879.229983 kJ/mol
# GULP energy per Si atom -5569.271964 kJ/mol
# Density = 2.144825 g / cm^3
# Si number density = 21.497175 Si / 1000 Ang^3
#
#
#
# Elastic Constant Matrix: (Units=GPa)
#
#
# Indices 1 2 3 4 5 6 
#
# 1 14.5086 -0.1794 -13.0059 0.0000 0.0000 0.0000
# 2 -0.1794 98.2290 10.6456 0.0000 0.0000 0.0000
# 3 -13.0059 10.6456 69.3678 0.0000 0.0000 0.0000
# 4 0.0000 0.0000 0.0000 13.0662 0.0000 0.0000
# 5 0.0000 0.0000 0.0000 0.0000 20.4943 0.0000
# 6 0.0000 0.0000 0.0000 0.0000 0.0000 10.6256
#
#
#
# Elastic Compliance Matrix: (Units=1/GPa)
#
#
# Indices 1 2 3 4 5 6 
#
# 1 0.083085 -0.001563 0.015818 0.000000 0.000000 0.000000
# 2 -0.001563 0.010382 -0.001886 0.000000 0.000000 0.000000
# 3 0.015818 -0.001886 0.017671 0.000000 0.000000 0.000000
# 4 0.000000 0.000000 0.000000 0.076533 0.000000 0.000000
# 5 0.000000 0.000000 0.000000 0.000000 0.048794 0.000000
# 6 0.000000 0.000000 0.000000 0.000000 0.000000 0.094112
#
#
# Mechanical properties :
#
#
# Convention : Reuss Voigt Hill
#
# Bulk Modulus (GPa) = 7.35970 19.66956 13.51463
# Shear Modulus (GPa) = 14.23968 21.14689 17.69328
#
# Velocity S-wave (km/s) = 2.57650 3.13981 2.87200
# Velocity P-wave (km/s) = 3.50459 4.72380 4.15911
#
# Compressibility (1/GPa) = 0.13587517
#
# Stress axis : x y z
#
# Youngs Moduli (GPa) = 12.03590 96.32189 56.58979
#
# Poissons Ratio (x) = 0.15050 -0.89511
# Poissons Ratio (y) = 0.01881 0.10674
# Poissons Ratio (z) = -0.19038 0.18168
#
# Static dielectric constant tensor:
#      x y z
#    x 1.800940 0.000000 0.000000 
#    y 0.000000 1.813750 0.000000 
#    z 0.000000 0.000000 1.796990 
# 
# From -- ./inp_files/29196.got.cif
#   From: 2010.05.17/outbox.cif.g08.bks.cpg/sg59_15_cif.got.tgz:29196.got - 2010.06.03 14:40:33.
