data_PCOD9450360
_publ_section_title
;
Structure prediction by ZEFSAII (Michael W. Deem and Ramdas Pophale) SiO2 
 PCOD9450360
Probable space group: P M M N
;
_chemical_formula_sum "Si O2"
_cell_formula_units_Z 56
_cell_length_a 15.299572
_cell_length_b 8.545598
_cell_length_c 22.336067
_cell_angle_alpha 90.000000
_cell_angle_beta 90.000000
_cell_angle_gamma 90.000000
_cell_volume 2920.306563
_symmetry_space_group_name_H-M "P M M N"
_symmetry_group_IT_number 59
_space_group.IT_coordinate_system_code '2'
_symmetry_cell_setting 'orthorhombic'
loop_
_space_group_symop_operation_xyz
x,y,z
1/2-x,1/2-y,z
1/2+x,-y,-z
-x,1/2+y,-z
-x,-y,-z
1/2+x,1/2+y,-z
1/2-x,y,z
x,1/2-y,z
loop_
_atom_site_type_symbol
_atom_site_label
_atom_site_fract_x
_atom_site_fract_y
_atom_site_fract_z
Si Si1 0.250000 0.938047 0.239557
Si Si2 0.078995 0.931765 0.048630
Si Si3 0.647794 0.939126 0.495935
Si Si4 0.849702 0.934846 0.070925
Si Si5 0.054062 0.561930 0.276446
Si Si6 0.750000 0.935421 0.892212
Si Si7 0.032378 0.566672 0.843163
Si Si8 0.008795 0.560753 0.409551
O O1 0.250000 0.750000 0.226839
O O2 0.341938 0.973471 0.272035
O O3 0.250000 0.035188 0.178500
O O4 0.071357 0.750000 0.033912
O O5 0.169435 0.977889 0.079195
O O6 0.018961 0.975408 0.104996
O O7 0.087342 0.022278 0.985298
O O8 0.750000 0.991832 0.493502
O O9 0.649795 0.750000 0.496993
O O10 0.582961 0.986635 0.441017
O O11 0.591916 0.997589 0.553037
O O12 0.750000 0.970456 0.052708
O O13 0.856510 0.750000 0.081616
O O14 0.871299 0.025988 0.132445
O O15 0.045929 0.750000 0.271894
O O16 0.017215 0.511208 0.340699
O O17 0.000781 0.489593 0.221063
O O18 0.750000 0.750000 0.905507
O O19 0.015118 0.750000 0.848734
O O20 0.012756 0.750000 0.411684
#
# Coordination Sequence:
#
# PCOD9450360 Si02
#       8
#     4   8   8   8   8   4   8   8
#     4  10  20  34  54  78 110 152 189 232 287 344
#     4  12  23  38  60  84 114 148 187 234 289 345
#     4   9  18  34  56  85 121 157 191 234 287 339
#     4  11  24  42  63  84 109 142 187 238 289 348
#     4  10  21  37  57  82 114 151 193 235 283 340
#     4  12  22  34  54  84 116 148 187 230 287 350
#     4  12  25  40  59  83 114 148 187 235 288 346
#     4   9  19  35  57  85 117 154 197 241 282 336
#
# _framework density 19.176068999999998
#
# number of rings (size 3 to 8) (size 9 to 14) (size 15 to 20)
#    0.000    1.429    2.143    4.071    1.000    1.714 
#    0.000    0.714    0.000    2.571    0.000    0.000 
#    0.000    0.000    0.000    0.000    0.000    0.000 
#
# Total GULP energy -312253.849966 kJ/mol
# GULP energy per Si atom -5575.961607 kJ/mol
# Density = 1.913242 g / cm^3
# Si number density = 19.176069 Si / 1000 Ang^3
#
#
#
# Elastic Constant Matrix: (Units=GPa)
#
#
# Indices 1 2 3 4 5 6 
#
# 1 79.5767 1.6714 50.5701 0.0000 0.0000 0.0000
# 2 1.6714 44.2213 17.8612 0.0000 0.0000 0.0000
# 3 50.5701 17.8612 127.2227 0.0000 0.0000 0.0000
# 4 0.0000 0.0000 0.0000 26.8459 0.0000 0.0000
# 5 0.0000 0.0000 0.0000 0.0000 35.8530 0.0000
# 6 0.0000 0.0000 0.0000 0.0000 0.0000 24.7688
#
#
#
# Elastic Compliance Matrix: (Units=1/GPa)
#
#
# Indices 1 2 3 4 5 6 
#
# 1 0.017016 0.002214 -0.007075 0.000000 0.000000 0.000000
# 2 0.002214 0.024261 -0.004286 0.000000 0.000000 0.000000
# 3 -0.007075 -0.004286 0.011274 0.000000 0.000000 0.000000
# 4 0.000000 0.000000 0.000000 0.037250 0.000000 0.000000
# 5 0.000000 0.000000 0.000000 0.000000 0.027892 0.000000
# 6 0.000000 0.000000 0.000000 0.000000 0.000000 0.040373
#
#
# Mechanical properties :
#
#
# Convention : Reuss Voigt Hill
#
# Bulk Modulus (GPa) = 29.19029 43.46957 36.32993
# Shear Modulus (GPa) = 26.62720 29.55472 28.09096
#
# Velocity S-wave (km/s) = 3.73039 3.93011 3.83155
# Velocity P-wave (km/s) = 5.81461 6.58120 6.20975
#
# Compressibility (1/GPa) = 0.03425797
#
# Stress axis : x y z
#
# Youngs Moduli (GPa) = 58.76909 41.21822 88.69919
#
# Poissons Ratio (x) = -0.09127 0.62750
# Poissons Ratio (y) = -0.13013 0.38019
# Poissons Ratio (z) = 0.41576 0.17667
#
# Static dielectric constant tensor:
#      x y z
#    x 1.794290 0.000000 0.000000 
#    y 0.000000 1.639170 0.000000 
#    z 0.000000 0.000000 1.652150 
# 
# From -- ./inp_files/30445.got.cif
#   From: 2010.05.17/outbox.cif.g08.bks.cpg/sg59_16_cif.got.tgz:30445.got - 2010.06.03 14:40:33.
