data_PCOD9450446
_publ_section_title
;
Structure prediction by ZEFSAII (Michael W. Deem and Ramdas Pophale) SiO2 
 PCOD9450446
Probable space group: P M M N
;
_chemical_formula_sum "Si O2"
_cell_formula_units_Z 48
_cell_length_a 9.891542
_cell_length_b 8.234948
_cell_length_c 30.364043
_cell_angle_alpha 90.000000
_cell_angle_beta 90.000000
_cell_angle_gamma 90.000000
_cell_volume 2473.343628
_symmetry_space_group_name_H-M "P M M N"
_symmetry_group_IT_number 59
_space_group.IT_coordinate_system_code '2'
_symmetry_cell_setting 'orthorhombic'
loop_
_space_group_symop_operation_xyz
x,y,z
1/2-x,1/2-y,z
1/2+x,-y,-z
-x,1/2+y,-z
-x,-y,-z
1/2+x,1/2+y,-z
1/2-x,y,z
x,1/2-y,z
loop_
_atom_site_type_symbol
_atom_site_label
_atom_site_fract_x
_atom_site_fract_y
_atom_site_fract_z
Si Si1 0.907380 0.948494 0.124438
Si Si2 0.908440 0.446266 0.958762
Si Si3 0.500688 0.556712 0.392124
Si Si4 0.905015 0.444716 0.795902
Si Si5 0.750000 0.055483 0.449309
Si Si6 0.750000 0.051406 0.550307
Si Si7 0.595653 0.556987 0.698615
O O1 0.750000 0.001852 0.120783
O O2 0.903711 0.750000 0.124294
O O3 0.005755 0.998042 0.084269
O O4 0.984487 0.002521 0.168870
O O5 0.750000 0.502124 0.959840
O O6 0.903261 0.250000 0.958322
O O7 0.000000 0.500000 0.000000
O O8 0.492111 0.750000 0.388426
O O9 0.625542 0.507008 0.421380
O O10 0.376026 0.495662 0.421200
O O11 0.495003 0.489191 0.342854
O O12 0.750000 0.505631 0.803473
O O13 0.899056 0.250000 0.800277
O O14 0.943836 0.485887 0.745871
O O15 0.750000 0.250000 0.450603
O O16 0.750000 0.995953 0.499829
O O17 0.750000 0.250000 0.549214
O O18 0.750000 0.498726 0.689285
O O19 0.598511 0.750000 0.702833
#
# Coordination Sequence:
#
# PCOD9450446 Si02
#       7
#     8   8   8   8   4   4   8
#     4   9  17  31  52  78 107 140 182 231 280 332
#     4  10  20  34  54  81 113 150 192 237 284 335
#     4  11  21  38  60  84 111 147 189 230 273 330
#     4   9  17  31  53  77 100 132 176 225 273 328
#     4  11  23  39  55  83 119 149 179 227 284 333
#     4   9  20  37  61  85 111 143 187 233 274 325
#     4  10  20  35  56  82 109 141 181 227 280 335
#
# _framework density 19.406928000000001
#
# number of rings (size 3 to 8) (size 9 to 14) (size 15 to 20)
#    0.000    2.167    0.833    2.750    0.000    3.667 
#    1.500    3.333    0.000    3.000    0.000    0.000 
#    0.000    0.000    0.000    0.000    0.000    0.000 
#
# Total GULP energy -267746.448489 kJ/mol
# GULP energy per Si atom -5578.051010 kJ/mol
# Density = 1.936276 g / cm^3
# Si number density = 19.406928 Si / 1000 Ang^3
#
#
#
# Elastic Constant Matrix: (Units=GPa)
#
#
# Indices 1 2 3 4 5 6 
#
# 1 168.6680 6.8299 93.2100 0.0000 0.0000 0.0000
# 2 6.8299 6.1719 6.9310 0.0000 0.0000 0.0000
# 3 93.2100 6.9310 171.0143 0.0000 0.0000 0.0000
# 4 0.0000 0.0000 0.0000 20.4634 0.0000 0.0000
# 5 0.0000 0.0000 0.0000 0.0000 -78.9918 0.0000
# 6 0.0000 0.0000 0.0000 0.0000 0.0000 20.4306
#
#
#
# Elastic Compliance Matrix: (Units=1/GPa)
#
#
# Indices 1 2 3 4 5 6 
#
# 1 0.008600 -0.004456 -0.004507 0.000000 0.000000 0.000000
# 2 -0.004456 0.172060 -0.004545 0.000000 0.000000 0.000000
# 3 -0.004507 -0.004545 0.008488 0.000000 0.000000 0.000000
# 4 0.000000 0.000000 0.000000 0.048868 0.000000 0.000000
# 5 0.000000 0.000000 0.000000 0.000000 -0.012660 0.000000
# 6 0.000000 0.000000 0.000000 0.000000 0.000000 0.048946
#
#
# Mechanical properties :
#
#
# Convention : Reuss Voigt Hill
#
# Bulk Modulus (GPa) = 6.16777 62.19953 34.18365
# Shear Modulus (GPa) = 14.07023 8.30599 11.18811
#
# Velocity S-wave (km/s) = 2.69552 2.07104 2.40365
# Velocity P-wave (km/s) = 3.58787 6.15132 5.03545
#
# Compressibility (1/GPa) = 0.16213319
#
# Stress axis : x y z
#
# Youngs Moduli (GPa) = 116.28331 5.81194 117.81408
#
# Poissons Ratio (x) = 0.02590 0.53094
# Poissons Ratio (y) = 0.51811 0.53545
# Poissons Ratio (z) = 0.52404 0.02641
#
# Static dielectric constant tensor:
#      x y z
#    x 1.657840 0.000000 0.000000 
#    y 0.000000 1.678700 0.000000 
#    z 0.000000 0.000000 1.658260 
# 
# From -- ./inp_files/33065.got.cif
#   From: 2010.05.17/outbox.cif.g08.bks.cpg/sg59_17_cif.got.tgz:33065.got - 2010.06.03 14:40:33.
