data_PCOD9450644
_publ_section_title
;
Structure prediction by ZEFSAII (Michael W. Deem and Ramdas Pophale) SiO2 
 PCOD9450644
Probable space group: P M M N
;
_chemical_formula_sum "Si O2"
_cell_formula_units_Z 64
_cell_length_a 14.743962
_cell_length_b 8.635952
_cell_length_c 24.877003
_cell_angle_alpha 90.000000
_cell_angle_beta 90.000000
_cell_angle_gamma 90.000000
_cell_volume 3167.542723
_symmetry_space_group_name_H-M "P M M N"
_symmetry_group_IT_number 59
_space_group.IT_coordinate_system_code '2'
_symmetry_cell_setting 'orthorhombic'
loop_
_space_group_symop_operation_xyz
x,y,z
1/2-x,1/2-y,z
1/2+x,-y,-z
-x,1/2+y,-z
-x,-y,-z
1/2+x,1/2+y,-z
1/2-x,y,z
x,1/2-y,z
loop_
_atom_site_type_symbol
_atom_site_label
_atom_site_fract_x
_atom_site_fract_y
_atom_site_fract_z
Si Si1 0.348176 0.933148 0.768720
Si Si2 0.648067 0.571947 0.113811
Si Si3 0.354726 0.932679 0.591198
Si Si4 0.461945 0.936623 0.258600
Si Si5 0.517299 0.928718 0.941573
Si Si6 0.539197 0.067363 0.623736
Si Si7 0.145049 0.936908 0.150306
Si Si8 0.856988 0.927615 0.523795
O O1 0.250000 0.959697 0.741229
O O2 0.352662 0.750000 0.780885
O O3 0.347821 0.031420 0.823521
O O4 0.439912 0.984270 0.740995
O O5 0.750000 0.557627 0.091828
O O6 0.617355 0.750000 0.106492
O O7 0.578061 0.455234 0.088084
O O8 0.250000 0.980383 0.601336
O O9 0.362458 0.750000 0.602833
O O10 0.432609 0.025114 0.621892
O O11 0.372884 0.965146 0.527968
O O12 0.472968 0.750000 0.255370
O O13 0.420892 0.971004 0.317273
O O14 0.406287 0.985890 0.205470
O O15 0.540607 0.750000 0.947413
O O16 0.591570 0.006157 0.902420
O O17 0.500000 0.000000 0.000000
O O18 0.550350 0.250000 0.614873
O O19 0.586754 0.977297 0.575480
O O20 0.250000 0.987694 0.150411
O O21 0.143840 0.750000 0.149962
O O22 0.750000 0.936706 0.536344
O O23 0.878461 0.750000 0.508682
#
# Coordination Sequence:
#
# PCOD9450644 Si02
#       8
#     8   8   8   8   8   8   8   8
#     4  10  20  34  56  86 117 151 190 235 291 352
#     4  10  20  36  60  88 119 153 190 236 289 348
#     4  10  21  38  60  85 116 157 201 248 305 367
#     4  10  22  39  60  86 119 161 205 247 296 354
#     4  12  25  41  64  93 125 160 199 247 300 356
#     4  11  23  37  57  87 121 158 201 251 300 356
#     4  10  22  43  68  91 120 161 207 253 300 353
#     4  10  21  38  60  85 115 153 198 251 308 365
#
# _framework density 20.204937000000001
#
# number of rings (size 3 to 8) (size 9 to 14) (size 15 to 20)
#    0.000    1.625    1.250    3.375    0.000    5.750 
#    0.000    3.750    0.000    0.000    0.000    0.000 
#    0.000    0.000    0.000    0.000    0.000    0.000 
#
# Total GULP energy -357385.084904 kJ/mol
# GULP energy per Si atom -5584.141952 kJ/mol
# Density = 2.015895 g / cm^3
# Si number density = 20.204937 Si / 1000 Ang^3
#
#
#
# Elastic Constant Matrix: (Units=GPa)
#
#
# Indices 1 2 3 4 5 6 
#
# 1 77.5117 14.3056 38.0562 0.0000 0.0000 0.0000
# 2 14.3056 32.3801 6.9283 0.0000 0.0000 0.0000
# 3 38.0562 6.9283 88.5925 0.0000 0.0000 0.0000
# 4 0.0000 0.0000 0.0000 21.6234 0.0000 0.0000
# 5 0.0000 0.0000 0.0000 0.0000 1.3599 0.0000
# 6 0.0000 0.0000 0.0000 0.0000 0.0000 23.6645
#
#
#
# Elastic Compliance Matrix: (Units=1/GPa)
#
#
# Indices 1 2 3 4 5 6 
#
# 1 0.017503 -0.006228 -0.007032 0.000000 0.000000 0.000000
# 2 -0.006228 0.033625 0.000046 0.000000 0.000000 0.000000
# 3 -0.007032 0.000046 0.014305 0.000000 0.000000 0.000000
# 4 0.000000 0.000000 0.000000 0.046246 0.000000 0.000000
# 5 0.000000 0.000000 0.000000 0.000000 0.735351 0.000000
# 6 0.000000 0.000000 0.000000 0.000000 0.000000 0.042257
#
#
# Mechanical properties :
#
#
# Convention : Reuss Voigt Hill
#
# Bulk Modulus (GPa) = 25.63806 35.22940 30.43373
# Shear Modulus (GPa) = 5.38377 18.60918 11.99647
#
# Velocity S-wave (km/s) = 1.63413 3.03813 2.43932
# Velocity P-wave (km/s) = 4.03448 5.45718 4.79885
#
# Compressibility (1/GPa) = 0.03900451
#
# Stress axis : x y z
#
# Youngs Moduli (GPa) = 57.13261 29.73969 69.90757
#
# Poissons Ratio (x) = 0.18523 0.49157
# Poissons Ratio (y) = 0.35584 -0.00321
# Poissons Ratio (z) = 0.40174 -0.00136
#
# Static dielectric constant tensor:
#      x y z
#    x 1.737010 0.000000 0.000000 
#    y 0.000000 1.685490 0.000000 
#    z 0.000000 0.000000 1.738650 
# 
# From -- ./inp_files/32255.got.cif
#   From: 2010.05.17/outbox.cif.g08.bks.cpg/sg59_17_cif.got.tgz:32255.got - 2010.06.03 14:40:33.
