data_PCOD9450541
_publ_section_title
;
Structure prediction by ZEFSAII (Michael W. Deem and Ramdas Pophale) SiO2 
 PCOD9450541
Probable space group: P M M N
;
_chemical_formula_sum "Si O2"
_cell_formula_units_Z 48
_cell_length_a 8.970215
_cell_length_b 9.342204
_cell_length_c 32.081514
_cell_angle_alpha 90.000000
_cell_angle_beta 90.000000
_cell_angle_gamma 90.000000
_cell_volume 2688.481512
_symmetry_space_group_name_H-M "P M M N"
_symmetry_group_IT_number 59
_space_group.IT_coordinate_system_code '2'
_symmetry_cell_setting 'orthorhombic'
loop_
_space_group_symop_operation_xyz
x,y,z
1/2-x,1/2-y,z
1/2+x,-y,-z
-x,1/2+y,-z
-x,-y,-z
1/2+x,1/2+y,-z
1/2-x,y,z
x,1/2-y,z
loop_
_atom_site_type_symbol
_atom_site_label
_atom_site_fract_x
_atom_site_fract_y
_atom_site_fract_z
Si Si1 0.430158 0.081942 0.882703
Si Si2 0.429468 0.583119 0.369065
Si Si3 0.571143 0.580871 0.960687
Si Si4 0.571682 0.419383 0.538514
Si Si5 0.574918 0.421849 0.292653
Si Si6 0.068536 0.584810 0.799975
O O1 0.250000 0.068362 0.886451
O O2 0.466650 0.250000 0.885652
O O3 0.506699 0.992389 0.919239
O O4 0.475203 0.016168 0.838027
O O5 0.250000 0.577098 0.368683
O O6 0.472364 0.750000 0.364898
O O7 0.478805 0.532255 0.415208
O O8 0.492114 0.494497 0.330777
O O9 0.750000 0.567035 0.961965
O O10 0.534501 0.750000 0.961711
O O11 0.500000 0.500000 0.000000
O O12 0.500000 0.500000 0.500000
O O13 0.750000 0.437249 0.536706
O O14 0.540335 0.250000 0.535704
O O15 0.750000 0.458400 0.295320
O O16 0.562277 0.250000 0.295018
O O17 0.519393 0.462614 0.246218
O O18 0.250000 0.586137 0.798622
O O19 0.021912 0.750000 0.807157
#
# Coordination Sequence:
#
# PCOD9450541 Si02
#       6
#     8   8   8   8   8   8
#     4  10  20  34  55  83 110 137 173 214 256 304
#     4   9  19  35  51  69  98 134 168 203 248 302
#     4  11  24  40  58  81 108 139 176 215 256 305
#     4   9  19  35  52  71  97 128 163 205 251 300
#     4   9  18  32  51  77 105 132 168 212 253 297
#     4   8  15  30  51  74 103 138 172 208 252 299
#
# _framework density 17.853943999999998
#
# number of rings (size 3 to 8) (size 9 to 14) (size 15 to 20)
#    0.000    2.667    0.000    3.500    0.000    7.333 
#    0.000    7.500    0.000    1.000    0.000    0.000 
#    0.000    0.000    0.000    0.000    0.000    0.000 
#
# Total GULP energy -267689.140084 kJ/mol
# GULP energy per Si atom -5576.857085 kJ/mol
# Density = 1.781331 g / cm^3
# Si number density = 17.853944 Si / 1000 Ang^3
#
#
#
# Elastic Constant Matrix: (Units=GPa)
#
#
# Indices 1 2 3 4 5 6 
#
# 1 25.0301 42.7191 52.5273 0.0000 0.0000 0.0000
# 2 42.7191 92.9710 95.3629 0.0000 0.0000 0.0000
# 3 52.5273 95.3629 206.9432 0.0000 0.0000 0.0000
# 4 0.0000 0.0000 0.0000 40.5318 0.0000 0.0000
# 5 0.0000 0.0000 0.0000 0.0000 31.3724 0.0000
# 6 0.0000 0.0000 0.0000 0.0000 0.0000 28.4838
#
#
#
# Elastic Compliance Matrix: (Units=1/GPa)
#
#
# Indices 1 2 3 4 5 6 
#
# 1 0.212489 -0.080242 -0.016958 0.000000 0.000000 0.000000
# 2 -0.080242 0.050699 -0.002996 0.000000 0.000000 0.000000
# 3 -0.016958 -0.002996 0.010517 0.000000 0.000000 0.000000
# 4 0.000000 0.000000 0.000000 0.024672 0.000000 0.000000
# 5 0.000000 0.000000 0.000000 0.000000 0.031875 0.000000
# 6 0.000000 0.000000 0.000000 0.000000 0.000000 0.035108
#
#
# Mechanical properties :
#
#
# Convention : Reuss Voigt Hill
#
# Bulk Modulus (GPa) = 13.63997 78.46256 46.05126
# Shear Modulus (GPa) = 8.47186 29.03327 18.75256
#
# Velocity S-wave (km/s) = 2.18069 4.03694 3.24440
# Velocity P-wave (km/s) = 3.74124 8.10996 6.31539
#
# Compressibility (1/GPa) = 0.07331392
#
# Stress axis : x y z
#
# Youngs Moduli (GPa) = 4.70612 19.72428 95.08393
#
# Poissons Ratio (x) = 1.58272 1.61244
# Poissons Ratio (y) = 0.37763 0.28483
# Poissons Ratio (z) = 0.07981 0.05908
#
# Static dielectric constant tensor:
#      x y z
#    x 1.602350 0.000000 0.000000 
#    y 0.000000 1.590480 0.000000 
#    z 0.000000 0.000000 1.607820 
# 
# From -- ./inp_files/33257.got.cif
#   From: 2010.05.17/outbox.cif.g08.bks.cpg/sg59_17_cif.got.tgz:33257.got - 2010.06.03 14:40:33.
