data_PCOD9450620
_publ_section_title
;
Structure prediction by ZEFSAII (Michael W. Deem and Ramdas Pophale) SiO2 
 PCOD9450620
Probable space group: P M M N
;
_chemical_formula_sum "Si O2"
_cell_formula_units_Z 56
_cell_length_a 14.269856
_cell_length_b 14.177729
_cell_length_c 12.121306
_cell_angle_alpha 90.000000
_cell_angle_beta 90.000000
_cell_angle_gamma 90.000000
_cell_volume 2452.311735
_symmetry_space_group_name_H-M "P M M N"
_symmetry_group_IT_number 59
_space_group.IT_coordinate_system_code '2'
_symmetry_cell_setting 'orthorhombic'
loop_
_space_group_symop_operation_xyz
x,y,z
1/2-x,1/2-y,z
1/2+x,-y,-z
-x,1/2+y,-z
-x,-y,-z
1/2+x,1/2+y,-z
1/2-x,y,z
x,1/2-y,z
loop_
_atom_site_type_symbol
_atom_site_label
_atom_site_fract_x
_atom_site_fract_y
_atom_site_fract_z
Si Si1 0.565476 0.436877 0.180592
Si Si2 0.144483 0.085549 0.185277
Si Si3 0.852706 0.361655 0.631935
Si Si4 0.361363 0.142264 0.438129
Si Si5 0.640695 0.478683 0.410823
Si Si6 0.150365 0.893357 0.041088
Si Si7 0.988998 0.852964 0.189357
O O1 0.464113 0.388465 0.157037
O O2 0.590485 0.429381 0.308822
O O3 0.567290 0.551850 0.167624
O O4 0.637379 0.402410 0.089297
O O5 0.250000 0.130908 0.168591
O O6 0.134502 0.088550 0.319705
O O7 0.150359 0.992511 0.108611
O O8 0.750000 0.391919 0.678201
O O9 0.849505 0.250000 0.617522
O O10 0.862563 0.411041 0.515691
O O11 0.939459 0.378471 0.711728
O O12 0.250000 0.149546 0.459084
O O13 0.398516 0.250000 0.431602
O O14 0.398437 0.077515 0.538587
O O15 0.750000 0.493205 0.379636
O O16 0.250000 0.849148 0.066701
O O17 0.059138 0.844363 0.087337
O O18 0.943803 0.750000 0.209443
#
# Coordination Sequence:
#
# PCOD9450620 Si02
#       7
#     8   8   8   8   8   8   8
#     4  11  22  36  54  81 113 148 185 221 270 343
#     4   9  18  34  56  78 101 134 177 228 278 317
#     4   9  18  34  57  84 111 141 184 237 288 337
#     4   9  18  33  54  80 108 141 185 231 272 322
#     4  10  20  35  55  79 113 154 187 221 274 337
#     4  10  20  37  59  80 107 144 185 228 278 337
#     4  10  20  34  56  84 110 140 184 239 290 332
#
# _framework density 22.835597
#
# number of rings (size 3 to 8) (size 9 to 14) (size 15 to 20)
#    0.000    2.286    0.000    4.286    0.000    7.714 
#    0.000    5.714    0.000    3.857    0.000    0.000 
#    0.000    0.000    0.000    0.000    0.000    0.000 
#
# Total GULP energy -311779.037512 kJ/mol
# GULP energy per Si atom -5567.482813 kJ/mol
# Density = 2.278362 g / cm^3
# Si number density = 22.835597 Si / 1000 Ang^3
#
#
#
# Elastic Constant Matrix: (Units=GPa)
#
#
# Indices 1 2 3 4 5 6 
#
# 1 63.2652 6.0807 21.3948 0.0000 0.0000 0.0000
# 2 6.0807 22.3264 19.4189 0.0000 0.0000 0.0000
# 3 21.3948 19.4189 113.5576 0.0000 0.0000 0.0000
# 4 0.0000 0.0000 0.0000 0.1477 0.0000 0.0000
# 5 0.0000 0.0000 0.0000 0.0000 44.4291 0.0000
# 6 0.0000 0.0000 0.0000 0.0000 0.0000 18.9656
#
#
#
# Elastic Compliance Matrix: (Units=1/GPa)
#
#
# Indices 1 2 3 4 5 6 
#
# 1 0.016971 -0.002163 -0.002827 0.000000 0.000000 0.000000
# 2 -0.002163 0.052892 -0.008637 0.000000 0.000000 0.000000
# 3 -0.002827 -0.008637 0.010816 0.000000 0.000000 0.000000
# 4 0.000000 0.000000 0.000000 6.771370 0.000000 0.000000
# 5 0.000000 0.000000 0.000000 0.000000 0.022508 0.000000
# 6 0.000000 0.000000 0.000000 0.000000 0.000000 0.052727
#
#
# Mechanical properties :
#
#
# Convention : Reuss Voigt Hill
#
# Bulk Modulus (GPa) = 18.71854 32.54867 25.63360
# Shear Modulus (GPa) = 0.71712 22.85878 11.78795
#
# Velocity S-wave (km/s) = 0.56100 3.16731 2.27449
# Velocity P-wave (km/s) = 2.93845 5.25930 4.25997
#
# Compressibility (1/GPa) = 0.05342297
#
# Stress axis : x y z
#
# Youngs Moduli (GPa) = 58.92562 18.90661 92.45707
#
# Poissons Ratio (x) = 0.04089 0.26142
# Poissons Ratio (y) = 0.12744 0.79858
# Poissons Ratio (z) = 0.16661 0.16330
#
# Static dielectric constant tensor:
#      x y z
#    x 1.887890 0.000000 0.000000 
#    y 0.000000 2.024140 0.000000 
#    z 0.000000 0.000000 1.833020 
# 
# From -- ./inp_files/16910.got.cif
#   From: 2010.05.17/outbox.cif.g08.bks.cpg/sg59_9_cif.got.tgz:16910.got - 2010.06.03 14:40:33.
