data_PCOD9450916
_publ_section_title
;
Structure prediction by ZEFSAII (Michael W. Deem and Ramdas Pophale) SiO2 
 PCOD9450916
Probable space group: P M M N
;
_chemical_formula_sum "Si O2"
_cell_formula_units_Z 48
_cell_length_a 18.852387
_cell_length_b 7.985105
_cell_length_c 15.098609
_cell_angle_alpha 90.000000
_cell_angle_beta 90.000000
_cell_angle_gamma 90.000000
_cell_volume 2272.918776
_symmetry_space_group_name_H-M "P M M N"
_symmetry_group_IT_number 59
_space_group.IT_coordinate_system_code '2'
_symmetry_cell_setting 'orthorhombic'
loop_
_space_group_symop_operation_xyz
x,y,z
1/2-x,1/2-y,z
1/2+x,-y,-z
-x,1/2+y,-z
-x,-y,-z
1/2+x,1/2+y,-z
1/2-x,y,z
x,1/2-y,z
loop_
_atom_site_type_symbol
_atom_site_label
_atom_site_fract_x
_atom_site_fract_y
_atom_site_fract_z
Si Si1 0.938371 0.555753 0.615871
Si Si2 0.896702 0.554933 0.928306
Si Si3 0.171256 0.451438 0.526433
Si Si4 0.329333 0.555313 0.243680
Si Si5 0.586847 0.048924 0.310977
Si Si6 0.054600 0.050546 0.884494
O O1 0.951420 0.750000 0.593422
O O2 0.891373 0.479959 0.536700
O O3 0.887809 0.544061 0.701313
O O4 0.014258 0.481806 0.642532
O O5 0.877182 0.750000 0.926227
O O6 0.846774 0.460524 0.859927
O O7 0.977533 0.534128 0.893308
O O8 0.899665 0.496328 0.030147
O O9 0.250000 0.514203 0.503229
O O10 0.172260 0.250000 0.515443
O O11 0.150877 0.492975 0.626831
O O12 0.250000 0.494439 0.262574
O O13 0.334624 0.750000 0.269206
O O14 0.583612 0.250000 0.308532
O O15 0.587857 0.986755 0.210401
O O16 0.043083 0.250000 0.893325
#
# Coordination Sequence:
#
# PCOD9450916 Si02
#       6
#     8   8   8   8   8   8
#     4  10  21  38  60  86 114 150 195 240 290 348
#     4  10  20  35  56  83 113 149 191 233 284 341
#     4  10  22  40  60  82 113 155 197 238 290 348
#     4  11  23  36  54  84 120 157 195 239 293 347
#     4  11  22  36  59  90 118 149 193 241 290 345
#     4  10  20  35  58  85 114 148 188 236 284 335
#
# _framework density 21.118220000000001
#
# number of rings (size 3 to 8) (size 9 to 14) (size 15 to 20)
#    0.000    1.667    1.667    3.000    0.000    5.667 
#    0.000    0.833    0.000    1.000    0.000    0.000 
#    0.000    0.000    0.000    0.000    0.000    0.000 
#
# Total GULP energy -268180.671969 kJ/mol
# GULP energy per Si atom -5587.097333 kJ/mol
# Density = 2.107015 g / cm^3
# Si number density = 21.118220 Si / 1000 Ang^3
#
#
#
# Elastic Constant Matrix: (Units=GPa)
#
#
# Indices 1 2 3 4 5 6 
#
# 1 36.3012 -4.8515 8.0299 0.0000 0.0000 0.0000
# 2 -4.8515 24.8703 -8.6224 0.0000 0.0000 0.0000
# 3 8.0299 -8.6224 114.0223 0.0000 0.0000 0.0000
# 4 0.0000 0.0000 0.0000 22.0755 0.0000 0.0000
# 5 0.0000 0.0000 0.0000 0.0000 -7.9608 0.0000
# 6 0.0000 0.0000 0.0000 0.0000 0.0000 1.2326
#
#
#
# Elastic Compliance Matrix: (Units=1/GPa)
#
#
# Indices 1 2 3 4 5 6 
#
# 1 0.028578 0.005008 -0.001634 0.000000 0.000000 0.000000
# 2 0.005008 0.042169 0.002836 0.000000 0.000000 0.000000
# 3 -0.001634 0.002836 0.009100 0.000000 0.000000 0.000000
# 4 0.000000 0.000000 0.000000 0.045299 0.000000 0.000000
# 5 0.000000 0.000000 0.000000 0.000000 -0.125616 0.000000
# 6 0.000000 0.000000 0.000000 0.000000 0.000000 0.811265
#
#
# Mechanical properties :
#
#
# Convention : Reuss Voigt Hill
#
# Bulk Modulus (GPa) = 10.83802 18.25622 14.54712
# Shear Modulus (GPa) = 6.03042 15.11198 10.57120
#
# Velocity S-wave (km/s) = 1.69167 2.67795 2.23977
# Velocity P-wave (km/s) = 2.99314 4.26913 3.68676
#
# Compressibility (1/GPa) = 0.09226774
#
# Stress axis : x y z
#
# Youngs Moduli (GPa) = 34.99185 23.71420 109.89326
#
# Poissons Ratio (x) = -0.11877 0.17955
# Poissons Ratio (y) = -0.17525 -0.31167
# Poissons Ratio (z) = 0.05717 -0.06726
#
# Static dielectric constant tensor:
#      x y z
#    x 1.744460 0.000000 0.000000 
#    y 0.000000 1.748910 0.000000 
#    z 0.000000 0.000000 1.778010 
# 
# From -- ./inp_files/20380.got.cif
#   From: 2010.05.17/outbox.cif.g08.bks.cpg/sg59_11_cif.got.tgz:20380.got - 2010.06.03 14:40:33.
