data_PCOD9450218
_publ_section_title
;
Structure prediction by ZEFSAII (Michael W. Deem and Ramdas Pophale) SiO2 
 PCOD9450218
Probable space group: P M M N
;
_chemical_formula_sum "Si O2"
_cell_formula_units_Z 56
_cell_length_a 8.827170
_cell_length_b 14.524394
_cell_length_c 23.617754
_cell_angle_alpha 90.000000
_cell_angle_beta 90.000000
_cell_angle_gamma 90.000000
_cell_volume 3028.015589
_symmetry_space_group_name_H-M "P M M N"
_symmetry_group_IT_number 59
_space_group.IT_coordinate_system_code '2'
_symmetry_cell_setting 'orthorhombic'
loop_
_space_group_symop_operation_xyz
x,y,z
1/2-x,1/2-y,z
1/2+x,-y,-z
-x,1/2+y,-z
-x,-y,-z
1/2+x,1/2+y,-z
1/2-x,y,z
x,1/2-y,z
loop_
_atom_site_type_symbol
_atom_site_label
_atom_site_fract_x
_atom_site_fract_y
_atom_site_fract_z
Si Si1 0.933217 0.538923 0.856230
Si Si2 0.432847 0.643389 0.748939
Si Si3 0.431141 0.643732 0.406173
Si Si4 0.428292 0.359574 0.028668
Si Si5 0.072595 0.140439 0.470676
Si Si6 0.932247 0.354179 0.908106
Si Si7 0.568447 0.034841 0.364481
O O1 0.750000 0.543922 0.852493
O O2 0.978919 0.588873 0.914803
O O3 0.979455 0.432291 0.863783
O O4 0.002872 0.590037 0.802893
O O5 0.250000 0.642788 0.751504
O O6 0.482847 0.750000 0.748416
O O7 0.477641 0.591277 0.691331
O O8 0.250000 0.635635 0.405152
O O9 0.471928 0.750000 0.393364
O O10 0.490871 0.623243 0.469584
O O11 0.505092 0.568681 0.365396
O O12 0.250000 0.379314 0.020230
O O13 0.445149 0.250000 0.037713
O O14 0.515151 0.382565 0.971027
O O15 0.250000 0.116505 0.475680
O O16 0.060623 0.250000 0.459480
O O17 0.997640 0.085476 0.419633
O O18 0.750000 0.352137 0.908081
O O19 0.987994 0.250000 0.897292
O O20 0.750000 0.033542 0.367825
#
# Coordination Sequence:
#
# PCOD9450218 Si02
#       7
#     8   8   8   8   8   8   8
#     4  10  20  34  53  76 104 139 176 216 262 309
#     4  10  23  41  58  78 104 135 173 216 262 313
#     4  10  21  37  57  82 112 144 179 220 265 315
#     4   9  17  29  47  74 105 135 170 214 264 314
#     4  10  20  34  55  84 115 146 181 221 267 320
#     4   9  18  32  50  75 106 138 173 213 257 307
#     4  11  22  37  57  79 108 144 180 222 270 319
#
# _framework density 18.493959
#
# number of rings (size 3 to 8) (size 9 to 14) (size 15 to 20)
#    0.000    2.143    0.000    3.000    0.000    5.429 
#    0.000    2.143    0.000    2.571    0.000    0.000 
#    0.000    0.000    0.000    0.000    0.000    0.000 
#
# Total GULP energy -312717.948355 kJ/mol
# GULP energy per Si atom -5584.249078 kJ/mol
# Density = 1.845187 g / cm^3
# Si number density = 18.493959 Si / 1000 Ang^3
#
#
#
# Elastic Constant Matrix: (Units=GPa)
#
#
# Indices 1 2 3 4 5 6 
#
# 1 30.1783 40.8101 26.3297 0.0000 0.0000 0.0000
# 2 40.8101 137.3695 96.7942 0.0000 0.0000 0.0000
# 3 26.3297 96.7942 88.8104 0.0000 0.0000 0.0000
# 4 0.0000 0.0000 0.0000 33.5249 0.0000 0.0000
# 5 0.0000 0.0000 0.0000 0.0000 28.9264 0.0000
# 6 0.0000 0.0000 0.0000 0.0000 0.0000 27.0945
#
#
#
# Elastic Compliance Matrix: (Units=1/GPa)
#
#
# Indices 1 2 3 4 5 6 
#
# 1 0.056279 -0.021388 0.006626 0.000000 0.000000 0.000000
# 2 -0.021388 0.039502 -0.036712 0.000000 0.000000 0.000000
# 3 0.006626 -0.036712 0.049308 0.000000 0.000000 0.000000
# 4 0.000000 0.000000 0.000000 0.029829 0.000000 0.000000
# 5 0.000000 0.000000 0.000000 0.000000 0.034570 0.000000
# 6 0.000000 0.000000 0.000000 0.000000 0.000000 0.036908
#
#
# Mechanical properties :
#
#
# Convention : Reuss Voigt Hill
#
# Bulk Modulus (GPa) = 23.73047 64.91403 44.32225
# Shear Modulus (GPa) = 13.75925 24.07076 18.91500
#
# Velocity S-wave (km/s) = 2.73057 3.61161 3.20154
# Velocity P-wave (km/s) = 4.77501 7.25038 6.13876
#
# Compressibility (1/GPa) = 0.04213992
#
# Stress axis : x y z
#
# Youngs Moduli (GPa) = 17.76869 25.31504 20.28063
#
# Poissons Ratio (x) = 0.54145 -0.13438
# Poissons Ratio (y) = 0.38004 0.74455
# Poissons Ratio (z) = -0.11774 0.92937
#
# Static dielectric constant tensor:
#      x y z
#    x 1.623220 0.000000 0.000000 
#    y 0.000000 1.673400 0.000000 
#    z 0.000000 0.000000 1.592280 
# 
# From -- ./inp_files/28986.got.cif
#   From: 2010.05.17/outbox.cif.g08.bks.cpg/sg59_15_cif.got.tgz:28986.got - 2010.06.03 14:40:33.
