data_PCOD9450525
_publ_section_title
;
Structure prediction by ZEFSAII (Michael W. Deem and Ramdas Pophale) SiO2 
 PCOD9450525
Probable space group: P M M N
;
_chemical_formula_sum "Si O2"
_cell_formula_units_Z 56
_cell_length_a 19.558959
_cell_length_b 8.916113
_cell_length_c 18.285439
_cell_angle_alpha 90.000000
_cell_angle_beta 90.000000
_cell_angle_gamma 90.000000
_cell_volume 3188.795670
_symmetry_space_group_name_H-M "P M M N"
_symmetry_group_IT_number 59
_space_group.IT_coordinate_system_code '2'
_symmetry_cell_setting 'orthorhombic'
loop_
_space_group_symop_operation_xyz
x,y,z
1/2-x,1/2-y,z
1/2+x,-y,-z
-x,1/2+y,-z
-x,-y,-z
1/2+x,1/2+y,-z
1/2-x,y,z
x,1/2-y,z
loop_
_atom_site_type_symbol
_atom_site_label
_atom_site_fract_x
_atom_site_fract_y
_atom_site_fract_z
Si Si1 0.579590 0.930964 0.864022
Si Si2 0.573807 0.070020 0.707796
Si Si3 0.328951 0.069000 0.998038
Si Si4 0.078872 0.570533 0.872711
Si Si5 0.331142 0.428014 0.581542
Si Si6 0.329909 0.570235 0.427303
Si Si7 0.074914 0.929534 0.704388
O O1 0.581315 0.750000 0.855751
O O2 0.501028 0.971326 0.884163
O O3 0.595922 0.005010 0.786279
O O4 0.631280 0.975920 0.927996
O O5 0.570138 0.250000 0.711839
O O6 0.625077 0.028150 0.642573
O O7 0.499089 0.002945 0.692063
O O8 0.250000 0.019314 0.997673
O O9 0.329683 0.250000 0.995620
O O10 0.371197 0.007763 0.929423
O O11 0.083989 0.750000 0.881612
O O12 0.095399 0.533892 0.788172
O O13 0.250000 0.457494 0.589205
O O14 0.342251 0.250000 0.585077
O O15 0.352029 0.489851 0.501947
O O16 0.372326 0.508700 0.645521
O O17 0.250000 0.534572 0.414615
O O18 0.335374 0.750000 0.437604
O O19 0.069015 0.750000 0.699393
#
# Coordination Sequence:
#
# PCOD9450525 Si02
#       7
#     8   8   8   8   8   8   8
#     4   9  19  36  54  74 104 139 173 209 256 314
#     4  10  20  34  55  82 107 134 174 221 263 305
#     4  10  21  35  52  77 107 137 170 211 259 308
#     4   9  19  35  54  75  99 133 175 213 252 303
#     4  10  21  36  55  80 107 137 177 220 260 307
#     4   9  19  36  55  76 106 142 176 212 260 316
#     4  10  21  37  56  78 106 140 176 215 264 318
#
# _framework density 17.561488000000001
#
# number of rings (size 3 to 8) (size 9 to 14) (size 15 to 20)
#    0.000    2.429    0.000    2.571    0.000    7.429 
#    0.000    2.857    0.000    0.000    0.000    0.000 
#    0.000    0.000    0.000    0.000    0.000    0.000 
#
# Total GULP energy -312533.366608 kJ/mol
# GULP energy per Si atom -5580.952975 kJ/mol
# Density = 1.752152 g / cm^3
# Si number density = 17.561488 Si / 1000 Ang^3
#
#
#
# Elastic Constant Matrix: (Units=GPa)
#
#
# Indices 1 2 3 4 5 6 
#
# 1 102.6951 48.7597 112.8390 0.0000 0.0000 0.0000
# 2 48.7597 36.1937 61.7201 0.0000 0.0000 0.0000
# 3 112.8390 61.7201 167.3522 0.0000 0.0000 0.0000
# 4 0.0000 0.0000 0.0000 33.9838 0.0000 0.0000
# 5 0.0000 0.0000 0.0000 0.0000 145.8110 0.0000
# 6 0.0000 0.0000 0.0000 0.0000 0.0000 24.0259
#
#
#
# Elastic Compliance Matrix: (Units=1/GPa)
#
#
# Indices 1 2 3 4 5 6 
#
# 1 0.043837 -0.023318 -0.020958 0.000000 0.000000 0.000000
# 2 -0.023318 0.086857 -0.016311 0.000000 0.000000 0.000000
# 3 -0.020958 -0.016311 0.026122 0.000000 0.000000 0.000000
# 4 0.000000 0.000000 0.000000 0.029426 0.000000 0.000000
# 5 0.000000 0.000000 0.000000 0.000000 0.006858 0.000000
# 6 0.000000 0.000000 0.000000 0.000000 0.000000 0.041622
#
#
# Mechanical properties :
#
#
# Convention : Reuss Voigt Hill
#
# Bulk Modulus (GPa) = 28.05601 83.65321 55.85461
# Shear Modulus (GPa) = 13.59525 46.29226 29.94375
#
# Velocity S-wave (km/s) = 2.78538 5.13978 4.13374
# Velocity P-wave (km/s) = 5.13371 9.10829 7.39310
#
# Compressibility (1/GPa) = 0.03564298
#
# Stress axis : x y z
#
# Youngs Moduli (GPa) = 22.81198 11.51314 38.28187
#
# Poissons Ratio (x) = 0.26846 0.80230
# Poissons Ratio (y) = 0.53192 0.62442
# Poissons Ratio (z) = 0.47809 0.18779
#
# Static dielectric constant tensor:
#      x y z
#    x 1.581890 0.000000 0.000000 
#    y 0.000000 1.587630 0.000000 
#    z 0.000000 0.000000 1.574480 
# 
# From -- ./inp_files/24182.got.cif
#   From: 2010.05.17/outbox.cif.g08.bks.cpg/sg59_13_cif.got.tgz:24182.got - 2010.06.03 14:40:33.
