data_PCOD9450047
_publ_section_title
;
Structure prediction by ZEFSAII (Michael W. Deem and Ramdas Pophale) SiO2 
 PCOD9450047
Probable space group: P M M N
;
_chemical_formula_sum "Si O2"
_cell_formula_units_Z 40
_cell_length_a 14.839547
_cell_length_b 21.012617
_cell_length_c 5.563192
_cell_angle_alpha 90.000000
_cell_angle_beta 90.000000
_cell_angle_gamma 90.000000
_cell_volume 1734.701832
_symmetry_space_group_name_H-M "P M M N"
_symmetry_group_IT_number 59
_space_group.IT_coordinate_system_code '2'
_symmetry_cell_setting 'orthorhombic'
loop_
_space_group_symop_operation_xyz
x,y,z
1/2-x,1/2-y,z
1/2+x,-y,-z
-x,1/2+y,-z
-x,-y,-z
1/2+x,1/2+y,-z
1/2-x,y,z
x,1/2-y,z
loop_
_atom_site_type_symbol
_atom_site_label
_atom_site_fract_x
_atom_site_fract_y
_atom_site_fract_z
Si Si1 0.094281 0.844059 0.857144
Si Si2 0.399880 0.116694 0.642258
Si Si3 0.882507 0.677520 0.858768
Si Si4 0.353633 0.971370 0.658994
Si Si5 0.113911 0.859346 0.358753
O O1 0.093888 0.921649 0.830286
O O2 0.139368 0.824897 0.606584
O O3 0.992030 0.821263 0.860710
O O4 0.141428 0.830344 0.107355
O O5 0.358880 0.143051 0.392511
O O6 0.504730 0.137888 0.643963
O O7 0.394966 0.040566 0.641379
O O8 0.358041 0.142934 0.890967
O O9 0.851071 0.750000 0.858251
O O10 0.250000 0.976487 0.737256
O O11 0.355486 0.931912 0.408088
#
# Coordination Sequence:
#
# PCOD9450047 Si02
#       5
#     8   8   8   8   8
#     4   8  18  31  51  76 103 130 169 215 263 307
#     4  10  20  33  55  79 107 133 174 222 262 303
#     4  10  20  35  56  78 100 135 181 222 256 297
#     4  10  21  33  52  81 113 139 166 208 274 328
#     4   8  17  31  49  74 102 133 163 209 258 307
#
# _framework density 23.058717000000001
#
# number of rings (size 3 to 8) (size 9 to 14) (size 15 to 20)
#    1.200    1.600    0.000    1.200    2.800    2.400 
#    0.000    0.000    0.000    4.200    0.000    0.000 
#    0.000    0.000    0.000    0.000    0.000    0.000 
#
# Total GULP energy -222804.766605 kJ/mol
# GULP energy per Si atom -5570.119165 kJ/mol
# Density = 2.300623 g / cm^3
# Si number density = 23.058717 Si / 1000 Ang^3
#
#
#
# Elastic Constant Matrix: (Units=GPa)
#
#
# Indices 1 2 3 4 5 6 
#
# 1 83.0773 0.8608 12.4768 0.0000 0.0000 0.0000
# 2 0.8608 112.1350 65.8673 0.0000 0.0000 0.0000
# 3 12.4768 65.8673 221.8350 0.0000 0.0000 0.0000
# 4 0.0000 0.0000 0.0000 -301.4229 0.0000 0.0000
# 5 0.0000 0.0000 0.0000 0.0000 -18.0429 0.0000
# 6 0.0000 0.0000 0.0000 0.0000 0.0000 -217.3152
#
#
#
# Elastic Compliance Matrix: (Units=1/GPa)
#
#
# Indices 1 2 3 4 5 6 
#
# 1 0.012152 0.000373 -0.000794 0.000000 0.000000 0.000000
# 2 0.000373 0.010813 -0.003232 0.000000 0.000000 0.000000
# 3 -0.000794 -0.003232 0.005512 0.000000 0.000000 0.000000
# 4 0.000000 0.000000 0.000000 -0.003318 0.000000 0.000000
# 5 0.000000 0.000000 0.000000 0.000000 -0.055424 0.000000
# 6 0.000000 0.000000 0.000000 0.000000 0.000000 -0.004602
#
#
# Mechanical properties :
#
#
# Convention : Reuss Voigt Hill
#
# Bulk Modulus (GPa) = 47.23152 63.93968 55.58560
# Shear Modulus (GPa) = -243.87511 -84.83338 -164.35425
#
# Velocity S-wave (km/s) = -10.29525 -6.07207 -8.45169
# Velocity P-wave (km/s) = 10.99070 4.62285 8.43108
#
# Compressibility (1/GPa) = 0.02117230
#
# Stress axis : x y z
#
# Youngs Moduli (GPa) = 82.28820 92.47947 181.41985
#
# Poissons Ratio (x) = -0.03452 0.14411
# Poissons Ratio (y) = -0.03072 0.58629
# Poissons Ratio (z) = 0.06536 0.29886
#
# Static dielectric constant tensor:
#      x y z
#    x 1.847610 0.000000 0.000000 
#    y 0.000000 1.807480 0.000000 
#    z 0.000000 0.000000 1.944650 
# 
# From -- ./inp_files/3264.got.cif
#   From: 2010.05.17/outbox.cif.g08.bks.cpg/sg59_2_cif.got.tgz:3264.got - 2010.06.03 14:40:33.
