data_PCOD9450463
_publ_section_title
;
Structure prediction by ZEFSAII (Michael W. Deem and Ramdas Pophale) SiO2 
 PCOD9450463
Probable space group: P M M N
;
_chemical_formula_sum "Si O2"
_cell_formula_units_Z 56
_cell_length_a 8.926712
_cell_length_b 23.119553
_cell_length_c 15.638746
_cell_angle_alpha 90.000000
_cell_angle_beta 90.000000
_cell_angle_gamma 90.000000
_cell_volume 3227.549284
_symmetry_space_group_name_H-M "P M M N"
_symmetry_group_IT_number 59
_space_group.IT_coordinate_system_code '2'
_symmetry_cell_setting 'orthorhombic'
loop_
_space_group_symop_operation_xyz
x,y,z
1/2-x,1/2-y,z
1/2+x,-y,-z
-x,1/2+y,-z
-x,-y,-z
1/2+x,1/2+y,-z
1/2-x,y,z
x,1/2-y,z
loop_
_atom_site_type_symbol
_atom_site_label
_atom_site_fract_x
_atom_site_fract_y
_atom_site_fract_z
Si Si1 0.571004 0.681425 0.314190
Si Si2 0.428564 0.890526 0.160316
Si Si3 0.577552 0.320182 0.506422
Si Si4 0.427435 0.180482 0.328264
Si Si5 0.572455 0.134504 0.156904
Si Si6 0.426021 0.182511 0.990043
Si Si7 0.927873 0.496296 0.094163
O O1 0.750000 0.674744 0.310502
O O2 0.537648 0.750000 0.301899
O O3 0.493663 0.644163 0.240763
O O4 0.509297 0.663685 0.407253
O O5 0.250000 0.893037 0.163626
O O6 0.497654 0.954284 0.151738
O O7 0.481446 0.856375 0.075573
O O8 0.750000 0.339606 0.508658
O O9 0.578092 0.250000 0.505223
O O10 0.496059 0.338236 0.419263
O O11 0.250000 0.169477 0.326174
O O12 0.449263 0.250000 0.320261
O O13 0.509085 0.150091 0.249511
O O14 0.750000 0.146502 0.152879
O O15 0.486290 0.171204 0.085002
O O16 0.548727 0.067383 0.132707
O O17 0.250000 0.167559 0.984679
O O18 0.442309 0.250000 0.967877
O O19 0.750000 0.506430 0.087172
O O20 0.000000 0.500000 0.000000
#
# Coordination Sequence:
#
# PCOD9450463 Si02
#       7
#     8   8   8   8   8   8   8
#     4  10  20  35  56  83 115 149 184 225 276 332
#     4  12  24  37  56  81 109 145 186 230 276 326
#     4   9  17  31  53  81 113 147 183 225 271 324
#     4  10  20  34  54  82 115 150 185 222 271 329
#     4  11  23  37  56  81 108 142 184 230 277 327
#     4  11  23  37  54  78 110 146 180 221 276 332
#     4  11  23  40  60  80 105 142 189 235 279 328
#
# _framework density 17.350626999999999
#
# number of rings (size 3 to 8) (size 9 to 14) (size 15 to 20)
#    0.000    1.429    1.429    4.714    0.000    9.714 
#    0.000    0.000    0.000    0.857    0.000    0.000 
#    0.000    0.000    0.000    0.000    0.000    0.000 
#
# Total GULP energy -312950.176304 kJ/mol
# GULP energy per Si atom -5588.396005 kJ/mol
# Density = 1.731114 g / cm^3
# Si number density = 17.350627 Si / 1000 Ang^3
#
#
#
# Elastic Constant Matrix: (Units=GPa)
#
#
# Indices 1 2 3 4 5 6 
#
# 1 112.3267 42.2972 37.8171 0.0000 0.0000 0.0000
# 2 42.2972 41.7062 15.1827 0.0000 0.0000 0.0000
# 3 37.8171 15.1827 100.8428 0.0000 0.0000 0.0000
# 4 0.0000 0.0000 0.0000 3.5981 0.0000 0.0000
# 5 0.0000 0.0000 0.0000 0.0000 38.5927 0.0000
# 6 0.0000 0.0000 0.0000 0.0000 0.0000 23.1883
#
#
#
# Elastic Compliance Matrix: (Units=1/GPa)
#
#
# Indices 1 2 3 4 5 6 
#
# 1 0.015587 -0.014473 -0.003666 0.000000 0.000000 0.000000
# 2 -0.014473 0.038806 -0.000415 0.000000 0.000000 0.000000
# 3 -0.003666 -0.000415 0.011354 0.000000 0.000000 0.000000
# 4 0.000000 0.000000 0.000000 0.277925 0.000000 0.000000
# 5 0.000000 0.000000 0.000000 0.000000 0.025912 0.000000
# 6 0.000000 0.000000 0.000000 0.000000 0.000000 0.043125
#
#
# Mechanical properties :
#
#
# Convention : Reuss Voigt Hill
#
# Bulk Modulus (GPa) = 34.91808 49.49662 42.20735
# Shear Modulus (GPa) = 10.88462 23.71441 17.29951
#
# Velocity S-wave (km/s) = 2.50738 3.70100 3.16104
# Velocity P-wave (km/s) = 5.34334 6.84488 6.14018
#
# Compressibility (1/GPa) = 0.02863846
#
# Stress axis : x y z
#
# Youngs Moduli (GPa) = 64.15685 25.76889 88.07641
#
# Poissons Ratio (x) = 0.37295 0.32290
# Poissons Ratio (y) = 0.92854 0.03656
# Poissons Ratio (z) = 0.23521 0.01070
#
# Static dielectric constant tensor:
#      x y z
#    x 1.577610 0.000000 0.000000 
#    y 0.000000 1.574380 0.000000 
#    z 0.000000 0.000000 1.565330 
# 
# From -- ./inp_files/21054.got.cif
#   From: 2010.05.17/outbox.cif.g08.bks.cpg/sg59_11_cif.got.tgz:21054.got - 2010.06.03 14:40:33.
