data_PCOD9450004
_publ_section_title
;
Structure prediction by ZEFSAII (Michael W. Deem and Ramdas Pophale) SiO2 
 PCOD9450004
Probable space group: P M M N
;
_chemical_formula_sum "Si O2"
_cell_formula_units_Z 64
_cell_length_a 14.955310
_cell_length_b 8.142612
_cell_length_c 25.148823
_cell_angle_alpha 90.000000
_cell_angle_beta 90.000000
_cell_angle_gamma 90.000000
_cell_volume 3062.505130
_symmetry_space_group_name_H-M "P M M N"
_symmetry_group_IT_number 59
_space_group.IT_coordinate_system_code '2'
_symmetry_cell_setting 'orthorhombic'
loop_
_space_group_symop_operation_xyz
x,y,z
1/2-x,1/2-y,z
1/2+x,-y,-z
-x,1/2+y,-z
-x,-y,-z
1/2+x,1/2+y,-z
1/2-x,y,z
x,1/2-y,z
loop_
_atom_site_type_symbol
_atom_site_label
_atom_site_fract_x
_atom_site_fract_y
_atom_site_fract_z
Si Si1 0.853078 0.940991 0.974071
Si Si2 0.153130 0.444722 0.629072
Si Si3 0.853722 0.451128 0.652090
Si Si4 0.037730 0.943878 0.126428
Si Si5 0.651874 0.440472 0.252784
Si Si6 0.515379 0.052572 0.560305
Si Si7 0.851541 0.441414 0.090475
Si Si8 0.046194 0.943748 0.240869
O O1 0.750000 0.974611 0.958906
O O2 0.860902 0.750000 0.989004
O O3 0.916010 0.977268 0.924622
O O4 0.872276 0.041135 0.027585
O O5 0.250000 0.460596 0.602487
O O6 0.141094 0.250000 0.642556
O O7 0.154796 0.543959 0.683404
O O8 0.072775 0.497695 0.592523
O O9 0.750000 0.500011 0.654850
O O10 0.856589 0.250000 0.652305
O O11 0.901858 0.505014 0.597224
O O12 0.908583 0.507954 0.704792
O O13 0.055024 0.750000 0.124248
O O14 0.074265 0.010520 0.182932
O O15 0.931330 0.972401 0.121517
O O16 0.750000 0.500788 0.233479
O O17 0.643461 0.250000 0.237072
O O18 0.560747 0.533432 0.240327
O O19 0.519829 0.250000 0.560025
O O20 0.500000 0.000000 0.500000
O O21 0.750000 0.505072 0.098237
O O22 0.852197 0.250000 0.104717
O O23 0.065802 0.750000 0.240657
#
# Coordination Sequence:
#
# PCOD9450004 Si02
#       8
#     8   8   8   8   8   8   8   8
#     4  10  21  38  60  84 114 152 193 239 289 343
#     4   9  17  32  54  76 102 138 177 217 263 324
#     4   9  18  36  60  82 107 144 189 232 274 323
#     4  11  23  36  56  85 116 149 190 241 290 340
#     4  10  20  33  53  81 109 138 174 222 278 330
#     4  10  20  34  54  81 111 143 180 225 276 331
#     4  10  21  38  60  84 114 153 193 236 288 346
#     4  10  21  38  58  81 109 148 193 233 275 330
#
# _framework density 20.897922000000001
#
# number of rings (size 3 to 8) (size 9 to 14) (size 15 to 20)
#    0.000    2.125    1.250    1.875    0.000    5.250 
#    0.000    3.750    0.000    1.125    0.000    0.000 
#    0.000    0.000    0.000    0.000    0.000    0.000 
#
# Total GULP energy -357072.627481 kJ/mol
# GULP energy per Si atom -5579.259804 kJ/mol
# Density = 2.085036 g / cm^3
# Si number density = 20.897922 Si / 1000 Ang^3
#
#
#
# Elastic Constant Matrix: (Units=GPa)
#
#
# Indices 1 2 3 4 5 6 
#
# 1 102.0417 5.5668 62.6256 0.0000 0.0000 0.0000
# 2 5.5668 14.6552 6.5182 0.0000 0.0000 0.0000
# 3 62.6256 6.5182 137.5345 0.0000 0.0000 0.0000
# 4 0.0000 0.0000 0.0000 12.8514 0.0000 0.0000
# 5 0.0000 0.0000 0.0000 0.0000 -4.2848 0.0000
# 6 0.0000 0.0000 0.0000 0.0000 0.0000 14.3808
#
#
#
# Elastic Compliance Matrix: (Units=1/GPa)
#
#
# Indices 1 2 3 4 5 6 
#
# 1 0.013688 -0.002480 -0.006115 0.000000 0.000000 0.000000
# 2 -0.002480 0.070154 -0.002196 0.000000 0.000000 0.000000
# 3 -0.006115 -0.002196 0.010160 0.000000 0.000000 0.000000
# 4 0.000000 0.000000 0.000000 0.077813 0.000000 0.000000
# 5 0.000000 0.000000 0.000000 0.000000 -0.233381 0.000000
# 6 0.000000 0.000000 0.000000 0.000000 0.000000 0.069537
#
#
# Mechanical properties :
#
#
# Convention : Reuss Voigt Hill
#
# Bulk Modulus (GPa) = 13.80831 44.85028 29.32930
# Shear Modulus (GPa) = 93.12386 16.55752 54.84069
#
# Velocity S-wave (km/s) = 6.68267 2.81784 5.12827
# Velocity P-wave (km/s) = 8.13424 5.66526 7.00932
#
# Compressibility (1/GPa) = 0.07242016
#
# Stress axis : x y z
#
# Youngs Moduli (GPa) = 73.05469 14.25442 98.42919
#
# Poissons Ratio (x) = 0.03534 0.60194
# Poissons Ratio (y) = 0.18114 0.21613
# Poissons Ratio (z) = 0.44676 0.03130
#
# Static dielectric constant tensor:
#      x y z
#    x 1.778190 0.000000 0.000000 
#    y 0.000000 1.747950 0.000000 
#    z 0.000000 0.000000 1.766810 
# 
# From -- ./inp_files/32209.got.cif
#   From: 2010.05.17/outbox.cif.g08.bks.cpg/sg59_17_cif.got.tgz:32209.got - 2010.06.03 14:40:33.
