data_PCOD9450984
_publ_section_title
;
Structure prediction by ZEFSAII (Michael W. Deem and Ramdas Pophale) SiO2 
 PCOD9450984
Probable space group: P M M N
;
_chemical_formula_sum "Si O2"
_cell_formula_units_Z 32
_cell_length_a 28.330953
_cell_length_b 9.580125
_cell_length_c 5.152676
_cell_angle_alpha 90.000000
_cell_angle_beta 90.000000
_cell_angle_gamma 90.000000
_cell_volume 1398.508770
_symmetry_space_group_name_H-M "P M M N"
_symmetry_group_IT_number 59
_space_group.IT_coordinate_system_code '2'
_symmetry_cell_setting 'orthorhombic'
loop_
_space_group_symop_operation_xyz
x,y,z
1/2-x,1/2-y,z
1/2+x,-y,-z
-x,1/2+y,-z
-x,-y,-z
1/2+x,1/2+y,-z
1/2-x,y,z
x,1/2-y,z
loop_
_atom_site_type_symbol
_atom_site_label
_atom_site_fract_x
_atom_site_fract_y
_atom_site_fract_z
Si Si1 0.072481 0.397629 0.013427
Si Si2 0.975420 0.400028 0.297509
Si Si3 0.306241 0.585967 0.851109
Si Si4 0.659927 0.915206 0.646688
O O1 0.087655 0.250000 0.886900
O O2 0.017976 0.382314 0.092355
O O3 0.070202 0.530846 0.830906
O O4 0.105072 0.416561 0.263164
O O5 0.964297 0.250000 0.414053
O O6 0.000000 0.500000 0.500000
O O7 0.250000 0.587452 0.806835
O O8 0.321491 0.750000 0.863264
O O9 0.316119 0.501424 0.117169
O O10 0.328918 0.496643 0.616893
O O11 0.673860 0.750000 0.635243
#
# Coordination Sequence:
#
# PCOD9450984 Si02
#       4
#     8   8   8   8
#     4   9  21  39  56  82 119 158 202 254 308 361
#     4  10  20  35  57  83 117 159 202 250 304 366
#     4  11  25  45  67  95 132 169 208 263 327 387
#     4  11  24  42  68  98 129 168 216 267 317 381
#
# _framework density 22.881516000000001
#
# number of rings (size 3 to 8) (size 9 to 14) (size 15 to 20)
#    0.000    1.750    0.000    3.000    3.500    8.000 
#    0.000    0.000    0.000    0.000    0.000    0.000 
#    0.000    0.000    0.000    0.000    0.000    0.000 
#
# Total GULP energy -178610.382975 kJ/mol
# GULP energy per Si atom -5581.574468 kJ/mol
# Density = 2.282944 g / cm^3
# Si number density = 22.881516 Si / 1000 Ang^3
#
#
#
# Elastic Constant Matrix: (Units=GPa)
#
#
# Indices 1 2 3 4 5 6 
#
# 1 72.6302 32.7709 15.0735 0.0000 0.0000 0.0000
# 2 32.7709 216.5463 68.2880 0.0000 0.0000 0.0000
# 3 15.0735 68.2880 89.7354 0.0000 0.0000 0.0000
# 4 0.0000 0.0000 0.0000 31.8280 0.0000 0.0000
# 5 0.0000 0.0000 0.0000 0.0000 34.7153 0.0000
# 6 0.0000 0.0000 0.0000 0.0000 0.0000 26.0121
#
#
#
# Elastic Compliance Matrix: (Units=1/GPa)
#
#
# Indices 1 2 3 4 5 6 
#
# 1 0.014850 -0.001922 -0.001032 0.000000 0.000000 0.000000
# 2 -0.001922 0.006325 -0.004490 0.000000 0.000000 0.000000
# 3 -0.001032 -0.004490 0.014734 0.000000 0.000000 0.000000
# 4 0.000000 0.000000 0.000000 0.031419 0.000000 0.000000
# 5 0.000000 0.000000 0.000000 0.000000 0.028806 0.000000
# 6 0.000000 0.000000 0.000000 0.000000 0.000000 0.038444
#
#
# Mechanical properties :
#
#
# Convention : Reuss Voigt Hill
#
# Bulk Modulus (GPa) = 47.57218 67.90851 57.74034
# Shear Modulus (GPa) = 31.95460 36.02973 33.99216
#
# Velocity S-wave (km/s) = 3.74106 3.97246 3.85849
# Velocity P-wave (km/s) = 6.28463 7.12624 6.71862
#
# Compressibility (1/GPa) = 0.02102069
#
# Stress axis : x y z
#
# Youngs Moduli (GPa) = 67.34157 158.10744 67.86882
#
# Poissons Ratio (x) = 0.30386 0.07003
# Poissons Ratio (y) = 0.12942 0.30475
# Poissons Ratio (z) = 0.06949 0.70995
#
# Static dielectric constant tensor:
#      x y z
#    x 1.867290 0.000000 0.000000 
#    y 0.000000 1.893910 0.000000 
#    z 0.000000 0.000000 1.864170 
# 
# From -- ./inp_files/555.got.cif
#   From: 2010.05.17/outbox.cif.g08.bks.cpg/sg59_1_cif.got.tgz:555.got - 2010.06.03 14:40:33.
