data_PCOD9450815
_publ_section_title
;
Structure prediction by ZEFSAII (Michael W. Deem and Ramdas Pophale) SiO2 
 PCOD9450815
Probable space group: P M M N
;
_chemical_formula_sum "Si O2"
_cell_formula_units_Z 56
_cell_length_a 16.463453
_cell_length_b 19.817277
_cell_length_c 7.254427
_cell_angle_alpha 90.000000
_cell_angle_beta 90.000000
_cell_angle_gamma 90.000000
_cell_volume 2366.835218
_symmetry_space_group_name_H-M "P M M N"
_symmetry_group_IT_number 59
_space_group.IT_coordinate_system_code '2'
_symmetry_cell_setting 'orthorhombic'
loop_
_space_group_symop_operation_xyz
x,y,z
1/2-x,1/2-y,z
1/2+x,-y,-z
-x,1/2+y,-z
-x,-y,-z
1/2+x,1/2+y,-z
1/2-x,y,z
x,1/2-y,z
loop_
_atom_site_type_symbol
_atom_site_label
_atom_site_fract_x
_atom_site_fract_y
_atom_site_fract_z
Si Si1 0.490409 0.525895 0.291443
Si Si2 0.663412 0.964216 0.655096
Si Si3 0.158334 0.965112 0.732751
Si Si4 0.388274 0.325670 0.328966
Si Si5 0.663848 0.670543 0.098312
Si Si6 0.485863 0.826892 0.211136
Si Si7 0.572133 0.324960 0.214442
O O1 0.500000 0.500000 0.500000
O O2 0.414529 0.481358 0.221239
O O3 0.577614 0.507206 0.201249
O O4 0.457366 0.602489 0.294601
O O5 0.750000 0.967644 0.751806
O O6 0.650320 0.889346 0.572652
O O7 0.665541 0.013680 0.481156
O O8 0.250000 0.974265 0.811453
O O9 0.130765 0.887253 0.749427
O O10 0.366632 0.250000 0.390529
O O11 0.485967 0.331384 0.321639
O O12 0.355652 0.334896 0.119605
O O13 0.750000 0.637127 0.143871
O O14 0.672462 0.750000 0.128256
O O15 0.581707 0.657027 0.205462
O O16 0.472459 0.750000 0.283721
O O17 0.453447 0.825734 0.001208
O O18 0.605389 0.250000 0.255297
#
# Coordination Sequence:
#
# PCOD9450815 Si02
#       7
#     8   8   8   8   8   8   8
#     4  10  21  39  58  80 119 153 188 239 292 348
#     4  10  20  35  55  79 114 157 197 239 291 348
#     4  10  21  37  56  81 116 158 197 238 289 349
#     4   9  16  29  53  83 115 150 189 235 287 341
#     4   8  14  26  47  80 117 146 179 225 277 337
#     4   9  19  36  60  84 111 150 191 237 293 345
#     4   9  18  35  59  85 110 143 193 247 293 338
#
# _framework density 23.660285999999999
#
# number of rings (size 3 to 8) (size 9 to 14) (size 15 to 20)
#    0.000    2.714    1.429    2.143    0.000    2.286 
#    0.000    6.429    0.000    3.000    0.000    0.000 
#    0.000    0.000    0.000    0.000    0.000    0.000 
#
# Total GULP energy -312276.972707 kJ/mol
# GULP energy per Si atom -5576.374513 kJ/mol
# Density = 2.360643 g / cm^3
# Si number density = 23.660286 Si / 1000 Ang^3
#
#
#
# Elastic Constant Matrix: (Units=GPa)
#
#
# Indices 1 2 3 4 5 6 
#
# 1 157.6538 48.7128 6.6816 0.0000 0.0000 0.0000
# 2 48.7128 211.6995 20.8925 0.0000 0.0000 0.0000
# 3 6.6816 20.8925 48.7778 0.0000 0.0000 0.0000
# 4 0.0000 0.0000 0.0000 32.5180 0.0000 0.0000
# 5 0.0000 0.0000 0.0000 0.0000 67.1969 0.0000
# 6 0.0000 0.0000 0.0000 0.0000 0.0000 9.7229
#
#
#
# Elastic Compliance Matrix: (Units=1/GPa)
#
#
# Indices 1 2 3 4 5 6 
#
# 1 0.006832 -0.001545 -0.000274 0.000000 0.000000 0.000000
# 2 -0.001545 0.005282 -0.002051 0.000000 0.000000 0.000000
# 3 -0.000274 -0.002051 0.021417 0.000000 0.000000 0.000000
# 4 0.000000 0.000000 0.000000 0.030752 0.000000 0.000000
# 5 0.000000 0.000000 0.000000 0.000000 0.014882 0.000000
# 6 0.000000 0.000000 0.000000 0.000000 0.000000 0.102850
#
#
# Mechanical properties :
#
#
# Convention : Reuss Voigt Hill
#
# Bulk Modulus (GPa) = 38.77287 63.41164 51.09226
# Shear Modulus (GPa) = 25.20788 44.67718 34.94253
#
# Velocity S-wave (km/s) = 3.26760 4.35015 3.84714
# Velocity P-wave (km/s) = 5.53707 7.21739 6.43234
#
# Compressibility (1/GPa) = 0.02579123
#
# Stress axis : x y z
#
# Youngs Moduli (GPa) = 146.36968 189.33799 46.69191
#
# Poissons Ratio (x) = 0.29253 0.01280
# Poissons Ratio (y) = 0.22614 0.09574
# Poissons Ratio (z) = 0.04012 0.38825
#
# Static dielectric constant tensor:
#      x y z
#    x 1.937170 0.000000 0.000000 
#    y 0.000000 1.909140 0.000000 
#    z 0.000000 0.000000 1.972650 
# 
# From -- ./inp_files/10602.got.cif
#   From: 2010.05.17/outbox.cif.g08.bks.cpg/sg59_6_cif.got.tgz:10602.got - 2010.06.03 14:40:33.
