data_PCOD9450077
_publ_section_title
;
Structure prediction by ZEFSAII (Michael W. Deem and Ramdas Pophale) SiO2 
 PCOD9450077
Probable space group: P M M N
;
_chemical_formula_sum "Si O2"
_cell_formula_units_Z 56
_cell_length_a 16.260942
_cell_length_b 18.807767
_cell_length_c 9.578108
_cell_angle_alpha 90.000000
_cell_angle_beta 90.000000
_cell_angle_gamma 90.000000
_cell_volume 2929.292006
_symmetry_space_group_name_H-M "P M M N"
_symmetry_group_IT_number 59
_space_group.IT_coordinate_system_code '2'
_symmetry_cell_setting 'orthorhombic'
loop_
_space_group_symop_operation_xyz
x,y,z
1/2-x,1/2-y,z
1/2+x,-y,-z
-x,1/2+y,-z
-x,-y,-z
1/2+x,1/2+y,-z
1/2-x,y,z
x,1/2-y,z
loop_
_atom_site_type_symbol
_atom_site_label
_atom_site_fract_x
_atom_site_fract_y
_atom_site_fract_z
Si Si1 0.849998 0.490018 0.063919
Si Si2 0.109544 0.547510 0.393461
Si Si3 0.074813 0.331636 0.435155
Si Si4 0.657691 0.924999 0.797207
Si Si5 0.375803 0.670616 0.566085
Si Si6 0.424466 0.052453 0.655026
Si Si7 0.845420 0.168577 0.108136
O O1 0.750000 0.487571 0.060356
O O2 0.878834 0.525675 0.208081
O O3 0.879221 0.407151 0.049439
O O4 0.877335 0.543353 0.940709
O O5 0.160611 0.494434 0.300710
O O6 0.152426 0.618142 0.445680
O O7 0.087744 0.508407 0.538914
O O8 0.022005 0.560237 0.318634
O O9 0.101110 0.250000 0.441473
O O10 0.105794 0.369301 0.293583
O O11 0.103107 0.376804 0.570789
O O12 0.975544 0.334207 0.433619
O O13 0.750000 0.897228 0.820098
O O14 0.351160 0.750000 0.532418
O O15 0.348229 0.656547 0.724186
O O16 0.750000 0.172080 0.064858
O O17 0.879985 0.250000 0.083560
#
# Coordination Sequence:
#
# PCOD9450077 Si02
#       7
#     8   8   8   8   8   8   8
#     4  10  20  34  50  74 106 137 172 214 252 300
#     4   9  17  31  49  75 101 129 165 207 255 304
#     4   9  19  36  56  75 100 133 169 218 269 310
#     4  10  22  35  49  73 104 138 175 212 258 309
#     4   9  16  30  53  78 104 129 165 212 256 304
#     4   9  17  31  53  76  98 127 169 210 257 304
#     4   9  17  29  48  73 101 135 169 202 245 299
#
# _framework density 19.117246999999999
#
# number of rings (size 3 to 8) (size 9 to 14) (size 15 to 20)
#    0.000    2.714    1.429    0.857    0.000    3.714 
#    0.000    1.429    0.000    1.714    0.000    0.000 
#    0.000    0.000    0.000    0.000    0.000    0.000 
#
# Total GULP energy -311781.856203 kJ/mol
# GULP energy per Si atom -5567.533146 kJ/mol
# Density = 1.907374 g / cm^3
# Si number density = 19.117247 Si / 1000 Ang^3
#
#
#
# Elastic Constant Matrix: (Units=GPa)
#
#
# Indices 1 2 3 4 5 6 
#
# 1 24.5917 16.6830 14.4908 0.0000 0.0000 0.0000
# 2 16.6830 136.8039 40.6514 0.0000 0.0000 0.0000
# 3 14.4908 40.6514 66.4413 0.0000 0.0000 0.0000
# 4 0.0000 0.0000 0.0000 24.3259 0.0000 0.0000
# 5 0.0000 0.0000 0.0000 0.0000 17.7374 0.0000
# 6 0.0000 0.0000 0.0000 0.0000 0.0000 15.7098
#
#
#
# Elastic Compliance Matrix: (Units=1/GPa)
#
#
# Indices 1 2 3 4 5 6 
#
# 1 0.047881 -0.003344 -0.008397 0.000000 0.000000 0.000000
# 2 -0.003344 0.009168 -0.004880 0.000000 0.000000 0.000000
# 3 -0.008397 -0.004880 0.019868 0.000000 0.000000 0.000000
# 4 0.000000 0.000000 0.000000 0.041109 0.000000 0.000000
# 5 0.000000 0.000000 0.000000 0.000000 0.056378 0.000000
# 6 0.000000 0.000000 0.000000 0.000000 0.000000 0.063654
#
#
# Mechanical properties :
#
#
# Convention : Reuss Voigt Hill
#
# Bulk Modulus (GPa) = 22.89636 41.27639 32.08637
# Shear Modulus (GPa) = 17.49131 21.95539 19.72335
#
# Velocity S-wave (km/s) = 3.02809 3.39257 3.21550
# Velocity P-wave (km/s) = 4.92226 6.08145 5.53230
#
# Compressibility (1/GPa) = 0.04367507
#
# Stress axis : x y z
#
# Youngs Moduli (GPa) = 20.88531 109.08051 50.33255
#
# Poissons Ratio (x) = 0.36475 0.42263
# Poissons Ratio (y) = 0.06984 0.24561
# Poissons Ratio (z) = 0.17537 0.53229
#
# Static dielectric constant tensor:
#      x y z
#    x 1.707490 0.000000 0.000000 
#    y 0.000000 1.716030 0.000000 
#    z 0.000000 0.000000 1.652270 
# 
# From -- ./inp_files/10625.got.cif
#   From: 2010.05.17/outbox.cif.g08.bks.cpg/sg59_6_cif.got.tgz:10625.got - 2010.06.03 14:40:33.
