data_PCOD9450789
_publ_section_title
;
Structure prediction by ZEFSAII (Michael W. Deem and Ramdas Pophale) SiO2 
 PCOD9450789
Probable space group: P M M N
;
_chemical_formula_sum "Si O2"
_cell_formula_units_Z 48
_cell_length_a 14.515462
_cell_length_b 8.869915
_cell_length_c 21.682284
_cell_angle_alpha 90.000000
_cell_angle_beta 90.000000
_cell_angle_gamma 90.000000
_cell_volume 2791.613885
_symmetry_space_group_name_H-M "P M M N"
_symmetry_group_IT_number 59
_space_group.IT_coordinate_system_code '2'
_symmetry_cell_setting 'orthorhombic'
loop_
_space_group_symop_operation_xyz
x,y,z
1/2-x,1/2-y,z
1/2+x,-y,-z
-x,1/2+y,-z
-x,-y,-z
1/2+x,1/2+y,-z
1/2-x,y,z
x,1/2-y,z
loop_
_atom_site_type_symbol
_atom_site_label
_atom_site_fract_x
_atom_site_fract_y
_atom_site_fract_z
Si Si1 0.642943 0.431025 0.495660
Si Si2 0.000482 0.070244 0.265140
Si Si3 0.995817 0.929955 0.400224
Si Si4 0.857095 0.068137 0.828551
Si Si5 0.999659 0.569441 0.067378
Si Si6 0.357158 0.431898 0.828121
O O1 0.750000 0.472130 0.500602
O O2 0.636750 0.250000 0.486501
O O3 0.591478 0.512510 0.439492
O O4 0.584873 0.466471 0.557365
O O5 0.000173 0.250000 0.264675
O O6 0.000485 0.008340 0.334316
O O7 0.912156 0.007625 0.227812
O O8 0.088439 0.007758 0.227539
O O9 0.991489 0.750000 0.392521
O O10 0.750000 0.027609 0.830671
O O11 0.864492 0.250000 0.821864
O O12 0.911768 0.026769 0.891068
O O13 0.999472 0.750000 0.061524
O O14 0.911294 0.526491 0.109122
O O15 0.000000 0.500000 0.000000
O O16 0.250000 0.472452 0.829826
O O17 0.364614 0.250000 0.821610
#
# Coordination Sequence:
#
# PCOD9450789 Si02
#       6
#     8   8   8   8   8   8
#     4   9  19  36  56  78 104 134 171 215 258 300
#     4  11  22  35  53  79 109 137 170 217 266 309
#     4  10  20  35  55  78 105 139 175 209 253 310
#     4   9  19  37  57  75 101 139 179 216 256 307
#     4   9  18  32  51  77 106 136 170 210 258 310
#     4   9  19  37  57  75 100 137 179 218 257 307
#
# _framework density 17.194355000000002
#
# number of rings (size 3 to 8) (size 9 to 14) (size 15 to 20)
#    0.000    2.500    0.000    3.000    0.000    6.333 
#    0.000    1.667    0.000    0.000    0.000    0.000 
#    0.000    0.000    0.000    0.000    0.000    0.000 
#
# Total GULP energy -267818.915466 kJ/mol
# GULP energy per Si atom -5579.560739 kJ/mol
# Density = 1.715522 g / cm^3
# Si number density = 17.194355 Si / 1000 Ang^3
#
#
#
# Elastic Constant Matrix: (Units=GPa)
#
#
# Indices 1 2 3 4 5 6 
#
# 1 187.9323 60.4685 100.2843 0.0000 0.0000 0.0000
# 2 60.4685 45.4719 65.1068 0.0000 0.0000 0.0000
# 3 100.2843 65.1068 184.3189 0.0000 0.0000 0.0000
# 4 0.0000 0.0000 0.0000 35.7964 0.0000 0.0000
# 5 0.0000 0.0000 0.0000 0.0000 5.3079 0.0000
# 6 0.0000 0.0000 0.0000 0.0000 0.0000 15.1927
#
#
#
# Elastic Compliance Matrix: (Units=1/GPa)
#
#
# Indices 1 2 3 4 5 6 
#
# 1 0.009482 -0.010567 -0.001427 0.000000 0.000000 0.000000
# 2 -0.010567 0.056271 -0.014127 0.000000 0.000000 0.000000
# 3 -0.001427 -0.014127 0.011192 0.000000 0.000000 0.000000
# 4 0.000000 0.000000 0.000000 0.027936 0.000000 0.000000
# 5 0.000000 0.000000 0.000000 0.000000 0.188398 0.000000
# 6 0.000000 0.000000 0.000000 0.000000 0.000000 0.065821
#
#
# Mechanical properties :
#
#
# Convention : Reuss Voigt Hill
#
# Bulk Modulus (GPa) = 40.48025 96.60470 68.54247
# Shear Modulus (GPa) = 11.91680 24.05030 17.98355
#
# Velocity S-wave (km/s) = 2.63547 3.74402 3.23754
# Velocity P-wave (km/s) = 5.73191 8.66003 7.34340
#
# Compressibility (1/GPa) = 0.02470340
#
# Stress axis : x y z
#
# Youngs Moduli (GPa) = 105.45940 17.77112 89.35192
#
# Poissons Ratio (x) = 0.18779 0.12747
# Poissons Ratio (y) = 1.11439 1.26230
# Poissons Ratio (z) = 0.15045 0.25106
#
# Static dielectric constant tensor:
#      x y z
#    x 1.574360 0.000000 0.000000 
#    y 0.000000 1.576350 0.000000 
#    z 0.000000 0.000000 1.549470 
# 
# From -- ./inp_files/27370.got.cif
#   From: 2010.05.17/outbox.cif.g08.bks.cpg/sg59_14_cif.got.tgz:27370.got - 2010.06.03 14:40:33.
