data_PCOD9450088
_publ_section_title
;
Structure prediction by ZEFSAII (Michael W. Deem and Ramdas Pophale) SiO2 
 PCOD9450088
Probable space group: P M M N
;
_chemical_formula_sum "Si O2"
_cell_formula_units_Z 64
_cell_length_a 7.609088
_cell_length_b 34.878917
_cell_length_c 11.276893
_cell_angle_alpha 90.000000
_cell_angle_beta 90.000000
_cell_angle_gamma 90.000000
_cell_volume 2992.850739
_symmetry_space_group_name_H-M "P M M N"
_symmetry_group_IT_number 59
_space_group.IT_coordinate_system_code '2'
_symmetry_cell_setting 'orthorhombic'
loop_
_space_group_symop_operation_xyz
x,y,z
1/2-x,1/2-y,z
1/2+x,-y,-z
-x,1/2+y,-z
-x,-y,-z
1/2+x,1/2+y,-z
1/2-x,y,z
x,1/2-y,z
loop_
_atom_site_type_symbol
_atom_site_label
_atom_site_fract_x
_atom_site_fract_y
_atom_site_fract_z
Si Si1 0.956046 0.061000 0.701799
Si Si2 0.035690 0.207183 0.440467
Si Si3 0.455520 0.946075 0.555778
Si Si4 0.964892 0.793212 0.285379
Si Si5 0.953708 0.632536 0.154651
Si Si6 0.539115 0.591378 0.921370
Si Si7 0.540864 0.483909 0.202869
Si Si8 0.036872 0.369992 0.322853
O O1 0.750000 0.068484 0.686216
O O2 0.029249 0.046340 0.574956
O O3 0.040626 0.100343 0.743605
O O4 0.978339 0.027494 0.798333
O O5 0.250000 0.207139 0.438943
O O6 0.978872 0.250000 0.405472
O O7 0.983332 0.200591 0.577381
O O8 0.977382 0.172377 0.357914
O O9 0.250000 0.956397 0.553457
O O10 0.533157 0.966165 0.672874
O O11 0.474826 0.900902 0.580850
O O12 0.750000 0.794055 0.284586
O O13 0.017459 0.750000 0.250651
O O14 0.029917 0.827664 0.202784
O O15 0.750000 0.640807 0.126765
O O16 0.032035 0.611702 0.039085
O O17 0.750000 0.594130 0.924816
O O18 0.502418 0.546484 0.899250
O O19 0.476166 0.614082 0.804321
O O20 0.750000 0.485091 0.209316
O O21 0.250000 0.370505 0.322635
#
# Coordination Sequence:
#
# PCOD9450088 Si02
#       8
#     8   8   8   8   8   8   8   8
#     4  11  22  34  50  74 102 127 156 200 247 288
#     4   8  13  22  40  69 100 124 151 192 240 289
#     4   9  19  33  49  72  99 124 153 195 245 294
#     4   8  14  26  46  72  99 126 158 197 239 282
#     4  10  20  34  51  71  97 131 170 205 238 282
#     4   9  19  34  49  68  96 128 165 208 244 276
#     4  10  20  35  54  73  95 127 163 196 240 296
#     4   9  16  28  48  70  93 126 163 197 238 286
#
# _framework density 21.384295000000002
#
# number of rings (size 3 to 8) (size 9 to 14) (size 15 to 20)
#    0.000    2.750    0.000    2.625    0.000    3.500 
#    0.000    0.625    0.000    4.500    0.000    3.500 
#    0.000    3.000    0.000    0.000    0.000    0.000 
#
# Total GULP energy -357135.349163 kJ/mol
# GULP energy per Si atom -5580.239831 kJ/mol
# Density = 2.133562 g / cm^3
# Si number density = 21.384295 Si / 1000 Ang^3
#
#
#
# Elastic Constant Matrix: (Units=GPa)
#
#
# Indices 1 2 3 4 5 6 
#
# 1 48.0968 -6.0376 1.9126 0.0000 0.0000 0.0000
# 2 -6.0376 107.4465 6.4346 0.0000 0.0000 0.0000
# 3 1.9126 6.4346 41.2846 0.0000 0.0000 0.0000
# 4 0.0000 0.0000 0.0000 23.7864 0.0000 0.0000
# 5 0.0000 0.0000 0.0000 0.0000 6.9381 0.0000
# 6 0.0000 0.0000 0.0000 0.0000 0.0000 7.4987
#
#
#
# Elastic Compliance Matrix: (Units=1/GPa)
#
#
# Indices 1 2 3 4 5 6 
#
# 1 0.020995 0.001250 -0.001167 0.000000 0.000000 0.000000
# 2 0.001250 0.009469 -0.001534 0.000000 0.000000 0.000000
# 3 -0.001167 -0.001534 0.024515 0.000000 0.000000 0.000000
# 4 0.000000 0.000000 0.000000 0.042041 0.000000 0.000000
# 5 0.000000 0.000000 0.000000 0.000000 0.144133 0.000000
# 6 0.000000 0.000000 0.000000 0.000000 0.000000 0.133356
#
#
# Mechanical properties :
#
#
# Convention : Reuss Voigt Hill
#
# Bulk Modulus (GPa) = 19.20272 22.38303 20.79288
# Shear Modulus (GPa) = 12.66561 20.61252 16.63907
#
# Velocity S-wave (km/s) = 2.43633 3.10806 2.79247
# Velocity P-wave (km/s) = 4.11262 4.83423 4.48795
#
# Compressibility (1/GPa) = 0.05207595
#
# Stress axis : x y z
#
# Youngs Moduli (GPa) = 47.63105 105.60754 40.79096
#
# Poissons Ratio (x) = -0.13197 0.04762
# Poissons Ratio (y) = -0.05952 0.06256
# Poissons Ratio (z) = 0.05561 0.16197
#
# Static dielectric constant tensor:
#      x y z
#    x 1.817290 0.000000 0.000000 
#    y 0.000000 1.764650 0.000000 
#    z 0.000000 0.000000 1.799620 
# 
# From -- ./inp_files/14924.got.cif
#   From: 2010.05.17/outbox.cif.g08.bks.cpg/sg59_8_cif.got.tgz:14924.got - 2010.06.03 14:40:33.
