data_PCOD9450376
_publ_section_title
;
Structure prediction by ZEFSAII (Michael W. Deem and Ramdas Pophale) SiO2 
 PCOD9450376
Probable space group: P M M N
;
_chemical_formula_sum "Si O2"
_cell_formula_units_Z 56
_cell_length_a 22.284932
_cell_length_b 8.583695
_cell_length_c 15.065808
_cell_angle_alpha 90.000000
_cell_angle_beta 90.000000
_cell_angle_gamma 90.000000
_cell_volume 2881.894110
_symmetry_space_group_name_H-M "P M M N"
_symmetry_group_IT_number 59
_space_group.IT_coordinate_system_code '2'
_symmetry_cell_setting 'orthorhombic'
loop_
_space_group_symop_operation_xyz
x,y,z
1/2-x,1/2-y,z
1/2+x,-y,-z
-x,1/2+y,-z
-x,-y,-z
1/2+x,1/2+y,-z
1/2-x,y,z
x,1/2-y,z
loop_
_atom_site_type_symbol
_atom_site_label
_atom_site_fract_x
_atom_site_fract_y
_atom_site_fract_z
Si Si1 0.878269 0.936472 0.453472
Si Si2 0.181984 0.061876 0.240465
Si Si3 0.319252 0.563941 0.045013
Si Si4 0.945647 0.436429 0.284567
Si Si5 0.250000 0.566006 0.560924
Si Si6 0.129985 0.064611 0.869357
Si Si7 0.750000 0.936816 0.241814
Si Si8 0.427502 0.060095 0.362615
O O1 0.879596 0.750000 0.444990
O O2 0.920637 0.987014 0.534900
O O3 0.899969 0.009233 0.361349
O O4 0.810749 0.989229 0.475051
O O5 0.250000 0.008086 0.261214
O O6 0.182451 0.250000 0.242009
O O7 0.131132 0.008087 0.308454
O O8 0.166920 0.007311 0.140996
O O9 0.250000 0.516832 0.023805
O O10 0.321146 0.750000 0.050565
O O11 0.361938 0.506423 0.966602
O O12 0.945409 0.250000 0.280512
O O13 0.924071 0.502055 0.190573
O O14 0.011344 0.491477 0.315887
O O15 0.250000 0.750000 0.546102
O O16 0.250000 0.528013 0.666160
O O17 0.126221 0.250000 0.876399
O O18 0.190904 0.026260 0.814854
O O19 0.750000 0.750000 0.260868
O O20 0.427723 0.250000 0.362050
#
# Coordination Sequence:
#
# PCOD9450376 Si02
#       8
#     8   8   8   8   4   8   4   8
#     4  11  22  38  60  84 115 154 197 236 282 340
#     4   9  18  36  62  86 109 142 190 239 284 337
#     4  10  20  34  55  85 119 148 179 228 294 347
#     4  11  22  38  57  83 119 153 191 236 286 338
#     4  12  24  36  54  85 120 151 186 237 296 336
#     4  11  21  35  57  84 113 150 194 230 278 339
#     4  10  20  34  54  79 114 149 186 235 280 334
#     4   9  21  39  61  85 110 150 197 240 282 336
#
# _framework density 19.431664000000001
#
# number of rings (size 3 to 8) (size 9 to 14) (size 15 to 20)
#    0.000    1.714    2.143    2.786    1.000    1.143 
#    0.000    5.714    0.000    0.000    0.000    0.000 
#    0.000    0.000    0.000    0.000    0.000    0.000 
#
# Total GULP energy -312888.244867 kJ/mol
# GULP energy per Si atom -5587.290087 kJ/mol
# Density = 1.938744 g / cm^3
# Si number density = 19.431664 Si / 1000 Ang^3
#
#
#
# Elastic Constant Matrix: (Units=GPa)
#
#
# Indices 1 2 3 4 5 6 
#
# 1 67.1689 0.5178 11.5661 0.0000 0.0000 0.0000
# 2 0.5178 20.0493 -1.6683 0.0000 0.0000 0.0000
# 3 11.5661 -1.6683 56.4686 0.0000 0.0000 0.0000
# 4 0.0000 0.0000 0.0000 17.2236 0.0000 0.0000
# 5 0.0000 0.0000 0.0000 0.0000 23.7735 0.0000
# 6 0.0000 0.0000 0.0000 0.0000 0.0000 19.4006
#
#
#
# Elastic Compliance Matrix: (Units=1/GPa)
#
#
# Indices 1 2 3 4 5 6 
#
# 1 0.015441 -0.000664 -0.003182 0.000000 0.000000 0.000000
# 2 -0.000664 0.050028 0.001614 0.000000 0.000000 0.000000
# 3 -0.003182 0.001614 0.018408 0.000000 0.000000 0.000000
# 4 0.000000 0.000000 0.000000 0.058060 0.000000 0.000000
# 5 0.000000 0.000000 0.000000 0.000000 0.042064 0.000000
# 6 0.000000 0.000000 0.000000 0.000000 0.000000 0.051545
#
#
# Mechanical properties :
#
#
# Convention : Reuss Voigt Hill
#
# Bulk Modulus (GPa) = 12.59223 18.27977 15.43600
# Shear Modulus (GPa) = 18.76304 20.96429 19.86367
#
# Velocity S-wave (km/s) = 3.11077 3.28818 3.20070
# Velocity P-wave (km/s) = 4.40418 4.88301 4.64977
#
# Compressibility (1/GPa) = 0.07941407
#
# Stress axis : x y z
#
# Youngs Moduli (GPa) = 64.76301 19.98862 54.32292
#
# Poissons Ratio (x) = 0.01326 0.17287
# Poissons Ratio (y) = 0.04298 -0.08768
# Poissons Ratio (z) = 0.20609 -0.03226
#
# Static dielectric constant tensor:
#      x y z
#    x 1.696060 0.000000 0.000000 
#    y 0.000000 1.649670 0.000000 
#    z 0.000000 0.000000 1.653200 
# 
# From -- ./inp_files/24373.got.cif
#   From: 2010.05.17/outbox.cif.g08.bks.cpg/sg59_13_cif.got.tgz:24373.got - 2010.06.03 14:40:33.
