data_PCOD9450589
_publ_section_title
;
Structure prediction by ZEFSAII (Michael W. Deem and Ramdas Pophale) SiO2 
 PCOD9450589
Probable space group: P M M N
;
_chemical_formula_sum "Si O2"
_cell_formula_units_Z 56
_cell_length_a 14.726442
_cell_length_b 8.186002
_cell_length_c 23.413626
_cell_angle_alpha 90.000000
_cell_angle_beta 90.000000
_cell_angle_gamma 90.000000
_cell_volume 2822.528621
_symmetry_space_group_name_H-M "P M M N"
_symmetry_group_IT_number 59
_space_group.IT_coordinate_system_code '2'
_symmetry_cell_setting 'orthorhombic'
loop_
_space_group_symop_operation_xyz
x,y,z
1/2-x,1/2-y,z
1/2+x,-y,-z
-x,1/2+y,-z
-x,-y,-z
1/2+x,1/2+y,-z
1/2-x,y,z
x,1/2-y,z
loop_
_atom_site_type_symbol
_atom_site_label
_atom_site_fract_x
_atom_site_fract_y
_atom_site_fract_z
Si Si1 0.398170 0.055859 0.513317
Si Si2 0.355476 0.947199 0.968867
Si Si3 0.854314 0.552718 0.803291
Si Si4 0.649245 0.052030 0.358762
Si Si5 0.539607 0.445868 0.915992
Si Si6 0.350350 0.562397 0.393625
Si Si7 0.474318 0.439013 0.300681
O O1 0.389839 0.250000 0.510463
O O2 0.500000 0.000000 0.500000
O O3 0.369682 0.999449 0.576056
O O4 0.346147 0.977311 0.460294
O O5 0.250000 0.003104 0.961183
O O6 0.352660 0.750000 0.968855
O O7 0.434811 0.998989 0.924576
O O8 0.398950 0.001531 0.029693
O O9 0.750000 0.492049 0.805493
O O10 0.849068 0.750000 0.798842
O O11 0.911482 0.509244 0.859376
O O12 0.910757 0.488590 0.748548
O O13 0.750000 0.999080 0.342598
O O14 0.645627 0.250000 0.357888
O O15 0.571916 0.987561 0.316128
O O16 0.540474 0.250000 0.915743
O O17 0.250000 0.541661 0.368725
O O18 0.379637 0.750000 0.386520
O O19 0.419420 0.449613 0.359945
O O20 0.489017 0.250000 0.285071
#
# Coordination Sequence:
#
# PCOD9450589 Si02
#       7
#     8   8   8   8   8   8   8
#     4  12  23  36  56  81 109 141 177 220 275 336
#     4   9  18  34  56  83 117 156 196 237 282 336
#     4  10  21  37  57  82 113 150 193 236 279 332
#     4  10  21  38  59  82 108 140 180 227 279 334
#     4  10  20  34  55  85 119 153 192 237 287 340
#     4  11  23  37  55  81 111 141 175 220 275 333
#     4  10  21  38  59  80 107 145 187 231 273 321
#
# _framework density 19.840366
#
# number of rings (size 3 to 8) (size 9 to 14) (size 15 to 20)
#    0.000    1.714    1.429    3.429    0.000    6.000 
#    0.000    0.714    0.000    2.571    0.000    0.000 
#    0.000    0.000    0.000    0.000    0.000    0.000 
#
# Total GULP energy -312478.006115 kJ/mol
# GULP energy per Si atom -5579.964395 kJ/mol
# Density = 1.979521 g / cm^3
# Si number density = 19.840366 Si / 1000 Ang^3
#
#
#
# Elastic Constant Matrix: (Units=GPa)
#
#
# Indices 1 2 3 4 5 6 
#
# 1 186.8287 15.9682 78.0595 0.0000 0.0000 0.0000
# 2 15.9682 18.5813 -6.0237 0.0000 0.0000 0.0000
# 3 78.0595 -6.0237 98.4466 0.0000 0.0000 0.0000
# 4 0.0000 0.0000 0.0000 19.2536 0.0000 0.0000
# 5 0.0000 0.0000 0.0000 0.0000 24.1520 0.0000
# 6 0.0000 0.0000 0.0000 0.0000 0.0000 17.1288
#
#
#
# Elastic Compliance Matrix: (Units=1/GPa)
#
#
# Indices 1 2 3 4 5 6 
#
# 1 0.009871 -0.011243 -0.008515 0.000000 0.000000 0.000000
# 2 -0.011243 0.067713 0.013058 0.000000 0.000000 0.000000
# 3 -0.008515 0.013058 0.017708 0.000000 0.000000 0.000000
# 4 0.000000 0.000000 0.000000 0.051938 0.000000 0.000000
# 5 0.000000 0.000000 0.000000 0.000000 0.041404 0.000000
# 6 0.000000 0.000000 0.000000 0.000000 0.000000 0.058381
#
#
# Mechanical properties :
#
#
# Convention : Reuss Voigt Hill
#
# Bulk Modulus (GPa) = 12.21122 53.31829 32.76476
# Shear Modulus (GPa) = 17.37842 26.49706 21.93774
#
# Velocity S-wave (km/s) = 2.96279 3.65843 3.32883
# Velocity P-wave (km/s) = 4.22756 6.69160 5.59686
#
# Compressibility (1/GPa) = 0.08189188
#
# Stress axis : x y z
#
# Youngs Moduli (GPa) = 101.30641 14.76831 56.47080
#
# Poissons Ratio (x) = 0.16604 0.48084
# Poissons Ratio (y) = 1.13900 -0.73739
# Poissons Ratio (z) = 0.86260 -0.19284
#
# Static dielectric constant tensor:
#      x y z
#    x 1.698380 0.000000 0.000000 
#    y 0.000000 1.701700 0.000000 
#    z 0.000000 0.000000 1.682800 
# 
# From -- ./inp_files/30326.got.cif
#   From: 2010.05.17/outbox.cif.g08.bks.cpg/sg59_16_cif.got.tgz:30326.got - 2010.06.03 14:40:33.
