data_PCOD9450045
_publ_section_title
;
Structure prediction by ZEFSAII (Michael W. Deem and Ramdas Pophale) SiO2 
 PCOD9450045
Probable space group: P M M N
;
_chemical_formula_sum "Si O2"
_cell_formula_units_Z 38
_cell_length_a 19.027223
_cell_length_b 8.267089
_cell_length_c 10.666783
_cell_angle_alpha 90.000000
_cell_angle_beta 90.000000
_cell_angle_gamma 90.000000
_cell_volume 1677.882256
_symmetry_space_group_name_H-M "P M M N"
_symmetry_group_IT_number 59
_space_group.IT_coordinate_system_code '2'
_symmetry_cell_setting 'orthorhombic'
loop_
_space_group_symop_operation_xyz
x,y,z
1/2-x,1/2-y,z
1/2+x,-y,-z
-x,1/2+y,-z
-x,-y,-z
1/2+x,1/2+y,-z
1/2-x,y,z
x,1/2-y,z
loop_
_atom_site_type_symbol
_atom_site_label
_atom_site_fract_x
_atom_site_fract_y
_atom_site_fract_z
Si Si1 0.674136 0.750000 0.850175
Si Si2 0.750000 0.750000 0.464722
Si Si3 0.530547 0.072232 0.663480
Si Si4 0.406528 0.933490 0.796235
Si Si5 0.884832 0.070712 0.928000
Si Si6 0.750000 0.436065 0.290056
Si Si7 0.098025 0.250000 0.402309
O O1 0.750000 0.750000 0.787904
O O2 0.665271 0.584216 0.924398
O O3 0.614585 0.750000 0.745982
O O4 0.750000 0.582215 0.387784
O O5 0.674350 0.750000 0.534039
O O6 0.543510 0.250000 0.607864
O O7 0.571604 0.070198 0.798440
O O8 0.450223 0.049444 0.706840
O O9 0.557468 0.920249 0.581995
O O10 0.424403 0.750000 0.757169
O O11 0.322762 0.952699 0.785658
O O12 0.426888 0.948638 0.942070
O O13 0.851112 0.250000 0.935978
O O14 0.750000 0.250000 0.341541
#
# Coordination Sequence:
#
# PCOD9450045 Si02
#       7
#     4   2   8   8   8   4   4
#     4  10  20  33  54  86 123 158 209 245 286 363
#     4  12  26  48  74  82 116 154 212 266 338 370
#     4  10  20  36  63  95 130 161 206 243 298 366
#     4  10  20  39  62  87 133 170 200 247 297 362
#     4   9  20  33  53  89 130 171 198 234 287 353
#     4  10  26  44  63  91 121 159 206 260 319 370
#     4  10  22  44  63  91 115 159 198 269 323 354
#
# _framework density 22.647597999999999
#
# number of rings (size 3 to 8) (size 9 to 14) (size 15 to 20)
#    0.000    2.105    1.579    0.632    4.421    1.263 
#    0.000    1.053    0.000    0.000    0.000    0.000 
#    0.000    0.000    0.000    0.000    0.000    0.000 
#
# Total GULP energy -212006.618309 kJ/mol
# GULP energy per Si atom -5579.121534 kJ/mol
# Density = 2.259605 g / cm^3
# Si number density = 22.647598 Si / 1000 Ang^3
#
#
#
# Elastic Constant Matrix: (Units=GPa)
#
#
# Indices 1 2 3 4 5 6 
#
# 1 95.4156 71.3503 12.1845 0.0000 0.0000 0.0000
# 2 71.3503 196.0620 58.3734 0.0000 0.0000 0.0000
# 3 12.1845 58.3734 70.0474 0.0000 0.0000 0.0000
# 4 0.0000 0.0000 0.0000 21.0573 0.0000 0.0000
# 5 0.0000 0.0000 0.0000 0.0000 28.9488 0.0000
# 6 0.0000 0.0000 0.0000 0.0000 0.0000 -0.2288
#
#
#
# Elastic Compliance Matrix: (Units=1/GPa)
#
#
# Indices 1 2 3 4 5 6 
#
# 1 0.014729 -0.006114 0.002533 0.000000 0.000000 0.000000
# 2 -0.006114 0.009322 -0.006705 0.000000 0.000000 0.000000
# 3 0.002533 -0.006705 0.019423 0.000000 0.000000 0.000000
# 4 0.000000 0.000000 0.000000 0.047489 0.000000 0.000000
# 5 0.000000 0.000000 0.000000 0.000000 0.034544 0.000000
# 6 0.000000 0.000000 0.000000 0.000000 0.000000 -4.369945
#
#
# Mechanical properties :
#
#
# Convention : Reuss Voigt Hill
#
# Bulk Modulus (GPa) = 43.66403 71.70462 57.68432
# Shear Modulus (GPa) = -1.18589 24.59659 11.70535
#
# Velocity S-wave (km/s) = -0.72441 3.29911 2.27589
# Velocity P-wave (km/s) = 4.31531 6.80014 5.69491
#
# Compressibility (1/GPa) = 0.02290215
#
# Stress axis : x y z
#
# Youngs Moduli (GPa) = 67.89196 107.27587 51.48639
#
# Poissons Ratio (x) = 0.65594 -0.13043
# Poissons Ratio (y) = 0.41513 0.34520
# Poissons Ratio (z) = -0.17199 0.71924
#
# Static dielectric constant tensor:
#      x y z
#    x 1.831820 0.000000 0.000000 
#    y 0.000000 1.864950 0.000000 
#    z 0.000000 0.000000 1.847000 
# 
# From -- ./inp_files/17506.got.cif
#   From: 2010.05.17/outbox.cif.g08.bks.cpg/sg59_9_cif.got.tgz:17506.got - 2010.06.03 14:40:33.
