data_PCOD9450465
_publ_section_title
;
Structure prediction by ZEFSAII (Michael W. Deem and Ramdas Pophale) SiO2 
 PCOD9450465
Probable space group: P M M N
;
_chemical_formula_sum "Si O2"
_cell_formula_units_Z 56
_cell_length_a 8.912435
_cell_length_b 19.803918
_cell_length_c 16.326198
_cell_angle_alpha 90.000000
_cell_angle_beta 90.000000
_cell_angle_gamma 90.000000
_cell_volume 2881.592427
_symmetry_space_group_name_H-M "P M M N"
_symmetry_group_IT_number 59
_space_group.IT_coordinate_system_code '2'
_symmetry_cell_setting 'orthorhombic'
loop_
_space_group_symop_operation_xyz
x,y,z
1/2-x,1/2-y,z
1/2+x,-y,-z
-x,1/2+y,-z
-x,-y,-z
1/2+x,1/2+y,-z
1/2-x,y,z
x,1/2-y,z
loop_
_atom_site_type_symbol
_atom_site_label
_atom_site_fract_x
_atom_site_fract_y
_atom_site_fract_z
Si Si1 0.429994 0.091069 0.664903
Si Si2 0.074585 0.669138 0.183274
Si Si3 0.571073 0.171627 0.517073
Si Si4 0.071048 0.953907 0.929769
Si Si5 0.429917 0.546696 0.745162
Si Si6 0.428482 0.329221 0.992746
Si Si7 0.070692 0.173199 0.337864
O O1 0.250000 0.097105 0.663286
O O2 0.495236 0.132617 0.741543
O O3 0.499364 0.121774 0.582886
O O4 0.469006 0.012968 0.682180
O O5 0.250000 0.650071 0.177980
O O6 0.067229 0.750000 0.195891
O O7 0.991788 0.654697 0.097734
O O8 0.750000 0.162363 0.513655
O O9 0.541825 0.250000 0.541457
O O10 0.501259 0.162091 0.427372
O O11 0.250000 0.956070 0.937630
O O12 0.030409 0.975545 0.837573
O O13 0.010872 0.878475 0.944801
O O14 0.000000 0.000000 0.000000
O O15 0.250000 0.556123 0.742794
O O16 0.508660 0.616115 0.721707
O O17 0.250000 0.340682 0.994509
O O18 0.456891 0.250000 0.008576
O O19 0.250000 0.168611 0.343933
O O20 0.032075 0.250000 0.312200
#
# Coordination Sequence:
#
# PCOD9450465 Si02
#       7
#     8   8   8   8   8   8   8
#     4  11  22  36  56  84 119 155 195 240 284 339
#     4  10  20  34  54  82 116 154 196 240 290 348
#     4  10  21  38  61  88 119 156 194 232 281 341
#     4  11  23  40  62  86 116 154 197 243 292 351
#     4  10  24  42  59  84 116 153 193 233 286 347
#     4  10  21  37  57  82 113 149 191 241 296 351
#     4  10  22  41  65  91 116 146 190 241 290 341
#
# _framework density 19.433700999999999
#
# number of rings (size 3 to 8) (size 9 to 14) (size 15 to 20)
#    0.000    1.714    0.000    3.857    0.000    9.714 
#    0.000    2.857    0.000    0.000    0.000    0.000 
#    0.000    0.000    0.000    0.000    0.000    0.000 
#
# Total GULP energy -313069.720818 kJ/mol
# GULP energy per Si atom -5590.530729 kJ/mol
# Density = 1.938947 g / cm^3
# Si number density = 19.433701 Si / 1000 Ang^3
#
#
#
# Elastic Constant Matrix: (Units=GPa)
#
#
# Indices 1 2 3 4 5 6 
#
# 1 64.7693 50.3962 40.6360 0.0000 0.0000 0.0000
# 2 50.3962 86.2851 56.2045 0.0000 0.0000 0.0000
# 3 40.6360 56.2045 71.7987 0.0000 0.0000 0.0000
# 4 0.0000 0.0000 0.0000 35.8630 0.0000 0.0000
# 5 0.0000 0.0000 0.0000 0.0000 35.5766 0.0000
# 6 0.0000 0.0000 0.0000 0.0000 0.0000 34.9542
#
#
#
# Elastic Compliance Matrix: (Units=1/GPa)
#
#
# Indices 1 2 3 4 5 6 
#
# 1 0.029760 -0.013080 -0.006604 0.000000 0.000000 0.000000
# 2 -0.013080 0.029396 -0.015609 0.000000 0.000000 0.000000
# 3 -0.006604 -0.015609 0.029884 0.000000 0.000000 0.000000
# 4 0.000000 0.000000 0.000000 0.027884 0.000000 0.000000
# 5 0.000000 0.000000 0.000000 0.000000 0.028108 0.000000
# 6 0.000000 0.000000 0.000000 0.000000 0.000000 0.028609
#
#
# Mechanical properties :
#
#
# Convention : Reuss Voigt Hill
#
# Bulk Modulus (GPa) = 54.18653 57.48070 55.83361
# Shear Modulus (GPa) = 19.96964 26.31984 23.14474
#
# Velocity S-wave (km/s) = 3.20906 3.68413 3.45477
# Velocity P-wave (km/s) = 6.45555 6.90935 6.68630
#
# Compressibility (1/GPa) = 0.01845477
#
# Stress axis : x y z
#
# Youngs Moduli (GPa) = 33.60171 34.01782 33.46238
#
# Poissons Ratio (x) = 0.44496 0.22100
# Poissons Ratio (y) = 0.43951 0.52230
# Poissons Ratio (z) = 0.22192 0.53097
#
# Static dielectric constant tensor:
#      x y z
#    x 1.644680 0.000000 0.000000 
#    y 0.000000 1.685100 0.000000 
#    z 0.000000 0.000000 1.651510 
# 
# From -- ./inp_files/20907.got.cif
#   From: 2010.05.17/outbox.cif.g08.bks.cpg/sg59_11_cif.got.tgz:20907.got - 2010.06.03 14:40:33.
