data_PCOD9450832
_publ_section_title
;
Structure prediction by ZEFSAII (Michael W. Deem and Ramdas Pophale) SiO2 
 PCOD9450832
Probable space group: P M M N
;
_chemical_formula_sum "Si O2"
_cell_formula_units_Z 48
_cell_length_a 18.691133
_cell_length_b 8.446297
_cell_length_c 16.320683
_cell_angle_alpha 90.000000
_cell_angle_beta 90.000000
_cell_angle_gamma 90.000000
_cell_volume 2576.560271
_symmetry_space_group_name_H-M "P M M N"
_symmetry_group_IT_number 59
_space_group.IT_coordinate_system_code '2'
_symmetry_cell_setting 'orthorhombic'
loop_
_space_group_symop_operation_xyz
x,y,z
1/2-x,1/2-y,z
1/2+x,-y,-z
-x,1/2+y,-z
-x,-y,-z
1/2+x,1/2+y,-z
1/2-x,y,z
x,1/2-y,z
loop_
_atom_site_type_symbol
_atom_site_label
_atom_site_fract_x
_atom_site_fract_y
_atom_site_fract_z
Si Si1 0.475107 0.938404 0.863922
Si Si2 0.250000 0.557103 0.100741
Si Si3 0.032466 0.438768 0.680086
Si Si4 0.250000 0.940044 0.288447
Si Si5 0.667559 0.556894 0.425277
Si Si6 0.602858 0.058368 0.976606
Si Si7 0.116402 0.439648 0.393309
O O1 0.473105 0.750000 0.852236
O O2 0.414408 0.985861 0.929810
O O3 0.470779 0.017413 0.775669
O O4 0.546272 0.985794 0.913417
O O5 0.250000 0.750000 0.102516
O O6 0.250000 0.503920 0.194561
O O7 0.320008 0.506958 0.052852
O O8 0.030035 0.250000 0.671471
O O9 0.107248 0.495104 0.639666
O O10 0.962104 0.504828 0.634380
O O11 0.250000 0.750000 0.289481
O O12 0.321507 0.998716 0.333323
O O13 0.750000 0.503837 0.412591
O O14 0.669361 0.750000 0.423820
O O15 0.638869 0.509056 0.515087
O O16 0.596578 0.250000 0.971501
O O17 0.117327 0.250000 0.391622
#
# Coordination Sequence:
#
# PCOD9450832 Si02
#       7
#     8   4   8   4   8   8   8
#     4  10  20  35  55  81 111 144 185 229 277 332
#     4   9  18  33  53  78 105 138 176 219 271 327
#     4  11  22  36  58  84 112 148 193 236 278 340
#     4  11  21  33  55  88 121 148 184 229 283 349
#     4   9  19  38  60  81 110 151 190 232 287 337
#     4   9  18  35  58  79 107 146 183 225 279 337
#     4  11  21  37  60  83 114 149 188 237 289 336
#
# _framework density 18.629487999999998
#
# number of rings (size 3 to 8) (size 9 to 14) (size 15 to 20)
#    0.000    2.000    0.833    3.250    0.000    2.000 
#    1.500    3.750    0.000    0.000    0.000    0.000 
#    0.000    0.000    0.000    0.000    0.000    0.000 
#
# Total GULP energy -267921.966591 kJ/mol
# GULP energy per Si atom -5581.707637 kJ/mol
# Density = 1.858709 g / cm^3
# Si number density = 18.629488 Si / 1000 Ang^3
#
#
#
# Elastic Constant Matrix: (Units=GPa)
#
#
# Indices 1 2 3 4 5 6 
#
# 1 149.9778 23.3834 80.7300 0.0000 0.0000 0.0000
# 2 23.3834 30.3474 14.4877 0.0000 0.0000 0.0000
# 3 80.7300 14.4877 84.1620 0.0000 0.0000 0.0000
# 4 0.0000 0.0000 0.0000 10.7647 0.0000 0.0000
# 5 0.0000 0.0000 0.0000 0.0000 20.4644 0.0000
# 6 0.0000 0.0000 0.0000 0.0000 0.0000 15.5296
#
#
#
# Elastic Compliance Matrix: (Units=1/GPa)
#
#
# Indices 1 2 3 4 5 6 
#
# 1 0.014428 -0.004914 -0.012994 0.000000 0.000000 0.000000
# 2 -0.004914 0.037576 -0.001755 0.000000 0.000000 0.000000
# 3 -0.012994 -0.001755 0.024648 0.000000 0.000000 0.000000
# 4 0.000000 0.000000 0.000000 0.092896 0.000000 0.000000
# 5 0.000000 0.000000 0.000000 0.000000 0.048865 0.000000
# 6 0.000000 0.000000 0.000000 0.000000 0.000000 0.064393
#
#
# Mechanical properties :
#
#
# Convention : Reuss Voigt Hill
#
# Bulk Modulus (GPa) = 26.79052 55.74329 41.26690
# Shear Modulus (GPa) = 14.94437 19.07748 17.01093
#
# Velocity S-wave (km/s) = 2.83537 3.20355 3.02506
# Velocity P-wave (km/s) = 5.01308 6.60838 5.86522
#
# Compressibility (1/GPa) = 0.03732664
#
# Stress axis : x y z
#
# Youngs Moduli (GPa) = 69.30890 26.61287 40.57136
#
# Poissons Ratio (x) = 0.13078 0.52718
# Poissons Ratio (y) = 0.34058 0.07119
# Poissons Ratio (z) = 0.90059 0.04670
#
# Static dielectric constant tensor:
#      x y z
#    x 1.636250 0.000000 0.000000 
#    y 0.000000 1.638250 0.000000 
#    z 0.000000 0.000000 1.623040 
# 
# From -- ./inp_files/20524.got.cif
#   From: 2010.05.17/outbox.cif.g08.bks.cpg/sg59_11_cif.got.tgz:20524.got - 2010.06.03 14:40:33.
