data_PCOD9450630
_publ_section_title
;
Structure prediction by ZEFSAII (Michael W. Deem and Ramdas Pophale) SiO2 
 PCOD9450630
Probable space group: P M M N
;
_chemical_formula_sum "Si O2"
_cell_formula_units_Z 56
_cell_length_a 15.993222
_cell_length_b 9.115772
_cell_length_c 21.013132
_cell_angle_alpha 90.000000
_cell_angle_beta 90.000000
_cell_angle_gamma 90.000000
_cell_volume 3063.516393
_symmetry_space_group_name_H-M "P M M N"
_symmetry_group_IT_number 59
_space_group.IT_coordinate_system_code '2'
_symmetry_cell_setting 'orthorhombic'
loop_
_space_group_symop_operation_xyz
x,y,z
1/2-x,1/2-y,z
1/2+x,-y,-z
-x,1/2+y,-z
-x,-y,-z
1/2+x,1/2+y,-z
1/2-x,y,z
x,1/2-y,z
loop_
_atom_site_type_symbol
_atom_site_label
_atom_site_fract_x
_atom_site_fract_y
_atom_site_fract_z
Si Si1 0.250000 0.928351 0.405735
Si Si2 0.090797 0.425226 0.192878
Si Si3 0.993962 0.075936 0.067946
Si Si4 0.442864 0.418660 0.735535
Si Si5 0.250000 0.574083 0.255685
Si Si6 0.153693 0.419315 0.862700
Si Si7 0.846377 0.419063 0.368346
Si Si8 0.089760 0.920672 0.488695
O O1 0.250000 0.750000 0.411966
O O2 0.250000 0.966238 0.330906
O O3 0.162078 0.976859 0.439426
O O4 0.101210 0.250000 0.195643
O O5 0.170644 0.507849 0.219603
O O6 0.064410 0.465839 0.120457
O O7 0.014870 0.477532 0.237528
O O8 0.997093 0.250000 0.060429
O O9 0.907503 0.025505 0.099903
O O10 0.000000 0.000000 0.000000
O O11 0.471982 0.250000 0.732292
O O12 0.369546 0.426785 0.788237
O O13 0.407756 0.475321 0.669379
O O14 0.250000 0.750000 0.252383
O O15 0.250000 0.453186 0.873092
O O16 0.137514 0.250000 0.882479
O O17 0.750000 0.457900 0.356349
O O18 0.859330 0.250000 0.347256
O O19 0.864697 0.424355 0.443030
O O20 0.072270 0.750000 0.471989
O O21 0.000000 0.000000 0.500000
#
# Coordination Sequence:
#
# PCOD9450630 Si02
#       8
#     4   8   8   8   4   8   8   8
#     4   9  20  41  63  83 117 156 197 248 309 363
#     4  10  22  41  61  86 119 155 195 240 291 351
#     4  10  21  38  61  86 116 153 190 232 284 337
#     4  10  20  34  56  84 115 149 187 235 287 341
#     4  11  23  39  63  91 117 154 203 254 301 347
#     4   9  18  34  55  81 113 148 184 224 274 333
#     4  10  20  35  55  79 111 150 189 233 293 358
#     4  10  21  39  59  81 111 150 194 245 300 365
#
# _framework density 18.279646
#
# number of rings (size 3 to 8) (size 9 to 14) (size 15 to 20)
#    0.000    2.143    0.714    1.929    2.000    4.000 
#    1.286    1.071    0.000    0.000    0.000    0.000 
#    0.000    0.000    0.000    0.000    0.000    0.000 
#
# Total GULP energy -312342.645406 kJ/mol
# GULP energy per Si atom -5577.547239 kJ/mol
# Density = 1.823804 g / cm^3
# Si number density = 18.279646 Si / 1000 Ang^3
#
#
#
# Elastic Constant Matrix: (Units=GPa)
#
#
# Indices 1 2 3 4 5 6 
#
# 1 111.7203 44.9264 55.1683 0.0000 0.0000 0.0000
# 2 44.9264 55.1042 50.5303 0.0000 0.0000 0.0000
# 3 55.1683 50.5303 105.5385 0.0000 0.0000 0.0000
# 4 0.0000 0.0000 0.0000 29.6053 0.0000 0.0000
# 5 0.0000 0.0000 0.0000 0.0000 14.4182 0.0000
# 6 0.0000 0.0000 0.0000 0.0000 0.0000 31.8585
#
#
#
# Elastic Compliance Matrix: (Units=1/GPa)
#
#
# Indices 1 2 3 4 5 6 
#
# 1 0.013929 -0.008342 -0.003287 0.000000 0.000000 0.000000
# 2 -0.008342 0.037347 -0.013521 0.000000 0.000000 0.000000
# 3 -0.003287 -0.013521 0.017667 0.000000 0.000000 0.000000
# 4 0.000000 0.000000 0.000000 0.033778 0.000000 0.000000
# 5 0.000000 0.000000 0.000000 0.000000 0.069357 0.000000
# 6 0.000000 0.000000 0.000000 0.000000 0.000000 0.031389
#
#
# Mechanical properties :
#
#
# Convention : Reuss Voigt Hill
#
# Bulk Modulus (GPa) = 53.63790 63.73477 58.68633
# Shear Modulus (GPa) = 19.23233 23.29227 21.26230
#
# Velocity S-wave (km/s) = 3.24715 3.57349 3.41423
# Velocity P-wave (km/s) = 6.59283 7.20893 6.90775
#
# Compressibility (1/GPa) = 0.01864353
#
# Stress axis : x y z
#
# Youngs Moduli (GPa) = 71.79494 26.77606 56.60307
#
# Poissons Ratio (x) = 0.22336 0.18605
# Poissons Ratio (y) = 0.59890 0.76531
# Poissons Ratio (z) = 0.23599 0.36203
#
# Static dielectric constant tensor:
#      x y z
#    x 1.634430 0.000000 0.000000 
#    y 0.000000 1.628500 0.000000 
#    z 0.000000 0.000000 1.626630 
# 
# From -- ./inp_files/30427.got.cif
#   From: 2010.05.17/outbox.cif.g08.bks.cpg/sg59_16_cif.got.tgz:30427.got - 2010.06.03 14:40:33.
