data_PCOD9450021
_publ_section_title
;
Structure prediction by ZEFSAII (Michael W. Deem and Ramdas Pophale) SiO2 
 PCOD9450021
Probable space group: P M M N
;
_chemical_formula_sum "Si O2"
_cell_formula_units_Z 64
_cell_length_a 7.749215
_cell_length_b 21.880861
_cell_length_c 17.338378
_cell_angle_alpha 90.000000
_cell_angle_beta 90.000000
_cell_angle_gamma 90.000000
_cell_volume 2939.886640
_symmetry_space_group_name_H-M "P M M N"
_symmetry_group_IT_number 59
_space_group.IT_coordinate_system_code '2'
_symmetry_cell_setting 'orthorhombic'
loop_
_space_group_symop_operation_xyz
x,y,z
1/2-x,1/2-y,z
1/2+x,-y,-z
-x,1/2+y,-z
-x,-y,-z
1/2+x,1/2+y,-z
1/2-x,y,z
x,1/2-y,z
loop_
_atom_site_type_symbol
_atom_site_label
_atom_site_fract_x
_atom_site_fract_y
_atom_site_fract_z
Si Si1 0.038744 0.060314 0.283812
Si Si2 0.546763 0.823218 0.266804
Si Si3 0.542534 0.937029 0.542223
Si Si4 0.052373 0.130551 0.895001
Si Si5 0.551125 0.814272 0.783773
Si Si6 0.052851 0.863923 0.937088
Si Si7 0.542944 0.504087 0.873444
Si Si8 0.038466 0.178766 0.559746
O O1 0.250000 0.059528 0.283252
O O2 0.978413 0.053672 0.370565
O O3 0.975087 0.125937 0.254289
O O4 0.989812 0.013889 0.216069
O O5 0.750000 0.840462 0.268526
O O6 0.535620 0.750000 0.259651
O O7 0.472847 0.851612 0.188016
O O8 0.479304 0.837798 0.352723
O O9 0.750000 0.931049 0.545665
O O10 0.482096 0.874916 0.498849
O O11 0.500000 0.000000 0.500000
O O12 0.250000 0.151897 0.894716
O O13 0.043423 0.057411 0.901746
O O14 0.970693 0.153694 0.974198
O O15 0.750000 0.812494 0.757680
O O16 0.467820 0.750000 0.764558
O O17 0.552206 0.825040 0.875355
O O18 0.250000 0.855519 0.915277
O O19 0.005116 0.934837 0.920208
O O20 0.750000 0.497070 0.877997
O O21 0.250000 0.179207 0.560478
O O22 0.988077 0.250000 0.543190
#
# Coordination Sequence:
#
# PCOD9450021 Si02
#       8
#     8   8   8   8   8   8   8   8
#     4   8  17  33  51  76 107 138 172 215 264 318
#     4   8  16  31  49  72 102 134 172 217 259 306
#     4  10  20  33  53  83 116 145 179 226 278 329
#     4  11  21  32  52  78 102 134 177 221 268 324
#     4   9  18  35  58  79 104 141 181 220 267 321
#     4  11  22  36  52  75 107 138 174 221 269 319
#     4  10  20  36  54  72 102 140 178 219 266 322
#     4   8  15  30  52  77 106 141 182 226 266 311
#
# _framework density 21.769548
#
# number of rings (size 3 to 8) (size 9 to 14) (size 15 to 20)
#    0.000    2.625    0.000    3.750    1.750    1.250 
#    0.000    6.250    0.000    1.500    0.000    3.500 
#    0.000    0.000    0.000    0.000    0.000    0.000 
#
# Total GULP energy -356907.991680 kJ/mol
# GULP energy per Si atom -5576.687370 kJ/mol
# Density = 2.172000 g / cm^3
# Si number density = 21.769548 Si / 1000 Ang^3
#
#
#
# Elastic Constant Matrix: (Units=GPa)
#
#
# Indices 1 2 3 4 5 6 
#
# 1 42.4809 -10.9926 -2.3366 0.0000 0.0000 0.0000
# 2 -10.9926 38.8992 26.1060 0.0000 0.0000 0.0000
# 3 -2.3366 26.1060 136.2607 0.0000 0.0000 0.0000
# 4 0.0000 0.0000 0.0000 7.9899 0.0000 0.0000
# 5 0.0000 0.0000 0.0000 0.0000 2.3554 0.0000
# 6 0.0000 0.0000 0.0000 0.0000 0.0000 7.0765
#
#
#
# Elastic Compliance Matrix: (Units=1/GPa)
#
#
# Indices 1 2 3 4 5 6 
#
# 1 0.025536 0.007944 -0.001084 0.000000 0.000000 0.000000
# 2 0.007944 0.031972 -0.005989 0.000000 0.000000 0.000000
# 3 -0.001084 -0.005989 0.008468 0.000000 0.000000 0.000000
# 4 0.000000 0.000000 0.000000 0.125158 0.000000 0.000000
# 5 0.000000 0.000000 0.000000 0.000000 0.424565 0.000000
# 6 0.000000 0.000000 0.000000 0.000000 0.000000 0.141312
#
#
# Mechanical properties :
#
#
# Convention : Reuss Voigt Hill
#
# Bulk Modulus (GPa) = 14.76741 27.02158 20.89449
# Shear Modulus (GPa) = 6.42804 17.14195 11.78500
#
# Velocity S-wave (km/s) = 1.72023 2.80916 2.32922
# Velocity P-wave (km/s) = 3.27778 4.79180 4.10519
#
# Compressibility (1/GPa) = 0.06771667
#
# Stress axis : x y z
#
# Youngs Moduli (GPa) = 39.16044 31.27751 118.09510
#
# Poissons Ratio (x) = -0.24846 0.12802
# Poissons Ratio (y) = -0.31108 0.70730
# Poissons Ratio (z) = 0.04245 0.18733
#
# Static dielectric constant tensor:
#      x y z
#    x 1.796000 0.000000 0.000000 
#    y 0.000000 1.771230 0.000000 
#    z 0.000000 0.000000 1.820950 
# 
# From -- ./inp_files/26339.got.cif
#   From: 2010.05.17/outbox.cif.g08.bks.cpg/sg59_14_cif.got.tgz:26339.got - 2010.06.03 14:40:33.
