data_PCOD9450343
_publ_section_title
;
Structure prediction by ZEFSAII (Michael W. Deem and Ramdas Pophale) SiO2 
 PCOD9450343
Probable space group: P M M N
;
_chemical_formula_sum "Si O2"
_cell_formula_units_Z 40
_cell_length_a 7.375397
_cell_length_b 18.436463
_cell_length_c 12.781461
_cell_angle_alpha 90.000000
_cell_angle_beta 90.000000
_cell_angle_gamma 90.000000
_cell_volume 1737.974931
_symmetry_space_group_name_H-M "P M M N"
_symmetry_group_IT_number 59
_space_group.IT_coordinate_system_code '2'
_symmetry_cell_setting 'orthorhombic'
loop_
_space_group_symop_operation_xyz
x,y,z
1/2-x,1/2-y,z
1/2+x,-y,-z
-x,1/2+y,-z
-x,-y,-z
1/2+x,1/2+y,-z
1/2-x,y,z
x,1/2-y,z
loop_
_atom_site_type_symbol
_atom_site_label
_atom_site_fract_x
_atom_site_fract_y
_atom_site_fract_z
Si Si1 0.035636 0.910563 0.731713
Si Si2 0.468156 0.330067 0.473273
Si Si3 0.457273 0.441128 0.641164
Si Si4 0.030729 0.666279 0.173089
Si Si5 0.528958 0.333656 0.063257
O O1 0.250000 0.923587 0.746946
O O2 0.963863 0.885260 0.843906
O O3 0.012058 0.847592 0.646481
O O4 0.958373 0.983619 0.679807
O O5 0.250000 0.329336 0.484659
O O6 0.533986 0.250000 0.503967
O O7 0.539494 0.395008 0.546141
O O8 0.250000 0.457753 0.609695
O O9 0.457551 0.387134 0.739732
O O10 0.250000 0.663417 0.177572
O O11 0.977582 0.750000 0.191971
O O12 0.974974 0.646289 0.054777
O O13 0.750000 0.334076 0.064555
O O14 0.474888 0.250000 0.082004
#
# Coordination Sequence:
#
# PCOD9450343 Si02
#       5
#     8   8   8   8   8
#     4  10  20  34  54  78 102 132 171 209 248 301
#     4  10  21  36  52  71 100 136 169 207 258 304
#     4  10  21  35  51  75 107 137 164 203 257 305
#     4   9  18  33  53  75  99 132 173 210 246 295
#     4   8  15  30  51  74 101 131 165 210 256 290
#
# _framework density 23.015293
#
# number of rings (size 3 to 8) (size 9 to 14) (size 15 to 20)
#    0.000    2.600    0.000    3.000    0.000    4.800 
#    0.000    1.000    0.000    1.200    0.000    0.000 
#    0.000    0.000    0.000    0.000    0.000    0.000 
#
# Total GULP energy -223507.577877 kJ/mol
# GULP energy per Si atom -5587.689447 kJ/mol
# Density = 2.296291 g / cm^3
# Si number density = 23.015293 Si / 1000 Ang^3
#
#
#
# Elastic Constant Matrix: (Units=GPa)
#
#
# Indices 1 2 3 4 5 6 
#
# 1 82.7234 -3.7267 -11.9341 0.0000 0.0000 0.0000
# 2 -3.7267 57.9655 21.7314 0.0000 0.0000 0.0000
# 3 -11.9341 21.7314 92.8825 0.0000 0.0000 0.0000
# 4 0.0000 0.0000 0.0000 78.1061 0.0000 0.0000
# 5 0.0000 0.0000 0.0000 0.0000 12.2631 0.0000
# 6 0.0000 0.0000 0.0000 0.0000 0.0000 -8.0727
#
#
#
# Elastic Compliance Matrix: (Units=1/GPa)
#
#
# Indices 1 2 3 4 5 6 
#
# 1 0.012319 0.000218 0.001532 0.000000 0.000000 0.000000
# 2 0.000218 0.018914 -0.004397 0.000000 0.000000 0.000000
# 3 0.001532 -0.004397 0.011992 0.000000 0.000000 0.000000
# 4 0.000000 0.000000 0.000000 0.012803 0.000000 0.000000
# 5 0.000000 0.000000 0.000000 0.000000 0.081545 0.000000
# 6 0.000000 0.000000 0.000000 0.000000 0.000000 -0.123874
#
#
# Mechanical properties :
#
#
# Convention : Reuss Voigt Hill
#
# Bulk Modulus (GPa) = 26.36431 27.30139 26.83285
# Shear Modulus (GPa) = 158.03632 31.62601 94.83117
#
# Velocity S-wave (km/s) = 8.29547 3.71095 6.42596
# Velocity P-wave (km/s) = 10.16037 5.49996 8.16954
#
# Compressibility (1/GPa) = 0.03793007
#
# Stress axis : x y z
#
# Youngs Moduli (GPa) = 81.17348 52.87027 83.38925
#
# Poissons Ratio (x) = -0.01151 -0.12775
# Poissons Ratio (y) = -0.01767 0.36669
# Poissons Ratio (z) = -0.12435 0.23249
#
# Static dielectric constant tensor:
#      x y z
#    x 1.853580 0.000000 0.000000 
#    y 0.000000 1.840230 0.000000 
#    z 0.000000 0.000000 1.821280 
# 
# From -- ./inp_files/13826.got.cif
#   From: 2010.05.17/outbox.cif.g08.bks.cpg/sg59_7_cif.got.tgz:13826.got - 2010.06.03 14:40:33.
