data_PCOD9450182
_publ_section_title
;
Structure prediction by ZEFSAII (Michael W. Deem and Ramdas Pophale) SiO2 
 PCOD9450182
Probable space group: P M M N
;
_chemical_formula_sum "Si O2"
_cell_formula_units_Z 64
_cell_length_a 7.627172
_cell_length_b 16.347061
_cell_length_c 24.355498
_cell_angle_alpha 90.000000
_cell_angle_beta 90.000000
_cell_angle_gamma 90.000000
_cell_volume 3036.688449
_symmetry_space_group_name_H-M "P M M N"
_symmetry_group_IT_number 59
_space_group.IT_coordinate_system_code '2'
_symmetry_cell_setting 'orthorhombic'
loop_
_space_group_symop_operation_xyz
x,y,z
1/2-x,1/2-y,z
1/2+x,-y,-z
-x,1/2+y,-z
-x,-y,-z
1/2+x,1/2+y,-z
1/2-x,y,z
x,1/2-y,z
loop_
_atom_site_type_symbol
_atom_site_label
_atom_site_fract_x
_atom_site_fract_y
_atom_site_fract_z
Si Si1 0.457548 0.990449 0.637459
Si Si2 0.540009 0.085978 0.470336
Si Si3 0.533820 0.495465 0.238230
Si Si4 0.540244 0.903816 0.944964
Si Si5 0.957319 0.338441 0.171250
Si Si6 0.954382 0.660448 0.181103
Si Si7 0.537466 0.338895 0.579648
Si Si8 0.543868 0.408913 0.933575
O O1 0.250000 0.974551 0.640878
O O2 0.525583 0.985464 0.699077
O O3 0.479091 0.082584 0.614223
O O4 0.529672 0.927717 0.591279
O O5 0.750000 0.096423 0.466069
O O6 0.477952 0.150004 0.516071
O O7 0.500000 0.000000 0.500000
O O8 0.750000 0.496650 0.236900
O O9 0.473084 0.418597 0.201970
O O10 0.472276 0.581382 0.212522
O O11 0.750000 0.906270 0.945067
O O12 0.479987 0.851140 0.893692
O O13 0.474449 0.997364 0.935669
O O14 0.482895 0.875247 0.005161
O O15 0.750000 0.336684 0.182961
O O16 0.031504 0.250000 0.187525
O O17 0.750000 0.664432 0.196643
O O18 0.032920 0.750000 0.192174
O O19 0.962791 0.640946 0.116234
O O20 0.750000 0.340958 0.579682
O O21 0.480733 0.250000 0.600604
O O22 0.750000 0.412479 0.922269
#
# Coordination Sequence:
#
# PCOD9450182 Si02
#       8
#     8   8   8   8   8   8   8   8
#     4   9  17  30  50  72  94 128 170 208 245 289
#     4   8  14  26  44  66  92 122 158 194 235 284
#     4   9  18  34  53  74 103 133 168 215 255 296
#     4  10  20  34  55  80 104 132 166 206 256 309
#     4  10  20  35  56  78 100 131 168 208 258 308
#     4  10  20  34  53  74  99 136 173 205 250 305
#     4   9  17  29  45  69 102 134 162 200 250 299
#     4  10  20  34  54  79 105 133 165 206 257 307
#
# _framework density 21.075589999999998
#
# number of rings (size 3 to 8) (size 9 to 14) (size 15 to 20)
#    0.000    2.625    1.250    0.750    0.000    2.750 
#    0.000    3.125    0.000    3.750    0.000    0.000 
#    0.000    3.000    0.000    0.000    0.000    0.000 
#
# Total GULP energy -356882.834832 kJ/mol
# GULP energy per Si atom -5576.294294 kJ/mol
# Density = 2.102762 g / cm^3
# Si number density = 21.075590 Si / 1000 Ang^3
#
#
#
# Elastic Constant Matrix: (Units=GPa)
#
#
# Indices 1 2 3 4 5 6 
#
# 1 44.0719 3.2669 -6.6481 0.0000 0.0000 0.0000
# 2 3.2669 81.0939 37.5231 0.0000 0.0000 0.0000
# 3 -6.6481 37.5231 120.0331 0.0000 0.0000 0.0000
# 4 0.0000 0.0000 0.0000 17.1631 0.0000 0.0000
# 5 0.0000 0.0000 0.0000 0.0000 4.0964 0.0000
# 6 0.0000 0.0000 0.0000 0.0000 0.0000 3.0324
#
#
#
# Elastic Compliance Matrix: (Units=1/GPa)
#
#
# Indices 1 2 3 4 5 6 
#
# 1 0.023099 -0.001780 0.001836 0.000000 0.000000 0.000000
# 2 -0.001780 0.014554 -0.004648 0.000000 0.000000 0.000000
# 3 0.001836 -0.004648 0.009886 0.000000 0.000000 0.000000
# 4 0.000000 0.000000 0.000000 0.058265 0.000000 0.000000
# 5 0.000000 0.000000 0.000000 0.000000 0.244119 0.000000
# 6 0.000000 0.000000 0.000000 0.000000 0.000000 0.329776
#
#
# Mechanical properties :
#
#
# Convention : Reuss Voigt Hill
#
# Bulk Modulus (GPa) = 26.07298 34.83141 30.45220
# Shear Modulus (GPa) = 7.12588 18.92882 13.02735
#
# Velocity S-wave (km/s) = 1.84077 3.00015 2.48891
# Velocity P-wave (km/s) = 4.11290 5.34453 4.76864
#
# Compressibility (1/GPa) = 0.03835388
#
# Stress axis : x y z
#
# Youngs Moduli (GPa) = 43.29175 68.71021 101.15543
#
# Poissons Ratio (x) = 0.12230 -0.18570
# Poissons Ratio (y) = 0.07706 0.47019
# Poissons Ratio (z) = -0.07947 0.31938
#
# Static dielectric constant tensor:
#      x y z
#    x 1.773890 0.000000 0.000000 
#    y 0.000000 1.773640 0.000000 
#    z 0.000000 0.000000 1.755040 
# 
# From -- ./inp_files/29417.got.cif
#   From: 2010.05.17/outbox.cif.g08.bks.cpg/sg59_15_cif.got.tgz:29417.got - 2010.06.03 14:40:33.
