data_PCOD9450469
_publ_section_title
;
Structure prediction by ZEFSAII (Michael W. Deem and Ramdas Pophale) SiO2 
 PCOD9450469
Probable space group: P M M N
;
_chemical_formula_sum "Si O2"
_cell_formula_units_Z 48
_cell_length_a 7.854350
_cell_length_b 9.753802
_cell_length_c 29.181600
_cell_angle_alpha 90.000000
_cell_angle_beta 90.000000
_cell_angle_gamma 90.000000
_cell_volume 2235.595803
_symmetry_space_group_name_H-M "P M M N"
_symmetry_group_IT_number 59
_space_group.IT_coordinate_system_code '2'
_symmetry_cell_setting 'orthorhombic'
loop_
_space_group_symop_operation_xyz
x,y,z
1/2-x,1/2-y,z
1/2+x,-y,-z
-x,1/2+y,-z
-x,-y,-z
1/2+x,1/2+y,-z
1/2-x,y,z
x,1/2-y,z
loop_
_atom_site_type_symbol
_atom_site_label
_atom_site_fract_x
_atom_site_fract_y
_atom_site_fract_z
Si Si1 0.041397 0.408886 0.131089
Si Si2 0.545761 0.250000 0.465447
Si Si3 0.958597 0.250000 0.570496
Si Si4 0.545013 0.408927 0.955842
Si Si5 0.951630 0.533691 0.609612
Si Si6 0.448235 0.898203 0.710138
Si Si7 0.950944 0.404301 0.785566
O O1 0.250000 0.405020 0.131000
O O2 0.985168 0.250000 0.128319
O O3 0.987386 0.503884 0.088393
O O4 0.982562 0.487828 0.176857
O O5 0.750000 0.250000 0.466096
O O6 0.484340 0.250000 0.517680
O O7 0.484401 0.377952 0.435660
O O8 0.750000 0.250000 0.569407
O O9 0.014419 0.383236 0.597534
O O10 0.750000 0.401066 0.953250
O O11 0.482654 0.250000 0.957533
O O12 0.500000 0.500000 0.000000
O O13 0.750000 0.532414 0.618329
O O14 0.034704 0.590203 0.655508
O O15 0.250000 0.899282 0.721998
O O16 0.522569 0.750000 0.724421
O O17 0.529080 0.025704 0.736182
O O18 0.750000 0.392571 0.794937
O O19 0.022929 0.250000 0.788028
#
# Coordination Sequence:
#
# PCOD9450469 Si02
#       7
#     8   4   4   8   8   8   8
#     4   9  17  32  56  84 114 150 193 239 288 344
#     4  11  21  39  61  87 121 153 185 233 288 339
#     4   9  22  39  59  87 119 149 189 239 284 331
#     4  10  20  34  54  82 117 156 199 247 297 348
#     4  11  22  39  62  87 114 151 195 236 279 338
#     4  11  24  41  59  82 114 149 187 235 289 341
#     4  10  21  37  60  88 115 145 185 234 285 343
#
# _framework density 21.470787000000001
#
# number of rings (size 3 to 8) (size 9 to 14) (size 15 to 20)
#    0.000    1.833    0.833    3.250    1.167    5.000 
#    0.000    4.583    0.000    5.000    0.000    0.000 
#    0.000    0.000    0.000    0.000    0.000    0.000 
#
# Total GULP energy -268115.368914 kJ/mol
# GULP energy per Si atom -5585.736852 kJ/mol
# Density = 2.142192 g / cm^3
# Si number density = 21.470787 Si / 1000 Ang^3
#
#
#
# Elastic Constant Matrix: (Units=GPa)
#
#
# Indices 1 2 3 4 5 6 
#
# 1 26.4988 8.8040 -2.6985 0.0000 0.0000 0.0000
# 2 8.8040 211.0310 54.9973 0.0000 0.0000 0.0000
# 3 -2.6985 54.9973 96.2598 0.0000 0.0000 0.0000
# 4 0.0000 0.0000 0.0000 36.4247 0.0000 0.0000
# 5 0.0000 0.0000 0.0000 0.0000 22.3790 0.0000
# 6 0.0000 0.0000 0.0000 0.0000 0.0000 14.1555
#
#
#
# Elastic Compliance Matrix: (Units=1/GPa)
#
#
# Indices 1 2 3 4 5 6 
#
# 1 0.038719 -0.002230 0.002360 0.000000 0.000000 0.000000
# 2 -0.002230 0.005696 -0.003317 0.000000 0.000000 0.000000
# 3 0.002360 -0.003317 0.012350 0.000000 0.000000 0.000000
# 4 0.000000 0.000000 0.000000 0.027454 0.000000 0.000000
# 5 0.000000 0.000000 0.000000 0.000000 0.044685 0.000000
# 6 0.000000 0.000000 0.000000 0.000000 0.000000 0.070644
#
#
# Mechanical properties :
#
#
# Convention : Reuss Voigt Hill
#
# Bulk Modulus (GPa) = 19.84536 50.66614 35.25575
# Shear Modulus (GPa) = 22.44980 32.77095 27.61037
#
# Velocity S-wave (km/s) = 3.23708 3.91103 3.58991
# Velocity P-wave (km/s) = 4.82023 6.63655 5.79993
#
# Compressibility (1/GPa) = 0.05038960
#
# Stress axis : x y z
#
# Youngs Moduli (GPa) = 25.82724 175.55792 80.97286
#
# Poissons Ratio (x) = 0.39154 -0.19107
# Poissons Ratio (y) = 0.05760 0.26858
# Poissons Ratio (z) = -0.06094 0.58232
#
# Static dielectric constant tensor:
#      x y z
#    x 1.794040 0.000000 0.000000 
#    y 0.000000 0.412360 0.000000 
#    z 0.000000 0.000000 1.745500 
# 
# From -- ./inp_files/32982.got.cif
#   From: 2010.05.17/outbox.cif.g08.bks.cpg/sg59_17_cif.got.tgz:32982.got - 2010.06.03 14:40:33.
