data_PCOD9450278
_publ_section_title
;
Structure prediction by ZEFSAII (Michael W. Deem and Ramdas Pophale) SiO2 
 PCOD9450278
Probable space group: P M M N
;
_chemical_formula_sum "Si O2"
_cell_formula_units_Z 48
_cell_length_a 7.990378
_cell_length_b 9.371043
_cell_length_c 31.975525
_cell_angle_alpha 90.000000
_cell_angle_beta 90.000000
_cell_angle_gamma 90.000000
_cell_volume 2394.268983
_symmetry_space_group_name_H-M "P M M N"
_symmetry_group_IT_number 59
_space_group.IT_coordinate_system_code '2'
_symmetry_cell_setting 'orthorhombic'
loop_
_space_group_symop_operation_xyz
x,y,z
1/2-x,1/2-y,z
1/2+x,-y,-z
-x,1/2+y,-z
-x,-y,-z
1/2+x,1/2+y,-z
1/2-x,y,z
x,1/2-y,z
loop_
_atom_site_type_symbol
_atom_site_label
_atom_site_fract_x
_atom_site_fract_y
_atom_site_fract_z
Si Si1 0.048092 0.586428 0.541325
Si Si2 0.049792 0.911877 0.704589
Si Si3 0.955052 0.585241 0.376469
Si Si4 0.948566 0.411880 0.785400
Si Si5 0.048687 0.912449 0.959462
Si Si6 0.047696 0.583574 0.866933
O O1 0.250000 0.591555 0.543265
O O2 0.986752 0.750000 0.540239
O O3 0.990587 0.501870 0.582580
O O4 0.000000 0.500000 0.500000
O O5 0.250000 0.902258 0.699505
O O6 0.983036 0.750000 0.704836
O O7 0.987374 0.004795 0.665429
O O8 0.017445 0.991982 0.747913
O O9 0.750000 0.586019 0.376323
O O10 0.008916 0.750000 0.377559
O O11 0.750000 0.405417 0.779962
O O12 0.016108 0.250000 0.783858
O O13 0.985106 0.485673 0.829666
O O14 0.250000 0.909479 0.957815
O O15 0.988347 0.750000 0.963949
O O16 0.992378 0.964271 0.913486
O O17 0.000000 0.000000 0.000000
O O18 0.250000 0.581104 0.865847
O O19 0.997380 0.750000 0.861364
#
# Coordination Sequence:
#
# PCOD9450278 Si02
#       6
#     8   8   8   8   8   8
#     4  10  20  34  53  78 108 141 178 220 264 311
#     4  10  20  35  57  82 105 133 172 215 258 308
#     4   9  17  31  53  79 106 137 173 214 260 310
#     4  11  24  38  52  76 109 140 171 212 262 312
#     4   9  19  35  54  78 108 139 173 215 260 307
#     4   9  19  37  58  78 102 136 178 219 258 305
#
# _framework density 20.047872000000002
#
# number of rings (size 3 to 8) (size 9 to 14) (size 15 to 20)
#    0.000    2.333    0.000    3.500    0.000    9.333 
#    0.000    5.833    0.000    5.000    0.000    0.000 
#    0.000    0.000    0.000    0.000    0.000    0.000 
#
# Total GULP energy -267999.170308 kJ/mol
# GULP energy per Si atom -5583.316048 kJ/mol
# Density = 2.000224 g / cm^3
# Si number density = 20.047872 Si / 1000 Ang^3
#
#
#
# Elastic Constant Matrix: (Units=GPa)
#
#
# Indices 1 2 3 4 5 6 
#
# 1 12.0575 9.0285 0.4321 0.0000 0.0000 0.0000
# 2 9.0285 186.5961 121.9653 0.0000 0.0000 0.0000
# 3 0.4321 121.9653 201.4687 0.0000 0.0000 0.0000
# 4 0.0000 0.0000 0.0000 43.0492 0.0000 0.0000
# 5 0.0000 0.0000 0.0000 0.0000 25.7913 0.0000
# 6 0.0000 0.0000 0.0000 0.0000 0.0000 19.9910
#
#
#
# Elastic Compliance Matrix: (Units=1/GPa)
#
#
# Indices 1 2 3 4 5 6 
#
# 1 0.087913 -0.006835 0.003949 0.000000 0.000000 0.000000
# 2 -0.006835 0.009400 -0.005676 0.000000 0.000000 0.000000
# 3 0.003949 -0.005676 0.008391 0.000000 0.000000 0.000000
# 4 0.000000 0.000000 0.000000 0.023229 0.000000 0.000000
# 5 0.000000 0.000000 0.000000 0.000000 0.038773 0.000000
# 6 0.000000 0.000000 0.000000 0.000000 0.000000 0.050023
#
#
# Mechanical properties :
#
#
# Convention : Reuss Voigt Hill
#
# Bulk Modulus (GPa) = 11.28919 73.66378 42.47649
# Shear Modulus (GPa) = 18.91232 35.67938 27.29585
#
# Velocity S-wave (km/s) = 3.07475 4.22324 3.69390
# Velocity P-wave (km/s) = 4.27186 7.78490 6.27907
#
# Compressibility (1/GPa) = 0.08858029
#
# Stress axis : x y z
#
# Youngs Moduli (GPa) = 11.37494 106.38579 119.17416
#
# Poissons Ratio (x) = 0.72715 -0.47065
# Poissons Ratio (y) = 0.07775 0.67640
# Poissons Ratio (z) = -0.04492 0.60382
#
# Static dielectric constant tensor:
#      x y z
#    x 1.734110 0.000000 0.000000 
#    y 0.000000 1.699460 0.000000 
#    z 0.000000 0.000000 1.680100 
# 
# From -- ./inp_files/32787.got.cif
#   From: 2010.05.17/outbox.cif.g08.bks.cpg/sg59_17_cif.got.tgz:32787.got - 2010.06.03 14:40:33.
