data_PCOD9450349
_publ_section_title
;
Structure prediction by ZEFSAII (Michael W. Deem and Ramdas Pophale) SiO2 
 PCOD9450349
Probable space group: P M M N
;
_chemical_formula_sum "Si O2"
_cell_formula_units_Z 64
_cell_length_a 20.514718
_cell_length_b 8.915840
_cell_length_c 20.380894
_cell_angle_alpha 90.000000
_cell_angle_beta 90.000000
_cell_angle_gamma 90.000000
_cell_volume 3727.786643
_symmetry_space_group_name_H-M "P M M N"
_symmetry_group_IT_number 59
_space_group.IT_coordinate_system_code '2'
_symmetry_cell_setting 'orthorhombic'
loop_
_space_group_symop_operation_xyz
x,y,z
1/2-x,1/2-y,z
1/2+x,-y,-z
-x,1/2+y,-z
-x,-y,-z
1/2+x,1/2+y,-z
1/2-x,y,z
x,1/2-y,z
loop_
_atom_site_type_symbol
_atom_site_label
_atom_site_fract_x
_atom_site_fract_y
_atom_site_fract_z
Si Si1 0.325771 0.570617 0.553729
Si Si2 0.431963 0.428979 0.023615
Si Si3 0.940413 0.930246 0.685467
Si Si4 0.580633 0.570476 0.337909
Si Si5 0.175273 0.430759 0.411254
Si Si6 0.675098 0.428426 0.070223
Si Si7 0.466401 0.428813 0.167245
Si Si8 0.894155 0.571525 0.188411
O O1 0.250000 0.533912 0.569475
O O2 0.332476 0.750000 0.553208
O O3 0.374552 0.499836 0.606165
O O4 0.338862 0.505806 0.481272
O O5 0.434492 0.250000 0.014426
O O6 0.426363 0.460772 0.101456
O O7 0.500000 0.500000 0.000000
O O8 0.373869 0.496442 0.981123
O O9 0.947785 0.750000 0.679646
O O10 0.878188 0.975646 0.642518
O O11 0.933398 0.964619 0.763008
O O12 0.007203 0.006265 0.661309
O O13 0.578601 0.750000 0.344336
O O14 0.609239 0.534026 0.265565
O O15 0.250000 0.469033 0.392775
O O16 0.172155 0.250000 0.418624
O O17 0.750000 0.462039 0.054499
O O18 0.665365 0.250000 0.069467
O O19 0.657275 0.490273 0.142137
O O20 0.481098 0.250000 0.167073
O O21 0.534425 0.517175 0.165318
O O22 0.888728 0.750000 0.180899
#
# Coordination Sequence:
#
# PCOD9450349 Si02
#       8
#     8   8   8   8   8   8   8   8
#     4  10  21  36  54  76 103 139 181 220 263 320
#     4  11  21  34  57  84 109 142 183 225 270 323
#     4   9  18  34  55  80 109 140 175 219 268 319
#     4  10  21  35  53  80 110 140 176 219 268 319
#     4   9  18  34  56  79 104 137 177 221 269 318
#     4  11  24  39  54  76 109 147 185 227 274 323
#     4   9  18  33  54  80 108 137 174 217 263 318
#     4  10  20  34  54  78 104 137 176 219 267 320
#
# _framework density 17.168364
#
# number of rings (size 3 to 8) (size 9 to 14) (size 15 to 20)
#    0.000    2.125    1.250    1.875    0.000    5.250 
#    0.000    3.125    0.000    2.250    0.000    1.750 
#    0.000    0.000    0.000    0.000    0.000    0.000 
#
# Total GULP energy -357164.641167 kJ/mol
# GULP energy per Si atom -5580.697518 kJ/mol
# Density = 1.712929 g / cm^3
# Si number density = 17.168364 Si / 1000 Ang^3
#
#
#
# Elastic Constant Matrix: (Units=GPa)
#
#
# Indices 1 2 3 4 5 6 
#
# 1 126.1276 61.5900 104.5951 0.0000 0.0000 0.0000
# 2 61.5900 48.2970 57.9338 0.0000 0.0000 0.0000
# 3 104.5951 57.9338 135.6213 0.0000 0.0000 0.0000
# 4 0.0000 0.0000 0.0000 25.0113 0.0000 0.0000
# 5 0.0000 0.0000 0.0000 0.0000 30.8281 0.0000
# 6 0.0000 0.0000 0.0000 0.0000 0.0000 20.7138
#
#
#
# Elastic Compliance Matrix: (Units=1/GPa)
#
#
# Indices 1 2 3 4 5 6 
#
# 1 0.030013 -0.021551 -0.013941 0.000000 0.000000 0.000000
# 2 -0.021551 0.057939 -0.008129 0.000000 0.000000 0.000000
# 3 -0.013941 -0.008129 0.021598 0.000000 0.000000 0.000000
# 4 0.000000 0.000000 0.000000 0.039982 0.000000 0.000000
# 5 0.000000 0.000000 0.000000 0.000000 0.032438 0.000000
# 6 0.000000 0.000000 0.000000 0.000000 0.000000 0.048277
#
#
# Mechanical properties :
#
#
# Convention : Reuss Voigt Hill
#
# Bulk Modulus (GPa) = 44.82797 84.25374 64.54085
# Shear Modulus (GPa) = 15.38813 21.03911 18.21362
#
# Velocity S-wave (km/s) = 2.99709 3.50445 3.26065
# Velocity P-wave (km/s) = 6.17610 8.09669 7.20072
#
# Compressibility (1/GPa) = 0.02230750
#
# Stress axis : x y z
#
# Youngs Moduli (GPa) = 33.31870 17.25941 46.30124
#
# Poissons Ratio (x) = 0.37196 0.64548
# Poissons Ratio (y) = 0.71806 0.37639
# Poissons Ratio (z) = 0.46449 0.14031
#
# Static dielectric constant tensor:
#      x y z
#    x 1.552370 0.000000 0.000000 
#    y 0.000000 1.571280 0.000000 
#    z 0.000000 0.000000 1.584080 
# 
# From -- ./inp_files/28259.got.cif
#   From: 2010.05.17/outbox.cif.g08.bks.cpg/sg59_15_cif.got.tgz:28259.got - 2010.06.03 14:40:33.
