data_PCOD9450717
_publ_section_title
;
Structure prediction by ZEFSAII (Michael W. Deem and Ramdas Pophale) SiO2 
 PCOD9450717
Probable space group: P M M N
;
_chemical_formula_sum "Si O2"
_cell_formula_units_Z 64
_cell_length_a 16.402259
_cell_length_b 16.068712
_cell_length_c 12.466892
_cell_angle_alpha 90.000000
_cell_angle_beta 90.000000
_cell_angle_gamma 90.000000
_cell_volume 3285.813651
_symmetry_space_group_name_H-M "P M M N"
_symmetry_group_IT_number 59
_space_group.IT_coordinate_system_code '2'
_symmetry_cell_setting 'orthorhombic'
loop_
_space_group_symop_operation_xyz
x,y,z
1/2-x,1/2-y,z
1/2+x,-y,-z
-x,1/2+y,-z
-x,-y,-z
1/2+x,1/2+y,-z
1/2-x,y,z
x,1/2-y,z
loop_
_atom_site_type_symbol
_atom_site_label
_atom_site_fract_x
_atom_site_fract_y
_atom_site_fract_z
Si Si1 0.345370 0.158090 0.088333
Si Si2 0.651199 0.988318 0.771419
Si Si3 0.151411 0.152926 0.626943
Si Si4 0.552426 0.423143 0.951372
Si Si5 0.349664 0.497800 0.474618
Si Si6 0.650475 0.154644 0.385348
Si Si7 0.396351 0.346884 0.862593
Si Si8 0.656675 0.349974 0.142887
O O1 0.250000 0.166504 0.109704
O O2 0.383462 0.250000 0.087113
O O3 0.378381 0.100157 0.181246
O O4 0.352057 0.119193 0.969266
O O5 0.750000 0.991841 0.774428
O O6 0.614308 0.050696 0.857980
O O7 0.624729 0.999356 0.649251
O O8 0.250000 0.154434 0.627079
O O9 0.124603 0.250000 0.611044
O O10 0.124124 0.120691 0.744751
O O11 0.124800 0.086087 0.537532
O O12 0.489417 0.360441 0.894989
O O13 0.500000 0.500000 0.000000
O O14 0.599892 0.385101 0.051110
O O15 0.250000 0.497346 0.475834
O O16 0.376438 0.581996 0.534733
O O17 0.750000 0.156372 0.386857
O O18 0.624020 0.250000 0.408973
O O19 0.627813 0.130858 0.263603
O O20 0.372316 0.250000 0.856705
O O21 0.750000 0.380476 0.130470
O O22 0.658539 0.250000 0.135942
#
# Coordination Sequence:
#
# PCOD9450717 Si02
#       8
#     8   8   8   8   8   8   8   8
#     4   9  17  31  52  76 104 140 178 219 268 322
#     4  10  21  37  53  79 112 143 184 225 264 326
#     4   9  18  33  56  85 111 139 181 229 275 324
#     4  12  23  35  52  81 111 146 178 220 283 333
#     4   9  18  32  54  80 108 142 180 226 273 318
#     4   8  15  30  54  82 106 132 176 234 284 319
#     4  10  20  35  53  76 109 143 178 221 272 330
#     4   9  19  37  60  82 105 139 187 238 278 320
#
# _framework density 19.477671999999998
#
# number of rings (size 3 to 8) (size 9 to 14) (size 15 to 20)
#    0.000    2.500    1.250    1.875    1.750    2.000 
#    0.000    4.375    0.000    3.000    0.000    0.000 
#    0.000    0.000    0.000    0.000    0.000    0.000 
#
# Total GULP energy -356630.111650 kJ/mol
# GULP energy per Si atom -5572.345495 kJ/mol
# Density = 1.943334 g / cm^3
# Si number density = 19.477672 Si / 1000 Ang^3
#
#
#
# Elastic Constant Matrix: (Units=GPa)
#
#
# Indices 1 2 3 4 5 6 
#
# 1 17.4065 10.7757 23.9283 0.0000 0.0000 0.0000
# 2 10.7757 64.3194 73.1014 0.0000 0.0000 0.0000
# 3 23.9283 73.1014 180.6782 0.0000 0.0000 0.0000
# 4 0.0000 0.0000 0.0000 19.1047 0.0000 0.0000
# 5 0.0000 0.0000 0.0000 0.0000 -2.6587 0.0000
# 6 0.0000 0.0000 0.0000 0.0000 0.0000 15.8596
#
#
#
# Elastic Compliance Matrix: (Units=1/GPa)
#
#
# Indices 1 2 3 4 5 6 
#
# 1 0.070408 -0.002218 -0.008427 0.000000 0.000000 0.000000
# 2 -0.002218 0.028853 -0.011380 0.000000 0.000000 0.000000
# 3 -0.008427 -0.011380 0.011255 0.000000 0.000000 0.000000
# 4 0.000000 0.000000 0.000000 0.052343 0.000000 0.000000
# 5 0.000000 0.000000 0.000000 0.000000 -0.376128 0.000000
# 6 0.000000 0.000000 0.000000 0.000000 0.000000 0.063053
#
#
# Mechanical properties :
#
#
# Convention : Reuss Voigt Hill
#
# Bulk Modulus (GPa) = 15.04545 53.11275 34.07910
# Shear Modulus (GPa) = -59.51603 16.76770 -21.37417
#
# Velocity S-wave (km/s) = -5.53375 2.93724 -3.31625
# Velocity P-wave (km/s) = 5.75227 6.23144 1.69445
#
# Compressibility (1/GPa) = 0.06646527
#
# Stress axis : x y z
#
# Youngs Moduli (GPa) = 14.20302 34.65884 88.84944
#
# Poissons Ratio (x) = 0.07687 0.74874
# Poissons Ratio (y) = 0.03150 1.01110
# Poissons Ratio (z) = 0.11969 0.39441
#
# Static dielectric constant tensor:
#      x y z
#    x 1.479360 0.000000 0.000000 
#    y 0.000000 1.741900 0.000000 
#    z 0.000000 0.000000 1.665670 
# 
# From -- ./inp_files/17188.got.cif
#   From: 2010.05.17/outbox.cif.g08.bks.cpg/sg59_9_cif.got.tgz:17188.got - 2010.06.03 14:40:33.
