data_PCOD9450774
_publ_section_title
;
Structure prediction by ZEFSAII (Michael W. Deem and Ramdas Pophale) SiO2 
 PCOD9450774
Probable space group: P M M N
;
_chemical_formula_sum "Si O2"
_cell_formula_units_Z 64
_cell_length_a 19.136832
_cell_length_b 7.728619
_cell_length_c 21.033994
_cell_angle_alpha 90.000000
_cell_angle_beta 90.000000
_cell_angle_gamma 90.000000
_cell_volume 3110.954708
_symmetry_space_group_name_H-M "P M M N"
_symmetry_group_IT_number 59
_space_group.IT_coordinate_system_code '2'
_symmetry_cell_setting 'orthorhombic'
loop_
_space_group_symop_operation_xyz
x,y,z
1/2-x,1/2-y,z
1/2+x,-y,-z
-x,1/2+y,-z
-x,-y,-z
1/2+x,1/2+y,-z
1/2-x,y,z
x,1/2-y,z
loop_
_atom_site_type_symbol
_atom_site_label
_atom_site_fract_x
_atom_site_fract_y
_atom_site_fract_z
Si Si1 0.330020 0.458208 0.567898
Si Si2 0.670491 0.042145 0.574958
Si Si3 0.582416 0.537645 0.310880
Si Si4 0.422479 0.459454 0.930676
Si Si5 0.330086 0.038296 0.812104
Si Si6 0.329122 0.047980 0.194105
Si Si7 0.418024 0.954098 0.074562
Si Si8 0.924295 0.046349 0.688669
O O1 0.250000 0.521824 0.576159
O O2 0.327679 0.250000 0.571825
O O3 0.353296 0.504588 0.496768
O O4 0.380566 0.518738 0.623911
O O5 0.750000 0.975147 0.581882
O O6 0.673957 0.250000 0.581812
O O7 0.619957 0.972865 0.629703
O O8 0.582487 0.750000 0.310164
O O9 0.628072 0.483250 0.250444
O O10 0.502653 0.476213 0.305369
O O11 0.424393 0.250000 0.930517
O O12 0.371085 0.517420 0.875181
O O13 0.502126 0.520873 0.918454
O O14 0.399615 0.515133 0.000979
O O15 0.250000 0.981305 0.811148
O O16 0.329815 0.250000 0.812333
O O17 0.250000 0.976318 0.195258
O O18 0.325047 0.250000 0.209485
O O19 0.364535 0.030328 0.125149
O O20 0.379701 0.968829 0.247116
O O21 0.419565 0.750000 0.087049
O O22 0.933120 0.250000 0.675475
#
# Coordination Sequence:
#
# PCOD9450774 Si02
#       8
#     8   8   8   8   8   8   8   8
#     4   9  17  30  50  75 103 136 172 210 252 299
#     4   9  18  32  49  70  98 132 168 207 255 311
#     4   9  17  30  49  75 104 132 168 213 255 298
#     4   9  18  33  53  79 109 139 173 212 254 302
#     4   9  16  27  47  74 102 132 166 206 252 300
#     4  11  24  39  55  77 105 135 170 217 267 313
#     4  10  20  35  56  79 105 139 175 212 255 306
#     4  10  20  35  55  76 100 133 172 213 258 311
#
# _framework density 20.572462999999999
#
# number of rings (size 3 to 8) (size 9 to 14) (size 15 to 20)
#    0.000    2.500    0.000    2.250    0.000    7.000 
#    0.000    3.125    0.000    0.750    0.000    0.000 
#    0.000    0.000    0.000    0.000    0.000    0.000 
#
# Total GULP energy -357337.755845 kJ/mol
# GULP energy per Si atom -5583.402435 kJ/mol
# Density = 2.052564 g / cm^3
# Si number density = 20.572463 Si / 1000 Ang^3
#
#
#
# Elastic Constant Matrix: (Units=GPa)
#
#
# Indices 1 2 3 4 5 6 
#
# 1 146.0953 2.1632 109.5512 0.0000 0.0000 0.0000
# 2 2.1632 28.0421 -8.8309 0.0000 0.0000 0.0000
# 3 109.5512 -8.8309 151.4047 0.0000 0.0000 0.0000
# 4 0.0000 0.0000 0.0000 26.7015 0.0000 0.0000
# 5 0.0000 0.0000 0.0000 0.0000 40.6139 0.0000
# 6 0.0000 0.0000 0.0000 0.0000 0.0000 112.7644
#
#
#
# Elastic Compliance Matrix: (Units=1/GPa)
#
#
# Indices 1 2 3 4 5 6 
#
# 1 0.015583 -0.004842 -0.011558 0.000000 0.000000 0.000000
# 2 -0.004842 0.037832 0.005710 0.000000 0.000000 0.000000
# 3 -0.011558 0.005710 0.015301 0.000000 0.000000 0.000000
# 4 0.000000 0.000000 0.000000 0.037451 0.000000 0.000000
# 5 0.000000 0.000000 0.000000 0.000000 0.024622 0.000000
# 6 0.000000 0.000000 0.000000 0.000000 0.000000 0.008868
#
#
# Mechanical properties :
#
#
# Convention : Reuss Voigt Hill
#
# Bulk Modulus (GPa) = 21.12518 59.03433 40.07975
# Shear Modulus (GPa) = 28.27786 50.85989 39.56887
#
# Velocity S-wave (km/s) = 3.71151 4.97755 4.39041
# Velocity P-wave (km/s) = 5.35332 7.86084 6.72498
#
# Compressibility (1/GPa) = 0.04733688
#
# Stress axis : x y z
#
# Youngs Moduli (GPa) = 64.17046 26.43240 65.35565
#
# Poissons Ratio (x) = 0.12798 0.75539
# Poissons Ratio (y) = 0.31071 -0.37319
# Poissons Ratio (z) = 0.74169 -0.15093
#
# Static dielectric constant tensor:
#      x y z
#    x 1.727940 0.000000 0.000000 
#    y 0.000000 1.762010 0.000000 
#    z 0.000000 0.000000 1.689510 
# 
# From -- ./inp_files/30826.got.cif
#   From: 2010.05.17/outbox.cif.g08.bks.cpg/sg59_16_cif.got.tgz:30826.got - 2010.06.03 14:40:33.
