data_PCOD9450536
_publ_section_title
;
Structure prediction by ZEFSAII (Michael W. Deem and Ramdas Pophale) SiO2 
 PCOD9450536
Probable space group: P M M N
;
_chemical_formula_sum "Si O2"
_cell_formula_units_Z 64
_cell_length_a 8.540224
_cell_length_b 19.121967
_cell_length_c 21.696490
_cell_angle_alpha 90.000000
_cell_angle_beta 90.000000
_cell_angle_gamma 90.000000
_cell_volume 3543.164425
_symmetry_space_group_name_H-M "P M M N"
_symmetry_group_IT_number 59
_space_group.IT_coordinate_system_code '2'
_symmetry_cell_setting 'orthorhombic'
loop_
_space_group_symop_operation_xyz
x,y,z
1/2-x,1/2-y,z
1/2+x,-y,-z
-x,1/2+y,-z
-x,-y,-z
1/2+x,1/2+y,-z
1/2-x,y,z
x,1/2-y,z
loop_
_atom_site_type_symbol
_atom_site_label
_atom_site_fract_x
_atom_site_fract_y
_atom_site_fract_z
Si Si1 0.440489 0.967127 0.690576
Si Si2 0.937638 0.669195 0.890465
Si Si3 0.938389 0.328840 0.244835
Si Si4 0.937865 0.965537 0.437931
Si Si5 0.561906 0.921713 0.007073
Si Si6 0.437739 0.670667 0.377776
Si Si7 0.561919 0.889230 0.249751
Si Si8 0.562257 0.169203 0.879319
O O1 0.250000 0.965684 0.690603
O O2 0.497163 0.891420 0.712082
O O3 0.489460 0.989905 0.622188
O O4 0.485405 0.030030 0.736897
O O5 0.750000 0.662395 0.883075
O O6 0.971718 0.750000 0.905802
O O7 0.016932 0.653545 0.825342
O O8 0.989273 0.620850 0.946362
O O9 0.750000 0.326962 0.249611
O O10 0.997174 0.250000 0.258138
O O11 0.750000 0.964321 0.438790
O O12 0.998939 0.887421 0.424783
O O13 0.000000 0.000000 0.500000
O O14 0.750000 0.922398 0.008923
O O15 0.502095 0.881221 0.067388
O O16 0.500000 0.000000 0.000000
O O17 0.250000 0.665636 0.374817
O O18 0.480708 0.750000 0.394491
O O19 0.505718 0.652520 0.310246
O O20 0.750000 0.886178 0.246685
O O21 0.492346 0.858262 0.187359
O O22 0.750000 0.168181 0.881424
O O23 0.509754 0.250000 0.888124
#
# Coordination Sequence:
#
# PCOD9450536 Si02
#       8
#     8   8   8   8   8   8   8   8
#     4   8  17  33  52  78 109 141 178 221 268 320
#     4   9  19  36  55  75 101 134 173 218 270 326
#     4   9  17  31  54  80 104 134 175 221 268 319
#     4  10  20  36  57  80 112 151 191 232 275 329
#     4  11  24  40  57  78 106 142 183 228 278 336
#     4  10  20  35  56  83 114 147 187 234 282 334
#     4  10  20  34  55  82 112 148 185 227 280 339
#     4  11  24  40  57  80 111 144 183 232 281 334
#
# _framework density 18.062950000000001
#
# number of rings (size 3 to 8) (size 9 to 14) (size 15 to 20)
#    0.000    2.250    0.000    3.375    1.750    5.000 
#    0.000    5.000    0.000    2.250    0.000    0.000 
#    0.000    0.000    0.000    0.000    0.000    0.000 
#
# Total GULP energy -357195.895702 kJ/mol
# GULP energy per Si atom -5581.185870 kJ/mol
# Density = 1.802184 g / cm^3
# Si number density = 18.062950 Si / 1000 Ang^3
#
#
#
# Elastic Constant Matrix: (Units=GPa)
#
#
# Indices 1 2 3 4 5 6 
#
# 1 36.7810 39.2798 26.3688 0.0000 0.0000 0.0000
# 2 39.2798 166.0946 108.6530 0.0000 0.0000 0.0000
# 3 26.3688 108.6530 103.8416 0.0000 0.0000 0.0000
# 4 0.0000 0.0000 0.0000 27.9637 0.0000 0.0000
# 5 0.0000 0.0000 0.0000 0.0000 31.5880 0.0000
# 6 0.0000 0.0000 0.0000 0.0000 0.0000 25.5819
#
#
#
# Elastic Compliance Matrix: (Units=1/GPa)
#
#
# Indices 1 2 3 4 5 6 
#
# 1 0.036393 -0.008117 -0.000748 0.000000 0.000000 0.000000
# 2 -0.008117 0.020892 -0.019799 0.000000 0.000000 0.000000
# 3 -0.000748 -0.019799 0.030536 0.000000 0.000000 0.000000
# 4 0.000000 0.000000 0.000000 0.035761 0.000000 0.000000
# 5 0.000000 0.000000 0.000000 0.000000 0.031658 0.000000
# 6 0.000000 0.000000 0.000000 0.000000 0.000000 0.039090
#
#
# Mechanical properties :
#
#
# Convention : Reuss Voigt Hill
#
# Bulk Modulus (GPa) = 32.79441 72.81338 52.80390
# Shear Modulus (GPa) = 19.09701 25.85443 22.47572
#
# Velocity S-wave (km/s) = 3.25506 3.78743 3.53129
# Velocity P-wave (km/s) = 5.68527 7.71521 6.77668
#
# Compressibility (1/GPa) = 0.03049300
#
# Stress axis : x y z
#
# Youngs Moduli (GPa) = 27.47788 47.86553 32.74828
#
# Poissons Ratio (x) = 0.38854 0.02449
# Poissons Ratio (y) = 0.22305 0.64837
# Poissons Ratio (z) = 0.02055 0.94767
#
# Static dielectric constant tensor:
#      x y z
#    x 1.617430 0.000000 0.000000 
#    y 0.000000 1.609430 0.000000 
#    z 0.000000 0.000000 1.583090 
# 
# From -- ./inp_files/29356.got.cif
#   From: 2010.05.17/outbox.cif.g08.bks.cpg/sg59_15_cif.got.tgz:29356.got - 2010.06.03 14:40:33.
