data_PCOD9450401
_publ_section_title
;
Structure prediction by ZEFSAII (Michael W. Deem and Ramdas Pophale) SiO2 
 PCOD9450401
Probable space group: P M M N
;
_chemical_formula_sum "Si O2"
_cell_formula_units_Z 40
_cell_length_a 21.063603
_cell_length_b 8.804926
_cell_length_c 11.933554
_cell_angle_alpha 90.000000
_cell_angle_beta 90.000000
_cell_angle_gamma 90.000000
_cell_volume 2213.238283
_symmetry_space_group_name_H-M "P M M N"
_symmetry_group_IT_number 59
_space_group.IT_coordinate_system_code '2'
_symmetry_cell_setting 'orthorhombic'
loop_
_space_group_symop_operation_xyz
x,y,z
1/2-x,1/2-y,z
1/2+x,-y,-z
-x,1/2+y,-z
-x,-y,-z
1/2+x,1/2+y,-z
1/2-x,y,z
x,1/2-y,z
loop_
_atom_site_type_symbol
_atom_site_label
_atom_site_fract_x
_atom_site_fract_y
_atom_site_fract_z
Si Si1 0.175293 0.068154 0.959475
Si Si2 0.825556 0.422133 0.277389
Si Si3 0.031438 0.068916 0.322761
Si Si4 0.555077 0.068579 0.920309
Si Si5 0.589918 0.930733 0.448446
O O1 0.250000 0.026569 0.978575
O O2 0.170779 0.250000 0.966782
O O3 0.123989 0.992183 0.040669
O O4 0.156531 0.013514 0.834506
O O5 0.750000 0.414291 0.276991
O O6 0.851165 0.250000 0.272332
O O7 0.848263 0.506896 0.388050
O O8 0.029190 0.250000 0.304358
O O9 0.083329 0.035797 0.419726
O O10 0.042711 0.985386 0.206428
O O11 0.966737 0.012213 0.380698
O O12 0.553178 0.250000 0.928416
O O13 0.500000 0.000000 0.000000
O O14 0.583625 0.750000 0.434879
#
# Coordination Sequence:
#
# PCOD9450401 Si02
#       5
#     8   8   8   8   8
#     4  10  21  38  59  82 111 146 184 227 276 329
#     4  10  20  34  54  80 109 141 178 219 263 314
#     4  10  21  37  56  79 108 141 178 220 268 321
#     4  12  24  38  58  83 113 146 185 230 274 326
#     4  10  20  35  56  80 107 139 175 219 269 318
#
# _framework density 18.073065
#
# number of rings (size 3 to 8) (size 9 to 14) (size 15 to 20)
#    0.000    1.600    0.000    5.400    0.000    4.800 
#    0.000    1.000    0.000    1.200    0.000    0.000 
#    0.000    0.000    0.000    0.000    0.000    0.000 
#
# Total GULP energy -223354.250200 kJ/mol
# GULP energy per Si atom -5583.856255 kJ/mol
# Density = 1.803193 g / cm^3
# Si number density = 18.073065 Si / 1000 Ang^3
#
#
#
# Elastic Constant Matrix: (Units=GPa)
#
#
# Indices 1 2 3 4 5 6 
#
# 1 52.8039 41.9929 49.8300 0.0000 0.0000 0.0000
# 2 41.9929 111.6940 63.4688 0.0000 0.0000 0.0000
# 3 49.8300 63.4688 137.0763 0.0000 0.0000 0.0000
# 4 0.0000 0.0000 0.0000 33.3962 0.0000 0.0000
# 5 0.0000 0.0000 0.0000 0.0000 30.9490 0.0000
# 6 0.0000 0.0000 0.0000 0.0000 0.0000 32.2988
#
#
#
# Elastic Compliance Matrix: (Units=1/GPa)
#
#
# Indices 1 2 3 4 5 6 
#
# 1 0.032960 -0.007577 -0.008473 0.000000 0.000000 0.000000
# 2 -0.007577 0.013891 -0.003678 0.000000 0.000000 0.000000
# 3 -0.008473 -0.003678 0.012078 0.000000 0.000000 0.000000
# 4 0.000000 0.000000 0.000000 0.029944 0.000000 0.000000
# 5 0.000000 0.000000 0.000000 0.000000 0.032311 0.000000
# 6 0.000000 0.000000 0.000000 0.000000 0.000000 0.030961
#
#
# Mechanical properties :
#
#
# Convention : Reuss Voigt Hill
#
# Bulk Modulus (GPa) = 51.35110 68.01752 59.68431
# Shear Modulus (GPa) = 25.24087 29.08099 27.16093
#
# Velocity S-wave (km/s) = 3.74117 4.01568 3.88085
# Velocity P-wave (km/s) = 6.86560 7.69528 7.29225
#
# Compressibility (1/GPa) = 0.01947378
#
# Stress axis : x y z
#
# Youngs Moduli (GPa) = 30.34022 71.98697 82.79348
#
# Poissons Ratio (x) = 0.54543 0.70153
# Poissons Ratio (y) = 0.22988 0.30449
# Poissons Ratio (z) = 0.25708 0.26474
#
# Static dielectric constant tensor:
#      x y z
#    x 1.636600 0.000000 0.000000 
#    y 0.000000 1.615840 0.000000 
#    z 0.000000 0.000000 1.603280 
# 
# From -- ./inp_files/14032.got.cif
#   From: 2010.05.17/outbox.cif.g08.bks.cpg/sg59_8_cif.got.tgz:14032.got - 2010.06.03 14:40:33.
