data_PCOD9450410
_publ_section_title
;
Structure prediction by ZEFSAII (Michael W. Deem and Ramdas Pophale) SiO2 
 PCOD9450410
Probable space group: P M M N
;
_chemical_formula_sum "Si O2"
_cell_formula_units_Z 64
_cell_length_a 20.261915
_cell_length_b 8.564729
_cell_length_c 21.167701
_cell_angle_alpha 90.000000
_cell_angle_beta 90.000000
_cell_angle_gamma 90.000000
_cell_volume 3673.396495
_symmetry_space_group_name_H-M "P M M N"
_symmetry_group_IT_number 59
_space_group.IT_coordinate_system_code '2'
_symmetry_cell_setting 'orthorhombic'
loop_
_space_group_symop_operation_xyz
x,y,z
1/2-x,1/2-y,z
1/2+x,-y,-z
-x,1/2+y,-z
-x,-y,-z
1/2+x,1/2+y,-z
1/2-x,y,z
x,1/2-y,z
loop_
_atom_site_type_symbol
_atom_site_label
_atom_site_fract_x
_atom_site_fract_y
_atom_site_fract_z
Si Si1 0.677260 0.560065 0.133865
Si Si2 0.461856 0.061912 0.061713
Si Si3 0.962308 0.562630 0.183431
Si Si4 0.677344 0.560248 0.986272
Si Si5 0.323917 0.937717 0.492284
Si Si6 0.539327 0.064963 0.317824
Si Si7 0.675649 0.936541 0.365718
Si Si8 0.961932 0.437177 0.561536
O O1 0.750000 0.507317 0.155281
O O2 0.677756 0.750000 0.135988
O O3 0.613370 0.507674 0.171820
O O4 0.668923 0.516314 0.060057
O O5 0.464553 0.250000 0.061615
O O6 0.385710 0.010294 0.053560
O O7 0.494917 0.998105 0.124971
O O8 0.500000 0.000000 0.000000
O O9 0.962774 0.750000 0.182838
O O10 0.984766 0.502072 0.251186
O O11 0.750000 0.506797 0.965368
O O12 0.677809 0.750000 0.985477
O O13 0.250000 0.975157 0.468809
O O14 0.327176 0.750000 0.502189
O O15 0.384950 0.980818 0.447697
O O16 0.332028 0.017599 0.560573
O O17 0.536806 0.250000 0.317251
O O18 0.614847 0.010920 0.329004
O O19 0.496030 0.002826 0.376067
O O20 0.750000 0.985901 0.346453
O O21 0.671701 0.750000 0.359052
O O22 0.966988 0.250000 0.562480
O O23 0.000000 0.500000 0.500000
#
# Coordination Sequence:
#
# PCOD9450410 Si02
#       8
#     8   8   8   8   8   8   8   8
#     4   8  14  27  49  76 104 137 177 216 257 311
#     4  11  20  33  55  82 109 141 180 224 272 323
#     4  11  22  37  55  78 108 144 183 229 277 328
#     4   8  14  27  50  79 106 135 175 219 261 310
#     4   9  18  33  55  83 112 141 176 223 278 328
#     4  12  25  39  54  77 111 151 189 232 277 328
#     4  10  20  34  54  80 110 146 187 226 268 325
#     4  11  21  35  58  85 112 145 183 227 275 329
#
# _framework density 17.422567999999998
#
# number of rings (size 3 to 8) (size 9 to 14) (size 15 to 20)
#    0.000    2.000    2.500    3.375    0.000    1.750 
#    0.000    1.250    0.000    4.125    0.000    0.000 
#    0.000    0.000    0.000    0.000    0.000    0.000 
#
# Total GULP energy -357136.913383 kJ/mol
# GULP energy per Si atom -5580.264272 kJ/mol
# Density = 1.738291 g / cm^3
# Si number density = 17.422568 Si / 1000 Ang^3
#
#
#
# Elastic Constant Matrix: (Units=GPa)
#
#
# Indices 1 2 3 4 5 6 
#
# 1 126.6190 36.4871 71.3255 0.0000 0.0000 0.0000
# 2 36.4871 51.9330 34.2700 0.0000 0.0000 0.0000
# 3 71.3255 34.2700 122.8596 0.0000 0.0000 0.0000
# 4 0.0000 0.0000 0.0000 24.8009 0.0000 0.0000
# 5 0.0000 0.0000 0.0000 0.0000 20.4023 0.0000
# 6 0.0000 0.0000 0.0000 0.0000 0.0000 20.8629
#
#
#
# Elastic Compliance Matrix: (Units=1/GPa)
#
#
# Indices 1 2 3 4 5 6 
#
# 1 0.012704 -0.004974 -0.005988 0.000000 0.000000 0.000000
# 2 -0.004974 0.025547 -0.004238 0.000000 0.000000 0.000000
# 3 -0.005988 -0.004238 0.012798 0.000000 0.000000 0.000000
# 4 0.000000 0.000000 0.000000 0.040321 0.000000 0.000000
# 5 0.000000 0.000000 0.000000 0.000000 0.049014 0.000000
# 6 0.000000 0.000000 0.000000 0.000000 0.000000 0.047932
#
#
# Mechanical properties :
#
#
# Convention : Reuss Voigt Hill
#
# Bulk Modulus (GPa) = 48.43005 65.06412 56.74708
# Shear Modulus (GPa) = 22.16315 23.83515 22.99915
#
# Velocity S-wave (km/s) = 3.57051 3.70274 3.63723
# Velocity P-wave (km/s) = 6.69744 7.46366 7.09091
#
# Compressibility (1/GPa) = 0.02064834
#
# Stress axis : x y z
#
# Youngs Moduli (GPa) = 78.71464 39.14322 78.13885
#
# Poissons Ratio (x) = 0.19471 0.46788
# Poissons Ratio (y) = 0.39156 0.33117
# Poissons Ratio (z) = 0.47133 0.16590
#
# Static dielectric constant tensor:
#      x y z
#    x 1.624790 0.000000 0.000000 
#    y 0.000000 1.593530 0.000000 
#    z 0.000000 0.000000 1.550230 
# 
# From -- ./inp_files/31016.got.cif
#   From: 2010.05.17/outbox.cif.g08.bks.cpg/sg59_16_cif.got.tgz:31016.got - 2010.06.03 14:40:33.
