data_PCOD9450159
_publ_section_title
;
Structure prediction by ZEFSAII (Michael W. Deem and Ramdas Pophale) SiO2 
 PCOD9450159
Probable space group: P M M N
;
_chemical_formula_sum "Si O2"
_cell_formula_units_Z 64
_cell_length_a 29.432048
_cell_length_b 8.651477
_cell_length_c 12.821785
_cell_angle_alpha 90.000000
_cell_angle_beta 90.000000
_cell_angle_gamma 90.000000
_cell_volume 3264.819915
_symmetry_space_group_name_H-M "P M M N"
_symmetry_group_IT_number 59
_space_group.IT_coordinate_system_code '2'
_symmetry_cell_setting 'orthorhombic'
loop_
_space_group_symop_operation_xyz
x,y,z
1/2-x,1/2-y,z
1/2+x,-y,-z
-x,1/2+y,-z
-x,-y,-z
1/2+x,1/2+y,-z
1/2-x,y,z
x,1/2-y,z
loop_
_atom_site_type_symbol
_atom_site_label
_atom_site_fract_x
_atom_site_fract_y
_atom_site_fract_z
Si Si1 0.333136 0.929219 0.494770
Si Si2 0.802493 0.561548 0.947331
Si Si3 0.200041 0.937341 0.711276
Si Si4 0.523225 0.564408 0.105228
Si Si5 0.562336 0.069455 0.499133
Si Si6 0.991888 0.934312 0.677237
Si Si7 0.197852 0.435114 0.284560
Si Si8 0.871153 0.936887 0.127609
O O1 0.320993 0.750000 0.479388
O O2 0.303736 0.989570 0.591003
O O3 0.385282 0.939744 0.528696
O O4 0.328747 0.009391 0.384301
O O5 0.750000 0.512941 0.967755
O O6 0.801807 0.750000 0.949054
O O7 0.839867 0.511356 0.030222
O O8 0.816065 0.511225 0.830642
O O9 0.250000 0.982970 0.753553
O O10 0.197526 0.750000 0.712674
O O11 0.157369 0.002248 0.774173
O O12 0.522779 0.750000 0.099864
O O13 0.497171 0.510397 0.209948
O O14 0.576297 0.513222 0.117304
O O15 0.500000 0.500000 0.000000
O O16 0.550510 0.250000 0.516442
O O17 0.532660 0.014152 0.400863
O O18 0.551049 0.980809 0.606028
O O19 0.993790 0.750000 0.690317
O O20 0.250000 0.484798 0.299173
O O21 0.196900 0.250000 0.282085
O O22 0.871388 0.750000 0.130672
#
# Coordination Sequence:
#
# PCOD9450159 Si02
#       8
#     8   8   8   8   8   8   8   8
#     4  10  20  34  52  76 109 146 180 216 265 322
#     4   8  15  31  54  77 103 135 172 219 273 323
#     4  10  21  36  55  82 118 156 188 223 273 332
#     4  11  24  40  58  83 115 149 188 237 293 350
#     4   9  19  35  56  82 109 139 179 229 280 329
#     4  10  20  37  60  81 105 141 182 225 278 337
#     4   9  18  32  50  73 102 137 176 218 262 309
#     4  10  21  37  59  84 108 140 186 235 280 332
#
# _framework density 19.602917999999999
#
# number of rings (size 3 to 8) (size 9 to 14) (size 15 to 20)
#    0.000    2.375    0.000    3.000    0.000    6.000 
#    0.000    1.875    0.000    0.750    0.000    0.000 
#    0.000    0.000    0.000    0.000    0.000    0.000 
#
# Total GULP energy -356903.898040 kJ/mol
# GULP energy per Si atom -5576.623407 kJ/mol
# Density = 1.955830 g / cm^3
# Si number density = 19.602918 Si / 1000 Ang^3
#
#
#
# Elastic Constant Matrix: (Units=GPa)
#
#
# Indices 1 2 3 4 5 6 
#
# 1 64.0086 21.6320 42.3857 0.0000 0.0000 0.0000
# 2 21.6320 17.6489 21.8790 0.0000 0.0000 0.0000
# 3 42.3857 21.8790 128.2872 0.0000 0.0000 0.0000
# 4 0.0000 0.0000 0.0000 -60.6030 0.0000 0.0000
# 5 0.0000 0.0000 0.0000 0.0000 10.1061 0.0000
# 6 0.0000 0.0000 0.0000 0.0000 0.0000 8.8847
#
#
#
# Elastic Compliance Matrix: (Units=1/GPa)
#
#
# Indices 1 2 3 4 5 6 
#
# 1 0.028491 -0.029486 -0.004385 0.000000 0.000000 0.000000
# 2 -0.029486 0.102367 -0.007716 0.000000 0.000000 0.000000
# 3 -0.004385 -0.007716 0.010560 0.000000 0.000000 0.000000
# 4 0.000000 0.000000 0.000000 -0.016501 0.000000 0.000000
# 5 0.000000 0.000000 0.000000 0.000000 0.098950 0.000000
# 6 0.000000 0.000000 0.000000 0.000000 0.000000 0.112553
#
#
# Mechanical properties :
#
#
# Convention : Reuss Voigt Hill
#
# Bulk Modulus (GPa) = 17.16906 42.41536 29.79221
# Shear Modulus (GPa) = 11.38929 -0.05257 5.66836
#
# Velocity S-wave (km/s) = 2.41301 -0.16394 1.70231
# Velocity P-wave (km/s) = 4.06705 4.65278 4.36974
#
# Compressibility (1/GPa) = 0.05824431
#
# Stress axis : x y z
#
# Youngs Moduli (GPa) = 35.09853 9.76876 94.69945
#
# Poissons Ratio (x) = 0.28804 0.41523
# Poissons Ratio (y) = 1.03491 0.73074
# Poissons Ratio (z) = 0.15390 0.07538
#
# Static dielectric constant tensor:
#      x y z
#    x 1.711470 0.000000 0.000000 
#    y 0.000000 1.671390 0.000000 
#    z 0.000000 0.000000 1.695190 
# 
# From -- ./inp_files/19363.got.cif
#   From: 2010.05.17/outbox.cif.g08.bks.cpg/sg59_10_cif.got.tgz:19363.got - 2010.06.03 14:40:33.
