data_PCOD9450205
_publ_section_title
;
Structure prediction by ZEFSAII (Michael W. Deem and Ramdas Pophale) SiO2 
 PCOD9450205
Probable space group: P M M N
;
_chemical_formula_sum "Si O2"
_cell_formula_units_Z 56
_cell_length_a 8.896415
_cell_length_b 14.310907
_cell_length_c 23.420255
_cell_angle_alpha 90.000000
_cell_angle_beta 90.000000
_cell_angle_gamma 90.000000
_cell_volume 2981.767745
_symmetry_space_group_name_H-M "P M M N"
_symmetry_group_IT_number 59
_space_group.IT_coordinate_system_code '2'
_symmetry_cell_setting 'orthorhombic'
loop_
_space_group_symop_operation_xyz
x,y,z
1/2-x,1/2-y,z
1/2+x,-y,-z
-x,1/2+y,-z
-x,-y,-z
1/2+x,1/2+y,-z
1/2-x,y,z
x,1/2-y,z
loop_
_atom_site_type_symbol
_atom_site_label
_atom_site_fract_x
_atom_site_fract_y
_atom_site_fract_z
Si Si1 0.430970 0.469697 0.413234
Si Si2 0.931247 0.857508 0.472471
Si Si3 0.929905 0.650010 0.164842
Si Si4 0.921269 0.603655 0.931613
Si Si5 0.069445 0.358449 0.300648
Si Si6 0.430690 0.560443 0.813419
Si Si7 0.920889 0.381204 0.953845
O O1 0.250000 0.477626 0.413616
O O2 0.501437 0.570235 0.426886
O O3 0.472639 0.400309 0.465509
O O4 0.476813 0.423806 0.353513
O O5 0.750000 0.859232 0.468651
O O6 0.980441 0.750000 0.466599
O O7 0.750000 0.649254 0.169688
O O8 0.984657 0.750000 0.189652
O O9 0.982048 0.549235 0.188301
O O10 0.976171 0.649985 0.098475
O O11 0.750000 0.637798 0.928733
O O12 0.915892 0.493440 0.947048
O O13 0.001406 0.607650 0.870379
O O14 0.012913 0.644644 0.984709
O O15 0.250000 0.367526 0.293283
O O16 0.038453 0.250000 0.314046
O O17 0.988596 0.388717 0.242817
O O18 0.250000 0.562346 0.817103
O O19 0.750000 0.349489 0.947119
#
# Coordination Sequence:
#
# PCOD9450205 Si02
#       7
#     8   8   8   8   8   8   8
#     4   9  18  33  54  80 110 144 182 220 258 304
#     4   9  17  31  53  82 115 148 180 216 260 307
#     4   9  18  33  51  71  98 133 169 204 250 311
#     4   9  16  28  47  69  96 130 164 201 251 309
#     4  10  21  38  58  77 100 134 174 214 259 312
#     4  10  20  34  53  76 102 132 170 217 261 301
#     4   9  16  26  44  71  98 124 159 204 253 303
#
# _framework density 18.780805000000001
#
# number of rings (size 3 to 8) (size 9 to 14) (size 15 to 20)
#    0.000    2.714    0.000    1.714    0.000    7.143 
#    0.000    1.429    0.000    9.429    0.000    0.000 
#    0.000    0.000    0.000    0.000    0.000    0.000 
#
# Total GULP energy -312226.343357 kJ/mol
# GULP energy per Si atom -5575.470417 kJ/mol
# Density = 1.873806 g / cm^3
# Si number density = 18.780805 Si / 1000 Ang^3
#
#
#
# Elastic Constant Matrix: (Units=GPa)
#
#
# Indices 1 2 3 4 5 6 
#
# 1 20.9973 14.6659 27.9830 0.0000 0.0000 0.0000
# 2 14.6659 109.7566 35.7871 0.0000 0.0000 0.0000
# 3 27.9830 35.7871 109.4325 0.0000 0.0000 0.0000
# 4 0.0000 0.0000 0.0000 -307.4002 0.0000 0.0000
# 5 0.0000 0.0000 0.0000 0.0000 24.9899 0.0000
# 6 0.0000 0.0000 0.0000 0.0000 0.0000 14.4321
#
#
#
# Elastic Compliance Matrix: (Units=1/GPa)
#
#
# Indices 1 2 3 4 5 6 
#
# 1 0.073901 -0.004156 -0.017538 0.000000 0.000000 0.000000
# 2 -0.004156 0.010432 -0.002349 0.000000 0.000000 0.000000
# 3 -0.017538 -0.002349 0.014391 0.000000 0.000000 0.000000
# 4 0.000000 0.000000 0.000000 -0.003253 0.000000 0.000000
# 5 0.000000 0.000000 0.000000 0.000000 0.040016 0.000000
# 6 0.000000 0.000000 0.000000 0.000000 0.000000 0.069290
#
#
# Mechanical properties :
#
#
# Convention : Reuss Voigt Hill
#
# Bulk Modulus (GPa) = 19.74806 44.11761 31.93283
# Shear Modulus (GPa) = 18.53613 -42.81230 -12.13809
#
# Velocity S-wave (km/s) = 3.14502 -4.77967 -2.54501
# Velocity P-wave (km/s) = 4.87094 2.63031 2.89892
#
# Compressibility (1/GPa) = 0.05063790
#
# Stress axis : x y z
#
# Youngs Moduli (GPa) = 13.53155 95.85615 69.48871
#
# Poissons Ratio (x) = 0.39842 1.21870
# Poissons Ratio (y) = 0.05624 0.16321
# Poissons Ratio (z) = 0.23732 0.22514
#
# Static dielectric constant tensor:
#      x y z
#    x 1.636690 0.000000 0.000000 
#    y 0.000000 1.618700 0.000000 
#    z 0.000000 0.000000 1.609830 
# 
# From -- ./inp_files/29015.got.cif
#   From: 2010.05.17/outbox.cif.g08.bks.cpg/sg59_15_cif.got.tgz:29015.got - 2010.06.03 14:40:33.
