data_PCOD9450207
_publ_section_title
;
Structure prediction by ZEFSAII (Michael W. Deem and Ramdas Pophale) SiO2 
 PCOD9450207
Probable space group: P M M N
;
_chemical_formula_sum "Si O2"
_cell_formula_units_Z 48
_cell_length_a 7.802180
_cell_length_b 9.396027
_cell_length_c 31.904807
_cell_angle_alpha 90.000000
_cell_angle_beta 90.000000
_cell_angle_gamma 90.000000
_cell_volume 2338.925255
_symmetry_space_group_name_H-M "P M M N"
_symmetry_group_IT_number 59
_space_group.IT_coordinate_system_code '2'
_symmetry_cell_setting 'orthorhombic'
loop_
_space_group_symop_operation_xyz
x,y,z
1/2-x,1/2-y,z
1/2+x,-y,-z
-x,1/2+y,-z
-x,-y,-z
1/2+x,1/2+y,-z
1/2-x,y,z
x,1/2-y,z
loop_
_atom_site_type_symbol
_atom_site_label
_atom_site_fract_x
_atom_site_fract_y
_atom_site_fract_z
Si Si1 0.544443 0.589259 0.376475
Si Si2 0.543592 0.587744 0.958501
Si Si3 0.954177 0.911489 0.541333
Si Si4 0.956173 0.087179 0.297218
Si Si5 0.956197 0.586954 0.796151
Si Si6 0.539953 0.413673 0.877017
O O1 0.750000 0.598821 0.372162
O O2 0.477424 0.750000 0.381145
O O3 0.511045 0.495019 0.417321
O O4 0.478031 0.511007 0.334742
O O5 0.750000 0.594322 0.955675
O O6 0.479010 0.750000 0.960447
O O7 0.482922 0.504680 0.917142
O O8 0.500000 0.500000 0.000000
O O9 0.750000 0.902156 0.542794
O O10 0.024077 0.750000 0.539969
O O11 0.000000 0.000000 0.500000
O O12 0.750000 0.092546 0.300524
O O13 0.020692 0.250000 0.301287
O O14 0.998545 0.035903 0.250457
O O15 0.750000 0.591922 0.798852
O O16 0.019875 0.750000 0.800505
O O17 0.017054 0.488389 0.834005
O O18 0.750000 0.413948 0.877079
O O19 0.485158 0.250000 0.879855
#
# Coordination Sequence:
#
# PCOD9450207 Si02
#       6
#     8   8   8   8   8   8
#     4  10  21  37  57  81 109 142 180 219 261 311
#     4  10  20  34  53  76 102 133 170 212 259 311
#     4  11  24  40  59  84 112 142 178 219 263 312
#     4   9  18  33  52  74 103 139 174 210 259 313
#     4   9  17  30  49  72  97 127 167 213 256 302
#     4   9  17  30  49  72  98 130 168 209 255 307
#
# _framework density 20.522245000000002
#
# number of rings (size 3 to 8) (size 9 to 14) (size 15 to 20)
#    0.000    2.333    0.000    2.500    0.000    8.667 
#    0.000    2.500    0.000    3.000    0.000    0.000 
#    0.000    0.000    0.000    0.000    0.000    0.000 
#
# Total GULP energy -268087.905941 kJ/mol
# GULP energy per Si atom -5585.164707 kJ/mol
# Density = 2.047554 g / cm^3
# Si number density = 20.522245 Si / 1000 Ang^3
#
#
#
# Elastic Constant Matrix: (Units=GPa)
#
#
# Indices 1 2 3 4 5 6 
#
# 1 25.4190 8.0819 1.0510 0.0000 0.0000 0.0000
# 2 8.0819 196.9595 145.6216 0.0000 0.0000 0.0000
# 3 1.0510 145.6216 227.7356 0.0000 0.0000 0.0000
# 4 0.0000 0.0000 0.0000 42.2660 0.0000 0.0000
# 5 0.0000 0.0000 0.0000 0.0000 28.5968 0.0000
# 6 0.0000 0.0000 0.0000 0.0000 0.0000 15.9115
#
#
#
# Elastic Compliance Matrix: (Units=1/GPa)
#
#
# Indices 1 2 3 4 5 6 
#
# 1 0.040184 -0.002867 0.001648 0.000000 0.000000 0.000000
# 2 -0.002867 0.009834 -0.006275 0.000000 0.000000 0.000000
# 3 0.001648 -0.006275 0.008396 0.000000 0.000000 0.000000
# 4 0.000000 0.000000 0.000000 0.023660 0.000000 0.000000
# 5 0.000000 0.000000 0.000000 0.000000 0.034969 0.000000
# 6 0.000000 0.000000 0.000000 0.000000 0.000000 0.062848
#
#
# Mechanical properties :
#
#
# Convention : Reuss Voigt Hill
#
# Bulk Modulus (GPa) = 23.02794 84.40258 53.71526
# Shear Modulus (GPa) = 23.88286 37.04549 30.46417
#
# Velocity S-wave (km/s) = 3.41509 4.25330 3.85703
# Velocity P-wave (km/s) = 5.17646 8.08316 6.78724
#
# Compressibility (1/GPa) = 0.04342552
#
# Stress axis : x y z
#
# Youngs Moduli (GPa) = 24.88543 101.68377 119.10392
#
# Poissons Ratio (x) = 0.29156 -0.19629
# Poissons Ratio (y) = 0.07136 0.74740
# Poissons Ratio (z) = -0.04101 0.63809
#
# Static dielectric constant tensor:
#      x y z
#    x 1.760370 0.000000 0.000000 
#    y 0.000000 1.727210 0.000000 
#    z 0.000000 0.000000 1.709700 
# 
# From -- ./inp_files/32836.got.cif
#   From: 2010.05.17/outbox.cif.g08.bks.cpg/sg59_17_cif.got.tgz:32836.got - 2010.06.03 14:40:33.
