data_PCOD9450886
_publ_section_title
;
Structure prediction by ZEFSAII (Michael W. Deem and Ramdas Pophale) SiO2 
 PCOD9450886
Probable space group: P M M N
;
_chemical_formula_sum "Si O2"
_cell_formula_units_Z 40
_cell_length_a 17.347959
_cell_length_b 10.980603
_cell_length_c 11.416001
_cell_angle_alpha 90.000000
_cell_angle_beta 90.000000
_cell_angle_gamma 90.000000
_cell_volume 2174.646025
_symmetry_space_group_name_H-M "P M M N"
_symmetry_group_IT_number 59
_space_group.IT_coordinate_system_code '2'
_symmetry_cell_setting 'orthorhombic'
loop_
_space_group_symop_operation_xyz
x,y,z
1/2-x,1/2-y,z
1/2+x,-y,-z
-x,1/2+y,-z
-x,-y,-z
1/2+x,1/2+y,-z
1/2-x,y,z
x,1/2-y,z
loop_
_atom_site_type_symbol
_atom_site_label
_atom_site_fract_x
_atom_site_fract_y
_atom_site_fract_z
Si Si1 0.407637 0.616987 0.770695
Si Si2 0.937620 0.391074 0.498411
Si Si3 0.443469 0.451633 0.102473
Si Si4 0.838126 0.394601 0.728242
Si Si5 0.158640 0.380541 0.899090
O O1 0.377073 0.750000 0.809351
O O2 0.401599 0.608037 0.631181
O O3 0.497844 0.612430 0.808286
O O4 0.369057 0.499743 0.829655
O O5 0.966907 0.250000 0.516619
O O6 0.875689 0.415365 0.600559
O O7 0.000000 0.500000 0.500000
O O8 0.395595 0.549687 0.176009
O O9 0.500000 0.500000 0.000000
O O10 0.380507 0.381320 0.026546
O O11 0.750000 0.441235 0.736266
O O12 0.835491 0.250000 0.745953
O O13 0.250000 0.386064 0.909737
O O14 0.137041 0.250000 0.841868
#
# Coordination Sequence:
#
# PCOD9450886 Si02
#       5
#     8   8   8   8   8
#     4  10  21  36  59  88 116 151 196 242 290 348
#     4  10  20  37  61  90 118 151 194 242 291 352
#     4  10  20  35  56  81 113 150 198 242 287 343
#     4  10  21  37  60  90 122 157 196 243 300 357
#     4  10  22  38  56  81 116 157 197 242 296 349
#
# _framework density 18.393796999999999
#
# number of rings (size 3 to 8) (size 9 to 14) (size 15 to 20)
#    0.000    2.000    2.000    1.200    0.000    8.400 
#    0.000    2.000    0.000    1.800    0.000    0.000 
#    0.000    0.000    0.000    0.000    0.000    0.000 
#
# Total GULP energy -222728.825427 kJ/mol
# GULP energy per Si atom -5568.220636 kJ/mol
# Density = 1.835193 g / cm^3
# Si number density = 18.393797 Si / 1000 Ang^3
#
#
#
# Elastic Constant Matrix: (Units=GPa)
#
#
# Indices 1 2 3 4 5 6 
#
# 1 97.9308 61.9065 46.3695 0.0000 0.0000 0.0000
# 2 61.9065 127.3249 47.7721 0.0000 0.0000 0.0000
# 3 46.3695 47.7721 109.3907 0.0000 0.0000 0.0000
# 4 0.0000 0.0000 0.0000 16.7962 0.0000 0.0000
# 5 0.0000 0.0000 0.0000 0.0000 17.6489 0.0000
# 6 0.0000 0.0000 0.0000 0.0000 0.0000 28.1878
#
#
#
# Elastic Compliance Matrix: (Units=1/GPa)
#
#
# Indices 1 2 3 4 5 6 
#
# 1 0.016135 -0.006313 -0.004082 0.000000 0.000000 0.000000
# 2 -0.006313 0.011863 -0.002505 0.000000 0.000000 0.000000
# 3 -0.004082 -0.002505 0.011966 0.000000 0.000000 0.000000
# 4 0.000000 0.000000 0.000000 0.059537 0.000000 0.000000
# 5 0.000000 0.000000 0.000000 0.000000 0.056661 0.000000
# 6 0.000000 0.000000 0.000000 0.000000 0.000000 0.035476
#
#
# Mechanical properties :
#
#
# Convention : Reuss Voigt Hill
#
# Bulk Modulus (GPa) = 70.60420 71.86028 71.23224
# Shear Modulus (GPa) = 22.50624 24.43315 23.46969
#
# Velocity S-wave (km/s) = 3.50176 3.64859 3.57593
# Velocity P-wave (km/s) = 7.40391 7.54335 7.47395
#
# Compressibility (1/GPa) = 0.01416346
#
# Stress axis : x y z
#
# Youngs Moduli (GPa) = 61.97611 84.29372 83.57117
#
# Poissons Ratio (x) = 0.53218 0.34117
# Poissons Ratio (y) = 0.39128 0.20932
# Poissons Ratio (z) = 0.25301 0.21113
#
# Static dielectric constant tensor:
#      x y z
#    x 1.598090 0.000000 0.000000 
#    y 0.000000 1.679930 0.000000 
#    z 0.000000 0.000000 1.626360 
# 
# From -- ./inp_files/16596.got.cif
#   From: 2010.05.17/outbox.cif.g08.bks.cpg/sg59_9_cif.got.tgz:16596.got - 2010.06.03 14:40:33.
