data_PCOD9450487
_publ_section_title
;
Structure prediction by ZEFSAII (Michael W. Deem and Ramdas Pophale) SiO2 
 PCOD9450487
Probable space group: P M M N
;
_chemical_formula_sum "Si O2"
_cell_formula_units_Z 64
_cell_length_a 8.974735
_cell_length_b 14.891415
_cell_length_c 26.400290
_cell_angle_alpha 90.000000
_cell_angle_beta 90.000000
_cell_angle_gamma 90.000000
_cell_volume 3528.306447
_symmetry_space_group_name_H-M "P M M N"
_symmetry_group_IT_number 59
_space_group.IT_coordinate_system_code '2'
_symmetry_cell_setting 'orthorhombic'
loop_
_space_group_symop_operation_xyz
x,y,z
1/2-x,1/2-y,z
1/2+x,-y,-z
-x,1/2+y,-z
-x,-y,-z
1/2+x,1/2+y,-z
1/2-x,y,z
x,1/2-y,z
loop_
_atom_site_type_symbol
_atom_site_label
_atom_site_fract_x
_atom_site_fract_y
_atom_site_fract_z
Si Si1 0.577145 0.647466 0.112550
Si Si2 0.070746 0.355071 0.362564
Si Si3 0.078483 0.851962 0.894663
Si Si4 0.925997 0.996531 0.823619
Si Si5 0.071636 0.505405 0.444866
Si Si6 0.070676 0.144886 0.631440
Si Si7 0.428198 0.994652 0.713571
Si Si8 0.072477 0.097893 0.002451
O O1 0.750000 0.618813 0.119775
O O2 0.563547 0.750000 0.128946
O O3 0.471024 0.583793 0.144118
O O4 0.546965 0.641393 0.052448
O O5 0.250000 0.358089 0.355578
O O6 0.027368 0.250000 0.366207
O O7 0.036399 0.415248 0.412291
O O8 0.993397 0.409460 0.317028
O O9 0.250000 0.882945 0.898996
O O10 0.077532 0.750000 0.876267
O O11 0.989977 0.914677 0.856538
O O12 0.003935 0.855307 0.949914
O O13 0.750000 0.989092 0.818107
O O14 0.002474 0.999463 0.768993
O O15 0.250000 0.512521 0.448262
O O16 0.000000 0.500000 0.500000
O O17 0.007031 0.590546 0.414052
O O18 0.250000 0.141627 0.624367
O O19 0.027776 0.250000 0.635042
O O20 0.036232 0.084877 0.681207
O O21 0.250000 0.987135 0.716571
O O22 0.250000 0.093340 0.010628
O O23 0.000000 0.000000 0.000000
#
# Coordination Sequence:
#
# PCOD9450487 Si02
#       8
#     8   8   8   8   8   8   8   8
#     4  10  22  40  61  84 114 151 188 228 278 338
#     4   9  19  37  59  82 111 150 194 237 284 338
#     4  11  24  41  61  85 114 149 190 236 285 340
#     4  12  25  40  60  85 115 150 188 236 288 342
#     4  10  20  34  54  84 121 158 195 237 284 331
#     4   9  19  37  60  84 111 149 194 236 283 339
#     4  10  21  38  60  84 112 145 185 236 289 343
#     4  11  21  36  61  88 116 151 187 226 279 339
#
# _framework density 18.139012999999998
#
# number of rings (size 3 to 8) (size 9 to 14) (size 15 to 20)
#    0.000    1.750    1.250    3.000    0.000    5.250 
#    0.000    2.500    0.000    0.000    0.000    0.000 
#    0.000    0.000    0.000    0.000    0.000    0.000 
#
# Total GULP energy -357412.042244 kJ/mol
# GULP energy per Si atom -5584.563160 kJ/mol
# Density = 1.809773 g / cm^3
# Si number density = 18.139013 Si / 1000 Ang^3
#
#
#
# Elastic Constant Matrix: (Units=GPa)
#
#
# Indices 1 2 3 4 5 6 
#
# 1 76.6980 55.5791 69.0026 0.0000 0.0000 0.0000
# 2 55.5791 146.5369 62.6072 0.0000 0.0000 0.0000
# 3 69.0026 62.6072 143.4093 0.0000 0.0000 0.0000
# 4 0.0000 0.0000 0.0000 21.8804 0.0000 0.0000
# 5 0.0000 0.0000 0.0000 0.0000 36.9085 0.0000
# 6 0.0000 0.0000 0.0000 0.0000 0.0000 17.1537
#
#
#
# Elastic Compliance Matrix: (Units=1/GPa)
#
#
# Indices 1 2 3 4 5 6 
#
# 1 0.026274 -0.005610 -0.010192 0.000000 0.000000 0.000000
# 2 -0.005610 0.009587 -0.001486 0.000000 0.000000 0.000000
# 3 -0.010192 -0.001486 0.012526 0.000000 0.000000 0.000000
# 4 0.000000 0.000000 0.000000 0.045703 0.000000 0.000000
# 5 0.000000 0.000000 0.000000 0.000000 0.027094 0.000000
# 6 0.000000 0.000000 0.000000 0.000000 0.000000 0.058297
#
#
# Mechanical properties :
#
#
# Convention : Reuss Voigt Hill
#
# Bulk Modulus (GPa) = 72.41645 82.33579 77.37612
# Shear Modulus (GPa) = 22.86651 27.15220 25.00935
#
# Velocity S-wave (km/s) = 3.55438 3.87317 3.71719
# Velocity P-wave (km/s) = 7.54019 8.09271 7.82133
#
# Compressibility (1/GPa) = 0.01380902
#
# Stress axis : x y z
#
# Youngs Moduli (GPa) = 38.06108 104.30814 79.83479
#
# Poissons Ratio (x) = 0.58522 0.81371
# Poissons Ratio (y) = 0.21354 0.11862
# Poissons Ratio (z) = 0.38793 0.15498
#
# Static dielectric constant tensor:
#      x y z
#    x 1.610390 0.000000 0.000000 
#    y 0.000000 1.617930 0.000000 
#    z 0.000000 0.000000 1.595970 
# 
# From -- ./inp_files/31468.got.cif
#   From: 2010.05.17/outbox.cif.g08.bks.cpg/sg59_16_cif.got.tgz:31468.got - 2010.06.03 14:40:33.
