data_PCOD9450109
_publ_section_title
;
Structure prediction by ZEFSAII (Michael W. Deem and Ramdas Pophale) SiO2 
 PCOD9450109
Probable space group: P M M N
;
_chemical_formula_sum "Si O2"
_cell_formula_units_Z 64
_cell_length_a 19.252180
_cell_length_b 14.012905
_cell_length_c 12.917901
_cell_angle_alpha 90.000000
_cell_angle_beta 90.000000
_cell_angle_gamma 90.000000
_cell_volume 3484.978018
_symmetry_space_group_name_H-M "P M M N"
_symmetry_group_IT_number 59
_space_group.IT_coordinate_system_code '2'
_symmetry_cell_setting 'orthorhombic'
loop_
_space_group_symop_operation_xyz
x,y,z
1/2-x,1/2-y,z
1/2+x,-y,-z
-x,1/2+y,-z
-x,-y,-z
1/2+x,1/2+y,-z
1/2-x,y,z
x,1/2-y,z
loop_
_atom_site_type_symbol
_atom_site_label
_atom_site_fract_x
_atom_site_fract_y
_atom_site_fract_z
Si Si1 0.952922 0.363492 0.779063
Si Si2 0.895768 0.861427 0.115215
Si Si3 0.332110 0.135487 0.331365
Si Si4 0.540363 0.362183 0.241870
Si Si5 0.411848 0.365070 0.121179
Si Si6 0.829352 0.135369 0.938529
Si Si7 0.672458 0.044722 0.166421
Si Si8 0.544314 0.523238 0.601097
O O1 0.945374 0.250000 0.753650
O O2 0.889619 0.390140 0.856802
O O3 0.952733 0.432301 0.679095
O O4 0.026844 0.373620 0.838080
O O5 0.877981 0.750000 0.123587
O O6 0.842341 0.932325 0.168586
O O7 0.893835 0.891201 0.994682
O O8 0.250000 0.118854 0.339616
O O9 0.344388 0.250000 0.346530
O O10 0.359605 0.110924 0.214714
O O11 0.378854 0.069656 0.406479
O O12 0.546974 0.250000 0.233031
O O13 0.489338 0.398326 0.150246
O O14 0.614567 0.408496 0.236743
O O15 0.498675 0.393269 0.342100
O O16 0.414481 0.250000 0.121202
O O17 0.750000 0.114066 0.902604
O O18 0.834291 0.250000 0.953822
O O19 0.838167 0.086252 0.050151
O O20 0.750000 0.068293 0.197696
O O21 0.500000 0.500000 0.500000
#
# Coordination Sequence:
#
# PCOD9450109 Si02
#       8
#     8   8   8   8   8   8   8   8
#     4  10  21  37  57  79 111 154 193 230 278 336
#     4  10  20  34  51  79 117 154 190 227 269 332
#     4   9  19  37  61  90 121 149 182 231 292 351
#     4  10  20  37  58  82 110 143 185 236 284 332
#     4   8  16  30  53  82 112 145 179 217 269 332
#     4   9  19  34  52  82 120 151 182 221 268 330
#     4  11  22  33  53  82 113 156 195 225 270 333
#     4  11  23  39  61  87 111 144 190 247 296 343
#
# _framework density 18.364533999999999
#
# number of rings (size 3 to 8) (size 9 to 14) (size 15 to 20)
#    0.000    2.250    1.250    2.250    3.500    6.000 
#    0.000    1.875    0.000    0.000    0.000    1.750 
#    0.000    0.000    0.000    0.000    0.000    0.000 
#
# Total GULP energy -356898.780670 kJ/mol
# GULP energy per Si atom -5576.543448 kJ/mol
# Density = 1.832274 g / cm^3
# Si number density = 18.364534 Si / 1000 Ang^3
#
#
#
# Elastic Constant Matrix: (Units=GPa)
#
#
# Indices 1 2 3 4 5 6 
#
# 1 105.8456 16.4476 12.7256 0.0000 0.0000 0.0000
# 2 16.4476 54.6285 0.8730 0.0000 0.0000 0.0000
# 3 12.7256 0.8730 13.7455 0.0000 0.0000 0.0000
# 4 0.0000 0.0000 0.0000 19.8668 0.0000 0.0000
# 5 0.0000 0.0000 0.0000 0.0000 19.2542 0.0000
# 6 0.0000 0.0000 0.0000 0.0000 0.0000 28.9076
#
#
#
# Elastic Compliance Matrix: (Units=1/GPa)
#
#
# Indices 1 2 3 4 5 6 
#
# 1 0.011163 -0.003199 -0.010131 0.000000 0.000000 0.000000
# 2 -0.003199 0.019241 0.001740 0.000000 0.000000 0.000000
# 3 -0.010131 0.001740 0.082020 0.000000 0.000000 0.000000
# 4 0.000000 0.000000 0.000000 0.050335 0.000000 0.000000
# 5 0.000000 0.000000 0.000000 0.000000 0.051937 0.000000
# 6 0.000000 0.000000 0.000000 0.000000 0.000000 0.034593
#
#
# Mechanical properties :
#
#
# Convention : Reuss Voigt Hill
#
# Bulk Modulus (GPa) = 11.20544 26.03466 18.62005
# Shear Modulus (GPa) = 16.54435 23.21729 19.88082
#
# Velocity S-wave (km/s) = 3.00473 3.55948 3.29381
# Velocity P-wave (km/s) = 4.26061 5.57679 4.96253
#
# Compressibility (1/GPa) = 0.08924238
#
# Stress axis : x y z
#
# Youngs Moduli (GPa) = 89.58243 51.97285 12.19210
#
# Poissons Ratio (x) = 0.16626 0.12352
# Poissons Ratio (y) = 0.28658 -0.02121
# Poissons Ratio (z) = 0.90760 -0.09041
#
# Static dielectric constant tensor:
#      x y z
#    x 1.622260 0.000000 0.000000 
#    y 0.000000 1.668260 0.000000 
#    z 0.000000 0.000000 1.632470 
# 
# From -- ./inp_files/17859.got.cif
#   From: 2010.05.17/outbox.cif.g08.bks.cpg/sg59_9_cif.got.tgz:17859.got - 2010.06.03 14:40:33.
