data_PCOD9450938
_publ_section_title
;
Structure prediction by ZEFSAII (Michael W. Deem and Ramdas Pophale) SiO2 
 PCOD9450938
Probable space group: P M M N
;
_chemical_formula_sum "Si O2"
_cell_formula_units_Z 56
_cell_length_a 22.708175
_cell_length_b 8.638746
_cell_length_c 15.024563
_cell_angle_alpha 90.000000
_cell_angle_beta 90.000000
_cell_angle_gamma 90.000000
_cell_volume 2947.370867
_symmetry_space_group_name_H-M "P M M N"
_symmetry_group_IT_number 59
_space_group.IT_coordinate_system_code '2'
_symmetry_cell_setting 'orthorhombic'
loop_
_space_group_symop_operation_xyz
x,y,z
1/2-x,1/2-y,z
1/2+x,-y,-z
-x,1/2+y,-z
-x,-y,-z
1/2+x,1/2+y,-z
1/2-x,y,z
x,1/2-y,z
loop_
_atom_site_type_symbol
_atom_site_label
_atom_site_fract_x
_atom_site_fract_y
_atom_site_fract_z
Si Si1 0.750000 0.564277 0.182933
Si Si2 0.750000 0.559858 0.976935
Si Si3 0.023957 0.433064 0.721097
Si Si4 0.487182 0.070845 0.095144
Si Si5 0.852213 0.570147 0.847957
Si Si6 0.815905 0.436461 0.515001
Si Si7 0.399334 0.436126 0.336744
Si Si8 0.348045 0.564978 0.686217
O O1 0.750000 0.750000 0.182909
O O2 0.750000 0.509780 0.079877
O O3 0.807246 0.506740 0.236962
O O4 0.750000 0.750000 0.980773
O O5 0.805995 0.506073 0.918734
O O6 0.026441 0.250000 0.708578
O O7 0.016164 0.475406 0.825069
O O8 0.084739 0.509242 0.690582
O O9 0.965433 0.499079 0.673244
O O10 0.506177 0.250000 0.100946
O O11 0.417223 0.066464 0.111064
O O12 0.500000 0.000000 0.000000
O O13 0.834804 0.750000 0.835317
O O14 0.861158 0.504543 0.748627
O O15 0.750000 0.481832 0.544520
O O16 0.820898 0.250000 0.522110
O O17 0.865835 0.513189 0.574973
O O18 0.823305 0.476877 0.411238
O O19 0.403124 0.250000 0.330599
O O20 0.345498 0.750000 0.694869
#
# Coordination Sequence:
#
# PCOD9450938 Si02
#       8
#     4   4   8   8   8   8   8   8
#     4  11  23  37  60  91 122 158 205 251 298 365
#     4   9  18  33  54  83 118 154 191 239 292 347
#     4  11  23  40  62  88 120 159 202 254 310 367
#     4  10  20  35  56  85 118 158 203 248 299 361
#     4   8  17  33  53  81 119 152 189 235 289 350
#     4  10  22  41  63  88 120 162 201 243 306 367
#     4  10  21  38  62  93 123 155 199 251 305 367
#     4  11  23  43  65  86 121 162 202 254 308 363
#
# _framework density 18.999984000000001
#
# number of rings (size 3 to 8) (size 9 to 14) (size 15 to 20)
#    0.000    2.000    0.714    3.643    3.000    2.000 
#    0.000    0.000    0.000    2.571    0.000    0.000 
#    0.000    0.000    0.000    0.000    0.000    0.000 
#
# Total GULP energy -312561.362201 kJ/mol
# GULP energy per Si atom -5581.452896 kJ/mol
# Density = 1.895674 g / cm^3
# Si number density = 18.999984 Si / 1000 Ang^3
#
#
#
# Elastic Constant Matrix: (Units=GPa)
#
#
# Indices 1 2 3 4 5 6 
#
# 1 99.9493 24.3037 58.4425 0.0000 0.0000 0.0000
# 2 24.3037 43.4626 25.5901 0.0000 0.0000 0.0000
# 3 58.4425 25.5901 79.3495 0.0000 0.0000 0.0000
# 4 0.0000 0.0000 0.0000 24.4757 0.0000 0.0000
# 5 0.0000 0.0000 0.0000 0.0000 22.5902 0.0000
# 6 0.0000 0.0000 0.0000 0.0000 0.0000 27.3100
#
#
#
# Elastic Compliance Matrix: (Units=1/GPa)
#
#
# Indices 1 2 3 4 5 6 
#
# 1 0.017838 -0.002764 -0.012247 0.000000 0.000000 0.000000
# 2 -0.002764 0.028829 -0.007262 0.000000 0.000000 0.000000
# 3 -0.012247 -0.007262 0.023964 0.000000 0.000000 0.000000
# 4 0.000000 0.000000 0.000000 0.040857 0.000000 0.000000
# 5 0.000000 0.000000 0.000000 0.000000 0.044267 0.000000
# 6 0.000000 0.000000 0.000000 0.000000 0.000000 0.036617
#
#
# Mechanical properties :
#
#
# Convention : Reuss Voigt Hill
#
# Bulk Modulus (GPa) = 38.33337 48.82602 43.57969
# Shear Modulus (GPa) = 20.35723 22.50350 21.43037
#
# Velocity S-wave (km/s) = 3.27683 3.44524 3.36209
# Velocity P-wave (km/s) = 5.87674 6.44825 6.16912
#
# Compressibility (1/GPa) = 0.02608693
#
# Stress axis : x y z
#
# Youngs Moduli (GPa) = 56.05975 34.68673 41.72879
#
# Poissons Ratio (x) = 0.09588 0.51104
# Poissons Ratio (y) = 0.15496 0.30302
# Poissons Ratio (z) = 0.68655 0.25188
#
# Static dielectric constant tensor:
#      x y z
#    x 1.592900 0.000000 0.000000 
#    y 0.000000 1.652920 0.000000 
#    z 0.000000 0.000000 1.671240 
# 
# From -- ./inp_files/24345.got.cif
#   From: 2010.05.17/outbox.cif.g08.bks.cpg/sg59_13_cif.got.tgz:24345.got - 2010.06.03 14:40:33.
