data_PCOD9450567
_publ_section_title
;
Structure prediction by ZEFSAII (Michael W. Deem and Ramdas Pophale) SiO2 
 PCOD9450567
Probable space group: P M M N
;
_chemical_formula_sum "Si O2"
_cell_formula_units_Z 64
_cell_length_a 8.766140
_cell_length_b 14.344230
_cell_length_c 27.097556
_cell_angle_alpha 90.000000
_cell_angle_beta 90.000000
_cell_angle_gamma 90.000000
_cell_volume 3407.342302
_symmetry_space_group_name_H-M "P M M N"
_symmetry_group_IT_number 59
_space_group.IT_coordinate_system_code '2'
_symmetry_cell_setting 'orthorhombic'
loop_
_space_group_symop_operation_xyz
x,y,z
1/2-x,1/2-y,z
1/2+x,-y,-z
-x,1/2+y,-z
-x,-y,-z
1/2+x,1/2+y,-z
1/2-x,y,z
x,1/2-y,z
loop_
_atom_site_type_symbol
_atom_site_label
_atom_site_fract_x
_atom_site_fract_y
_atom_site_fract_z
Si Si1 0.931794 0.852000 0.779111
Si Si2 0.932507 0.038227 0.575803
Si Si3 0.073965 0.643683 0.886907
Si Si4 0.067633 0.359617 0.862663
Si Si5 0.432319 0.355786 0.666483
Si Si6 0.565850 0.856547 0.518121
Si Si7 0.931962 0.058007 0.762629
Si Si8 0.928834 0.482457 0.946535
O O1 0.750000 0.854838 0.790574
O O2 0.961557 0.750000 0.755596
O O3 0.025653 0.855595 0.829818
O O4 0.965815 0.948657 0.751857
O O5 0.750000 0.043536 0.577216
O O6 0.998961 0.072523 0.627314
O O7 0.994828 0.105755 0.532709
O O8 0.975987 0.933030 0.559536
O O9 0.250000 0.612499 0.892045
O O10 0.063315 0.750000 0.904964
O O11 0.962823 0.575878 0.915673
O O12 0.250000 0.370747 0.860034
O O13 0.031255 0.250000 0.858640
O O14 0.992452 0.414208 0.816750
O O15 0.007294 0.401754 0.914004
O O16 0.250000 0.360611 0.665115
O O17 0.478768 0.250000 0.653297
O O18 0.490001 0.379873 0.721041
O O19 0.750000 0.858605 0.513153
O O20 0.520180 0.750000 0.528312
O O21 0.750000 0.070902 0.761448
O O22 0.750000 0.463984 0.950720
O O23 0.000000 0.500000 0.000000
#
# Coordination Sequence:
#
# PCOD9450567 Si02
#       8
#     8   8   8   8   8   8   8   8
#     4   9  18  34  57  85 114 144 179 221 273 331
#     4  10  20  34  55  84 115 149 194 246 292 340
#     4  10  20  35  58  86 113 143 180 223 271 328
#     4  11  24  42  63  87 118 154 190 233 287 345
#     4  11  24  40  57  79 112 155 197 241 295 349
#     4   9  18  34  56  82 115 155 194 234 289 354
#     4  11  22  37  61  90 117 151 193 239 285 337
#     4  12  25  41  61  85 115 151 188 233 284 339
#
# _framework density 18.782966999999999
#
# number of rings (size 3 to 8) (size 9 to 14) (size 15 to 20)
#    0.000    1.625    1.250    3.750    0.000    7.500 
#    0.000    0.625    0.000    3.750    0.000    0.000 
#    0.000    0.000    0.000    0.000    0.000    0.000 
#
# Total GULP energy -357362.583262 kJ/mol
# GULP energy per Si atom -5583.790363 kJ/mol
# Density = 1.874022 g / cm^3
# Si number density = 18.782967 Si / 1000 Ang^3
#
#
#
# Elastic Constant Matrix: (Units=GPa)
#
#
# Indices 1 2 3 4 5 6 
#
# 1 40.5757 29.0488 15.4135 0.0000 0.0000 0.0000
# 2 29.0488 122.2799 27.1659 0.0000 0.0000 0.0000
# 3 15.4135 27.1659 69.2552 0.0000 0.0000 0.0000
# 4 0.0000 0.0000 0.0000 18.8856 0.0000 0.0000
# 5 0.0000 0.0000 0.0000 0.0000 32.7891 0.0000
# 6 0.0000 0.0000 0.0000 0.0000 0.0000 27.4539
#
#
#
# Elastic Compliance Matrix: (Units=1/GPa)
#
#
# Indices 1 2 3 4 5 6 
#
# 1 0.030859 -0.006359 -0.004374 0.000000 0.000000 0.000000
# 2 -0.006359 0.010269 -0.002613 0.000000 0.000000 0.000000
# 3 -0.004374 -0.002613 0.016438 0.000000 0.000000 0.000000
# 4 0.000000 0.000000 0.000000 0.052951 0.000000 0.000000
# 5 0.000000 0.000000 0.000000 0.000000 0.030498 0.000000
# 6 0.000000 0.000000 0.000000 0.000000 0.000000 0.036425
#
#
# Mechanical properties :
#
#
# Convention : Reuss Voigt Hill
#
# Bulk Modulus (GPa) = 32.38891 41.70746 37.04818
# Shear Modulus (GPa) = 23.31845 26.52456 24.92151
#
# Velocity S-wave (km/s) = 3.52727 3.76195 3.64650
# Velocity P-wave (km/s) = 5.81980 6.41271 6.12343
#
# Compressibility (1/GPa) = 0.03087477
#
# Stress axis : x y z
#
# Youngs Moduli (GPa) = 32.40496 97.37902 60.83597
#
# Poissons Ratio (x) = 0.61927 0.26607
# Poissons Ratio (y) = 0.20607 0.15895
# Poissons Ratio (z) = 0.14173 0.25443
#
# Static dielectric constant tensor:
#      x y z
#    x 1.629540 0.000000 0.000000 
#    y 0.000000 1.686080 0.000000 
#    z 0.000000 0.000000 1.613120 
# 
# From -- ./inp_files/31585.got.cif
#   From: 2010.05.17/outbox.cif.g08.bks.cpg/sg59_16_cif.got.tgz:31585.got - 2010.06.03 14:40:33.
