data_PCOD9450709
_publ_section_title
;
Structure prediction by ZEFSAII (Michael W. Deem and Ramdas Pophale) SiO2 
 PCOD9450709
Probable space group: P M M N
;
_chemical_formula_sum "Si O2"
_cell_formula_units_Z 48
_cell_length_a 7.590072
_cell_length_b 32.863514
_cell_length_c 9.071480
_cell_angle_alpha 90.000000
_cell_angle_beta 90.000000
_cell_angle_gamma 90.000000
_cell_volume 2262.757653
_symmetry_space_group_name_H-M "P M M N"
_symmetry_group_IT_number 59
_space_group.IT_coordinate_system_code '2'
_symmetry_cell_setting 'orthorhombic'
loop_
_space_group_symop_operation_xyz
x,y,z
1/2-x,1/2-y,z
1/2+x,-y,-z
-x,1/2+y,-z
-x,-y,-z
1/2+x,1/2+y,-z
1/2-x,y,z
x,1/2-y,z
loop_
_atom_site_type_symbol
_atom_site_label
_atom_site_fract_x
_atom_site_fract_y
_atom_site_fract_z
Si Si1 0.958294 0.914437 0.699075
Si Si2 0.461068 0.997756 0.325200
Si Si3 0.545927 0.831982 0.832862
Si Si4 0.038908 0.250000 0.659045
Si Si5 0.543308 0.167891 0.831504
Si Si6 0.535929 0.409561 0.647421
Si Si7 0.466370 0.250000 0.319159
O O1 0.750000 0.916373 0.733176
O O2 0.031544 0.959461 0.737450
O O3 0.033906 0.874830 0.779624
O O4 0.978035 0.908244 0.523072
O O5 0.250000 0.997931 0.305500
O O6 0.500000 0.000000 0.500000
O O7 0.523921 0.952670 0.282062
O O8 0.750000 0.833117 0.783795
O O9 0.470568 0.791088 0.760551
O O10 0.540634 0.828800 0.008234
O O11 0.250000 0.250000 0.660088
O O12 0.980644 0.250000 0.489503
O O13 0.978866 0.290556 0.741797
O O14 0.750000 0.160926 0.856567
O O15 0.474570 0.129685 0.737183
O O16 0.750000 0.409428 0.645173
O O17 0.250000 0.250000 0.312057
#
# Coordination Sequence:
#
# PCOD9450709 Si02
#       7
#     8   8   8   4   8   8   4
#     4   9  17  30  52  78 102 131 177 226 262 302
#     4   8  14  27  47  72 100 132 170 217 264 303
#     4  10  20  35  53  75 103 137 173 212 257 304
#     4  11  22  39  62  82 100 127 164 211 258 302
#     4  11  23  37  52  76 108 140 171 205 249 308
#     4   9  18  32  51  74 104 139 174 213 262 311
#     4   9  19  35  56  78  98 123 162 207 254 304
#
# _framework density 21.213052999999999
#
# number of rings (size 3 to 8) (size 9 to 14) (size 15 to 20)
#    0.000    2.500    0.000    2.250    0.000    4.000 
#    0.000    2.500    0.000    0.000    0.000    0.000 
#    0.000    0.000    0.000    0.000    0.000    0.000 
#
# Total GULP energy -267781.620494 kJ/mol
# GULP energy per Si atom -5578.783760 kJ/mol
# Density = 2.116477 g / cm^3
# Si number density = 21.213053 Si / 1000 Ang^3
#
#
#
# Elastic Constant Matrix: (Units=GPa)
#
#
# Indices 1 2 3 4 5 6 
#
# 1 48.3969 -5.6403 -18.4939 0.0000 0.0000 0.0000
# 2 -5.6403 245.1184 73.1880 0.0000 0.0000 0.0000
# 3 -18.4939 73.1880 69.4075 0.0000 0.0000 0.0000
# 4 0.0000 0.0000 0.0000 -257.3627 0.0000 0.0000
# 5 0.0000 0.0000 0.0000 0.0000 -8.8123 0.0000
# 6 0.0000 0.0000 0.0000 0.0000 0.0000 -7.8110
#
#
#
# Elastic Compliance Matrix: (Units=1/GPa)
#
#
# Indices 1 2 3 4 5 6 
#
# 1 0.023627 -0.001950 0.008352 0.000000 0.000000 0.000000
# 2 -0.001950 0.006115 -0.006968 0.000000 0.000000 0.000000
# 3 0.008352 -0.006968 0.023980 0.000000 0.000000 0.000000
# 4 0.000000 0.000000 0.000000 -0.003886 0.000000 0.000000
# 5 0.000000 0.000000 0.000000 0.000000 -0.113478 0.000000
# 6 0.000000 0.000000 0.000000 0.000000 0.000000 -0.128024
#
#
# Mechanical properties :
#
#
# Convention : Reuss Voigt Hill
#
# Bulk Modulus (GPa) = 19.01513 51.22559 35.12036
# Shear Modulus (GPa) = -28.90132 -33.87262 -31.38697
#
# Velocity S-wave (km/s) = -3.69512 -4.00031 -3.85074
# Velocity P-wave (km/s) = 3.03675 1.69231 1.78296
#
# Compressibility (1/GPa) = 0.05258969
#
# Stress axis : x y z
#
# Youngs Moduli (GPa) = 42.32514 163.52418 41.70057
#
# Poissons Ratio (x) = 0.31887 -0.34827
# Poissons Ratio (y) = 0.08253 0.29057
# Poissons Ratio (z) = -0.35348 1.13943
#
# Static dielectric constant tensor:
#      x y z
#    x 1.791460 0.000000 0.000000 
#    y 0.000000 1.801210 0.000000 
#    z 0.000000 0.000000 1.690630 
# 
# From -- ./inp_files/6409.got.cif
#   From: 2010.05.17/outbox.cif.g08.bks.cpg/sg59_4_cif.got.tgz:6409.got - 2010.06.03 14:40:33.
