data_PCOD9450495
_publ_section_title
;
Structure prediction by ZEFSAII (Michael W. Deem and Ramdas Pophale) SiO2 
 PCOD9450495
Probable space group: P M M N
;
_chemical_formula_sum "Si O2"
_cell_formula_units_Z 48
_cell_length_a 8.494730
_cell_length_b 10.588045
_cell_length_c 28.763061
_cell_angle_alpha 90.000000
_cell_angle_beta 90.000000
_cell_angle_gamma 90.000000
_cell_volume 2587.024016
_symmetry_space_group_name_H-M "P M M N"
_symmetry_group_IT_number 59
_space_group.IT_coordinate_system_code '2'
_symmetry_cell_setting 'orthorhombic'
loop_
_space_group_symop_operation_xyz
x,y,z
1/2-x,1/2-y,z
1/2+x,-y,-z
-x,1/2+y,-z
-x,-y,-z
1/2+x,1/2+y,-z
1/2-x,y,z
x,1/2-y,z
loop_
_atom_site_type_symbol
_atom_site_label
_atom_site_fract_x
_atom_site_fract_y
_atom_site_fract_z
Si Si1 0.061717 0.996306 0.233791
Si Si2 0.936660 0.750000 0.286096
Si Si3 0.939818 0.395898 0.141666
Si Si4 0.557913 0.750000 0.606414
Si Si5 0.440442 0.998727 0.447437
Si Si6 0.057932 0.250000 0.286587
Si Si7 0.559605 0.250000 0.608643
Si Si8 0.060034 0.605652 0.964913
O O1 0.250000 0.990887 0.236744
O O2 0.993722 0.873638 0.258598
O O3 0.006471 0.123116 0.260502
O O4 0.011210 0.013748 0.180421
O O5 0.750000 0.750000 0.288433
O O6 0.003162 0.750000 0.338429
O O7 0.750000 0.402126 0.143991
O O8 0.986170 0.250000 0.151706
O O9 0.987465 0.422682 0.088475
O O10 0.750000 0.750000 0.606768
O O11 0.507073 0.624474 0.579518
O O12 0.506782 0.750000 0.659894
O O13 0.250000 0.998246 0.448193
O O14 0.492361 0.874611 0.419273
O O15 0.500000 0.000000 0.500000
O O16 0.250000 0.250000 0.286054
O O17 0.750000 0.250000 0.609457
O O18 0.250000 0.605853 0.965856
O O19 0.008441 0.750000 0.975934
O O20 0.000000 0.500000 0.000000
#
# Coordination Sequence:
#
# PCOD9450495 Si02
#       8
#     8   4   8   4   8   4   4   8
#     4  11  21  37  60  87 114 146 190 238 287 345
#     4  12  26  41  57  82 116 156 193 235 294 352
#     4   9  18  35  58  83 116 154 192 237 291 346
#     4   9  17  31  50  75 103 134 168 211 266 319
#     4  10  20  34  55  79 107 141 178 219 270 324
#     4   9  18  33  58  86 110 136 179 233 280 330
#     4  10  21  39  59  79 107 148 188 229 280 337
#     4   9  19  36  57  83 115 153 194 238 288 340
#
# _framework density 18.554137999999998
#
# number of rings (size 3 to 8) (size 9 to 14) (size 15 to 20)
#    0.000    2.167    0.833    3.750    0.000    4.333 
#    1.500    1.667    0.000    2.000    0.000    0.000 
#    0.000    0.000    0.000    0.000    0.000    0.000 
#
# Total GULP energy -268011.849536 kJ/mol
# GULP energy per Si atom -5583.580199 kJ/mol
# Density = 1.851191 g / cm^3
# Si number density = 18.554138 Si / 1000 Ang^3
#
#
#
# Elastic Constant Matrix: (Units=GPa)
#
#
# Indices 1 2 3 4 5 6 
#
# 1 19.9738 31.2465 27.0610 0.0000 0.0000 0.0000
# 2 31.2465 184.5769 116.8274 0.0000 0.0000 0.0000
# 3 27.0610 116.8274 177.6435 0.0000 0.0000 0.0000
# 4 0.0000 0.0000 0.0000 38.6930 0.0000 0.0000
# 5 0.0000 0.0000 0.0000 0.0000 35.0397 0.0000
# 6 0.0000 0.0000 0.0000 0.0000 0.0000 16.8120
#
#
#
# Elastic Compliance Matrix: (Units=1/GPa)
#
#
# Indices 1 2 3 4 5 6 
#
# 1 0.070559 -0.008808 -0.004956 0.000000 0.000000 0.000000
# 2 -0.008808 0.010381 -0.005485 0.000000 0.000000 0.000000
# 3 -0.004956 -0.005485 0.009991 0.000000 0.000000 0.000000
# 4 0.000000 0.000000 0.000000 0.025844 0.000000 0.000000
# 5 0.000000 0.000000 0.000000 0.000000 0.028539 0.000000
# 6 0.000000 0.000000 0.000000 0.000000 0.000000 0.059481
#
#
# Mechanical properties :
#
#
# Convention : Reuss Voigt Hill
#
# Bulk Modulus (GPa) = 19.07187 81.38488 50.22837
# Shear Modulus (GPa) = 19.17386 31.91288 25.54337
#
# Velocity S-wave (km/s) = 3.21814 4.15177 3.71441
# Velocity P-wave (km/s) = 4.91019 8.18179 6.74728
#
# Compressibility (1/GPa) = 0.05243325
#
# Stress axis : x y z
#
# Youngs Moduli (GPa) = 14.17253 96.33319 100.08516
#
# Poissons Ratio (x) = 0.84849 0.49602
# Poissons Ratio (y) = 0.12483 0.54898
# Poissons Ratio (z) = 0.07024 0.52840
#
# Static dielectric constant tensor:
#      x y z
#    x 1.636320 0.000000 0.000000 
#    y 0.000000 1.625070 0.000000 
#    z 0.000000 0.000000 1.616380 
# 
# From -- ./inp_files/33129.got.cif
#   From: 2010.05.17/outbox.cif.g08.bks.cpg/sg59_17_cif.got.tgz:33129.got - 2010.06.03 14:40:33.
