data_PCOD9450176
_publ_section_title
;
Structure prediction by ZEFSAII (Michael W. Deem and Ramdas Pophale) SiO2 
 PCOD9450176
Probable space group: P M M N
;
_chemical_formula_sum "Si O2"
_cell_formula_units_Z 56
_cell_length_a 10.304734
_cell_length_b 20.588389
_cell_length_c 14.995209
_cell_angle_alpha 90.000000
_cell_angle_beta 90.000000
_cell_angle_gamma 90.000000
_cell_volume 3181.351634
_symmetry_space_group_name_H-M "P M M N"
_symmetry_group_IT_number 59
_space_group.IT_coordinate_system_code '2'
_symmetry_cell_setting 'orthorhombic'
loop_
_space_group_symop_operation_xyz
x,y,z
1/2-x,1/2-y,z
1/2+x,-y,-z
-x,1/2+y,-z
-x,-y,-z
1/2+x,1/2+y,-z
1/2-x,y,z
x,1/2-y,z
loop_
_atom_site_type_symbol
_atom_site_label
_atom_site_fract_x
_atom_site_fract_y
_atom_site_fract_z
Si Si1 0.894224 0.250000 0.243132
Si Si2 0.601633 0.954834 0.825511
Si Si3 0.593001 0.175260 0.643606
Si Si4 0.599930 0.108249 0.830175
Si Si5 0.899003 0.886098 0.008573
Si Si6 0.394217 0.608608 0.695665
Si Si7 0.098323 0.560570 0.494013
Si Si8 0.108160 0.250000 0.093219
O O1 0.750000 0.250000 0.202442
O O2 0.906926 0.314206 0.300605
O O3 0.998138 0.250000 0.166038
O O4 0.750000 0.931550 0.812257
O O5 0.502946 0.921455 0.758454
O O6 0.599071 0.031585 0.808204
O O7 0.568491 0.935916 0.927878
O O8 0.750000 0.177346 0.638491
O O9 0.547317 0.250000 0.628037
O O10 0.561188 0.150218 0.743498
O O11 0.555150 0.118397 0.573545
O O12 0.750000 0.125207 0.853715
O O13 0.500925 0.114546 0.911657
O O14 0.750000 0.899909 0.037662
O O15 0.901170 0.814672 0.965172
O O16 0.250000 0.591096 0.730418
O O17 0.401522 0.587215 0.594242
O O18 0.250000 0.542991 0.471106
O O19 0.000000 0.500000 0.500000
O O20 0.250000 0.250000 0.137221
#
# Coordination Sequence:
#
# PCOD9450176 Si02
#       8
#     4   8   8   8   8   8   8   4
#     4  10  20  34  52  81 114 140 176 227 274 317
#     4  10  20  36  56  80 112 147 181 223 273 332
#     4   9  19  36  57  81 110 146 188 231 276 329
#     4  10  21  35  55  81 106 139 188 236 274 316
#     4  10  21  35  53  77 108 147 184 221 273 332
#     4  10  21  34  55  85 112 141 178 222 274 325
#     4  10  21  38  61  86 113 146 183 226 277 332
#     4  10  20  36  54  75 106 146 186 217 264 335
#
# _framework density 17.602582000000002
#
# number of rings (size 3 to 8) (size 9 to 14) (size 15 to 20)
#    0.000    2.143    1.429    1.286    2.000    3.429 
#    0.000    0.714    0.000    1.286    0.000    0.000 
#    0.000    0.000    0.000    0.000    0.000    0.000 
#
# Total GULP energy -312158.837163 kJ/mol
# GULP energy per Si atom -5574.264949 kJ/mol
# Density = 1.756252 g / cm^3
# Si number density = 17.602582 Si / 1000 Ang^3
#
#
#
# Elastic Constant Matrix: (Units=GPa)
#
#
# Indices 1 2 3 4 5 6 
#
# 1 90.6108 51.4977 65.0244 0.0000 0.0000 0.0000
# 2 51.4977 105.7823 46.5153 0.0000 0.0000 0.0000
# 3 65.0244 46.5153 87.8106 0.0000 0.0000 0.0000
# 4 0.0000 0.0000 0.0000 37.2800 0.0000 0.0000
# 5 0.0000 0.0000 0.0000 0.0000 15.1564 0.0000
# 6 0.0000 0.0000 0.0000 0.0000 0.0000 18.7021
#
#
#
# Elastic Compliance Matrix: (Units=1/GPa)
#
#
# Indices 1 2 3 4 5 6 
#
# 1 0.025723 -0.005406 -0.016184 0.000000 0.000000 0.000000
# 2 -0.005406 0.013460 -0.003127 0.000000 0.000000 0.000000
# 3 -0.016184 -0.003127 0.025029 0.000000 0.000000 0.000000
# 4 0.000000 0.000000 0.000000 0.026824 0.000000 0.000000
# 5 0.000000 0.000000 0.000000 0.000000 0.065979 0.000000
# 6 0.000000 0.000000 0.000000 0.000000 0.000000 0.053470
#
#
# Mechanical properties :
#
#
# Convention : Reuss Voigt Hill
#
# Bulk Modulus (GPa) = 67.66959 67.80871 67.73915
# Shear Modulus (GPa) = 18.87895 22.30545 20.59220
#
# Velocity S-wave (km/s) = 3.27847 3.56359 3.42400
# Velocity P-wave (km/s) = 7.27033 7.45238 7.36191
#
# Compressibility (1/GPa) = 0.01477769
#
# Stress axis : x y z
#
# Youngs Moduli (GPa) = 38.87603 74.29329 39.95339
#
# Poissons Ratio (x) = 0.40162 0.64662
# Poissons Ratio (y) = 0.21016 0.12494
# Poissons Ratio (z) = 0.62918 0.23232
#
# Static dielectric constant tensor:
#      x y z
#    x 1.608490 0.000000 0.000000 
#    y 0.000000 1.576550 0.000000 
#    z 0.000000 0.000000 1.601620 
# 
# From -- ./inp_files/21159.got.cif
#   From: 2010.05.17/outbox.cif.g08.bks.cpg/sg59_11_cif.got.tgz:21159.got - 2010.06.03 14:40:33.
