data_PCOD9450327
_publ_section_title
;
Structure prediction by ZEFSAII (Michael W. Deem and Ramdas Pophale) SiO2 
 PCOD9450327
Probable space group: P M M N
;
_chemical_formula_sum "Si O2"
_cell_formula_units_Z 64
_cell_length_a 8.963778
_cell_length_b 16.139107
_cell_length_c 22.719280
_cell_angle_alpha 90.000000
_cell_angle_beta 90.000000
_cell_angle_gamma 90.000000
_cell_volume 3286.738537
_symmetry_space_group_name_H-M "P M M N"
_symmetry_group_IT_number 59
_space_group.IT_coordinate_system_code '2'
_symmetry_cell_setting 'orthorhombic'
loop_
_space_group_symop_operation_xyz
x,y,z
1/2-x,1/2-y,z
1/2+x,-y,-z
-x,1/2+y,-z
-x,-y,-z
1/2+x,1/2+y,-z
1/2-x,y,z
x,1/2-y,z
loop_
_atom_site_type_symbol
_atom_site_label
_atom_site_fract_x
_atom_site_fract_y
_atom_site_fract_z
Si Si1 0.579264 0.149855 0.121835
Si Si2 0.571660 0.342089 0.356311
Si Si3 0.078126 0.850251 0.119270
Si Si4 0.928700 0.913469 0.237849
Si Si5 0.930686 0.000655 0.435546
Si Si6 0.422104 0.148666 0.001580
Si Si7 0.930977 0.840480 0.361405
Si Si8 0.927612 0.591997 0.758798
O O1 0.750000 0.120611 0.127294
O O2 0.581224 0.250000 0.120742
O O3 0.485077 0.122372 0.177945
O O4 0.507064 0.121414 0.060457
O O5 0.750000 0.349806 0.346147
O O6 0.542857 0.250000 0.380577
O O7 0.526849 0.416605 0.399486
O O8 0.490130 0.352324 0.294075
O O9 0.250000 0.877670 0.122261
O O10 0.076079 0.750000 0.119474
O O11 0.989437 0.881152 0.175959
O O12 0.003187 0.878061 0.058236
O O13 0.750000 0.921265 0.235801
O O14 0.968326 0.854972 0.292913
O O15 0.001878 0.001744 0.250759
O O16 0.750000 0.999569 0.439283
O O17 0.980486 0.918916 0.399659
O O18 0.000000 0.000000 0.500000
O O19 0.250000 0.122639 0.002356
O O20 0.424075 0.250000 0.001706
O O21 0.750000 0.840441 0.364545
O O22 0.984488 0.750000 0.381230
O O23 0.750000 0.589459 0.757682
#
# Coordination Sequence:
#
# PCOD9450327 Si02
#       8
#     8   8   8   8   8   8   8   8
#     4  10  20  35  56  81 110 148 193 241 299 363
#     4  10  21  40  64  88 119 162 207 247 294 355
#     4  10  20  34  53  81 116 151 191 242 302 363
#     4  11  21  37  59  82 112 151 199 247 300 361
#     4  10  21  39  61  90 126 162 200 243 292 348
#     4   9  17  31  52  78 109 147 194 245 296 355
#     4   9  18  35  61  89 117 153 198 246 295 350
#     4  12  24  37  56  84 118 151 192 247 307 360
#
# _framework density 19.472190000000001
#
# number of rings (size 3 to 8) (size 9 to 14) (size 15 to 20)
#    0.000    1.875    1.250    3.375    0.000    6.250 
#    0.000    0.625    0.000    1.500    0.000    0.000 
#    0.000    0.000    0.000    0.000    0.000    0.000 
#
# Total GULP energy -357537.443318 kJ/mol
# GULP energy per Si atom -5586.522552 kJ/mol
# Density = 1.942787 g / cm^3
# Si number density = 19.472190 Si / 1000 Ang^3
#
#
#
# Elastic Constant Matrix: (Units=GPa)
#
#
# Indices 1 2 3 4 5 6 
#
# 1 87.1067 37.7306 47.4864 0.0000 0.0000 0.0000
# 2 37.7306 103.5386 60.7331 0.0000 0.0000 0.0000
# 3 47.4864 60.7331 147.8612 0.0000 0.0000 0.0000
# 4 0.0000 0.0000 0.0000 18.1030 0.0000 0.0000
# 5 0.0000 0.0000 0.0000 0.0000 37.4633 0.0000
# 6 0.0000 0.0000 0.0000 0.0000 0.0000 15.3754
#
#
#
# Elastic Compliance Matrix: (Units=1/GPa)
#
#
# Indices 1 2 3 4 5 6 
#
# 1 0.014786 -0.003429 -0.003340 0.000000 0.000000 0.000000
# 2 -0.003429 0.013519 -0.004452 0.000000 0.000000 0.000000
# 3 -0.003340 -0.004452 0.009664 0.000000 0.000000 0.000000
# 4 0.000000 0.000000 0.000000 0.055239 0.000000 0.000000
# 5 0.000000 0.000000 0.000000 0.000000 0.026693 0.000000
# 6 0.000000 0.000000 0.000000 0.000000 0.000000 0.065039
#
#
# Mechanical properties :
#
#
# Convention : Reuss Voigt Hill
#
# Bulk Modulus (GPa) = 64.40004 70.04519 67.22262
# Shear Modulus (GPa) = 23.52289 27.02542 25.27415
#
# Velocity S-wave (km/s) = 3.47944 3.72949 3.60663
# Velocity P-wave (km/s) = 7.02044 7.38888 7.20701
#
# Compressibility (1/GPa) = 0.01552794
#
# Stress axis : x y z
#
# Youngs Moduli (GPa) = 67.62954 73.96999 103.47335
#
# Poissons Ratio (x) = 0.25364 0.34563
# Poissons Ratio (y) = 0.23190 0.46062
# Poissons Ratio (z) = 0.22590 0.32928
#
# Static dielectric constant tensor:
#      x y z
#    x 1.651070 0.000000 0.000000 
#    y 0.000000 1.712360 0.000000 
#    z 0.000000 0.000000 1.644750 
# 
# From -- ./inp_files/31531.got.cif
#   From: 2010.05.17/outbox.cif.g08.bks.cpg/sg59_16_cif.got.tgz:31531.got - 2010.06.03 14:40:33.
