data_PCOD9450340
_publ_section_title
;
Structure prediction by ZEFSAII (Michael W. Deem and Ramdas Pophale) SiO2 
 PCOD9450340
Probable space group: P M M N
;
_chemical_formula_sum "Si O2"
_cell_formula_units_Z 48
_cell_length_a 15.045070
_cell_length_b 8.819356
_cell_length_c 19.013060
_cell_angle_alpha 90.000000
_cell_angle_beta 90.000000
_cell_angle_gamma 90.000000
_cell_volume 2522.801642
_symmetry_space_group_name_H-M "P M M N"
_symmetry_group_IT_number 59
_space_group.IT_coordinate_system_code '2'
_symmetry_cell_setting 'orthorhombic'
loop_
_space_group_symop_operation_xyz
x,y,z
1/2-x,1/2-y,z
1/2+x,-y,-z
-x,1/2+y,-z
-x,-y,-z
1/2+x,1/2+y,-z
1/2-x,y,z
x,1/2-y,z
loop_
_atom_site_type_symbol
_atom_site_label
_atom_site_fract_x
_atom_site_fract_y
_atom_site_fract_z
Si Si1 0.439957 0.430239 0.249983
Si Si2 0.250000 0.928878 0.263893
Si Si3 0.884494 0.082421 0.498780
Si Si4 0.500121 0.929835 0.110549
Si Si5 0.250000 0.418993 0.410894
Si Si6 0.645184 0.931619 0.992638
Si Si7 0.034467 0.080696 0.616395
O O1 0.436981 0.250000 0.259510
O O2 0.340372 0.493884 0.237359
O O3 0.497607 0.478359 0.182804
O O4 0.480208 0.510359 0.319092
O O5 0.250000 0.750000 0.249829
O O6 0.250000 0.961656 0.347699
O O7 0.844022 0.250000 0.502352
O O8 0.970544 0.096736 0.548646
O O9 0.831809 0.951140 0.538585
O O10 0.895883 0.034995 0.417762
O O11 0.494216 0.750000 0.124176
O O12 0.413925 0.982448 0.065537
O O13 0.588989 0.958092 0.064391
O O14 0.250000 0.250000 0.381183
O O15 0.750000 0.973612 0.995166
O O16 0.640964 0.750000 0.978623
O O17 0.066982 0.250000 0.634468
#
# Coordination Sequence:
#
# PCOD9450340 Si02
#       7
#     8   4   8   8   4   8   8
#     4  12  24  38  57  82 116 153 189 233 288 352
#     4  12  24  38  54  80 114 149 188 235 294 350
#     4  10  20  34  54  77 106 142 184 232 280 334
#     4  10  21  37  59  89 122 156 195 241 290 346
#     4  12  22  34  54  80 110 143 184 233 288 348
#     4   9  19  38  63  89 119 155 197 241 287 341
#     4  10  20  35  55  78 107 142 184 230 280 338
#
# _framework density 19.026465000000002
#
# number of rings (size 3 to 8) (size 9 to 14) (size 15 to 20)
#    0.000    1.500    1.667    4.500    1.167    2.333 
#    0.000    0.000    1.833    0.000    0.000    0.000 
#    0.000    0.000    0.000    0.000    0.000    0.000 
#
# Total GULP energy -267598.600595 kJ/mol
# GULP energy per Si atom -5574.970846 kJ/mol
# Density = 1.898316 g / cm^3
# Si number density = 19.026465 Si / 1000 Ang^3
#
#
#
# Elastic Constant Matrix: (Units=GPa)
#
#
# Indices 1 2 3 4 5 6 
#
# 1 55.9612 11.2187 9.8569 0.0000 0.0000 0.0000
# 2 11.2187 107.9956 35.9857 0.0000 0.0000 0.0000
# 3 9.8569 35.9857 68.4836 0.0000 0.0000 0.0000
# 4 0.0000 0.0000 0.0000 29.0204 0.0000 0.0000
# 5 0.0000 0.0000 0.0000 0.0000 15.7864 0.0000
# 6 0.0000 0.0000 0.0000 0.0000 0.0000 24.4300
#
#
#
# Elastic Compliance Matrix: (Units=1/GPa)
#
#
# Indices 1 2 3 4 5 6 
#
# 1 0.018473 -0.001252 -0.002001 0.000000 0.000000 0.000000
# 2 -0.001252 0.011310 -0.005763 0.000000 0.000000 0.000000
# 3 -0.002001 -0.005763 0.017918 0.000000 0.000000 0.000000
# 4 0.000000 0.000000 0.000000 0.034458 0.000000 0.000000
# 5 0.000000 0.000000 0.000000 0.000000 0.063346 0.000000
# 6 0.000000 0.000000 0.000000 0.000000 0.000000 0.040933
#
#
# Mechanical properties :
#
#
# Convention : Reuss Voigt Hill
#
# Bulk Modulus (GPa) = 33.70474 38.50700 36.10587
# Shear Modulus (GPa) = 23.32525 25.53931 24.43228
#
# Velocity S-wave (km/s) = 3.50514 3.66772 3.58735
# Velocity P-wave (km/s) = 5.84247 6.18214 6.01470
#
# Compressibility (1/GPa) = 0.02966942
#
# Stress axis : x y z
#
# Youngs Moduli (GPa) = 54.13306 88.41767 55.80940
#
# Poissons Ratio (x) = 0.11073 0.11166
# Poissons Ratio (y) = 0.06779 0.32162
# Poissons Ratio (z) = 0.10831 0.50953
#
# Static dielectric constant tensor:
#      x y z
#    x 1.644790 0.000000 0.000000 
#    y 0.000000 1.746860 0.000000 
#    z 0.000000 0.000000 1.638990 
# 
# From -- ./inp_files/27474.got.cif
#   From: 2010.05.17/outbox.cif.g08.bks.cpg/sg59_14_cif.got.tgz:27474.got - 2010.06.03 14:40:33.
