data_PCOD9450616
_publ_section_title
;
Structure prediction by ZEFSAII (Michael W. Deem and Ramdas Pophale) SiO2 
 PCOD9450616
Probable space group: P M M N
;
_chemical_formula_sum "Si O2"
_cell_formula_units_Z 64
_cell_length_a 14.932967
_cell_length_b 24.338549
_cell_length_c 8.312581
_cell_angle_alpha 90.000000
_cell_angle_beta 90.000000
_cell_angle_gamma 90.000000
_cell_volume 3021.180541
_symmetry_space_group_name_H-M "P M M N"
_symmetry_group_IT_number 59
_space_group.IT_coordinate_system_code '2'
_symmetry_cell_setting 'orthorhombic'
loop_
_space_group_symop_operation_xyz
x,y,z
1/2-x,1/2-y,z
1/2+x,-y,-z
-x,1/2+y,-z
-x,-y,-z
1/2+x,1/2+y,-z
1/2-x,y,z
x,1/2-y,z
loop_
_atom_site_type_symbol
_atom_site_label
_atom_site_fract_x
_atom_site_fract_y
_atom_site_fract_z
Si Si1 0.352451 0.592216 0.179982
Si Si2 0.147587 0.480395 0.338550
Si Si3 0.353407 0.463534 0.682065
Si Si4 0.046286 0.131614 0.827948
Si Si5 0.453495 0.314454 0.494242
Si Si6 0.847484 0.312600 0.382799
Si Si7 0.879841 0.081075 0.182618
Si Si8 0.418017 0.118381 0.176483
O O1 0.250000 0.609183 0.225125
O O2 0.384265 0.539969 0.284526
O O3 0.437522 0.633011 0.174213
O O4 0.346749 0.571789 0.996774
O O5 0.250000 0.490539 0.384225
O O6 0.106285 0.456751 0.502364
O O7 0.146037 0.433431 0.204015
O O8 0.250000 0.443719 0.694859
O O9 0.415478 0.430043 0.803927
O O10 0.354674 0.528477 0.714014
O O11 0.077688 0.162467 0.666472
O O12 0.082900 0.148552 0.003956
O O13 0.435490 0.250000 0.487080
O O14 0.562094 0.322294 0.482920
O O15 0.414235 0.342779 0.333300
O O16 0.750000 0.315023 0.466198
O O17 0.855432 0.250000 0.317048
O O18 0.846981 0.360783 0.251821
O O19 0.986091 0.088030 0.180087
#
# Coordination Sequence:
#
# PCOD9450616 Si02
#       8
#     8   8   8   8   8   8   8   8
#     4  10  21  35  52  84 123 157 195 236 281 342
#     4  10  21  35  55  85 120 155 191 236 291 352
#     4  11  22  35  57  89 120 155 194 237 295 356
#     4  11  23  38  61  87 118 157 194 238 294 351
#     4  10  22  40  60  83 113 148 194 249 294 344
#     4   9  18  33  55  81 110 152 199 239 285 336
#     4  10  20  34  56  83 118 156 197 243 286 339
#     4  10  21  38  59  85 113 153 195 235 291 350
#
# _framework density 21.183772999999999
#
# number of rings (size 3 to 8) (size 9 to 14) (size 15 to 20)
#    0.000    1.875    1.250    2.625    3.500    5.500 
#    0.000    1.875    0.000    2.250    0.000    5.250 
#    0.000    0.000    0.000    0.000    0.000    0.000 
#
# Total GULP energy -356625.758000 kJ/mol
# GULP energy per Si atom -5572.277469 kJ/mol
# Density = 2.113556 g / cm^3
# Si number density = 21.183773 Si / 1000 Ang^3
#
#
#
# Elastic Constant Matrix: (Units=GPa)
#
#
# Indices 1 2 3 4 5 6 
#
# 1 35.3177 -4.8957 -2.1043 0.0000 0.0000 0.0000
# 2 -4.8957 40.5671 29.7862 0.0000 0.0000 0.0000
# 3 -2.1043 29.7862 129.6057 0.0000 0.0000 0.0000
# 4 0.0000 0.0000 0.0000 14.9246 0.0000 0.0000
# 5 0.0000 0.0000 0.0000 0.0000 8.5426 0.0000
# 6 0.0000 0.0000 0.0000 0.0000 0.0000 10.2873
#
#
#
# Elastic Compliance Matrix: (Units=1/GPa)
#
#
# Indices 1 2 3 4 5 6 
#
# 1 0.028813 0.003770 -0.000399 0.000000 0.000000 0.000000
# 2 0.003770 0.030148 -0.006867 0.000000 0.000000 0.000000
# 3 -0.000399 -0.006867 0.009288 0.000000 0.000000 0.000000
# 4 0.000000 0.000000 0.000000 0.067003 0.000000 0.000000
# 5 0.000000 0.000000 0.000000 0.000000 0.117061 0.000000
# 6 0.000000 0.000000 0.000000 0.000000 0.000000 0.097207
#
#
# Mechanical properties :
#
#
# Convention : Reuss Voigt Hill
#
# Bulk Modulus (GPa) = 16.32483 27.89588 22.11035
# Shear Modulus (GPa) = 13.26502 18.93119 16.09810
#
# Velocity S-wave (km/s) = 2.50509 2.99267 2.75967
# Velocity P-wave (km/s) = 4.01127 5.01383 4.54031
#
# Compressibility (1/GPa) = 0.06125639
#
# Stress axis : x y z
#
# Youngs Moduli (GPa) = 34.70627 33.16991 107.67149
#
# Poissons Ratio (x) = -0.12505 0.04292
# Poissons Ratio (y) = -0.13084 0.73942
# Poissons Ratio (z) = 0.01383 0.22779
#
# Static dielectric constant tensor:
#      x y z
#    x 1.839870 0.000000 0.000000 
#    y 0.000000 1.731200 0.000000 
#    z 0.000000 0.000000 1.808890 
# 
# From -- ./inp_files/10722.got.cif
#   From: 2010.05.17/outbox.cif.g08.bks.cpg/sg59_6_cif.got.tgz:10722.got - 2010.06.03 14:40:33.
