data_PCOD9450915
_publ_section_title
;
Structure prediction by ZEFSAII (Michael W. Deem and Ramdas Pophale) SiO2 
 PCOD9450915
Probable space group: P M M N
;
_chemical_formula_sum "Si O2"
_cell_formula_units_Z 48
_cell_length_a 8.532064
_cell_length_b 17.681747
_cell_length_c 15.683252
_cell_angle_alpha 90.000000
_cell_angle_beta 90.000000
_cell_angle_gamma 90.000000
_cell_volume 2366.003580
_symmetry_space_group_name_H-M "P M M N"
_symmetry_group_IT_number 59
_space_group.IT_coordinate_system_code '2'
_symmetry_cell_setting 'orthorhombic'
loop_
_space_group_symop_operation_xyz
x,y,z
1/2-x,1/2-y,z
1/2+x,-y,-z
-x,1/2+y,-z
-x,-y,-z
1/2+x,1/2+y,-z
1/2-x,y,z
x,1/2-y,z
loop_
_atom_site_type_symbol
_atom_site_label
_atom_site_fract_x
_atom_site_fract_y
_atom_site_fract_z
Si Si1 0.569374 0.558406 0.866606
Si Si2 0.931917 0.842067 0.541668
Si Si3 0.435556 0.665112 0.007881
Si Si4 0.065281 0.101466 0.824793
Si Si5 0.067526 0.659716 0.721774
Si Si6 0.059088 0.337811 0.644286
O O1 0.750000 0.535152 0.870516
O O2 0.465833 0.484594 0.850981
O O3 0.537675 0.615405 0.788704
O O4 0.522470 0.602683 0.951893
O O5 0.750000 0.864699 0.552622
O O6 0.933514 0.750000 0.537761
O O7 0.992743 0.867049 0.448727
O O8 0.028503 0.864070 0.624954
O O9 0.250000 0.657395 0.994294
O O10 0.482223 0.750000 0.981459
O O11 0.476427 0.652490 0.106472
O O12 0.250000 0.118901 0.829309
O O13 0.011381 0.116642 0.727989
O O14 0.250000 0.645338 0.741160
O O15 0.040717 0.750000 0.728073
O O16 0.250000 0.338490 0.640295
O O17 0.011735 0.250000 0.654528
#
# Coordination Sequence:
#
# PCOD9450915 Si02
#       6
#     8   8   8   8   8   8
#     4  12  25  40  58  81 112 149 189 230 277 333
#     4   8  14  28  52  81 111 143 182 227 273 322
#     4  11  24  42  63  87 114 143 180 228 278 329
#     4  11  22  38  60  85 116 151 187 227 276 332
#     4  10  20  35  56  83 113 144 183 232 283 333
#     4   8  15  30  55  85 113 144 185 230 273 322
#
# _framework density 20.287375000000001
#
# number of rings (size 3 to 8) (size 9 to 14) (size 15 to 20)
#    0.000    2.000    0.000    5.500    0.000    5.000 
#    0.000    2.500    0.000    4.000    0.000    0.000 
#    0.000    0.000    0.000    0.000    0.000    0.000 
#
# Total GULP energy -268129.427065 kJ/mol
# GULP energy per Si atom -5586.029731 kJ/mol
# Density = 2.024120 g / cm^3
# Si number density = 20.287375 Si / 1000 Ang^3
#
#
#
# Elastic Constant Matrix: (Units=GPa)
#
#
# Indices 1 2 3 4 5 6 
#
# 1 12.4783 -2.3496 -1.0435 0.0000 0.0000 0.0000
# 2 -2.3496 26.5425 -0.1159 0.0000 0.0000 0.0000
# 3 -1.0435 -0.1159 88.9602 0.0000 0.0000 0.0000
# 4 0.0000 0.0000 0.0000 0.9923 0.0000 0.0000
# 5 0.0000 0.0000 0.0000 0.0000 23.3906 0.0000
# 6 0.0000 0.0000 0.0000 0.0000 0.0000 13.3350
#
#
#
# Elastic Compliance Matrix: (Units=1/GPa)
#
#
# Indices 1 2 3 4 5 6 
#
# 1 0.081581 0.007226 0.000966 0.000000 0.000000 0.000000
# 2 0.007226 0.038316 0.000135 0.000000 0.000000 0.000000
# 3 0.000966 0.000135 0.011252 0.000000 0.000000 0.000000
# 4 0.000000 0.000000 0.000000 1.007745 0.000000 0.000000
# 5 0.000000 0.000000 0.000000 0.000000 0.042752 0.000000
# 6 0.000000 0.000000 0.000000 0.000000 0.000000 0.074991
#
#
# Mechanical properties :
#
#
# Convention : Reuss Voigt Hill
#
# Bulk Modulus (GPa) = 6.76576 13.44032 10.10304
# Shear Modulus (GPa) = 3.87822 16.30958 10.09390
#
# Velocity S-wave (km/s) = 1.38412 2.83844 2.23299
# Velocity P-wave (km/s) = 2.42829 4.16913 3.41162
#
# Compressibility (1/GPa) = 0.14780314
#
# Stress axis : x y z
#
# Youngs Moduli (GPa) = 12.25779 26.09893 88.86919
#
# Poissons Ratio (x) = -0.18859 -0.08588
# Poissons Ratio (y) = -0.08858 -0.01197
# Poissons Ratio (z) = -0.01185 -0.00351
#
# Static dielectric constant tensor:
#      x y z
#    x 1.686440 0.000000 0.000000 
#    y 0.000000 1.705510 0.000000 
#    z 0.000000 0.000000 1.737400 
# 
# From -- ./inp_files/20301.got.cif
#   From: 2010.05.17/outbox.cif.g08.bks.cpg/sg59_11_cif.got.tgz:20301.got - 2010.06.03 14:40:33.
