data_PCOD9450211
_publ_section_title
;
Structure prediction by ZEFSAII (Michael W. Deem and Ramdas Pophale) SiO2 
 PCOD9450211
Probable space group: P M M N
;
_chemical_formula_sum "Si O2"
_cell_formula_units_Z 48
_cell_length_a 30.969006
_cell_length_b 7.590841
_cell_length_c 9.882532
_cell_angle_alpha 90.000000
_cell_angle_beta 90.000000
_cell_angle_gamma 90.000000
_cell_volume 2323.193533
_symmetry_space_group_name_H-M "P M M N"
_symmetry_group_IT_number 59
_space_group.IT_coordinate_system_code '2'
_symmetry_cell_setting 'orthorhombic'
loop_
_space_group_symop_operation_xyz
x,y,z
1/2-x,1/2-y,z
1/2+x,-y,-z
-x,1/2+y,-z
-x,-y,-z
1/2+x,1/2+y,-z
1/2-x,y,z
x,1/2-y,z
loop_
_atom_site_type_symbol
_atom_site_label
_atom_site_fract_x
_atom_site_fract_y
_atom_site_fract_z
Si Si1 0.545770 0.536836 0.342991
Si Si2 0.877342 0.955424 0.855359
Si Si3 0.200791 0.540602 0.332783
Si Si4 0.200947 0.038235 0.640404
Si Si5 0.874129 0.966210 0.160982
Si Si6 0.447568 0.041606 0.351029
O O1 0.545945 0.750000 0.346469
O O2 0.582288 0.480343 0.238366
O O3 0.555798 0.471302 0.495507
O O4 0.497202 0.481177 0.307795
O O5 0.888740 0.750000 0.874324
O O6 0.914050 0.033948 0.757256
O O7 0.832527 0.965516 0.774670
O O8 0.873660 0.028841 0.006418
O O9 0.250000 0.473472 0.318293
O O10 0.201512 0.750000 0.314889
O O11 0.186763 0.502811 0.487046
O O12 0.250000 0.970980 0.657675
O O13 0.202551 0.250000 0.650915
O O14 0.166991 0.974286 0.751128
O O15 0.872866 0.750000 0.161606
O O16 0.438269 0.250000 0.361803
#
# Coordination Sequence:
#
# PCOD9450211 Si02
#       6
#     8   8   8   8   8   8
#     4   9  17  31  50  70  97 133 169 207 250 294
#     4  10  20  34  53  76 103 135 169 207 251 299
#     4  10  21  36  53  75 103 133 167 208 251 297
#     4   9  17  32  55  78  99 128 167 208 249 295
#     4   9  18  32  51  77 105 132 167 210 252 296
#     4   9  18  32  50  73  99 128 167 211 249 290
#
# _framework density 20.661214000000001
#
# number of rings (size 3 to 8) (size 9 to 14) (size 15 to 20)
#    0.000    2.667    0.000    1.500    0.000    5.667 
#    0.000    7.500    0.000    2.000    0.000    0.000 
#    0.000    0.000    0.000    0.000    0.000    0.000 
#
# Total GULP energy -267943.016311 kJ/mol
# GULP energy per Si atom -5582.146173 kJ/mol
# Density = 2.061419 g / cm^3
# Si number density = 20.661214 Si / 1000 Ang^3
#
#
#
# Elastic Constant Matrix: (Units=GPa)
#
#
# Indices 1 2 3 4 5 6 
#
# 1 107.5076 -15.0727 107.7773 0.0000 0.0000 0.0000
# 2 -15.0727 39.6361 -9.0468 0.0000 0.0000 0.0000
# 3 107.7773 -9.0468 169.4036 0.0000 0.0000 0.0000
# 4 0.0000 0.0000 0.0000 -7.3258 0.0000 0.0000
# 5 0.0000 0.0000 0.0000 0.0000 -26.3756 0.0000
# 6 0.0000 0.0000 0.0000 0.0000 0.0000 -26.9634
#
#
#
# Elastic Compliance Matrix: (Units=1/GPa)
#
#
# Indices 1 2 3 4 5 6 
#
# 1 0.027232 0.006480 -0.016980 0.000000 0.000000 0.000000
# 2 0.006480 0.027083 -0.002677 0.000000 0.000000 0.000000
# 3 -0.016980 -0.002677 0.016563 0.000000 0.000000 0.000000
# 4 0.000000 0.000000 0.000000 -0.136504 0.000000 0.000000
# 5 0.000000 0.000000 0.000000 0.000000 -0.037914 0.000000
# 6 0.000000 0.000000 0.000000 0.000000 0.000000 -0.037087
#
#
# Mechanical properties :
#
#
# Convention : Reuss Voigt Hill
#
# Bulk Modulus (GPa) = 22.45855 53.76254 38.11054
# Shear Modulus (GPa) = -50.28495 3.39302 -23.44597
#
# Velocity S-wave (km/s) = -4.93869 1.28288 -3.37231
# Velocity P-wave (km/s) = 4.65053 5.31713 1.82270
#
# Compressibility (1/GPa) = 0.04452648
#
# Stress axis : x y z
#
# Youngs Moduli (GPa) = 36.72089 36.92361 60.37607
#
# Poissons Ratio (x) = -0.23928 1.02516
# Poissons Ratio (y) = -0.23796 0.16160
# Poissons Ratio (z) = 0.62351 0.09883
#
# Static dielectric constant tensor:
#      x y z
#    x 1.719670 0.000000 0.000000 
#    y 0.000000 1.781310 0.000000 
#    z 0.000000 0.000000 1.716780 
# 
# From -- ./inp_files/6244.got.cif
#   From: 2010.05.17/outbox.cif.g08.bks.cpg/sg59_4_cif.got.tgz:6244.got - 2010.06.03 14:40:33.
