data_PCOD9450690
_publ_section_title
;
Structure prediction by ZEFSAII (Michael W. Deem and Ramdas Pophale) SiO2 
 PCOD9450690
Probable space group: P M M N
;
_chemical_formula_sum "Si O2"
_cell_formula_units_Z 34
_cell_length_a 8.072897
_cell_length_b 7.760440
_cell_length_c 27.496560
_cell_angle_alpha 90.000000
_cell_angle_beta 90.000000
_cell_angle_gamma 90.000000
_cell_volume 1722.638388
_symmetry_space_group_name_H-M "P M M N"
_symmetry_group_IT_number 59
_space_group.IT_coordinate_system_code '2'
_symmetry_cell_setting 'orthorhombic'
loop_
_space_group_symop_operation_xyz
x,y,z
1/2-x,1/2-y,z
1/2+x,-y,-z
-x,1/2+y,-z
-x,-y,-z
1/2+x,1/2+y,-z
1/2-x,y,z
x,1/2-y,z
loop_
_atom_site_type_symbol
_atom_site_label
_atom_site_fract_x
_atom_site_fract_y
_atom_site_fract_z
Si Si1 0.952027 0.750000 0.872717
Si Si2 0.250000 0.461590 0.715946
Si Si3 0.448747 0.557722 0.053870
Si Si4 0.250000 0.750000 0.796830
Si Si5 0.928021 0.046663 0.655562
Si Si6 0.062869 0.544424 0.553555
O O1 0.750000 0.750000 0.862281
O O2 0.992634 0.583583 0.905988
O O3 0.080353 0.750000 0.828311
O O4 0.250000 0.250000 0.722742
O O5 0.250000 0.576679 0.764109
O O6 0.411781 0.514422 0.684707
O O7 0.250000 0.564767 0.054043
O O8 0.514063 0.750000 0.063802
O O9 0.500000 0.500000 0.000000
O O10 0.750000 0.970070 0.669589
O O11 0.921858 0.250000 0.665164
O O12 0.955304 0.023702 0.598031
O O13 0.250000 0.477508 0.559376
O O14 0.064953 0.750000 0.557762
O O15 0.000000 0.500000 0.500000
#
# Coordination Sequence:
#
# PCOD9450690 Si02
#       6
#     4   4   8   2   8   8
#     4  10  24  44  60  94 138 172 214 278 326 371
#     4  10  24  46  68  94 126 162 216 284 328 371
#     4  10  20  34  58  91 131 175 220 262 316 388
#     4  12  28  44  72  96 128 172 236 272 324 398
#     4  10  21  39  64  91 120 157 206 259 321 390
#     4  11  23  36  54  84 125 164 202 250 313 390
#
# _framework density 19.737165000000001
#
# number of rings (size 3 to 8) (size 9 to 14) (size 15 to 20)
#    0.000    1.647    2.353    1.412    3.294    6.588 
#    0.000    0.000    0.000    0.000    0.000    0.000 
#    0.000    0.000    0.000    0.000    0.000    0.000 
#
# Total GULP energy -189802.471690 kJ/mol
# GULP energy per Si atom -5582.425638 kJ/mol
# Density = 1.969224 g / cm^3
# Si number density = 19.737165 Si / 1000 Ang^3
#
#
#
# Elastic Constant Matrix: (Units=GPa)
#
#
# Indices 1 2 3 4 5 6 
#
# 1 140.0166 35.3236 70.7354 0.0000 0.0000 0.0000
# 2 35.3236 94.8003 41.2842 0.0000 0.0000 0.0000
# 3 70.7354 41.2842 125.9537 0.0000 0.0000 0.0000
# 4 0.0000 0.0000 0.0000 41.5434 0.0000 0.0000
# 5 0.0000 0.0000 0.0000 0.0000 35.7012 0.0000
# 6 0.0000 0.0000 0.0000 0.0000 0.0000 13.1860
#
#
#
# Elastic Compliance Matrix: (Units=1/GPa)
#
#
# Indices 1 2 3 4 5 6 
#
# 1 0.010154 -0.001517 -0.005206 0.000000 0.000000 0.000000
# 2 -0.001517 0.012531 -0.003256 0.000000 0.000000 0.000000
# 3 -0.005206 -0.003256 0.011930 0.000000 0.000000 0.000000
# 4 0.000000 0.000000 0.000000 0.024071 0.000000 0.000000
# 5 0.000000 0.000000 0.000000 0.000000 0.028010 0.000000
# 6 0.000000 0.000000 0.000000 0.000000 0.000000 0.075838
#
#
# Mechanical properties :
#
#
# Convention : Reuss Voigt Hill
#
# Bulk Modulus (GPa) = 68.21312 72.82857 70.52084
# Shear Modulus (GPa) = 26.68400 32.31460 29.49930
#
# Velocity S-wave (km/s) = 3.68090 4.05068 3.87021
# Velocity P-wave (km/s) = 7.25956 7.67181 7.46853
#
# Compressibility (1/GPa) = 0.01465994
#
# Stress axis : x y z
#
# Youngs Moduli (GPa) = 98.47863 79.79932 83.82218
#
# Poissons Ratio (x) = 0.12103 0.43635
# Poissons Ratio (y) = 0.14936 0.27290
# Poissons Ratio (z) = 0.51264 0.25980
#
# Static dielectric constant tensor:
#      x y z
#    x 1.776770 0.000000 0.000000 
#    y 0.000000 1.698420 0.000000 
#    z 0.000000 0.000000 1.663050 
# 
# From -- ./inp_files/28652.got.cif
#   From: 2010.05.17/outbox.cif.g08.bks.cpg/sg59_15_cif.got.tgz:28652.got - 2010.06.03 14:40:33.
