data_PCOD9450614
_publ_section_title
;
Structure prediction by ZEFSAII (Michael W. Deem and Ramdas Pophale) SiO2 
 PCOD9450614
Probable space group: P M M N
;
_chemical_formula_sum "Si O2"
_cell_formula_units_Z 48
_cell_length_a 31.804148
_cell_length_b 7.972882
_cell_length_c 9.238162
_cell_angle_alpha 90.000000
_cell_angle_beta 90.000000
_cell_angle_gamma 90.000000
_cell_volume 2342.527382
_symmetry_space_group_name_H-M "P M M N"
_symmetry_group_IT_number 59
_space_group.IT_coordinate_system_code '2'
_symmetry_cell_setting 'orthorhombic'
loop_
_space_group_symop_operation_xyz
x,y,z
1/2-x,1/2-y,z
1/2+x,-y,-z
-x,1/2+y,-z
-x,-y,-z
1/2+x,1/2+y,-z
1/2-x,y,z
x,1/2-y,z
loop_
_atom_site_type_symbol
_atom_site_label
_atom_site_fract_x
_atom_site_fract_y
_atom_site_fract_z
Si Si1 0.665669 0.046898 0.329441
Si Si2 0.750000 0.455954 0.831025
Si Si3 0.081352 0.451926 0.838939
Si Si4 0.999049 0.450917 0.667871
Si Si5 0.167985 0.550199 0.341226
Si Si6 0.250000 0.955022 0.835089
Si Si7 0.085558 0.050907 0.168383
O O1 0.666400 0.250000 0.331887
O O2 0.665126 0.984285 0.494936
O O3 0.707839 0.990463 0.247313
O O4 0.623975 0.995050 0.244462
O O5 0.750000 0.250000 0.832096
O O6 0.708305 0.513612 0.747141
O O7 0.750000 0.509173 0.998048
O O8 0.077967 0.250000 0.845048
O O9 0.040600 0.514357 0.751355
O O10 0.082589 0.515474 0.004018
O O11 0.998688 0.250000 0.676009
O O12 0.000000 0.500000 0.500000
O O13 0.957192 0.514856 0.745913
O O14 0.173969 0.750000 0.353859
O O15 0.125374 0.520254 0.253750
O O16 0.250000 0.750000 0.834147
O O17 0.091548 0.250000 0.160773
#
# Coordination Sequence:
#
# PCOD9450614 Si02
#       7
#     8   4   8   8   8   4   8
#     4  10  20  34  56  83 112 145 184 227 274 328
#     4   9  17  31  54  81 112 147 186 230 276 327
#     4  10  23  40  57  80 112 146 183 228 278 327
#     4  11  23  40  61  85 113 146 183 227 277 332
#     4  10  20  35  56  84 114 147 186 231 280 331
#     4   9  17  31  52  81 112 145 184 228 274 323
#     4  11  23  39  58  82 112 147 186 230 276 328
#
# _framework density 20.490687000000001
#
# number of rings (size 3 to 8) (size 9 to 14) (size 15 to 20)
#    0.000    1.833    0.000    4.000    0.000    9.333 
#    0.000    0.833    0.000    5.000    0.000    0.000 
#    0.000    0.000    0.000    0.000    0.000    0.000 
#
# Total GULP energy -268328.278896 kJ/mol
# GULP energy per Si atom -5590.172477 kJ/mol
# Density = 2.044405 g / cm^3
# Si number density = 20.490687 Si / 1000 Ang^3
#
#
#
# Elastic Constant Matrix: (Units=GPa)
#
#
# Indices 1 2 3 4 5 6 
#
# 1 194.5329 -22.5735 116.3554 0.0000 0.0000 0.0000
# 2 -22.5735 5.4509 -8.0394 0.0000 0.0000 0.0000
# 3 116.3554 -8.0394 230.2998 0.0000 0.0000 0.0000
# 4 0.0000 0.0000 0.0000 21.6475 0.0000 0.0000
# 5 0.0000 0.0000 0.0000 0.0000 45.4044 0.0000
# 6 0.0000 0.0000 0.0000 0.0000 0.0000 12.6420
#
#
#
# Elastic Compliance Matrix: (Units=1/GPa)
#
#
# Indices 1 2 3 4 5 6 
#
# 1 0.014395 0.051541 -0.005474 0.000000 0.000000 0.000000
# 2 0.051541 0.377950 -0.012847 0.000000 0.000000 0.000000
# 3 -0.005474 -0.012847 0.006659 0.000000 0.000000 0.000000
# 4 0.000000 0.000000 0.000000 0.046195 0.000000 0.000000
# 5 0.000000 0.000000 0.000000 0.000000 0.022024 0.000000
# 6 0.000000 0.000000 0.000000 0.000000 0.000000 0.079101
#
#
# Mechanical properties :
#
#
# Convention : Reuss Voigt Hill
#
# Bulk Modulus (GPa) = 2.14848 66.86319 34.50583
# Shear Modulus (GPa) = 7.87362 38.90821 23.39091
#
# Velocity S-wave (km/s) = 1.96237 4.36228 3.38233
# Velocity P-wave (km/s) = 2.48703 7.62066 5.66832
#
# Compressibility (1/GPa) = 0.46544546
#
# Stress axis : x y z
#
# Youngs Moduli (GPa) = 69.46686 2.64585 150.16674
#
# Poissons Ratio (x) = -0.13637 0.82198
# Poissons Ratio (y) = -3.58040 1.92915
# Poissons Ratio (z) = 0.38025 0.03399
#
# Static dielectric constant tensor:
#      x y z
#    x 1.672170 0.000000 0.000000 
#    y 0.000000 1.750440 0.000000 
#    z 0.000000 0.000000 1.711460 
# 
# From -- ./inp_files/13045.got.cif
#   From: 2010.05.17/outbox.cif.g08.bks.cpg/sg59_7_cif.got.tgz:13045.got - 2010.06.03 14:40:33.
