data_PCOD9450438
_publ_section_title
;
Structure prediction by ZEFSAII (Michael W. Deem and Ramdas Pophale) SiO2 
 PCOD9450438
Probable space group: P M M N
;
_chemical_formula_sum "Si O2"
_cell_formula_units_Z 40
_cell_length_a 8.165317
_cell_length_b 10.141165
_cell_length_c 24.998350
_cell_angle_alpha 90.000000
_cell_angle_beta 90.000000
_cell_angle_gamma 90.000000
_cell_volume 2070.009045
_symmetry_space_group_name_H-M "P M M N"
_symmetry_group_IT_number 59
_space_group.IT_coordinate_system_code '2'
_symmetry_cell_setting 'orthorhombic'
loop_
_space_group_symop_operation_xyz
x,y,z
1/2-x,1/2-y,z
1/2+x,-y,-z
-x,1/2+y,-z
-x,-y,-z
1/2+x,1/2+y,-z
1/2-x,y,z
x,1/2-y,z
loop_
_atom_site_type_symbol
_atom_site_label
_atom_site_fract_x
_atom_site_fract_y
_atom_site_fract_z
Si Si1 0.446781 0.399019 0.236430
Si Si2 0.555104 0.250000 0.939776
Si Si3 0.448143 0.903861 0.451621
Si Si4 0.049101 0.750000 0.937906
Si Si5 0.050223 0.401467 0.358142
Si Si6 0.055212 0.498069 0.872050
O O1 0.250000 0.396012 0.237853
O O2 0.505298 0.250000 0.223228
O O3 0.501804 0.428480 0.296960
O O4 0.497931 0.494977 0.189111
O O5 0.750000 0.250000 0.943257
O O6 0.499068 0.374239 0.905945
O O7 0.491891 0.250000 0.000772
O O8 0.250000 0.898963 0.450919
O O9 0.504834 0.750000 0.455325
O O10 0.500000 0.000000 0.500000
O O11 0.503532 0.984322 0.398669
O O12 0.250000 0.750000 0.938571
O O13 0.992186 0.623993 0.904845
O O14 0.250000 0.400587 0.359092
O O15 0.999945 0.250000 0.372385
O O16 0.250000 0.503913 0.871187
#
# Coordination Sequence:
#
# PCOD9450438 Si02
#       6
#     8   4   8   4   8   8
#     4   9  17  32  55  81 106 139 185 228 266 322
#     4  11  23  39  55  79 109 143 186 229 268 323
#     4  10  20  34  54  81 112 147 186 226 271 321
#     4   9  20  37  59  81 107 141 182 223 272 333
#     4   8  15  30  52  76 105 141 182 227 270 313
#     4  11  21  37  57  81 112 145 177 222 282 334
#
# _framework density 19.323588000000001
#
# number of rings (size 3 to 8) (size 9 to 14) (size 15 to 20)
#    0.000    2.400    1.000    3.300    0.000    1.200 
#    1.800    4.000    0.000    1.200    0.000    0.000 
#    0.000    0.000    0.000    0.000    0.000    0.000 
#
# Total GULP energy -223074.811082 kJ/mol
# GULP energy per Si atom -5576.870277 kJ/mol
# Density = 1.927961 g / cm^3
# Si number density = 19.323588 Si / 1000 Ang^3
#
#
#
# Elastic Constant Matrix: (Units=GPa)
#
#
# Indices 1 2 3 4 5 6 
#
# 1 11.2668 9.5537 12.8128 0.0000 0.0000 0.0000
# 2 9.5537 162.0192 91.5224 0.0000 0.0000 0.0000
# 3 12.8128 91.5224 156.8590 0.0000 0.0000 0.0000
# 4 0.0000 0.0000 0.0000 27.3079 0.0000 0.0000
# 5 0.0000 0.0000 0.0000 0.0000 19.8074 0.0000
# 6 0.0000 0.0000 0.0000 0.0000 0.0000 23.0787
#
#
#
# Elastic Compliance Matrix: (Units=1/GPa)
#
#
# Indices 1 2 3 4 5 6 
#
# 1 0.098228 -0.001879 -0.006927 0.000000 0.000000 0.000000
# 2 -0.001879 0.009242 -0.005239 0.000000 0.000000 0.000000
# 3 -0.006927 -0.005239 0.009998 0.000000 0.000000 0.000000
# 4 0.000000 0.000000 0.000000 0.036619 0.000000 0.000000
# 5 0.000000 0.000000 0.000000 0.000000 0.050486 0.000000
# 6 0.000000 0.000000 0.000000 0.000000 0.000000 0.043330
#
#
# Mechanical properties :
#
#
# Convention : Reuss Voigt Hill
#
# Bulk Modulus (GPa) = 11.18855 61.99140 36.58998
# Shear Modulus (GPa) = 16.35127 28.45589 22.40358
#
# Velocity S-wave (km/s) = 2.91208 3.84161 3.40868
# Velocity P-wave (km/s) = 4.13637 7.19914 5.87100
#
# Compressibility (1/GPa) = 0.08937707
#
# Stress axis : x y z
#
# Youngs Moduli (GPa) = 10.18044 108.19624 100.02097
#
# Poissons Ratio (x) = 0.20331 0.69287
# Poissons Ratio (y) = 0.01913 0.52403
# Poissons Ratio (z) = 0.07052 0.56686
#
# Static dielectric constant tensor:
#      x y z
#    x 1.680860 0.000000 0.000000 
#    y 0.000000 1.623970 0.000000 
#    z 0.000000 0.000000 1.678540 
# 
# From -- ./inp_files/32425.got.cif
#   From: 2010.05.17/outbox.cif.g08.bks.cpg/sg59_17_cif.got.tgz:32425.got - 2010.06.03 14:40:33.
