data_PCOD9450914
_publ_section_title
;
Structure prediction by ZEFSAII (Michael W. Deem and Ramdas Pophale) SiO2 
 PCOD9450914
Probable space group: P M M N
;
_chemical_formula_sum "Si O2"
_cell_formula_units_Z 48
_cell_length_a 14.735605
_cell_length_b 14.800544
_cell_length_c 10.422767
_cell_angle_alpha 90.000000
_cell_angle_beta 90.000000
_cell_angle_gamma 90.000000
_cell_volume 2273.153058
_symmetry_space_group_name_H-M "P M M N"
_symmetry_group_IT_number 59
_space_group.IT_coordinate_system_code '2'
_symmetry_cell_setting 'orthorhombic'
loop_
_space_group_symop_operation_xyz
x,y,z
1/2-x,1/2-y,z
1/2+x,-y,-z
-x,1/2+y,-z
-x,-y,-z
1/2+x,1/2+y,-z
1/2-x,y,z
x,1/2-y,z
loop_
_atom_site_type_symbol
_atom_site_label
_atom_site_fract_x
_atom_site_fract_y
_atom_site_fract_z
Si Si1 0.849878 0.144179 0.524974
Si Si2 0.853487 0.600371 0.806861
Si Si3 0.144329 0.140554 0.716045
Si Si4 0.649570 0.116276 0.827984
Si Si5 0.027584 0.101239 0.960965
Si Si6 0.956392 0.640658 0.545479
O O1 0.750000 0.103095 0.499181
O O2 0.844951 0.250000 0.489383
O O3 0.864795 0.141257 0.678791
O O4 0.939945 0.105582 0.459328
O O5 0.750000 0.634994 0.807488
O O6 0.848804 0.492711 0.830349
O O7 0.901047 0.613305 0.670443
O O8 0.916132 0.640207 0.919641
O O9 0.250000 0.115830 0.714988
O O10 0.138412 0.250000 0.726667
O O11 0.092502 0.100250 0.837509
O O12 0.095721 0.113897 0.583956
O O13 0.750000 0.147645 0.866406
O O14 0.566066 0.146742 0.915238
O O15 0.000000 0.000000 0.000000
O O16 0.960500 0.750000 0.544185
#
# Coordination Sequence:
#
# PCOD9450914 Si02
#       6
#     8   8   8   8   8   8
#     4   9  17  32  55  79 103 135 178 228 275 321
#     4  10  21  35  52  77 114 149 178 221 279 334
#     4  10  20  35  57  83 112 147 192 238 278 333
#     4   9  18  34  55  78 105 141 186 228 270 323
#     4  10  20  36  54  79 110 151 187 231 278 332
#     4  10  20  35  56  83 112 145 185 231 281 333
#
# _framework density 21.116045
#
# number of rings (size 3 to 8) (size 9 to 14) (size 15 to 20)
#    0.000    2.333    1.667    1.000    0.000    3.000 
#    0.000    0.833    0.000    1.000    0.000    0.000 
#    0.000    0.000    0.000    0.000    0.000    0.000 
#
# Total GULP energy -268037.184213 kJ/mol
# GULP energy per Si atom -5584.108004 kJ/mol
# Density = 2.106798 g / cm^3
# Si number density = 21.116045 Si / 1000 Ang^3
#
#
#
# Elastic Constant Matrix: (Units=GPa)
#
#
# Indices 1 2 3 4 5 6 
#
# 1 239.2708 26.0811 108.3990 0.0000 0.0000 0.0000
# 2 26.0811 58.7399 10.8323 0.0000 0.0000 0.0000
# 3 108.3990 10.8323 151.4662 0.0000 0.0000 0.0000
# 4 0.0000 0.0000 0.0000 22.7428 0.0000 0.0000
# 5 0.0000 0.0000 0.0000 0.0000 0.3501 0.0000
# 6 0.0000 0.0000 0.0000 0.0000 0.0000 32.2490
#
#
#
# Elastic Compliance Matrix: (Units=1/GPa)
#
#
# Indices 1 2 3 4 5 6 
#
# 1 0.006414 -0.002028 -0.004446 0.000000 0.000000 0.000000
# 2 -0.002028 0.017893 0.000172 0.000000 0.000000 0.000000
# 3 -0.004446 0.000172 0.009771 0.000000 0.000000 0.000000
# 4 0.000000 0.000000 0.000000 0.043970 0.000000 0.000000
# 5 0.000000 0.000000 0.000000 0.000000 2.856499 0.000000
# 6 0.000000 0.000000 0.000000 0.000000 0.000000 0.031009
#
#
# Mechanical properties :
#
#
# Convention : Reuss Voigt Hill
#
# Bulk Modulus (GPa) = 46.56555 82.23351 64.39953
# Shear Modulus (GPa) = 1.67486 31.34603 16.51044
#
# Velocity S-wave (km/s) = 0.89157 3.85706 2.79926
# Velocity P-wave (km/s) = 4.81248 7.67229 6.40406
#
# Compressibility (1/GPa) = 0.02147510
#
# Stress axis : x y z
#
# Youngs Moduli (GPa) = 155.89779 55.88751 102.33991
#
# Poissons Ratio (x) = 0.11336 0.45496
# Poissons Ratio (y) = 0.31620 -0.01759
# Poissons Ratio (z) = 0.69305 -0.00961
#
# Static dielectric constant tensor:
#      x y z
#    x 1.798270 0.000000 0.000000 
#    y 0.000000 1.799990 0.000000 
#    z 0.000000 0.000000 1.705050 
# 
# From -- ./inp_files/8993.got.cif
#   From: 2010.05.17/outbox.cif.g08.bks.cpg/sg59_5_cif.got.tgz:8993.got - 2010.06.03 14:40:33.
