data_PCOD9450385
_publ_section_title
;
Structure prediction by ZEFSAII (Michael W. Deem and Ramdas Pophale) SiO2 
 PCOD9450385
Probable space group: P M M N
;
_chemical_formula_sum "Si O2"
_cell_formula_units_Z 48
_cell_length_a 17.266662
_cell_length_b 9.456463
_cell_length_c 15.712176
_cell_angle_alpha 90.000000
_cell_angle_beta 90.000000
_cell_angle_gamma 90.000000
_cell_volume 2565.508456
_symmetry_space_group_name_H-M "P M M N"
_symmetry_group_IT_number 59
_space_group.IT_coordinate_system_code '2'
_symmetry_cell_setting 'orthorhombic'
loop_
_space_group_symop_operation_xyz
x,y,z
1/2-x,1/2-y,z
1/2+x,-y,-z
-x,1/2+y,-z
-x,-y,-z
1/2+x,1/2+y,-z
1/2-x,y,z
x,1/2-y,z
loop_
_atom_site_type_symbol
_atom_site_label
_atom_site_fract_x
_atom_site_fract_y
_atom_site_fract_z
Si Si1 0.840349 0.416955 0.507663
Si Si2 0.595414 0.085586 0.688304
Si Si3 0.158792 0.419821 0.153839
Si Si4 0.655587 0.586886 0.036633
Si Si5 0.156375 0.587230 0.799126
Si Si6 0.585061 0.584675 0.356771
O O1 0.750000 0.433045 0.485669
O O2 0.860530 0.250000 0.499137
O O3 0.854359 0.456289 0.605909
O O4 0.890904 0.510075 0.444304
O O5 0.612491 0.250000 0.707607
O O6 0.506449 0.074761 0.659754
O O7 0.613155 0.993490 0.770653
O O8 0.250000 0.456813 0.161786
O O9 0.153055 0.250000 0.159508
O O10 0.131896 0.458926 0.058303
O O11 0.750000 0.587201 0.035727
O O12 0.631718 0.750000 0.051468
O O13 0.630242 0.486318 0.113045
O O14 0.250000 0.586366 0.798494
O O15 0.130590 0.750000 0.793541
O O16 0.126944 0.497197 0.719738
O O17 0.606854 0.750000 0.357637
#
# Coordination Sequence:
#
# PCOD9450385 Si02
#       6
#     8   8   8   8   8   8
#     4  10  21  38  59  81 105 135 173 218 267 316
#     4  10  22  38  55  78 109 144 178 214 261 315
#     4   9  18  33  55  83 111 140 177 220 265 313
#     4   8  15  30  52  78 108 139 173 218 267 310
#     4  10  20  34  54  80 107 138 179 223 267 316
#     4  11  23  37  54  78 108 142 179 217 261 315
#
# _framework density 18.70974
#
# number of rings (size 3 to 8) (size 9 to 14) (size 15 to 20)
#    0.000    2.333    0.000    3.500    0.000    7.000 
#    0.000    2.500    0.000    0.000    0.000    0.000 
#    0.000    0.000    0.000    0.000    0.000    0.000 
#
# Total GULP energy -267970.910398 kJ/mol
# GULP energy per Si atom -5582.727300 kJ/mol
# Density = 1.866716 g / cm^3
# Si number density = 18.709740 Si / 1000 Ang^3
#
#
#
# Elastic Constant Matrix: (Units=GPa)
#
#
# Indices 1 2 3 4 5 6 
#
# 1 11.1438 14.5508 3.5757 0.0000 0.0000 0.0000
# 2 14.5508 67.2022 38.2509 0.0000 0.0000 0.0000
# 3 3.5757 38.2509 78.1978 0.0000 0.0000 0.0000
# 4 0.0000 0.0000 0.0000 34.4654 0.0000 0.0000
# 5 0.0000 0.0000 0.0000 0.0000 -24.0086 0.0000
# 6 0.0000 0.0000 0.0000 0.0000 0.0000 20.4307
#
#
#
# Elastic Compliance Matrix: (Units=1/GPa)
#
#
# Indices 1 2 3 4 5 6 
#
# 1 0.131569 -0.034734 0.010974 0.000000 0.000000 0.000000
# 2 -0.034734 0.029792 -0.012985 0.000000 0.000000 0.000000
# 3 0.010974 -0.012985 0.018638 0.000000 0.000000 0.000000
# 4 0.000000 0.000000 0.000000 0.029015 0.000000 0.000000
# 5 0.000000 0.000000 0.000000 0.000000 -0.041652 0.000000
# 6 0.000000 0.000000 0.000000 0.000000 0.000000 0.048946
#
#
# Mechanical properties :
#
#
# Convention : Reuss Voigt Hill
#
# Bulk Modulus (GPa) = 9.38882 29.92205 19.65544
# Shear Modulus (GPa) = 15.37043 12.85525 14.11284
#
# Velocity S-wave (km/s) = 2.86933 2.62408 2.74944
# Velocity P-wave (km/s) = 4.00080 5.02081 4.53955
#
# Compressibility (1/GPa) = 0.10650966
#
# Stress axis : x y z
#
# Youngs Moduli (GPa) = 7.60058 33.56609 53.65442
#
# Poissons Ratio (x) = 1.16589 -0.58882
# Poissons Ratio (y) = 0.26400 0.69668
# Poissons Ratio (z) = -0.08341 0.43584
#
# Static dielectric constant tensor:
#      x y z
#    x 1.650830 0.000000 0.000000 
#    y 0.000000 1.623280 0.000000 
#    z 0.000000 0.000000 1.630220 
# 
# From -- ./inp_files/20300.got.cif
#   From: 2010.05.17/outbox.cif.g08.bks.cpg/sg59_11_cif.got.tgz:20300.got - 2010.06.03 14:40:33.
