data_PCOD9450127
_publ_section_title
;
Structure prediction by ZEFSAII (Michael W. Deem and Ramdas Pophale) SiO2 
 PCOD9450127
Probable space group: P M M N
;
_chemical_formula_sum "Si O2"
_cell_formula_units_Z 56
_cell_length_a 15.023846
_cell_length_b 7.616708
_cell_length_c 23.123323
_cell_angle_alpha 90.000000
_cell_angle_beta 90.000000
_cell_angle_gamma 90.000000
_cell_volume 2646.053833
_symmetry_space_group_name_H-M "P M M N"
_symmetry_group_IT_number 59
_space_group.IT_coordinate_system_code '2'
_symmetry_cell_setting 'orthorhombic'
loop_
_space_group_symop_operation_xyz
x,y,z
1/2-x,1/2-y,z
1/2+x,-y,-z
-x,1/2+y,-z
-x,-y,-z
1/2+x,1/2+y,-z
1/2-x,y,z
x,1/2-y,z
loop_
_atom_site_type_symbol
_atom_site_label
_atom_site_fract_x
_atom_site_fract_y
_atom_site_fract_z
Si Si1 0.651767 0.544312 0.893173
Si Si2 0.650016 0.043607 0.244285
Si Si3 0.148519 0.961605 0.973783
Si Si4 0.400894 0.957847 0.521678
Si Si5 0.960811 0.953665 0.355929
Si Si6 0.346160 0.535070 0.398446
Si Si7 0.036629 0.966243 0.863870
O O1 0.750000 0.466096 0.883019
O O2 0.657131 0.750000 0.878554
O O3 0.565314 0.471890 0.861245
O O4 0.632872 0.531673 0.961907
O O5 0.750000 0.970579 0.251182
O O6 0.659551 0.250000 0.232174
O O7 0.595989 0.971395 0.189550
O O8 0.591417 0.029960 0.301924
O O9 0.250000 0.008177 0.957173
O O10 0.143813 0.750000 0.977324
O O11 0.081130 0.020695 0.924421
O O12 0.386613 0.750000 0.526972
O O13 0.346259 0.020409 0.466077
O O14 0.500000 0.000000 0.500000
O O15 0.400129 0.030851 0.586314
O O16 0.973651 0.750000 0.343346
O O17 0.060582 0.026252 0.369884
O O18 0.250000 0.484451 0.372630
O O19 0.350183 0.750000 0.398619
O O20 0.035495 0.750000 0.863932
#
# Coordination Sequence:
#
# PCOD9450127 Si02
#       7
#     8   8   8   8   8   8   8
#     4   9  17  29  46  70  99 127 153 187 238 296
#     4  10  21  37  55  71  90 124 169 211 251 300
#     4   9  16  27  46  71  96 122 155 195 235 279
#     4   9  16  28  49  75 103 135 169 205 244 287
#     4  10  20  34  52  74 102 134 166 207 255 298
#     4   8  15  29  50  75 101 130 163 195 232 285
#     4   9  17  31  50  69  91 123 163 201 237 285
#
# _framework density 21.163591
#
# number of rings (size 3 to 8) (size 9 to 14) (size 15 to 20)
#    0.000    2.857    0.000    2.571    0.000    2.571 
#    0.000    3.571    0.000   17.571    0.000    0.000 
#    0.000    0.000    0.000    0.000    0.000    0.000 
#
# Total GULP energy -312098.680188 kJ/mol
# GULP energy per Si atom -5573.190718 kJ/mol
# Density = 2.111542 g / cm^3
# Si number density = 21.163591 Si / 1000 Ang^3
#
#
#
# Elastic Constant Matrix: (Units=GPa)
#
#
# Indices 1 2 3 4 5 6 
#
# 1 184.9413 9.2825 69.1815 0.0000 0.0000 0.0000
# 2 9.2825 39.1652 -0.7837 0.0000 0.0000 0.0000
# 3 69.1815 -0.7837 43.2900 0.0000 0.0000 0.0000
# 4 0.0000 0.0000 0.0000 16.4007 0.0000 0.0000
# 5 0.0000 0.0000 0.0000 0.0000 24.0636 0.0000
# 6 0.0000 0.0000 0.0000 0.0000 0.0000 7.7486
#
#
#
# Elastic Compliance Matrix: (Units=1/GPa)
#
#
# Indices 1 2 3 4 5 6 
#
# 1 0.013977 -0.003761 -0.022404 0.000000 0.000000 0.000000
# 2 -0.003761 0.026554 0.006491 0.000000 0.000000 0.000000
# 3 -0.022404 0.006491 0.059021 0.000000 0.000000 0.000000
# 4 0.000000 0.000000 0.000000 0.060973 0.000000 0.000000
# 5 0.000000 0.000000 0.000000 0.000000 0.041557 0.000000
# 6 0.000000 0.000000 0.000000 0.000000 0.000000 0.129056
#
#
# Mechanical properties :
#
#
# Convention : Reuss Voigt Hill
#
# Bulk Modulus (GPa) = 16.61017 46.97301 31.79159
# Shear Modulus (GPa) = 12.80233 22.29031 17.54632
#
# Velocity S-wave (km/s) = 2.46219 3.24888 2.88250
# Velocity P-wave (km/s) = 3.99358 6.02636 5.11203
#
# Compressibility (1/GPa) = 0.06020409
#
# Stress axis : x y z
#
# Youngs Moduli (GPa) = 71.54790 37.65899 16.94299
#
# Poissons Ratio (x) = 0.14163 0.37959
# Poissons Ratio (y) = 0.26908 -0.10998
# Poissons Ratio (z) = 1.60297 -0.24444
#
# Static dielectric constant tensor:
#      x y z
#    x 1.820400 0.000000 0.000000 
#    y 0.000000 1.794890 0.000000 
#    z 0.000000 0.000000 1.726720 
# 
# From -- ./inp_files/30290.got.cif
#   From: 2010.05.17/outbox.cif.g08.bks.cpg/sg59_16_cif.got.tgz:30290.got - 2010.06.03 14:40:33.
