data_PCOD9450007
_publ_section_title
;
Structure prediction by ZEFSAII (Michael W. Deem and Ramdas Pophale) SiO2 
 PCOD9450007
Probable space group: P M M N
;
_chemical_formula_sum "Si O2"
_cell_formula_units_Z 56
_cell_length_a 8.082759
_cell_length_b 15.838775
_cell_length_c 21.896951
_cell_angle_alpha 90.000000
_cell_angle_beta 90.000000
_cell_angle_gamma 90.000000
_cell_volume 2803.269590
_symmetry_space_group_name_H-M "P M M N"
_symmetry_group_IT_number 59
_space_group.IT_coordinate_system_code '2'
_symmetry_cell_setting 'orthorhombic'
loop_
_space_group_symop_operation_xyz
x,y,z
1/2-x,1/2-y,z
1/2+x,-y,-z
-x,1/2+y,-z
-x,-y,-z
1/2+x,1/2+y,-z
1/2-x,y,z
x,1/2-y,z
loop_
_atom_site_type_symbol
_atom_site_label
_atom_site_fract_x
_atom_site_fract_y
_atom_site_fract_z
Si Si1 0.949146 0.008135 0.847306
Si Si2 0.048095 0.846098 0.061636
Si Si3 0.050178 0.845731 0.921642
Si Si4 0.444028 0.403860 0.489083
Si Si5 0.052945 0.990087 0.290635
Si Si6 0.449951 0.843716 0.380424
Si Si7 0.055625 0.843873 0.641059
O O1 0.750000 0.015717 0.845134
O O2 0.013499 0.014802 0.778167
O O3 0.989317 0.918003 0.876846
O O4 0.011085 0.083028 0.891444
O O5 0.250000 0.847243 0.061984
O O6 0.998360 0.750000 0.077199
O O7 0.996935 0.863627 0.991662
O O8 0.250000 0.846342 0.921063
O O9 0.996802 0.750000 0.906093
O O10 0.500000 0.500000 0.500000
O O11 0.250000 0.402931 0.475593
O O12 0.480937 0.355755 0.551719
O O13 0.533053 0.364813 0.430490
O O14 0.250000 0.976453 0.287151
O O15 0.023820 0.081201 0.320295
O O16 0.987568 0.917721 0.336132
O O17 0.250000 0.850466 0.384984
O O18 0.489898 0.750000 0.357310
O O19 0.250000 0.844012 0.654935
O O20 0.988415 0.750000 0.653409
#
# Coordination Sequence:
#
# PCOD9450007 Si02
#       7
#     8   8   8   8   8   8   8
#     4  10  20  33  53  81 109 141 184 228 274 321
#     4   8  15  30  53  80 109 140 178 224 272 328
#     4   9  18  33  53  77 106 143 183 223 274 331
#     4  12  23  37  61  89 116 145 180 226 280 330
#     4  10  22  38  55  79 112 149 184 225 275 328
#     4  10  21  38  59  83 112 146 184 226 274 331
#     4  11  24  41  61  84 110 145 188 231 277 329
#
# _framework density 19.976673000000002
#
# number of rings (size 3 to 8) (size 9 to 14) (size 15 to 20)
#    0.000    2.000    1.429    3.429    0.000    5.143 
#    0.000    5.714    0.000    1.286    0.000    2.000 
#    0.000    0.000    0.000    0.000    0.000    0.000 
#
# Total GULP energy -312770.899767 kJ/mol
# GULP energy per Si atom -5585.194639 kJ/mol
# Density = 1.993120 g / cm^3
# Si number density = 19.976673 Si / 1000 Ang^3
#
#
#
# Elastic Constant Matrix: (Units=GPa)
#
#
# Indices 1 2 3 4 5 6 
#
# 1 13.6426 -7.2301 -7.2375 0.0000 0.0000 0.0000
# 2 -7.2301 74.3123 14.5708 0.0000 0.0000 0.0000
# 3 -7.2375 14.5708 73.8169 0.0000 0.0000 0.0000
# 4 0.0000 0.0000 0.0000 -3.5053 0.0000 0.0000
# 5 0.0000 0.0000 0.0000 0.0000 8.5591 0.0000
# 6 0.0000 0.0000 0.0000 0.0000 0.0000 23.9701
#
#
#
# Elastic Compliance Matrix: (Units=1/GPa)
#
#
# Indices 1 2 3 4 5 6 
#
# 1 0.080245 0.006517 0.006581 0.000000 0.000000 0.000000
# 2 0.006517 0.014528 -0.002229 0.000000 0.000000 0.000000
# 3 0.006581 -0.002229 0.014632 0.000000 0.000000 0.000000
# 4 0.000000 0.000000 0.000000 -0.285279 0.000000 0.000000
# 5 0.000000 0.000000 0.000000 0.000000 0.116834 0.000000
# 6 0.000000 0.000000 0.000000 0.000000 0.000000 0.041719
#
#
# Mechanical properties :
#
#
# Convention : Reuss Voigt Hill
#
# Bulk Modulus (GPa) = 7.62521 17.99757 12.81139
# Shear Modulus (GPa) = 1074.23060 16.58268 545.40664
#
# Velocity S-wave (km/s) = 23.21443 2.88427 16.54130
# Velocity P-wave (km/s) = 26.87698 4.48563 19.26776
#
# Compressibility (1/GPa) = 0.13114387
#
# Stress axis : x y z
#
# Youngs Moduli (GPa) = 12.46186 68.83371 68.34222
#
# Poissons Ratio (x) = -0.44858 -0.44978
# Poissons Ratio (y) = -0.08121 0.15231
# Poissons Ratio (z) = -0.08202 0.15341
#
# Static dielectric constant tensor:
#      x y z
#    x 1.726520 0.000000 0.000000 
#    y 0.000000 1.699620 0.000000 
#    z 0.000000 0.000000 1.678740 
# 
# From -- ./inp_files/29000.got.cif
#   From: 2010.05.17/outbox.cif.g08.bks.cpg/sg59_15_cif.got.tgz:29000.got - 2010.06.03 14:40:33.
