data_PCOD9450736
_publ_section_title
;
Structure prediction by ZEFSAII (Michael W. Deem and Ramdas Pophale) SiO2 
 PCOD9450736
Probable space group: P M M N
;
_chemical_formula_sum "Si O2"
_cell_formula_units_Z 56
_cell_length_a 18.791985
_cell_length_b 9.110651
_cell_length_c 19.461438
_cell_angle_alpha 90.000000
_cell_angle_beta 90.000000
_cell_angle_gamma 90.000000
_cell_volume 3331.938637
_symmetry_space_group_name_H-M "P M M N"
_symmetry_group_IT_number 59
_space_group.IT_coordinate_system_code '2'
_symmetry_cell_setting 'orthorhombic'
loop_
_space_group_symop_operation_xyz
x,y,z
1/2-x,1/2-y,z
1/2+x,-y,-z
-x,1/2+y,-z
-x,-y,-z
1/2+x,1/2+y,-z
1/2-x,y,z
x,1/2-y,z
loop_
_atom_site_type_symbol
_atom_site_label
_atom_site_fract_x
_atom_site_fract_y
_atom_site_fract_z
Si Si1 0.831947 0.926306 0.867062
Si Si2 0.336631 0.581380 0.559857
Si Si3 0.334734 0.074902 0.420518
Si Si4 0.331770 0.073434 0.700736
Si Si5 0.096758 0.426121 0.277151
Si Si6 0.537049 0.574167 0.211385
Si Si7 0.032454 0.926241 0.067360
O O1 0.750000 0.964990 0.881250
O O2 0.839949 0.750000 0.876195
O O3 0.851243 0.959173 0.787277
O O4 0.890006 0.009430 0.913139
O O5 0.250000 0.577695 0.558534
O O6 0.359442 0.750000 0.562901
O O7 0.360384 0.505391 0.489333
O O8 0.357107 0.496168 0.628947
O O9 0.250000 0.049385 0.413163
O O10 0.344545 0.250000 0.428579
O O11 0.372423 0.026279 0.350401
O O12 0.250000 0.028005 0.713224
O O13 0.332380 0.250000 0.693761
O O14 0.385195 0.031901 0.761648
O O15 0.089077 0.250000 0.279098
O O16 0.022162 0.499408 0.258867
O O17 0.530440 0.750000 0.217557
O O18 0.517513 0.536891 0.133062
O O19 0.035675 0.750000 0.060370
O O20 0.000000 0.000000 0.000000
#
# Coordination Sequence:
#
# PCOD9450736 Si02
#       7
#     8   8   8   8   8   8   8
#     4   9  17  31  52  77 103 132 167 204 242 287
#     4   9  17  28  43  66  94 122 155 197 243 286
#     4   9  16  27  44  66  93 126 163 199 234 277
#     4   9  17  32  53  71  88 116 156 200 243 286
#     4   9  17  29  47  71  98 128 161 197 238 284
#     4   9  19  34  51  72  96 122 155 195 239 289
#     4  10  20  35  54  76 104 135 165 198 241 293
#
# _framework density 16.807030999999998
#
# number of rings (size 3 to 8) (size 9 to 14) (size 15 to 20)
#    0.000    2.857    0.000    1.286    0.000    5.429 
#    0.000    1.429    0.000    5.143    0.000    0.000 
#    0.000    0.000    0.000    0.000    0.000    0.000 
#
# Total GULP energy -312076.202625 kJ/mol
# GULP energy per Si atom -5572.789333 kJ/mol
# Density = 1.676878 g / cm^3
# Si number density = 16.807031 Si / 1000 Ang^3
#
#
#
# Elastic Constant Matrix: (Units=GPa)
#
#
# Indices 1 2 3 4 5 6 
#
# 1 101.1256 43.1765 85.5575 0.0000 0.0000 0.0000
# 2 43.1765 31.5293 49.0136 0.0000 0.0000 0.0000
# 3 85.5575 49.0136 127.5531 0.0000 0.0000 0.0000
# 4 0.0000 0.0000 0.0000 21.0438 0.0000 0.0000
# 5 0.0000 0.0000 0.0000 0.0000 24.5694 0.0000
# 6 0.0000 0.0000 0.0000 0.0000 0.0000 23.0486
#
#
#
# Elastic Compliance Matrix: (Units=1/GPa)
#
#
# Indices 1 2 3 4 5 6 
#
# 1 0.028264 -0.022932 -0.010147 0.000000 0.000000 0.000000
# 2 -0.022932 0.097375 -0.022035 0.000000 0.000000 0.000000
# 3 -0.010147 -0.022035 0.023113 0.000000 0.000000 0.000000
# 4 0.000000 0.000000 0.000000 0.047520 0.000000 0.000000
# 5 0.000000 0.000000 0.000000 0.000000 0.040701 0.000000
# 6 0.000000 0.000000 0.000000 0.000000 0.000000 0.043387
#
#
# Mechanical properties :
#
#
# Convention : Reuss Voigt Hill
#
# Bulk Modulus (GPa) = 25.95777 68.41148 47.18462
# Shear Modulus (GPa) = 12.39373 19.22972 15.81172
#
# Velocity S-wave (km/s) = 2.71848 3.38619 3.07054
# Velocity P-wave (km/s) = 5.03305 7.48872 6.38015
#
# Compressibility (1/GPa) = 0.03852411
#
# Stress axis : x y z
#
# Youngs Moduli (GPa) = 35.38013 10.26960 43.26523
#
# Poissons Ratio (x) = 0.23550 0.43900
# Poissons Ratio (y) = 0.81134 0.95337
# Poissons Ratio (z) = 0.35899 0.22629
#
# Static dielectric constant tensor:
#      x y z
#    x 1.560980 0.000000 0.000000 
#    y 0.000000 1.561110 0.000000 
#    z 0.000000 0.000000 1.552530 
# 
# From -- ./inp_files/30617.got.cif
#   From: 2010.05.17/outbox.cif.g08.bks.cpg/sg59_16_cif.got.tgz:30617.got - 2010.06.03 14:40:33.
