data_PCOD9450937
_publ_section_title
;
Structure prediction by ZEFSAII (Michael W. Deem and Ramdas Pophale) SiO2 
 PCOD9450937
Probable space group: P M M N
;
_chemical_formula_sum "Si O2"
_cell_formula_units_Z 48
_cell_length_a 32.136461
_cell_length_b 8.694564
_cell_length_c 9.239522
_cell_angle_alpha 90.000000
_cell_angle_beta 90.000000
_cell_angle_gamma 90.000000
_cell_volume 2581.638097
_symmetry_space_group_name_H-M "P M M N"
_symmetry_group_IT_number 59
_space_group.IT_coordinate_system_code '2'
_symmetry_cell_setting 'orthorhombic'
loop_
_space_group_symop_operation_xyz
x,y,z
1/2-x,1/2-y,z
1/2+x,-y,-z
-x,1/2+y,-z
-x,-y,-z
1/2+x,1/2+y,-z
1/2-x,y,z
x,1/2-y,z
loop_
_atom_site_type_symbol
_atom_site_label
_atom_site_fract_x
_atom_site_fract_y
_atom_site_fract_z
Si Si1 0.589270 0.934499 0.332205
Si Si2 0.750000 0.436634 0.662057
Si Si3 0.089221 0.065329 0.326528
Si Si4 0.997557 0.065139 0.336853
Si Si5 0.169928 0.935083 0.825959
Si Si6 0.250000 0.433611 0.661220
Si Si7 0.168135 0.935132 0.160879
O O1 0.590213 0.750000 0.323558
O O2 0.592674 0.977758 0.503085
O O3 0.544776 0.995050 0.274746
O O4 0.627584 0.006457 0.246952
O O5 0.750000 0.250000 0.652157
O O6 0.750000 0.505841 0.502683
O O7 0.791293 0.484752 0.749050
O O8 0.092321 0.250000 0.320255
O O9 0.042711 0.023063 0.272222
O O10 0.126285 0.993861 0.235673
O O11 0.994538 0.250000 0.340770
O O12 0.000000 0.000000 0.500000
O O13 0.171787 0.750000 0.818743
O O14 0.209187 0.003610 0.741712
O O15 0.171156 0.983480 0.993932
O O16 0.250000 0.250000 0.662427
O O17 0.167645 0.750000 0.162724
#
# Coordination Sequence:
#
# PCOD9450937 Si02
#       7
#     8   4   8   8   8   4   8
#     4  10  20  35  56  85 114 145 188 235 278 330
#     4  10  21  40  62  84 110 144 183 228 276 326
#     4   9  19  34  54  81 113 144 183 231 278 327
#     4   9  17  31  52  80 112 148 187 233 282 329
#     4  11  23  40  59  82 113 149 185 226 275 331
#     4  12  25  40  60  88 114 142 183 228 272 328
#     4  10  22  38  58  82 110 145 187 227 273 332
#
# _framework density 18.592845000000001
#
# number of rings (size 3 to 8) (size 9 to 14) (size 15 to 20)
#    0.000    2.000    0.000    4.750    0.000   10.000 
#    0.000    1.667    0.000    0.000    0.000    0.000 
#    0.000    0.000    0.000    0.000    0.000    0.000 
#
# Total GULP energy -267997.459206 kJ/mol
# GULP energy per Si atom -5583.280400 kJ/mol
# Density = 1.855053 g / cm^3
# Si number density = 18.592845 Si / 1000 Ang^3
#
#
#
# Elastic Constant Matrix: (Units=GPa)
#
#
# Indices 1 2 3 4 5 6 
#
# 1 224.6556 55.2964 105.2160 0.0000 0.0000 0.0000
# 2 55.2964 53.6209 44.2580 0.0000 0.0000 0.0000
# 3 105.2160 44.2580 129.2500 0.0000 0.0000 0.0000
# 4 0.0000 0.0000 0.0000 17.6184 0.0000 0.0000
# 5 0.0000 0.0000 0.0000 0.0000 -24.3394 0.0000
# 6 0.0000 0.0000 0.0000 0.0000 0.0000 39.3672
#
#
#
# Elastic Compliance Matrix: (Units=1/GPa)
#
#
# Indices 1 2 3 4 5 6 
#
# 1 0.007731 -0.003872 -0.004967 0.000000 0.000000 0.000000
# 2 -0.003872 0.027937 -0.006414 0.000000 0.000000 0.000000
# 3 -0.004967 -0.006414 0.013977 0.000000 0.000000 0.000000
# 4 0.000000 0.000000 0.000000 0.056759 0.000000 0.000000
# 5 0.000000 0.000000 0.000000 0.000000 -0.041086 0.000000
# 6 0.000000 0.000000 0.000000 0.000000 0.000000 0.025402
#
#
# Mechanical properties :
#
#
# Convention : Reuss Voigt Hill
#
# Bulk Modulus (GPa) = 52.25386 90.78526 71.51956
# Shear Modulus (GPa) = 39.18325 20.04630 29.61477
#
# Velocity S-wave (km/s) = 4.59566 3.28712 3.99533
# Velocity P-wave (km/s) = 7.50503 7.95870 7.73519
#
# Compressibility (1/GPa) = 0.01913734
#
# Stress axis : x y z
#
# Youngs Moduli (GPa) = 129.35268 35.79516 71.54744
#
# Poissons Ratio (x) = 0.13862 0.35539
# Poissons Ratio (y) = 0.50091 0.45889
# Poissons Ratio (z) = 0.64253 0.22958
#
# Static dielectric constant tensor:
#      x y z
#    x 1.636870 0.000000 0.000000 
#    y 0.000000 1.628240 0.000000 
#    z 0.000000 0.000000 1.521960 
# 
# From -- ./inp_files/13047.got.cif
#   From: 2010.05.17/outbox.cif.g08.bks.cpg/sg59_7_cif.got.tgz:13047.got - 2010.06.03 14:40:33.
