data_PCOD9450888
_publ_section_title
;
Structure prediction by ZEFSAII (Michael W. Deem and Ramdas Pophale) SiO2 
 PCOD9450888
Probable space group: P M M N
;
_chemical_formula_sum "Si O2"
_cell_formula_units_Z 56
_cell_length_a 20.587933
_cell_length_b 7.438491
_cell_length_c 14.737757
_cell_angle_alpha 90.000000
_cell_angle_beta 90.000000
_cell_angle_gamma 90.000000
_cell_volume 2256.986595
_symmetry_space_group_name_H-M "P M M N"
_symmetry_group_IT_number 59
_space_group.IT_coordinate_system_code '2'
_symmetry_cell_setting 'orthorhombic'
loop_
_space_group_symop_operation_xyz
x,y,z
1/2-x,1/2-y,z
1/2+x,-y,-z
-x,1/2+y,-z
-x,-y,-z
1/2+x,1/2+y,-z
1/2-x,y,z
x,1/2-y,z
loop_
_atom_site_type_symbol
_atom_site_label
_atom_site_fract_x
_atom_site_fract_y
_atom_site_fract_z
Si Si1 0.457760 0.541135 0.845342
Si Si2 0.927597 0.536067 0.523220
Si Si3 0.250000 0.536098 0.451594
Si Si4 0.865616 0.960151 0.687218
Si Si5 0.750000 0.958601 0.334594
Si Si6 0.675377 0.040812 0.068806
Si Si7 0.889094 0.531480 0.329239
Si Si8 0.105405 0.468660 0.117127
O O1 0.457949 0.750000 0.873020
O O2 0.446125 0.531310 0.736942
O O3 0.528706 0.472650 0.878031
O O4 0.389445 0.459843 0.882025
O O5 0.914672 0.750000 0.527700
O O6 0.919894 0.457034 0.623388
O O7 0.891420 0.467305 0.433687
O O8 0.000000 0.500000 0.500000
O O9 0.250000 0.750000 0.458696
O O10 0.191279 0.476723 0.386801
O O11 0.250000 0.464268 0.554403
O O12 0.878115 0.750000 0.703138
O O13 0.862221 0.031688 0.788040
O O14 0.750000 0.750000 0.309302
O O15 0.682312 0.032553 0.297737
O O16 0.750000 0.968458 0.078505
O O17 0.679088 0.250000 0.095587
O O18 0.650180 0.032580 0.964888
O O19 0.890786 0.750000 0.330360
O O20 0.104698 0.250000 0.110551
#
# Coordination Sequence:
#
# PCOD9450888 Si02
#       8
#     8   8   4   8   4   8   8   8
#     4  10  22  41  64  90 123 159 197 246 304 363
#     4  10  20  35  56  81 115 157 196 240 293 349
#     4  12  24  36  56  87 116 153 206 255 298 350
#     4  10  21  39  59  80 117 161 197 241 302 357
#     4  10  20  40  60  79 118 163 202 245 300 360
#     4  10  23  42  63  90 126 160 189 240 311 365
#     4  10  21  36  59  87 116 157 202 244 294 351
#     4  10  22  40  65  92 116 157 208 248 294 355
#
# _framework density 24.811843
#
# number of rings (size 3 to 8) (size 9 to 14) (size 15 to 20)
#    0.000    1.857    1.429    1.929    2.000    4.857 
#    0.000    0.000    0.000    0.000    0.000    0.000 
#    0.000    0.000    0.000    0.000    0.000    0.000 
#
# Total GULP energy -312209.029941 kJ/mol
# GULP energy per Si atom -5575.161249 kJ/mol
# Density = 2.475537 g / cm^3
# Si number density = 24.811843 Si / 1000 Ang^3
#
#
#
# Elastic Constant Matrix: (Units=GPa)
#
#
# Indices 1 2 3 4 5 6 
#
# 1 92.1307 -3.0196 -12.1055 0.0000 0.0000 0.0000
# 2 -3.0196 93.5944 -4.7901 0.0000 0.0000 0.0000
# 3 -12.1055 -4.7901 86.1156 0.0000 0.0000 0.0000
# 4 0.0000 0.0000 0.0000 151.6430 0.0000 0.0000
# 5 0.0000 0.0000 0.0000 0.0000 46.5530 0.0000
# 6 0.0000 0.0000 0.0000 0.0000 0.0000 11.1586
#
#
#
# Elastic Compliance Matrix: (Units=1/GPa)
#
#
# Indices 1 2 3 4 5 6 
#
# 1 0.011076 0.000438 0.001581 0.000000 0.000000 0.000000
# 2 0.000438 0.010732 0.000659 0.000000 0.000000 0.000000
# 3 0.001581 0.000659 0.011871 0.000000 0.000000 0.000000
# 4 0.000000 0.000000 0.000000 0.006594 0.000000 0.000000
# 5 0.000000 0.000000 0.000000 0.000000 0.021481 0.000000
# 6 0.000000 0.000000 0.000000 0.000000 0.000000 0.089617
#
#
# Mechanical properties :
#
#
# Convention : Reuss Voigt Hill
#
# Bulk Modulus (GPa) = 25.61716 25.77892 25.69804
# Shear Modulus (GPa) = 31.44103 61.32130 46.38116
#
# Velocity S-wave (km/s) = 3.56361 4.97676 4.32825
# Velocity P-wave (km/s) = 5.22297 6.59064 5.94626
#
# Compressibility (1/GPa) = 0.03903633
#
# Stress axis : x y z
#
# Youngs Moduli (GPa) = 90.28288 93.17714 84.23724
#
# Poissons Ratio (x) = -0.04084 -0.13321
# Poissons Ratio (y) = -0.03957 -0.05548
# Poissons Ratio (z) = -0.14277 -0.06136
#
# Static dielectric constant tensor:
#      x y z
#    x 2.117780 0.000000 0.000000 
#    y 0.000000 1.952170 0.000000 
#    z 0.000000 0.000000 2.066800 
# 
# From -- ./inp_files/21118.got.cif
#   From: 2010.05.17/outbox.cif.g08.bks.cpg/sg59_11_cif.got.tgz:21118.got - 2010.06.03 14:40:33.
