data_PCOD9450962
_publ_section_title
;
Structure prediction by ZEFSAII (Michael W. Deem and Ramdas Pophale) SiO2 
 PCOD9450962
Probable space group: P M M N
;
_chemical_formula_sum "Si O2"
_cell_formula_units_Z 64
_cell_length_a 32.346429
_cell_length_b 7.909800
_cell_length_c 11.959777
_cell_angle_alpha 90.000000
_cell_angle_beta 90.000000
_cell_angle_gamma 90.000000
_cell_volume 3059.954202
_symmetry_space_group_name_H-M "P M M N"
_symmetry_group_IT_number 59
_space_group.IT_coordinate_system_code '2'
_symmetry_cell_setting 'orthorhombic'
loop_
_space_group_symop_operation_xyz
x,y,z
1/2-x,1/2-y,z
1/2+x,-y,-z
-x,1/2+y,-z
-x,-y,-z
1/2+x,1/2+y,-z
1/2-x,y,z
x,1/2-y,z
loop_
_atom_site_type_symbol
_atom_site_label
_atom_site_fract_x
_atom_site_fract_y
_atom_site_fract_z
Si Si1 0.202546 0.542366 0.089557
Si Si2 0.300212 0.943428 0.336965
Si Si3 0.378617 0.551617 0.968441
Si Si4 0.478342 0.955688 0.334788
Si Si5 0.037900 0.545687 0.081037
Si Si6 0.435404 0.947428 0.554269
Si Si7 0.631239 0.554817 0.275461
Si Si8 0.796400 0.951007 0.420171
O O1 0.250000 0.487797 0.066203
O O2 0.204103 0.750000 0.091723
O O3 0.189328 0.486165 0.214913
O O4 0.166457 0.485626 0.006066
O O5 0.250000 0.944998 0.336981
O O6 0.314593 0.750000 0.340767
O O7 0.312929 0.024887 0.453648
O O8 0.377594 0.750000 0.996583
O O9 0.384047 0.533670 0.836137
O O10 0.418644 0.479739 0.031660
O O11 0.481666 0.750000 0.337347
O O12 0.469479 0.010569 0.208579
O O13 0.443732 0.002486 0.426718
O O14 0.521198 0.029095 0.381043
O O15 0.039761 0.750000 0.083798
O O16 0.000000 0.500000 0.000000
O O17 0.424014 0.750000 0.554013
O O18 0.401484 0.044911 0.624622
O O19 0.637730 0.750000 0.244822
O O20 0.673160 0.478795 0.326704
O O21 0.750000 0.021756 0.413875
O O22 0.794188 0.750000 0.402744
#
# Coordination Sequence:
#
# PCOD9450962 Si02
#       8
#     8   8   8   8   8   8   8   8
#     4   8  15  30  53  80 109 138 167 209 265 315
#     4   8  14  27  50  78 103 128 162 205 256 314
#     4  10  21  36  54  77 103 134 178 221 256 307
#     4   9  19  36  57  81 109 139 170 207 254 305
#     4  10  21  36  54  77 105 138 173 211 255 301
#     4  10  20  35  57  83 108 135 170 211 256 309
#     4  11  23  37  52  72 103 140 175 217 267 312
#     4   9  19  35  52  71  99 136 175 215 261 311
#
# _framework density 20.915346
#
# number of rings (size 3 to 8) (size 9 to 14) (size 15 to 20)
#    0.000    2.625    0.000    2.250    0.000    6.000 
#    0.000    3.125    0.000    0.750    0.000    0.000 
#    0.000    0.000    0.000    0.000    0.000    0.000 
#
# Total GULP energy -356932.695650 kJ/mol
# GULP energy per Si atom -5577.073370 kJ/mol
# Density = 2.086774 g / cm^3
# Si number density = 20.915346 Si / 1000 Ang^3
#
#
#
# Elastic Constant Matrix: (Units=GPa)
#
#
# Indices 1 2 3 4 5 6 
#
# 1 84.2513 2.7794 55.6147 0.0000 0.0000 0.0000
# 2 2.7794 17.7625 0.9414 0.0000 0.0000 0.0000
# 3 55.6147 0.9414 137.5285 0.0000 0.0000 0.0000
# 4 0.0000 0.0000 0.0000 100.0099 0.0000 0.0000
# 5 0.0000 0.0000 0.0000 0.0000 32.1125 0.0000
# 6 0.0000 0.0000 0.0000 0.0000 0.0000 14.1985
#
#
#
# Elastic Compliance Matrix: (Units=1/GPa)
#
#
# Indices 1 2 3 4 5 6 
#
# 1 0.016277 -0.002199 -0.006567 0.000000 0.000000 0.000000
# 2 -0.002199 0.056616 0.000502 0.000000 0.000000 0.000000
# 3 -0.006567 0.000502 0.009923 0.000000 0.000000 0.000000
# 4 0.000000 0.000000 0.000000 0.009999 0.000000 0.000000
# 5 0.000000 0.000000 0.000000 0.000000 0.031141 0.000000
# 6 0.000000 0.000000 0.000000 0.000000 0.000000 0.070430
#
#
# Mechanical properties :
#
#
# Convention : Reuss Voigt Hill
#
# Bulk Modulus (GPa) = 15.08579 39.80146 27.44362
# Shear Modulus (GPa) = 21.45833 41.27798 31.36815
#
# Velocity S-wave (km/s) = 3.20654 4.44731 3.87688
# Velocity P-wave (km/s) = 4.57576 6.74111 5.76108
#
# Compressibility (1/GPa) = 0.06628754
#
# Stress axis : x y z
#
# Youngs Moduli (GPa) = 61.43740 17.66288 100.77186
#
# Poissons Ratio (x) = 0.03884 0.66177
# Poissons Ratio (y) = 0.13509 -0.05055
# Poissons Ratio (z) = 0.40346 -0.00886
#
# Static dielectric constant tensor:
#      x y z
#    x 1.763290 0.000000 0.000000 
#    y 0.000000 1.763370 0.000000 
#    z 0.000000 0.000000 1.743210 
# 
# From -- ./inp_files/19326.got.cif
#   From: 2010.05.17/outbox.cif.g08.bks.cpg/sg59_10_cif.got.tgz:19326.got - 2010.06.03 14:40:33.
