data_PCOD9450733
_publ_section_title
;
Structure prediction by ZEFSAII (Michael W. Deem and Ramdas Pophale) SiO2 
 PCOD9450733
Probable space group: P M M N
;
_chemical_formula_sum "Si O2"
_cell_formula_units_Z 40
_cell_length_a 8.394059
_cell_length_b 20.573636
_cell_length_c 13.294434
_cell_angle_alpha 90.000000
_cell_angle_beta 90.000000
_cell_angle_gamma 90.000000
_cell_volume 2295.899754
_symmetry_space_group_name_H-M "P M M N"
_symmetry_group_IT_number 59
_space_group.IT_coordinate_system_code '2'
_symmetry_cell_setting 'orthorhombic'
loop_
_space_group_symop_operation_xyz
x,y,z
1/2-x,1/2-y,z
1/2+x,-y,-z
-x,1/2+y,-z
-x,-y,-z
1/2+x,1/2+y,-z
1/2-x,y,z
x,1/2-y,z
loop_
_atom_site_type_symbol
_atom_site_label
_atom_site_fract_x
_atom_site_fract_y
_atom_site_fract_z
Si Si1 0.944005 0.400651 0.192116
Si Si2 0.442864 0.823787 0.613406
Si Si3 0.441681 0.049998 0.767272
Si Si4 0.559453 0.073121 0.977020
Si Si5 0.441217 0.430898 0.542532
O O1 0.750000 0.400365 0.193159
O O2 0.997695 0.351676 0.278420
O O3 0.993528 0.474320 0.221273
O O4 0.993024 0.387518 0.076639
O O5 0.250000 0.824031 0.614289
O O6 0.497158 0.750000 0.597500
O O7 0.498050 0.873198 0.527677
O O8 0.250000 0.049554 0.768821
O O9 0.498088 0.088633 0.865793
O O10 0.495097 0.075240 0.658704
O O11 0.750000 0.073124 0.974477
O O12 0.500000 0.000000 0.000000
O O13 0.500000 0.500000 0.500000
O O14 0.250000 0.431492 0.541541
#
# Coordination Sequence:
#
# PCOD9450733 Si02
#       5
#     8   8   8   8   8
#     4   8  14  28  46  68  99 129 160 201 251 303
#     4  10  20  35  54  75 103 139 175 211 261 322
#     4   9  17  30  47  69 100 131 163 208 258 307
#     4   9  16  26  43  68  99 128 161 203 247 302
#     4  11  21  34  53  76 105 137 176 222 265 315
#
# _framework density 17.422363000000001
#
# number of rings (size 3 to 8) (size 9 to 14) (size 15 to 20)
#    0.000    2.600    2.000    2.400    0.000    2.000 
#    0.000    1.000    0.000    1.200    0.000    2.800 
#    0.000    0.000    0.000    0.000    0.000    0.000 
#
# Total GULP energy -222807.006400 kJ/mol
# GULP energy per Si atom -5570.175160 kJ/mol
# Density = 1.738271 g / cm^3
# Si number density = 17.422363 Si / 1000 Ang^3
#
#
#
# Elastic Constant Matrix: (Units=GPa)
#
#
# Indices 1 2 3 4 5 6 
#
# 1 16.0701 14.9747 25.4038 0.0000 0.0000 0.0000
# 2 14.9747 93.8235 78.0528 0.0000 0.0000 0.0000
# 3 25.4038 78.0528 212.2273 0.0000 0.0000 0.0000
# 4 0.0000 0.0000 0.0000 18.4581 0.0000 0.0000
# 5 0.0000 0.0000 0.0000 0.0000 29.7481 0.0000
# 6 0.0000 0.0000 0.0000 0.0000 0.0000 15.3196
#
#
#
# Elastic Compliance Matrix: (Units=1/GPa)
#
#
# Indices 1 2 3 4 5 6 
#
# 1 0.079731 -0.006896 -0.007008 0.000000 0.000000 0.000000
# 2 -0.006896 0.015953 -0.005042 0.000000 0.000000 0.000000
# 3 -0.007008 -0.005042 0.007405 0.000000 0.000000 0.000000
# 4 0.000000 0.000000 0.000000 0.054177 0.000000 0.000000
# 5 0.000000 0.000000 0.000000 0.000000 0.033616 0.000000
# 6 0.000000 0.000000 0.000000 0.000000 0.000000 0.065276
#
#
# Mechanical properties :
#
#
# Convention : Reuss Voigt Hill
#
# Bulk Modulus (GPa) = 15.33768 62.10926 38.72347
# Shear Modulus (GPa) = 15.83374 26.28445 21.05910
#
# Velocity S-wave (km/s) = 3.01793 3.88836 3.48046
# Velocity P-wave (km/s) = 4.57891 7.47567 6.19888
#
# Compressibility (1/GPa) = 0.06519889
#
# Stress axis : x y z
#
# Youngs Moduli (GPa) = 12.54216 62.68304 135.04254
#
# Poissons Ratio (x) = 0.43223 0.94636
# Poissons Ratio (y) = 0.08649 0.68087
# Poissons Ratio (z) = 0.08789 0.31604
#
# Static dielectric constant tensor:
#      x y z
#    x 1.606220 0.000000 0.000000 
#    y 0.000000 1.560010 0.000000 
#    z 0.000000 0.000000 1.644730 
# 
# From -- ./inp_files/14074.got.cif
#   From: 2010.05.17/outbox.cif.g08.bks.cpg/sg59_8_cif.got.tgz:14074.got - 2010.06.03 14:40:33.
