data_PCOD9450346
_publ_section_title
;
Structure prediction by ZEFSAII (Michael W. Deem and Ramdas Pophale) SiO2 
 PCOD9450346
Probable space group: P M M N
;
_chemical_formula_sum "Si O2"
_cell_formula_units_Z 48
_cell_length_a 29.937399
_cell_length_b 9.331792
_cell_length_c 9.791790
_cell_angle_alpha 90.000000
_cell_angle_beta 90.000000
_cell_angle_gamma 90.000000
_cell_volume 2735.528265
_symmetry_space_group_name_H-M "P M M N"
_symmetry_group_IT_number 59
_space_group.IT_coordinate_system_code '2'
_symmetry_cell_setting 'orthorhombic'
loop_
_space_group_symop_operation_xyz
x,y,z
1/2-x,1/2-y,z
1/2+x,-y,-z
-x,1/2+y,-z
-x,-y,-z
1/2+x,1/2+y,-z
1/2-x,y,z
x,1/2-y,z
loop_
_atom_site_type_symbol
_atom_site_label
_atom_site_fract_x
_atom_site_fract_y
_atom_site_fract_z
Si Si1 0.697968 0.920012 0.867109
Si Si2 0.448187 0.580201 0.150238
Si Si3 0.303292 0.918183 0.853659
Si Si4 0.130772 0.078986 0.658413
Si Si5 0.446873 0.081252 0.871360
Si Si6 0.880222 0.921569 0.657580
O O1 0.750000 0.950597 0.835024
O O2 0.694395 0.750000 0.897041
O O3 0.664896 0.952298 0.742846
O O4 0.685085 0.007087 0.002357
O O5 0.440207 0.750000 0.149964
O O6 0.501398 0.555310 0.166076
O O7 0.420047 0.503696 0.267491
O O8 0.435470 0.511836 0.004139
O O9 0.250000 0.934806 0.835612
O O10 0.313785 0.750000 0.858846
O O11 0.329835 0.994957 0.733189
O O12 0.139584 0.250000 0.664045
O O13 0.086116 0.051288 0.746476
O O14 0.124840 0.038653 0.500656
O O15 0.442464 0.250000 0.907162
O O16 0.888050 0.750000 0.664662
#
# Coordination Sequence:
#
# PCOD9450346 Si02
#       6
#     8   8   8   8   8   8
#     4   9  18  34  55  76  99 131 170 209 250 299
#     4  10  20  34  54  78 103 135 174 214 259 310
#     4  10  21  36  54  78 106 134 168 212 258 303
#     4  10  21  36  54  76 104 139 175 211 254 305
#     4   9  19  36  55  76 103 135 174 218 259 302
#     4  10  21  35  52  77 107 136 169 212 258 304
#
# _framework density 17.546886000000001
#
# number of rings (size 3 to 8) (size 9 to 14) (size 15 to 20)
#    0.000    2.333    0.000    2.000    0.000    9.000 
#    0.000    1.667    0.000    2.000    0.000    0.000 
#    0.000    0.000    0.000    0.000    0.000    0.000 
#
# Total GULP energy -267985.500935 kJ/mol
# GULP energy per Si atom -5583.031269 kJ/mol
# Density = 1.750695 g / cm^3
# Si number density = 17.546886 Si / 1000 Ang^3
#
#
#
# Elastic Constant Matrix: (Units=GPa)
#
#
# Indices 1 2 3 4 5 6 
#
# 1 73.5109 59.0608 82.6035 0.0000 0.0000 0.0000
# 2 59.0608 56.1709 82.6262 0.0000 0.0000 0.0000
# 3 82.6035 82.6262 181.1198 0.0000 0.0000 0.0000
# 4 0.0000 0.0000 0.0000 12.1283 0.0000 0.0000
# 5 0.0000 0.0000 0.0000 0.0000 -9.3947 0.0000
# 6 0.0000 0.0000 0.0000 0.0000 0.0000 28.5228
#
#
#
# Elastic Compliance Matrix: (Units=1/GPa)
#
#
# Indices 1 2 3 4 5 6 
#
# 1 0.090051 -0.104186 0.006460 0.000000 0.000000 0.000000
# 2 -0.104186 0.174660 -0.032163 0.000000 0.000000 0.000000
# 3 0.006460 -0.032163 0.017248 0.000000 0.000000 0.000000
# 4 0.000000 0.000000 0.000000 0.082452 0.000000 0.000000
# 5 0.000000 0.000000 0.000000 0.000000 -0.106443 0.000000
# 6 0.000000 0.000000 0.000000 0.000000 0.000000 0.035060
#
#
# Mechanical properties :
#
#
# Convention : Reuss Voigt Hill
#
# Bulk Modulus (GPa) = 45.08528 84.37587 64.73057
# Shear Modulus (GPa) = 8.92539 12.01869 10.47204
#
# Velocity S-wave (km/s) = 2.25779 2.61999 2.44561
# Velocity P-wave (km/s) = 5.70498 7.57250 6.70409
#
# Compressibility (1/GPa) = 0.02218019
#
# Stress axis : x y z
#
# Youngs Moduli (GPa) = 11.10486 5.72540 57.97780
#
# Poissons Ratio (x) = 0.59650 -0.37451
# Poissons Ratio (y) = 1.15697 1.86476
# Poissons Ratio (z) = -0.07173 0.18415
#
# Static dielectric constant tensor:
#      x y z
#    x 1.600130 0.000000 0.000000 
#    y 0.000000 1.583210 0.000000 
#    z 0.000000 0.000000 1.557460 
# 
# From -- ./inp_files/6187.got.cif
#   From: 2010.05.17/outbox.cif.g08.bks.cpg/sg59_4_cif.got.tgz:6187.got - 2010.06.03 14:40:33.
