data_PCOD9450527
_publ_section_title
;
Structure prediction by ZEFSAII (Michael W. Deem and Ramdas Pophale) SiO2 
 PCOD9450527
Probable space group: P M M N
;
_chemical_formula_sum "Si O2"
_cell_formula_units_Z 48
_cell_length_a 13.733438
_cell_length_b 14.507572
_cell_length_c 12.592758
_cell_angle_alpha 90.000000
_cell_angle_beta 90.000000
_cell_angle_gamma 90.000000
_cell_volume 2508.966504
_symmetry_space_group_name_H-M "P M M N"
_symmetry_group_IT_number 59
_space_group.IT_coordinate_system_code '2'
_symmetry_cell_setting 'orthorhombic'
loop_
_space_group_symop_operation_xyz
x,y,z
1/2-x,1/2-y,z
1/2+x,-y,-z
-x,1/2+y,-z
-x,-y,-z
1/2+x,1/2+y,-z
1/2-x,y,z
x,1/2-y,z
loop_
_atom_site_type_symbol
_atom_site_label
_atom_site_fract_x
_atom_site_fract_y
_atom_site_fract_z
Si Si1 0.863597 0.854403 0.517737
Si Si2 0.638279 0.640078 0.136788
Si Si3 0.960968 0.860045 0.923114
Si Si4 0.859940 0.540002 0.732601
Si Si5 0.444678 0.031026 0.666614
Si Si6 0.364246 0.857993 0.772418
O O1 0.750000 0.859890 0.484631
O O2 0.897467 0.750000 0.501883
O O3 0.866204 0.882215 0.640837
O O4 0.922732 0.925939 0.446845
O O5 0.750000 0.620414 0.104571
O O6 0.630357 0.750000 0.152829
O O7 0.613382 0.589071 0.245142
O O8 0.564042 0.612523 0.043075
O O9 0.941716 0.750000 0.915554
O O10 0.891040 0.914375 0.843020
O O11 0.069588 0.875310 0.877115
O O12 0.750000 0.504727 0.735218
O O13 0.942158 0.467727 0.698301
O O14 0.406518 0.926550 0.683385
O O15 0.250000 0.875772 0.789656
O O16 0.376140 0.750000 0.744645
#
# Coordination Sequence:
#
# PCOD9450527 Si02
#       6
#     8   8   8   8   8   8
#     4  10  20  35  58  84 106 132 170 217 267 314
#     4  10  20  34  55  82 108 135 171 218 269 315
#     4   9  18  33  53  77 105 137 175 221 269 311
#     4  10  21  35  52  76 105 139 178 218 260 307
#     4  11  21  35  54  78 108 140 173 215 262 314
#     4   9  18  32  50  74 106 143 180 216 256 309
#
# _framework density 19.131384000000001
#
# number of rings (size 3 to 8) (size 9 to 14) (size 15 to 20)
#    0.000    2.167    0.000    3.500    0.000    6.333 
#    0.000    2.500    0.000    3.000    0.000    2.333 
#    0.000    0.000    0.000    0.333    0.000    0.000 
#
# Total GULP energy -267958.194762 kJ/mol
# GULP energy per Si atom -5582.462391 kJ/mol
# Density = 1.908784 g / cm^3
# Si number density = 19.131384 Si / 1000 Ang^3
#
#
#
# Elastic Constant Matrix: (Units=GPa)
#
#
# Indices 1 2 3 4 5 6 
#
# 1 96.0021 20.9760 0.2755 0.0000 0.0000 0.0000
# 2 20.9760 44.6881 11.8144 0.0000 0.0000 0.0000
# 3 0.2755 11.8144 48.5825 0.0000 0.0000 0.0000
# 4 0.0000 0.0000 0.0000 19.1454 0.0000 0.0000
# 5 0.0000 0.0000 0.0000 0.0000 23.2001 0.0000
# 6 0.0000 0.0000 0.0000 0.0000 0.0000 22.4254
#
#
#
# Elastic Compliance Matrix: (Units=1/GPa)
#
#
# Indices 1 2 3 4 5 6 
#
# 1 0.011690 -0.005845 0.001355 0.000000 0.000000 0.000000
# 2 -0.005845 0.026838 -0.006493 0.000000 0.000000 0.000000
# 3 0.001355 -0.006493 0.022155 0.000000 0.000000 0.000000
# 4 0.000000 0.000000 0.000000 0.052232 0.000000 0.000000
# 5 0.000000 0.000000 0.000000 0.000000 0.043103 0.000000
# 6 0.000000 0.000000 0.000000 0.000000 0.000000 0.044592
#
#
# Mechanical properties :
#
#
# Convention : Reuss Voigt Hill
#
# Bulk Modulus (GPa) = 25.82946 28.37829 27.10388
# Shear Modulus (GPa) = 21.23307 23.36797 22.30052
#
# Velocity S-wave (km/s) = 3.33506 3.49871 3.41787
# Velocity P-wave (km/s) = 5.32547 5.58452 5.45653
#
# Compressibility (1/GPa) = 0.03871548
#
# Stress axis : x y z
#
# Youngs Moduli (GPa) = 85.54534 37.26103 45.13673
#
# Poissons Ratio (x) = 0.21780 -0.06117
# Poissons Ratio (y) = 0.50004 0.29309
# Poissons Ratio (z) = -0.11593 0.24195
#
# Static dielectric constant tensor:
#      x y z
#    x 1.679990 0.000000 0.000000 
#    y 0.000000 1.673060 0.000000 
#    z 0.000000 0.000000 1.637680 
# 
# From -- ./inp_files/16827.got.cif
#   From: 2010.05.17/outbox.cif.g08.bks.cpg/sg59_9_cif.got.tgz:16827.got - 2010.06.03 14:40:33.
