data_PCOD9450403
_publ_section_title
;
Structure prediction by ZEFSAII (Michael W. Deem and Ramdas Pophale) SiO2 
 PCOD9450403
Probable space group: P M M N
;
_chemical_formula_sum "Si O2"
_cell_formula_units_Z 56
_cell_length_a 14.818241
_cell_length_b 7.572418
_cell_length_c 22.544287
_cell_angle_alpha 90.000000
_cell_angle_beta 90.000000
_cell_angle_gamma 90.000000
_cell_volume 2529.692525
_symmetry_space_group_name_H-M "P M M N"
_symmetry_group_IT_number 59
_space_group.IT_coordinate_system_code '2'
_symmetry_cell_setting 'orthorhombic'
loop_
_space_group_symop_operation_xyz
x,y,z
1/2-x,1/2-y,z
1/2+x,-y,-z
-x,1/2+y,-z
-x,-y,-z
1/2+x,1/2+y,-z
1/2-x,y,z
x,1/2-y,z
loop_
_atom_site_type_symbol
_atom_site_label
_atom_site_fract_x
_atom_site_fract_y
_atom_site_fract_z
Si Si1 0.485255 0.538020 0.431214
Si Si2 0.846348 0.046814 0.220027
Si Si3 0.146817 0.543215 0.961539
Si Si4 0.649228 0.460812 0.667184
Si Si5 0.049614 0.035890 0.082291
Si Si6 0.846749 0.537490 0.356274
Si Si7 0.955075 0.963151 0.788896
O O1 0.500000 0.500000 0.500000
O O2 0.483692 0.750000 0.426641
O O3 0.400782 0.471772 0.392219
O O4 0.572252 0.472537 0.395637
O O5 0.750000 0.967758 0.200686
O O6 0.846827 0.250000 0.199046
O O7 0.942667 0.965589 0.206603
O O8 0.846466 0.045099 0.291458
O O9 0.250000 0.472196 0.952863
O O10 0.152090 0.750000 0.946133
O O11 0.055173 0.474635 0.928483
O O12 0.115026 0.526692 0.029973
O O13 0.750000 0.533323 0.673753
O O14 0.655714 0.250000 0.660367
O O15 0.592650 0.487194 0.727648
O O16 0.046984 0.250000 0.078804
O O17 0.085677 0.986110 0.147502
O O18 0.750000 0.502900 0.385110
O O19 0.854804 0.750000 0.347854
O O20 0.960085 0.750000 0.787330
#
# Coordination Sequence:
#
# PCOD9450403 Si02
#       7
#     8   8   8   8   8   8   8
#     4  10  21  36  54  77 103 134 172 215 262 313
#     4   9  17  29  48  75 103 130 162 203 253 309
#     4   9  18  34  55  77 104 141 183 223 264 313
#     4  10  22  40  58  77 106 144 182 220 263 311
#     4   9  19  34  52  78 109 141 177 221 269 315
#     4   9  17  31  51  73  97 126 161 202 251 305
#     4  10  20  34  54  80 110 141 176 218 266 318
#
# _framework density 22.137077999999999
#
# number of rings (size 3 to 8) (size 9 to 14) (size 15 to 20)
#    0.000    2.571    1.429    0.000    0.000    4.000 
#    0.000    5.714    0.000    0.000    0.000    4.000 
#    0.000    0.000    0.000    0.000    0.000    0.000 
#
# Total GULP energy -312133.262077 kJ/mol
# GULP energy per Si atom -5573.808251 kJ/mol
# Density = 2.208669 g / cm^3
# Si number density = 22.137078 Si / 1000 Ang^3
#
#
#
# Elastic Constant Matrix: (Units=GPa)
#
#
# Indices 1 2 3 4 5 6 
#
# 1 122.1753 10.7224 57.4227 0.0000 0.0000 0.0000
# 2 10.7224 52.0091 -0.1744 0.0000 0.0000 0.0000
# 3 57.4227 -0.1744 152.2266 0.0000 0.0000 0.0000
# 4 0.0000 0.0000 0.0000 3.3376 0.0000 0.0000
# 5 0.0000 0.0000 0.0000 0.0000 0.8644 0.0000
# 6 0.0000 0.0000 0.0000 0.0000 0.0000 13.2158
#
#
#
# Elastic Compliance Matrix: (Units=1/GPa)
#
#
# Indices 1 2 3 4 5 6 
#
# 1 0.010175 -0.002111 -0.003841 0.000000 0.000000 0.000000
# 2 -0.002111 0.019665 0.000819 0.000000 0.000000 0.000000
# 3 -0.003841 0.000819 0.008019 0.000000 0.000000 0.000000
# 4 0.000000 0.000000 0.000000 0.299616 0.000000 0.000000
# 5 0.000000 0.000000 0.000000 0.000000 1.156851 0.000000
# 6 0.000000 0.000000 0.000000 0.000000 0.000000 0.075667
#
#
# Mechanical properties :
#
#
# Convention : Reuss Voigt Hill
#
# Bulk Modulus (GPa) = 36.23960 51.37248 43.80604
# Shear Modulus (GPa) = 3.14573 20.71293 11.92933
#
# Velocity S-wave (km/s) = 1.19336 3.06219 2.32391
# Velocity P-wave (km/s) = 4.27842 5.97993 5.19925
#
# Compressibility (1/GPa) = 0.02759412
#
# Stress axis : x y z
#
# Youngs Moduli (GPa) = 98.27666 50.85104 124.70549
#
# Poissons Ratio (x) = 0.10733 0.47896
# Poissons Ratio (y) = 0.20743 -0.10210
# Poissons Ratio (z) = 0.37746 -0.04163
#
# Static dielectric constant tensor:
#      x y z
#    x 1.856800 0.000000 0.000000 
#    y 0.000000 1.991040 0.000000 
#    z 0.000000 0.000000 1.795120 
# 
# From -- ./inp_files/29125.got.cif
#   From: 2010.05.17/outbox.cif.g08.bks.cpg/sg59_15_cif.got.tgz:29125.got - 2010.06.03 14:40:33.
