data_PCOD9450006
_publ_section_title
;
Structure prediction by ZEFSAII (Michael W. Deem and Ramdas Pophale) SiO2 
 PCOD9450006
Probable space group: P M M N
;
_chemical_formula_sum "Si O2"
_cell_formula_units_Z 48
_cell_length_a 18.486486
_cell_length_b 8.836605
_cell_length_c 16.896764
_cell_angle_alpha 90.000000
_cell_angle_beta 90.000000
_cell_angle_gamma 90.000000
_cell_volume 2760.217765
_symmetry_space_group_name_H-M "P M M N"
_symmetry_group_IT_number 59
_space_group.IT_coordinate_system_code '2'
_symmetry_cell_setting 'orthorhombic'
loop_
_space_group_symop_operation_xyz
x,y,z
1/2-x,1/2-y,z
1/2+x,-y,-z
-x,1/2+y,-z
-x,-y,-z
1/2+x,1/2+y,-z
1/2-x,y,z
x,1/2-y,z
loop_
_atom_site_type_symbol
_atom_site_label
_atom_site_fract_x
_atom_site_fract_y
_atom_site_fract_z
Si Si1 0.165328 0.568940 0.646283
Si Si2 0.524391 0.068325 0.917444
Si Si3 0.580496 0.568934 0.501545
Si Si4 0.451369 0.068538 0.754172
Si Si5 0.831115 0.067492 0.829327
Si Si6 0.094937 0.430627 0.319645
O O1 0.250000 0.531135 0.648758
O O2 0.157303 0.750000 0.645727
O O3 0.128164 0.501616 0.567856
O O4 0.121713 0.501127 0.720364
O O5 0.524803 0.250000 0.923940
O O6 0.471180 0.028203 0.844592
O O7 0.604726 0.020155 0.888767
O O8 0.500000 0.000000 0.000000
O O9 0.500000 0.500000 0.500000
O O10 0.575935 0.750000 0.491213
O O11 0.612207 0.537310 0.588950
O O12 0.450405 0.250000 0.747383
O O13 0.517606 0.004378 0.701857
O O14 0.750000 0.026851 0.854508
O O15 0.835418 0.250000 0.822226
O O16 0.849557 0.997147 0.744053
O O17 0.089504 0.250000 0.310139
#
# Coordination Sequence:
#
# PCOD9450006 Si02
#       6
#     8   8   8   8   8   8
#     4  11  24  39  55  79 111 147 190 236 281 327
#     4   9  19  35  57  85 110 139 179 221 270 332
#     4  11  22  35  55  80 110 148 190 234 276 325
#     4  10  20  36  58  80 106 142 182 223 271 329
#     4   9  19  36  56  79 110 145 181 224 275 329
#     4  10  20  33  53  81 109 140 181 226 270 323
#
# _framework density 17.389932999999999
#
# number of rings (size 3 to 8) (size 9 to 14) (size 15 to 20)
#    0.000    2.000    1.667    3.000    0.000    7.667 
#    0.000    4.167    0.000    3.000    0.000    0.000 
#    0.000    0.000    0.000    0.000    0.000    0.000 
#
# Total GULP energy -267926.765719 kJ/mol
# GULP energy per Si atom -5581.807619 kJ/mol
# Density = 1.735035 g / cm^3
# Si number density = 17.389933 Si / 1000 Ang^3
#
#
#
# Elastic Constant Matrix: (Units=GPa)
#
#
# Indices 1 2 3 4 5 6 
#
# 1 144.2283 50.9948 91.3456 0.0000 0.0000 0.0000
# 2 50.9948 42.8425 50.9880 0.0000 0.0000 0.0000
# 3 91.3456 50.9880 152.1139 0.0000 0.0000 0.0000
# 4 0.0000 0.0000 0.0000 33.1031 0.0000 0.0000
# 5 0.0000 0.0000 0.0000 0.0000 19.0334 0.0000
# 6 0.0000 0.0000 0.0000 0.0000 0.0000 27.6025
#
#
#
# Elastic Compliance Matrix: (Units=1/GPa)
#
#
# Indices 1 2 3 4 5 6 
#
# 1 0.013652 -0.010802 -0.004577 0.000000 0.000000 0.000000
# 2 -0.010802 0.047380 -0.009395 0.000000 0.000000 0.000000
# 3 -0.004577 -0.009395 0.012472 0.000000 0.000000 0.000000
# 4 0.000000 0.000000 0.000000 0.030209 0.000000 0.000000
# 5 0.000000 0.000000 0.000000 0.000000 0.052539 0.000000
# 6 0.000000 0.000000 0.000000 0.000000 0.000000 0.036229
#
#
# Mechanical properties :
#
#
# Convention : Reuss Voigt Hill
#
# Bulk Modulus (GPa) = 41.74455 80.64905 61.19680
# Shear Modulus (GPa) = 19.99903 25.67156 22.83529
#
# Velocity S-wave (km/s) = 3.39490 3.84634 3.62765
# Velocity P-wave (km/s) = 6.27887 8.13654 7.26731
#
# Compressibility (1/GPa) = 0.02395522
#
# Stress axis : x y z
#
# Youngs Moduli (GPa) = 73.25179 21.10613 80.18128
#
# Poissons Ratio (x) = 0.22799 0.36700
# Poissons Ratio (y) = 0.79126 0.75329
# Poissons Ratio (z) = 0.33528 0.19829
#
# Static dielectric constant tensor:
#      x y z
#    x 1.585860 0.000000 0.000000 
#    y 0.000000 1.582570 0.000000 
#    z 0.000000 0.000000 1.579520 
# 
# From -- ./inp_files/23650.got.cif
#   From: 2010.05.17/outbox.cif.g08.bks.cpg/sg59_12_cif.got.tgz:23650.got - 2010.06.03 14:40:33.
