data_PCOD9450651
_publ_section_title
;
Structure prediction by ZEFSAII (Michael W. Deem and Ramdas Pophale) SiO2 
 PCOD9450651
Probable space group: P M M N
;
_chemical_formula_sum "Si O2"
_cell_formula_units_Z 48
_cell_length_a 28.802065
_cell_length_b 8.750237
_cell_length_c 10.469303
_cell_angle_alpha 90.000000
_cell_angle_beta 90.000000
_cell_angle_gamma 90.000000
_cell_volume 2638.524988
_symmetry_space_group_name_H-M "P M M N"
_symmetry_group_IT_number 59
_space_group.IT_coordinate_system_code '2'
_symmetry_cell_setting 'orthorhombic'
loop_
_space_group_symop_operation_xyz
x,y,z
1/2-x,1/2-y,z
1/2+x,-y,-z
-x,1/2+y,-z
-x,-y,-z
1/2+x,1/2+y,-z
1/2-x,y,z
x,1/2-y,z
loop_
_atom_site_type_symbol
_atom_site_label
_atom_site_fract_x
_atom_site_fract_y
_atom_site_fract_z
Si Si1 0.697196 0.933309 0.363288
Si Si2 0.604256 0.934470 0.229349
Si Si3 0.394446 0.066669 0.255101
Si Si4 0.448254 0.567780 0.013100
Si Si5 0.948870 0.933614 0.488860
Si Si6 0.196740 0.932599 0.353941
O O1 0.750000 0.968090 0.322984
O O2 0.693482 0.750000 0.383756
O O3 0.657533 0.974932 0.262276
O O4 0.688971 0.011307 0.500300
O O5 0.601346 0.750000 0.212762
O O6 0.575322 0.977432 0.356190
O O7 0.582207 0.014744 0.107737
O O8 0.395396 0.250000 0.245259
O O9 0.418630 0.019998 0.388685
O O10 0.423208 0.995303 0.139499
O O11 0.341684 0.009034 0.264664
O O12 0.451290 0.750000 0.018397
O O13 0.500000 0.500000 0.000000
O O14 0.951267 0.750000 0.490147
O O15 0.000000 0.000000 0.500000
O O16 0.250000 0.974006 0.321232
O O17 0.192283 0.750000 0.349020
#
# Coordination Sequence:
#
# PCOD9450651 Si02
#       6
#     8   8   8   8   8   8
#     4   9  17  33  59  88 118 153 194 240 290 346
#     4  10  20  38  59  85 117 153 196 244 292 350
#     4  11  22  40  62  87 116 155 201 245 294 352
#     4  12  26  43  61  85 116 159 201 243 299 358
#     4  10  21  35  55  84 113 144 189 242 293 344
#     4  10  20  34  56  89 125 158 194 240 295 350
#
# _framework density 18.191983
#
# number of rings (size 3 to 8) (size 9 to 14) (size 15 to 20)
#    0.000    1.667    1.667    3.500    0.000    6.333 
#    0.000    0.833    0.000    3.000    0.000    0.000 
#    0.000    0.000    0.000    0.000    0.000    0.000 
#
# Total GULP energy -268151.978802 kJ/mol
# GULP energy per Si atom -5586.499558 kJ/mol
# Density = 1.815058 g / cm^3
# Si number density = 18.191983 Si / 1000 Ang^3
#
#
#
# Elastic Constant Matrix: (Units=GPa)
#
#
# Indices 1 2 3 4 5 6 
#
# 1 135.8956 48.6391 38.2039 0.0000 0.0000 0.0000
# 2 48.6391 57.7005 36.4764 0.0000 0.0000 0.0000
# 3 38.2039 36.4764 78.4115 0.0000 0.0000 0.0000
# 4 0.0000 0.0000 0.0000 25.7127 0.0000 0.0000
# 5 0.0000 0.0000 0.0000 0.0000 32.8443 0.0000
# 6 0.0000 0.0000 0.0000 0.0000 0.0000 30.5156
#
#
#
# Elastic Compliance Matrix: (Units=1/GPa)
#
#
# Indices 1 2 3 4 5 6 
#
# 1 0.010651 -0.008071 -0.001435 0.000000 0.000000 0.000000
# 2 -0.008071 0.030667 -0.010334 0.000000 0.000000 0.000000
# 3 -0.001435 -0.010334 0.018259 0.000000 0.000000 0.000000
# 4 0.000000 0.000000 0.000000 0.038891 0.000000 0.000000
# 5 0.000000 0.000000 0.000000 0.000000 0.030447 0.000000
# 6 0.000000 0.000000 0.000000 0.000000 0.000000 0.032770
#
#
# Mechanical properties :
#
#
# Convention : Reuss Voigt Hill
#
# Bulk Modulus (GPa) = 50.25555 57.62738 53.94146
# Shear Modulus (GPa) = 24.03883 27.72707 25.88295
#
# Velocity S-wave (km/s) = 3.63905 3.90825 3.77605
# Velocity P-wave (km/s) = 6.73364 7.21887 6.98047
#
# Compressibility (1/GPa) = 0.01989830
#
# Stress axis : x y z
#
# Youngs Moduli (GPa) = 93.89054 32.60823 54.76655
#
# Poissons Ratio (x) = 0.26319 0.07857
# Poissons Ratio (y) = 0.75781 0.56594
# Poissons Ratio (z) = 0.13470 0.33696
#
# Static dielectric constant tensor:
#      x y z
#    x 1.631240 0.000000 0.000000 
#    y 0.000000 1.612640 0.000000 
#    z 0.000000 0.000000 1.593450 
# 
# From -- ./inp_files/12981.got.cif
#   From: 2010.05.17/outbox.cif.g08.bks.cpg/sg59_7_cif.got.tgz:12981.got - 2010.06.03 14:40:33.
