data_PCOD9450150
_publ_section_title
;
Structure prediction by ZEFSAII (Michael W. Deem and Ramdas Pophale) SiO2 
 PCOD9450150
Probable space group: P M M N
;
_chemical_formula_sum "Si O2"
_cell_formula_units_Z 48
_cell_length_a 8.600118
_cell_length_b 30.768163
_cell_length_c 6.761806
_cell_angle_alpha 90.000000
_cell_angle_beta 90.000000
_cell_angle_gamma 90.000000
_cell_volume 1789.240353
_symmetry_space_group_name_H-M "P M M N"
_symmetry_group_IT_number 59
_space_group.IT_coordinate_system_code '2'
_symmetry_cell_setting 'orthorhombic'
loop_
_space_group_symop_operation_xyz
x,y,z
1/2-x,1/2-y,z
1/2+x,-y,-z
-x,1/2+y,-z
-x,-y,-z
1/2+x,1/2+y,-z
1/2-x,y,z
x,1/2-y,z
loop_
_atom_site_type_symbol
_atom_site_label
_atom_site_fract_x
_atom_site_fract_y
_atom_site_fract_z
Si Si1 0.574390 0.442861 0.684091
Si Si2 0.419857 0.111285 0.132493
Si Si3 0.423419 0.528398 0.778884
Si Si4 0.080267 0.297143 0.129809
Si Si5 0.250000 0.702110 0.864903
Si Si6 0.429714 0.144125 0.594171
Si Si7 0.750000 0.304089 0.699537
O O1 0.750000 0.428223 0.719382
O O2 0.535899 0.487345 0.798228
O O3 0.566135 0.457007 0.452104
O O4 0.459482 0.402171 0.704224
O O5 0.250000 0.091061 0.111395
O O6 0.542535 0.073413 0.108651
O O7 0.422889 0.157196 0.016794
O O8 0.431210 0.128927 0.360498
O O9 0.250000 0.512817 0.814555
O O10 0.250000 0.296305 0.230315
O O11 0.075750 0.250000 0.022564
O O12 0.914605 0.299548 0.239616
O O13 0.250000 0.750000 0.947540
O O14 0.250000 0.678057 0.071520
O O15 0.250000 0.159852 0.629387
O O16 0.582755 0.175002 0.628777
O O17 0.750000 0.250000 0.663605
#
# Coordination Sequence:
#
# PCOD9450150 Si02
#       7
#     8   8   8   8   4   8   4
#     4   9  15  27  44  65 101 139 171 204 242 290
#     4   9  18  30  47  75 110 138 167 205 251 313
#     4   9  16  23  40  69 102 137 168 203 244 290
#     4   9  18  33  53  75 100 130 166 211 261 310
#     4   9  20  37  55  73  93 124 175 229 265 296
#     4  10  20  34  52  75 108 143 170 204 251 310
#     4  11  24  39  53  75 101 132 181 223 254 300
#
# _framework density 26.827029
#
# number of rings (size 3 to 8) (size 9 to 14) (size 15 to 20)
#    0.000    2.667    0.833    1.000    2.333    5.667 
#    0.000    4.167    0.000    0.000    0.000    1.167 
#    0.000    0.000    0.000    0.000    0.000    0.000 
#
# Total GULP energy -267254.255246 kJ/mol
# GULP energy per Si atom -5567.796984 kJ/mol
# Density = 2.676597 g / cm^3
# Si number density = 26.827029 Si / 1000 Ang^3
#
#
#
# Elastic Constant Matrix: (Units=GPa)
#
#
# Indices 1 2 3 4 5 6 
#
# 1 232.4721 65.4142 17.2558 0.0000 0.0000 0.0000
# 2 65.4142 173.0876 25.8407 0.0000 0.0000 0.0000
# 3 17.2558 25.8407 85.5839 0.0000 0.0000 0.0000
# 4 0.0000 0.0000 0.0000 36.4038 0.0000 0.0000
# 5 0.0000 0.0000 0.0000 0.0000 -5.1182 0.0000
# 6 0.0000 0.0000 0.0000 0.0000 0.0000 48.9082
#
#
#
# Elastic Compliance Matrix: (Units=1/GPa)
#
#
# Indices 1 2 3 4 5 6 
#
# 1 0.004829 -0.001759 -0.000443 0.000000 0.000000 0.000000
# 2 -0.001759 0.006691 -0.001666 0.000000 0.000000 0.000000
# 3 -0.000443 -0.001666 0.012277 0.000000 0.000000 0.000000
# 4 0.000000 0.000000 0.000000 0.027470 0.000000 0.000000
# 5 0.000000 0.000000 0.000000 0.000000 -0.195382 0.000000
# 6 0.000000 0.000000 0.000000 0.000000 0.000000 0.020446
#
#
# Mechanical properties :
#
#
# Convention : Reuss Voigt Hill
#
# Bulk Modulus (GPa) = 62.25709 78.68501 70.47105
# Shear Modulus (GPa) = -45.21594 41.54762 -1.83416
#
# Velocity S-wave (km/s) = -4.10989 3.93965 -0.82776
# Velocity P-wave (km/s) = 0.85768 7.07733 5.04104
#
# Compressibility (1/GPa) = 0.01606243
#
# Stress axis : x y z
#
# Youngs Moduli (GPa) = 207.06399 149.45729 81.45603
#
# Poissons Ratio (x) = 0.26291 0.03605
# Poissons Ratio (y) = 0.36424 0.13567
# Poissons Ratio (z) = 0.09165 0.24893
#
# Static dielectric constant tensor:
#      x y z
#    x 2.013200 0.000000 0.000000 
#    y 0.000000 2.062350 0.000000 
#    z 0.000000 0.000000 2.312530 
# 
# From -- ./inp_files/6353.got.cif
#   From: 2010.05.17/outbox.cif.g08.bks.cpg/sg59_4_cif.got.tgz:6353.got - 2010.06.03 14:40:33.
