data_PCOD9450209
_publ_section_title
;
Structure prediction by ZEFSAII (Michael W. Deem and Ramdas Pophale) SiO2 
 PCOD9450209
Probable space group: P M M N
;
_chemical_formula_sum "Si O2"
_cell_formula_units_Z 64
_cell_length_a 8.824408
_cell_length_b 23.585802
_cell_length_c 16.377552
_cell_angle_alpha 90.000000
_cell_angle_beta 90.000000
_cell_angle_gamma 90.000000
_cell_volume 3408.672015
_symmetry_space_group_name_H-M "P M M N"
_symmetry_group_IT_number 59
_space_group.IT_coordinate_system_code '2'
_symmetry_cell_setting 'orthorhombic'
loop_
_space_group_symop_operation_xyz
x,y,z
1/2-x,1/2-y,z
1/2+x,-y,-z
-x,1/2+y,-z
-x,-y,-z
1/2+x,1/2+y,-z
1/2-x,y,z
x,1/2-y,z
loop_
_atom_site_type_symbol
_atom_site_label
_atom_site_fract_x
_atom_site_fract_y
_atom_site_fract_z
Si Si1 0.432209 0.413103 0.450134
Si Si2 0.071824 0.008479 0.089405
Si Si3 0.070593 0.473621 0.614777
Si Si4 0.572376 0.117341 0.175791
Si Si5 0.078661 0.317888 0.034788
Si Si6 0.573245 0.420141 0.769852
Si Si7 0.566408 0.683562 0.669559
Si Si8 0.429044 0.683830 0.134223
O O1 0.250000 0.413349 0.448865
O O2 0.491250 0.465658 0.396278
O O3 0.480156 0.431050 0.541721
O O4 0.479609 0.353225 0.410481
O O5 0.250000 0.020022 0.079017
O O6 0.999112 0.058442 0.144127
O O7 0.055259 0.952474 0.144314
O O8 0.000000 0.000000 0.000000
O O9 0.250000 0.481952 0.606971
O O10 0.028233 0.447327 0.700850
O O11 0.750000 0.109986 0.191266
O O12 0.495628 0.147700 0.253530
O O13 0.538906 0.158290 0.099445
O O14 0.250000 0.337842 0.052671
O O15 0.078526 0.250000 0.039555
O O16 0.027554 0.333353 0.943878
O O17 0.750000 0.425875 0.745720
O O18 0.536814 0.355112 0.788693
O O19 0.750000 0.683751 0.674266
O O20 0.518028 0.750000 0.669859
O O21 0.250000 0.675842 0.114618
O O22 0.454074 0.750000 0.149885
#
# Coordination Sequence:
#
# PCOD9450209 Si02
#       8
#     8   8   8   8   8   8   8   8
#     4   9  19  37  58  81 109 139 174 219 273 329
#     4  11  23  38  56  80 112 149 189 233 281 332
#     4  10  20  34  57  86 110 138 178 222 268 321
#     4  12  24  36  52  77 110 146 185 228 275 329
#     4  10  20  34  53  76 102 136 180 226 270 316
#     4  10  21  36  54  78 108 141 175 213 263 319
#     4  10  21  38  59  81 109 147 188 231 282 340
#     4   9  18  34  55  77 103 136 174 216 262 313
#
# _framework density 18.775641
#
# number of rings (size 3 to 8) (size 9 to 14) (size 15 to 20)
#    0.000    1.875    0.000    4.125    0.000    9.000 
#    0.000    0.625    0.000    0.750    0.000    0.000 
#    0.000    0.000    0.000    0.000    0.000    0.000 
#
# Total GULP energy -357212.031093 kJ/mol
# GULP energy per Si atom -5581.437986 kJ/mol
# Density = 1.873291 g / cm^3
# Si number density = 18.775641 Si / 1000 Ang^3
#
#
#
# Elastic Constant Matrix: (Units=GPa)
#
#
# Indices 1 2 3 4 5 6 
#
# 1 33.5111 28.2884 15.6238 0.0000 0.0000 0.0000
# 2 28.2884 94.6698 41.4598 0.0000 0.0000 0.0000
# 3 15.6238 41.4598 56.1674 0.0000 0.0000 0.0000
# 4 0.0000 0.0000 0.0000 27.3407 0.0000 0.0000
# 5 0.0000 0.0000 0.0000 0.0000 27.1708 0.0000
# 6 0.0000 0.0000 0.0000 0.0000 0.0000 21.1023
#
#
#
# Elastic Compliance Matrix: (Units=1/GPa)
#
#
# Indices 1 2 3 4 5 6 
#
# 1 0.040350 -0.010553 -0.003434 0.000000 0.000000 0.000000
# 2 -0.010553 0.018369 -0.010623 0.000000 0.000000 0.000000
# 3 -0.003434 -0.010623 0.026601 0.000000 0.000000 0.000000
# 4 0.000000 0.000000 0.000000 0.036575 0.000000 0.000000
# 5 0.000000 0.000000 0.000000 0.000000 0.036804 0.000000
# 6 0.000000 0.000000 0.000000 0.000000 0.000000 0.047388
#
#
# Mechanical properties :
#
#
# Convention : Reuss Voigt Hill
#
# Bulk Modulus (GPa) = 27.70201 39.45468 33.57835
# Shear Modulus (GPa) = 18.70261 21.72120 20.21190
#
# Velocity S-wave (km/s) = 3.15955 3.40499 3.28456
# Velocity P-wave (km/s) = 5.30062 6.04301 5.68395
#
# Compressibility (1/GPa) = 0.03609847
#
# Stress axis : x y z
#
# Youngs Moduli (GPa) = 24.78290 54.44001 37.59278
#
# Poissons Ratio (x) = 0.57451 0.12910
# Poissons Ratio (y) = 0.26154 0.39936
# Poissons Ratio (z) = 0.08511 0.57834
#
# Static dielectric constant tensor:
#      x y z
#    x 1.675970 0.000000 0.000000 
#    y 0.000000 1.701690 0.000000 
#    z 0.000000 0.000000 1.635960 
# 
# From -- ./inp_files/21537.got.cif
#   From: 2010.05.17/outbox.cif.g08.bks.cpg/sg59_11_cif.got.tgz:21537.got - 2010.06.03 14:40:33.
