data_PCOD9450311
_publ_section_title
;
Structure prediction by ZEFSAII (Michael W. Deem and Ramdas Pophale) SiO2 
 PCOD9450311
Probable space group: P M M N
;
_chemical_formula_sum "Si O2"
_cell_formula_units_Z 48
_cell_length_a 24.674653
_cell_length_b 7.528577
_cell_length_c 9.975374
_cell_angle_alpha 90.000000
_cell_angle_beta 90.000000
_cell_angle_gamma 90.000000
_cell_volume 1853.075601
_symmetry_space_group_name_H-M "P M M N"
_symmetry_group_IT_number 59
_space_group.IT_coordinate_system_code '2'
_symmetry_cell_setting 'orthorhombic'
loop_
_space_group_symop_operation_xyz
x,y,z
1/2-x,1/2-y,z
1/2+x,-y,-z
-x,1/2+y,-z
-x,-y,-z
1/2+x,1/2+y,-z
1/2-x,y,z
x,1/2-y,z
loop_
_atom_site_type_symbol
_atom_site_label
_atom_site_fract_x
_atom_site_fract_y
_atom_site_fract_z
Si Si1 0.691307 0.953892 0.313415
Si Si2 0.958141 0.467273 0.686305
Si Si3 0.924850 0.047992 0.982887
Si Si4 0.572585 0.547438 0.275648
Si Si5 0.842250 0.463075 0.597857
Si Si6 0.309215 0.040233 0.099753
O O1 0.750000 0.030009 0.272550
O O2 0.690167 0.750000 0.262251
O O3 0.632258 0.037740 0.283442
O O4 0.689041 0.953787 0.474727
O O5 0.959217 0.250000 0.686765
O O6 0.905805 0.518790 0.599662
O O7 0.018863 0.531683 0.655185
O O8 0.943558 0.524008 0.838893
O O9 0.943813 0.250000 0.995609
O O10 0.941136 0.949323 0.117236
O O11 0.859695 0.046043 0.973376
O O12 0.578396 0.750000 0.323208
O O13 0.840034 0.250000 0.584756
O O14 0.817903 0.510976 0.741711
O O15 0.250000 0.973863 0.061287
O O16 0.311834 0.250000 0.073593
#
# Coordination Sequence:
#
# PCOD9450311 Si02
#       6
#     8   8   8   8   8   8
#     4  10  22  38  54  75 105 142 182 219 258 311
#     4   8  17  34  55  80 107 135 172 219 270 320
#     4  10  20  34  53  80 112 140 173 222 273 320
#     4  10  20  36  56  75 104 147 185 218 259 312
#     4  10  20  35  56  81 107 134 171 222 275 322
#     4  10  20  34  54  79 106 139 180 221 263 318
#
# _framework density 25.902882000000002
#
# number of rings (size 3 to 8) (size 9 to 14) (size 15 to 20)
#    0.000    2.333    0.000    3.500    0.000    5.667 
#    0.000    5.833    0.000    0.000    0.000    0.000 
#    0.000    0.000    0.000    0.000    0.000    0.000 
#
# Total GULP energy -268415.787396 kJ/mol
# GULP energy per Si atom -5591.995571 kJ/mol
# Density = 2.584393 g / cm^3
# Si number density = 25.902882 Si / 1000 Ang^3
#
#
#
# Elastic Constant Matrix: (Units=GPa)
#
#
# Indices 1 2 3 4 5 6 
#
# 1 248.7317 7.2514 9.4797 0.0000 0.0000 0.0000
# 2 7.2514 89.2892 5.7493 0.0000 0.0000 0.0000
# 3 9.4797 5.7493 76.6238 0.0000 0.0000 0.0000
# 4 0.0000 0.0000 0.0000 14.5768 0.0000 0.0000
# 5 0.0000 0.0000 0.0000 0.0000 5.6479 0.0000
# 6 0.0000 0.0000 0.0000 0.0000 0.0000 5.8470
#
#
#
# Elastic Compliance Matrix: (Units=1/GPa)
#
#
# Indices 1 2 3 4 5 6 
#
# 1 0.004047 -0.000298 -0.000478 0.000000 0.000000 0.000000
# 2 -0.000298 0.011276 -0.000809 0.000000 0.000000 0.000000
# 3 -0.000478 -0.000809 0.013171 0.000000 0.000000 0.000000
# 4 0.000000 0.000000 0.000000 0.068602 0.000000 0.000000
# 5 0.000000 0.000000 0.000000 0.000000 0.177058 0.000000
# 6 0.000000 0.000000 0.000000 0.000000 0.000000 0.171027
#
#
# Mechanical properties :
#
#
# Convention : Reuss Voigt Hill
#
# Bulk Modulus (GPa) = 39.48993 51.06728 45.27861
# Shear Modulus (GPa) = 10.94588 31.35862 21.15225
#
# Velocity S-wave (km/s) = 2.05789 3.48318 2.86072
# Velocity P-wave (km/s) = 4.57439 5.99453 5.33195
#
# Compressibility (1/GPa) = 0.02532291
#
# Stress axis : x y z
#
# Youngs Moduli (GPa) = 247.07752 88.68499 75.92627
#
# Poissons Ratio (x) = 0.02642 0.03632
# Poissons Ratio (y) = 0.07360 0.06144
# Poissons Ratio (z) = 0.11820 0.07176
#
# Static dielectric constant tensor:
#      x y z
#    x 2.104930 0.000000 0.000000 
#    y 0.000000 1.948800 0.000000 
#    z 0.000000 0.000000 1.998580 
# 
# From -- ./inp_files/14357.got.cif
#   From: 2010.05.17/outbox.cif.g08.bks.cpg/sg59_8_cif.got.tgz:14357.got - 2010.06.03 14:40:33.
