data_PCOD9450056
_publ_section_title
;
Structure prediction by ZEFSAII (Michael W. Deem and Ramdas Pophale) SiO2 
 PCOD9450056
Probable space group: P M M N
;
_chemical_formula_sum "Si O2"
_cell_formula_units_Z 32
_cell_length_a 7.598846
_cell_length_b 18.264155
_cell_length_c 12.268784
_cell_angle_alpha 90.000000
_cell_angle_beta 90.000000
_cell_angle_gamma 90.000000
_cell_volume 1702.741605
_symmetry_space_group_name_H-M "P M M N"
_symmetry_group_IT_number 59
_space_group.IT_coordinate_system_code '2'
_symmetry_cell_setting 'orthorhombic'
loop_
_space_group_symop_operation_xyz
x,y,z
1/2-x,1/2-y,z
1/2+x,-y,-z
-x,1/2+y,-z
-x,-y,-z
1/2+x,1/2+y,-z
1/2-x,y,z
x,1/2-y,z
loop_
_atom_site_type_symbol
_atom_site_label
_atom_site_fract_x
_atom_site_fract_y
_atom_site_fract_z
Si Si1 0.250000 0.663375 0.647610
Si Si2 0.250000 0.837441 0.389969
Si Si3 0.465246 0.409163 0.761085
Si Si4 0.456556 0.168542 0.984120
Si Si5 0.947225 0.428198 0.187785
O O1 0.250000 0.750000 0.667343
O O2 0.250000 0.649304 0.519550
O O3 0.414156 0.625025 0.709284
O O4 0.250000 0.750000 0.371761
O O5 0.423370 0.872271 0.334837
O O6 0.250000 0.404922 0.745570
O O7 0.520379 0.494103 0.775366
O O8 0.520248 0.368644 0.873038
O O9 0.250000 0.176665 0.965843
O O10 0.532519 0.250000 0.002915
O O11 0.473531 0.116587 0.088598
O O12 0.750000 0.447150 0.146968
#
# Coordination Sequence:
#
# PCOD9450056 Si02
#       5
#     4   4   8   8   8
#     4   9  20  39  59  87 117 147 204 246 278 352
#     4  11  24  39  63  87 113 159 198 242 298 338
#     4  10  22  40  58  89 121 152 194 241 289 351
#     4  10  20  33  55  85 119 153 188 235 293 354
#     4   9  20  36  58  83 113 156 187 236 295 334
#
# _framework density 18.793220999999999
#
# number of rings (size 3 to 8) (size 9 to 14) (size 15 to 20)
#    0.750    1.500    0.000    2.250    3.500    2.500 
#    0.000    1.250    0.000    1.500    0.000    0.000 
#    0.000    0.000    0.000    0.000    0.000    0.000 
#
# Total GULP energy -178199.241722 kJ/mol
# GULP energy per Si atom -5568.726304 kJ/mol
# Density = 1.875045 g / cm^3
# Si number density = 18.793221 Si / 1000 Ang^3
#
#
#
# Elastic Constant Matrix: (Units=GPa)
#
#
# Indices 1 2 3 4 5 6 
#
# 1 51.9244 22.8304 24.5718 0.0000 0.0000 0.0000
# 2 22.8304 79.1131 33.0311 0.0000 0.0000 0.0000
# 3 24.5718 33.0311 100.4433 0.0000 0.0000 0.0000
# 4 0.0000 0.0000 0.0000 124.3798 0.0000 0.0000
# 5 0.0000 0.0000 0.0000 0.0000 -2.3536 0.0000
# 6 0.0000 0.0000 0.0000 0.0000 0.0000 112.2831
#
#
#
# Elastic Compliance Matrix: (Units=1/GPa)
#
#
# Indices 1 2 3 4 5 6 
#
# 1 0.023405 -0.005058 -0.004062 0.000000 0.000000 0.000000
# 2 -0.005058 0.015745 -0.003940 0.000000 0.000000 0.000000
# 3 -0.004062 -0.003940 0.012245 0.000000 0.000000 0.000000
# 4 0.000000 0.000000 0.000000 0.008040 0.000000 0.000000
# 5 0.000000 0.000000 0.000000 0.000000 -0.424883 0.000000
# 6 0.000000 0.000000 0.000000 0.000000 0.000000 0.008906
#
#
# Mechanical properties :
#
#
# Convention : Reuss Voigt Hill
#
# Bulk Modulus (GPa) = 39.56656 43.59418 41.58037
# Shear Modulus (GPa) = -15.52820 56.93169 20.70174
#
# Velocity S-wave (km/s) = -2.87760 5.50995 3.32257
# Velocity P-wave (km/s) = 3.17152 7.98288 6.07392
#
# Compressibility (1/GPa) = 0.02527387
#
# Stress axis : x y z
#
# Youngs Moduli (GPa) = 42.72570 63.51219 81.66299
#
# Poissons Ratio (x) = 0.32126 0.33174
# Poissons Ratio (y) = 0.21611 0.32179
# Poissons Ratio (z) = 0.17356 0.25026
#
# Static dielectric constant tensor:
#      x y z
#    x 1.706090 0.000000 0.000000 
#    y 0.000000 1.701260 0.000000 
#    z 0.000000 0.000000 1.609850 
# 
# From -- ./inp_files/13768.got.cif
#   From: 2010.05.17/outbox.cif.g08.bks.cpg/sg59_7_cif.got.tgz:13768.got - 2010.06.03 14:40:33.
