data_PCOD9450701
_publ_section_title
;
Structure prediction by ZEFSAII (Michael W. Deem and Ramdas Pophale) SiO2 
 PCOD9450701
Probable space group: P M M N
;
_chemical_formula_sum "Si O2"
_cell_formula_units_Z 64
_cell_length_a 8.401992
_cell_length_b 29.732113
_cell_length_c 13.727163
_cell_angle_alpha 90.000000
_cell_angle_beta 90.000000
_cell_angle_gamma 90.000000
_cell_volume 3429.168526
_symmetry_space_group_name_H-M "P M M N"
_symmetry_group_IT_number 59
_space_group.IT_coordinate_system_code '2'
_symmetry_cell_setting 'orthorhombic'
loop_
_space_group_symop_operation_xyz
x,y,z
1/2-x,1/2-y,z
1/2+x,-y,-z
-x,1/2+y,-z
-x,-y,-z
1/2+x,1/2+y,-z
1/2-x,y,z
x,1/2-y,z
loop_
_atom_site_type_symbol
_atom_site_label
_atom_site_fract_x
_atom_site_fract_y
_atom_site_fract_z
Si Si1 0.439726 0.198245 0.793502
Si Si2 0.056618 0.620799 0.815442
Si Si3 0.440908 0.862570 0.595667
Si Si4 0.060526 0.533803 0.580406
Si Si5 0.433986 0.020794 0.210189
Si Si6 0.937911 0.360061 0.973291
Si Si7 0.435071 0.458590 0.935696
Si Si8 0.057696 0.697844 0.417117
O O1 0.250000 0.198854 0.786675
O O2 0.497757 0.250000 0.804248
O O3 0.486363 0.169667 0.888185
O O4 0.504332 0.180620 0.689397
O O5 0.250000 0.618713 0.813709
O O6 0.002795 0.639192 0.709119
O O7 0.994626 0.569597 0.825952
O O8 0.007793 0.646872 0.913943
O O9 0.250000 0.855420 0.601735
O O10 0.466564 0.913507 0.559230
O O11 0.502005 0.829074 0.512185
O O12 0.250000 0.528834 0.598941
O O13 0.000000 0.500000 0.500000
O O14 0.959997 0.523188 0.675708
O O15 0.250000 0.014678 0.183565
O O16 0.536022 0.979446 0.170300
O O17 0.750000 0.351994 0.970865
O O18 0.972698 0.412411 0.951018
O O19 0.250000 0.450786 0.954993
O O20 0.500000 0.500000 0.000000
O O21 0.250000 0.696379 0.418451
O O22 0.007084 0.750000 0.423564
#
# Coordination Sequence:
#
# PCOD9450701 Si02
#       8
#     8   8   8   8   8   8   8   8
#     4  10  22  40  59  80 111 149 188 234 289 342
#     4   9  18  34  54  77 110 147 181 221 276 337
#     4   8  16  32  54  79 106 138 172 218 275 330
#     4  10  20  35  52  72 105 145 185 229 278 335
#     4  11  21  34  53  76 106 146 188 230 276 328
#     4  11  22  36  58  85 114 149 191 237 285 341
#     4  12  23  36  54  80 113 148 188 232 277 329
#     4   9  17  33  59  85 108 137 179 229 281 338
#
# _framework density 18.663416999999999
#
# number of rings (size 3 to 8) (size 9 to 14) (size 15 to 20)
#    0.000    2.000    1.250    4.125    0.000    2.250 
#    0.000    7.500    0.000    2.250    0.000    1.750 
#    0.000    0.000    0.000    0.000    0.000    0.000 
#
# Total GULP energy -356834.834228 kJ/mol
# GULP energy per Si atom -5575.544285 kJ/mol
# Density = 1.862094 g / cm^3
# Si number density = 18.663417 Si / 1000 Ang^3
#
#
#
# Elastic Constant Matrix: (Units=GPa)
#
#
# Indices 1 2 3 4 5 6 
#
# 1 26.7088 2.9924 12.9397 0.0000 0.0000 0.0000
# 2 2.9924 56.6304 65.4036 0.0000 0.0000 0.0000
# 3 12.9397 65.4036 147.0351 0.0000 0.0000 0.0000
# 4 0.0000 0.0000 0.0000 38.2777 0.0000 0.0000
# 5 0.0000 0.0000 0.0000 0.0000 19.3327 0.0000
# 6 0.0000 0.0000 0.0000 0.0000 0.0000 22.2600
#
#
#
# Elastic Compliance Matrix: (Units=1/GPa)
#
#
# Indices 1 2 3 4 5 6 
#
# 1 0.039537 0.003967 -0.005244 0.000000 0.000000 0.000000
# 2 0.003967 0.036712 -0.016679 0.000000 0.000000 0.000000
# 3 -0.005244 -0.016679 0.014682 0.000000 0.000000 0.000000
# 4 0.000000 0.000000 0.000000 0.026125 0.000000 0.000000
# 5 0.000000 0.000000 0.000000 0.000000 0.051726 0.000000
# 6 0.000000 0.000000 0.000000 0.000000 0.000000 0.044924
#
#
# Mechanical properties :
#
#
# Convention : Reuss Voigt Hill
#
# Bulk Modulus (GPa) = 18.17562 43.67176 30.92369
# Shear Modulus (GPa) = 18.65973 25.90996 22.28485
#
# Velocity S-wave (km/s) = 3.16540 3.73000 3.45924
# Velocity P-wave (km/s) = 4.80827 6.48082 5.70615
#
# Compressibility (1/GPa) = 0.05501876
#
# Stress axis : x y z
#
# Youngs Moduli (GPa) = 25.29276 27.23914 68.11162
#
# Poissons Ratio (x) = -0.10807 0.35719
# Poissons Ratio (y) = -0.10035 1.13605
# Poissons Ratio (z) = 0.13264 0.45433
#
# Static dielectric constant tensor:
#      x y z
#    x 1.648150 0.000000 0.000000 
#    y 0.000000 1.626660 0.000000 
#    z 0.000000 0.000000 1.598160 
# 
# From -- ./inp_files/14916.got.cif
#   From: 2010.05.17/outbox.cif.g08.bks.cpg/sg59_8_cif.got.tgz:14916.got - 2010.06.03 14:40:33.
