data_PCOD9450825
_publ_section_title
;
Structure prediction by ZEFSAII (Michael W. Deem and Ramdas Pophale) SiO2 
 PCOD9450825
Probable space group: P M M N
;
_chemical_formula_sum "Si O2"
_cell_formula_units_Z 48
_cell_length_a 9.757866
_cell_length_b 7.937982
_cell_length_c 29.554177
_cell_angle_alpha 90.000000
_cell_angle_beta 90.000000
_cell_angle_gamma 90.000000
_cell_volume 2289.200487
_symmetry_space_group_name_H-M "P M M N"
_symmetry_group_IT_number 59
_space_group.IT_coordinate_system_code '2'
_symmetry_cell_setting 'orthorhombic'
loop_
_space_group_symop_operation_xyz
x,y,z
1/2-x,1/2-y,z
1/2+x,-y,-z
-x,1/2+y,-z
-x,-y,-z
1/2+x,1/2+y,-z
1/2-x,y,z
x,1/2-y,z
loop_
_atom_site_type_symbol
_atom_site_label
_atom_site_fract_x
_atom_site_fract_y
_atom_site_fract_z
Si Si1 0.906777 0.456413 0.285884
Si Si2 0.909054 0.951212 0.456545
Si Si3 0.250000 0.456664 0.931432
Si Si4 0.407913 0.047521 0.370178
Si Si5 0.750000 0.548235 0.964883
Si Si6 0.398587 0.449827 0.208567
Si Si7 0.531417 0.449991 0.891581
O O1 0.750000 0.513900 0.291518
O O2 0.902340 0.250000 0.286739
O O3 0.009084 0.511112 0.325864
O O4 0.975712 0.513137 0.238748
O O5 0.750000 0.015503 0.457475
O O6 0.900226 0.750000 0.455619
O O7 0.000000 0.000000 0.500000
O O8 0.996487 0.007640 0.413062
O O9 0.250000 0.250000 0.932478
O O10 0.382167 0.513341 0.904432
O O11 0.250000 0.513261 0.983577
O O12 0.250000 0.984548 0.373658
O O13 0.398567 0.250000 0.367018
O O14 0.750000 0.750000 0.965899
O O15 0.622542 0.488165 0.935277
O O16 0.250000 0.521182 0.222273
O O17 0.393686 0.250000 0.216921
O O18 0.416283 0.474811 0.155171
O O19 0.529528 0.250000 0.884985
#
# Coordination Sequence:
#
# PCOD9450825 Si02
#       7
#     8   8   4   8   4   8   8
#     4   9  18  33  56  85 115 150 193 239 286 336
#     4  11  24  40  59  86 120 158 202 250 299 351
#     4   9  22  39  57  81 113 147 183 229 282 337
#     4  10  20  36  60  89 120 156 198 242 291 345
#     4  11  21  39  61  83 109 143 187 233 278 333
#     4  10  20  35  55  80 112 147 188 234 280 333
#     4  11  22  38  58  82 113 148 184 227 283 342
#
# _framework density 20.968019000000002
#
# number of rings (size 3 to 8) (size 9 to 14) (size 15 to 20)
#    0.000    1.833    0.833    3.250    1.167    6.333 
#    0.000    4.583    0.000    3.000    0.000    0.000 
#    0.000    0.000    0.000    0.000    0.000    0.000 
#
# Total GULP energy -268022.593475 kJ/mol
# GULP energy per Si atom -5583.804031 kJ/mol
# Density = 2.092029 g / cm^3
# Si number density = 20.968019 Si / 1000 Ang^3
#
#
#
# Elastic Constant Matrix: (Units=GPa)
#
#
# Indices 1 2 3 4 5 6 
#
# 1 210.8285 12.6099 63.1708 0.0000 0.0000 0.0000
# 2 12.6099 16.2183 -0.6260 0.0000 0.0000 0.0000
# 3 63.1708 -0.6260 106.5210 0.0000 0.0000 0.0000
# 4 0.0000 0.0000 0.0000 15.5461 0.0000 0.0000
# 5 0.0000 0.0000 0.0000 0.0000 38.1781 0.0000
# 6 0.0000 0.0000 0.0000 0.0000 0.0000 19.7488
#
#
#
# Elastic Compliance Matrix: (Units=1/GPa)
#
#
# Indices 1 2 3 4 5 6 
#
# 1 0.006136 -0.004912 -0.003668 0.000000 0.000000 0.000000
# 2 -0.004912 0.065605 0.003299 0.000000 0.000000 0.000000
# 3 -0.003668 0.003299 0.011582 0.000000 0.000000 0.000000
# 4 0.000000 0.000000 0.000000 0.064325 0.000000 0.000000
# 5 0.000000 0.000000 0.000000 0.000000 0.026193 0.000000
# 6 0.000000 0.000000 0.000000 0.000000 0.000000 0.050636
#
#
# Mechanical properties :
#
#
# Convention : Reuss Voigt Hill
#
# Bulk Modulus (GPa) = 13.74363 53.76414 33.75388
# Shear Modulus (GPa) = 19.28315 31.92214 25.60264
#
# Velocity S-wave (km/s) = 3.03586 3.90605 3.49812
# Velocity P-wave (km/s) = 4.34251 6.78526 5.69636
#
# Compressibility (1/GPa) = 0.07276098
#
# Stress axis : x y z
#
# Youngs Moduli (GPa) = 162.97353 15.24266 86.33868
#
# Poissons Ratio (x) = 0.07488 0.31667
# Poissons Ratio (y) = 0.80058 -0.28481
# Poissons Ratio (z) = 0.59774 -0.05028
#
# Static dielectric constant tensor:
#      x y z
#    x 1.672560 0.000000 0.000000 
#    y 0.000000 1.759870 0.000000 
#    z 0.000000 0.000000 1.715370 
# 
# From -- ./inp_files/33020.got.cif
#   From: 2010.05.17/outbox.cif.g08.bks.cpg/sg59_17_cif.got.tgz:33020.got - 2010.06.03 14:40:33.
