data_PCOD9450576
_publ_section_title
;
Structure prediction by ZEFSAII (Michael W. Deem and Ramdas Pophale) SiO2 
 PCOD9450576
Probable space group: P M M N
;
_chemical_formula_sum "Si O2"
_cell_formula_units_Z 56
_cell_length_a 14.330005
_cell_length_b 8.447590
_cell_length_c 22.358150
_cell_angle_alpha 90.000000
_cell_angle_beta 90.000000
_cell_angle_gamma 90.000000
_cell_volume 2706.543645
_symmetry_space_group_name_H-M "P M M N"
_symmetry_group_IT_number 59
_space_group.IT_coordinate_system_code '2'
_symmetry_cell_setting 'orthorhombic'
loop_
_space_group_symop_operation_xyz
x,y,z
1/2-x,1/2-y,z
1/2+x,-y,-z
-x,1/2+y,-z
-x,-y,-z
1/2+x,1/2+y,-z
1/2-x,y,z
x,1/2-y,z
loop_
_atom_site_type_symbol
_atom_site_label
_atom_site_fract_x
_atom_site_fract_y
_atom_site_fract_z
Si Si1 0.145382 0.060617 0.463691
Si Si2 0.490096 0.562288 0.932859
Si Si3 0.145888 0.433186 0.279809
Si Si4 0.646973 0.069374 0.848046
Si Si5 0.640537 0.939830 0.166139
Si Si6 0.947799 0.934479 0.292009
Si Si7 0.943292 0.061714 0.417375
O O1 0.250000 0.999795 0.448555
O O2 0.148838 0.250000 0.456322
O O3 0.051739 0.007234 0.428210
O O4 0.120033 0.018672 0.532103
O O5 0.501093 0.750000 0.932838
O O6 0.571037 0.479484 0.894966
O O7 0.398640 0.517396 0.894303
O O8 0.500000 0.500000 0.000000
O O9 0.250000 0.478564 0.300811
O O10 0.129556 0.250000 0.296936
O O11 0.146793 0.452591 0.208106
O O12 0.058767 0.538893 0.297026
O O13 0.750000 0.065538 0.875226
O O14 0.630326 0.250000 0.826204
O O15 0.750000 0.970248 0.173654
O O16 0.626208 0.750000 0.161045
O O17 0.586826 0.992987 0.226804
O O18 0.923973 0.750000 0.295352
O O19 0.910001 0.021106 0.350712
O O20 0.941316 0.250000 0.426548
#
# Coordination Sequence:
#
# PCOD9450576 Si02
#       7
#     8   8   8   8   8   8   8
#     4   9  19  38  61  83 114 158 204 250 303 360
#     4  12  25  41  64  90 120 156 198 248 303 360
#     4  10  20  34  55  84 117 153 191 236 294 354
#     4  10  20  36  59  86 116 149 188 235 289 351
#     4  10  23  44  66  88 119 160 205 253 304 358
#     4  11  22  37  60  88 123 164 203 247 301 360
#     4  10  21  36  57  88 122 156 200 252 304 357
#
# _framework density 20.690595999999999
#
# number of rings (size 3 to 8) (size 9 to 14) (size 15 to 20)
#    0.000    1.714    1.429    3.000    0.000    5.143 
#    0.000    2.857    0.000    0.000    0.000    0.000 
#    0.000    0.000    0.000    0.000    0.000    0.000 
#
# Total GULP energy -312614.129080 kJ/mol
# GULP energy per Si atom -5582.395162 kJ/mol
# Density = 2.064350 g / cm^3
# Si number density = 20.690596 Si / 1000 Ang^3
#
#
#
# Elastic Constant Matrix: (Units=GPa)
#
#
# Indices 1 2 3 4 5 6 
#
# 1 73.9818 11.2595 20.6231 0.0000 0.0000 0.0000
# 2 11.2595 33.3768 0.8357 0.0000 0.0000 0.0000
# 3 20.6231 0.8357 107.5900 0.0000 0.0000 0.0000
# 4 0.0000 0.0000 0.0000 24.0636 0.0000 0.0000
# 5 0.0000 0.0000 0.0000 0.0000 -1.2692 0.0000
# 6 0.0000 0.0000 0.0000 0.0000 0.0000 22.9492
#
#
#
# Elastic Compliance Matrix: (Units=1/GPa)
#
#
# Indices 1 2 3 4 5 6 
#
# 1 0.015075 -0.005014 -0.002851 0.000000 0.000000 0.000000
# 2 -0.005014 0.031634 0.000715 0.000000 0.000000 0.000000
# 3 -0.002851 0.000715 0.009835 0.000000 0.000000 0.000000
# 4 0.000000 0.000000 0.000000 0.041557 0.000000 0.000000
# 5 0.000000 0.000000 0.000000 0.000000 -0.787916 0.000000
# 6 0.000000 0.000000 0.000000 0.000000 0.000000 0.043575
#
#
# Mechanical properties :
#
#
# Convention : Reuss Voigt Hill
#
# Bulk Modulus (GPa) = 23.67082 31.15391 27.41237
# Shear Modulus (GPa) = -8.09245 21.29741 6.60248
#
# Velocity S-wave (km/s) = -1.97981 3.21179 1.78829
# Velocity P-wave (km/s) = 2.49780 5.37065 4.18825
#
# Compressibility (1/GPa) = 0.04224610
#
# Stress axis : x y z
#
# Youngs Moduli (GPa) = 66.33696 31.61108 101.67364
#
# Poissons Ratio (x) = 0.15850 0.28983
# Poissons Ratio (y) = 0.33261 -0.07273
# Poissons Ratio (z) = 0.18910 -0.02261
#
# Static dielectric constant tensor:
#      x y z
#    x 1.766150 0.000000 0.000000 
#    y 0.000000 1.780840 0.000000 
#    z 0.000000 0.000000 1.736750 
# 
# From -- ./inp_files/30367.got.cif
#   From: 2010.05.17/outbox.cif.g08.bks.cpg/sg59_16_cif.got.tgz:30367.got - 2010.06.03 14:40:33.
