data_PCOD9450447
_publ_section_title
;
Structure prediction by ZEFSAII (Michael W. Deem and Ramdas Pophale) SiO2 
 PCOD9450447
Probable space group: P M M N
;
_chemical_formula_sum "Si O2"
_cell_formula_units_Z 64
_cell_length_a 7.827065
_cell_length_b 19.503824
_cell_length_c 18.861364
_cell_angle_alpha 90.000000
_cell_angle_beta 90.000000
_cell_angle_gamma 90.000000
_cell_volume 2879.332413
_symmetry_space_group_name_H-M "P M M N"
_symmetry_group_IT_number 59
_space_group.IT_coordinate_system_code '2'
_symmetry_cell_setting 'orthorhombic'
loop_
_space_group_symop_operation_xyz
x,y,z
1/2-x,1/2-y,z
1/2+x,-y,-z
-x,1/2+y,-z
-x,-y,-z
1/2+x,1/2+y,-z
1/2-x,y,z
x,1/2-y,z
loop_
_atom_site_type_symbol
_atom_site_label
_atom_site_fract_x
_atom_site_fract_y
_atom_site_fract_z
Si Si1 0.550664 0.825626 0.931854
Si Si2 0.539718 0.530890 0.871280
Si Si3 0.050267 0.406802 0.634768
Si Si4 0.043880 0.169716 0.775125
Si Si5 0.051278 0.673783 0.662011
Si Si6 0.454331 0.171034 0.499593
Si Si7 0.949241 0.110463 0.926191
Si Si8 0.553306 0.530834 0.712840
O O1 0.750000 0.822607 0.911616
O O2 0.475570 0.750000 0.917748
O O3 0.479110 0.893882 0.894413
O O4 0.539899 0.843370 0.015261
O O5 0.750000 0.530926 0.871626
O O6 0.484804 0.467809 0.920738
O O7 0.482678 0.515661 0.790997
O O8 0.250000 0.387926 0.631858
O O9 0.980381 0.369293 0.704901
O O10 0.979337 0.379601 0.560528
O O11 0.034797 0.487028 0.651412
O O12 0.250000 0.161146 0.779686
O O13 0.007112 0.250000 0.768383
O O14 0.967783 0.141003 0.847695
O O15 0.250000 0.671798 0.681920
O O16 0.982694 0.750000 0.677641
O O17 0.036455 0.663354 0.577388
O O18 0.959679 0.611480 0.699915
O O19 0.250000 0.161146 0.488973
O O20 0.479666 0.250000 0.523331
O O21 0.750000 0.108984 0.945601
O O22 0.750000 0.510088 0.711593
#
# Coordination Sequence:
#
# PCOD9450447 Si02
#       8
#     8   8   8   8   8   8   8   8
#     4  10  21  38  59  82 108 141 185 233 280 334
#     4   9  20  38  58  81 110 146 187 231 278 332
#     4  10  20  35  56  83 116 150 187 233 283 332
#     4  10  20  34  54  81 113 151 191 227 271 331
#     4  10  22  40  60  84 114 147 187 236 288 339
#     4   9  18  35  59  85 113 149 193 237 282 335
#     4  11  21  36  56  81 114 147 182 228 279 332
#     4  11  22  38  60  85 114 148 191 235 279 338
#
# _framework density 22.227374000000001
#
# number of rings (size 3 to 8) (size 9 to 14) (size 15 to 20)
#    0.000    2.000    1.250    2.250    0.000    5.750 
#    0.000    3.125    0.000    2.250    0.000    0.000 
#    0.000    0.000    0.000    0.000    0.000    0.000 
#
# Total GULP energy -357541.745635 kJ/mol
# GULP energy per Si atom -5586.589776 kJ/mol
# Density = 2.217678 g / cm^3
# Si number density = 22.227374 Si / 1000 Ang^3
#
#
#
# Elastic Constant Matrix: (Units=GPa)
#
#
# Indices 1 2 3 4 5 6 
#
# 1 32.0946 6.0448 -4.4111 0.0000 0.0000 0.0000
# 2 6.0448 95.4843 -9.4986 0.0000 0.0000 0.0000
# 3 -4.4111 -9.4986 6.7554 0.0000 0.0000 0.0000
# 4 0.0000 0.0000 0.0000 32.9637 0.0000 0.0000
# 5 0.0000 0.0000 0.0000 0.0000 13.0386 0.0000
# 6 0.0000 0.0000 0.0000 0.0000 0.0000 -12.4366
#
#
#
# Elastic Compliance Matrix: (Units=1/GPa)
#
#
# Indices 1 2 3 4 5 6 
#
# 1 0.034230 0.000066 0.022444 0.000000 0.000000 0.000000
# 2 0.000066 0.012176 0.017164 0.000000 0.000000 0.000000
# 3 0.022444 0.017164 0.186819 0.000000 0.000000 0.000000
# 4 0.000000 0.000000 0.000000 0.030336 0.000000 0.000000
# 5 0.000000 0.000000 0.000000 0.000000 0.076696 0.000000
# 6 0.000000 0.000000 0.000000 0.000000 0.000000 -0.080408
#
#
# Mechanical properties :
#
#
# Convention : Reuss Voigt Hill
#
# Bulk Modulus (GPa) = 3.19926 13.17827 8.18877
# Shear Modulus (GPa) = 17.56270 16.19308 16.87789
#
# Velocity S-wave (km/s) = 2.81399 2.70204 2.75858
# Velocity P-wave (km/s) = 3.46417 3.95934 3.72001
#
# Compressibility (1/GPa) = 0.31257206
#
# Stress axis : x y z
#
# Youngs Moduli (GPa) = 29.21400 82.12755 5.35276
#
# Poissons Ratio (x) = -0.00539 -0.12014
# Poissons Ratio (y) = -0.00192 -0.09187
# Poissons Ratio (z) = -0.65567 -1.40961
#
# Static dielectric constant tensor:
#      x y z
#    x 1.821530 0.000000 0.000000 
#    y 0.000000 1.831310 0.000000 
#    z 0.000000 0.000000 1.798630 
# 
# From -- ./inp_files/29579.got.cif
#   From: 2010.05.17/outbox.cif.g08.bks.cpg/sg59_15_cif.got.tgz:29579.got - 2010.06.03 14:40:33.
