data_PCOD9450139
_publ_section_title
;
Structure prediction by ZEFSAII (Michael W. Deem and Ramdas Pophale) SiO2 
 PCOD9450139
Probable space group: P M M N
;
_chemical_formula_sum "Si O2"
_cell_formula_units_Z 48
_cell_length_a 9.272658
_cell_length_b 7.542434
_cell_length_c 35.970807
_cell_angle_alpha 90.000000
_cell_angle_beta 90.000000
_cell_angle_gamma 90.000000
_cell_volume 2515.741083
_symmetry_space_group_name_H-M "P M M N"
_symmetry_group_IT_number 59
_space_group.IT_coordinate_system_code '2'
_symmetry_cell_setting 'orthorhombic'
loop_
_space_group_symop_operation_xyz
x,y,z
1/2-x,1/2-y,z
1/2+x,-y,-z
-x,1/2+y,-z
-x,-y,-z
1/2+x,1/2+y,-z
1/2-x,y,z
x,1/2-y,z
loop_
_atom_site_type_symbol
_atom_site_label
_atom_site_fract_x
_atom_site_fract_y
_atom_site_fract_z
Si Si1 0.084213 0.966462 0.110246
Si Si2 0.422335 0.458826 0.814434
Si Si3 0.925183 0.250000 0.244745
Si Si4 0.074770 0.750000 0.670783
Si Si5 0.077671 0.040575 0.611524
Si Si6 0.913579 0.537234 0.037563
Si Si7 0.586898 0.462397 0.537462
O O1 0.250000 0.024241 0.109470
O O2 0.083945 0.750000 0.109486
O O3 0.004741 0.016361 0.148320
O O4 0.998254 0.028458 0.073885
O O5 0.250000 0.479951 0.820299
O O6 0.449696 0.250000 0.808035
O O7 0.465957 0.578199 0.779438
O O8 0.750000 0.250000 0.246537
O O9 0.979163 0.250000 0.286976
O O10 0.250000 0.750000 0.672501
O O11 0.033892 0.577769 0.646703
O O12 0.250000 0.019901 0.605887
O O13 0.049932 0.250000 0.617482
O O14 0.996557 0.977616 0.574385
O O15 0.750000 0.469043 0.035658
O O16 0.905636 0.750000 0.041176
O O17 0.000000 0.500000 0.000000
O O18 0.500000 0.500000 0.500000
O O19 0.750000 0.531965 0.535460
O O20 0.594376 0.250000 0.540590
#
# Coordination Sequence:
#
# PCOD9450139 Si02
#       7
#     8   8   4   4   8   8   8
#     4   9  17  31  52  74  98 133 173 212 259 313
#     4   9  17  31  52  76 103 135 171 214 265 318
#     4   9  18  32  51  81 111 133 171 223 269 319
#     4   9  18  32  53  79 107 139 175 219 269 321
#     4   9  18  33  52  75 105 140 179 221 265 317
#     4  10  20  34  52  75 104 137 176 218 260 313
#     4  10  21  35  52  76 106 139 177 223 271 319
#
# _framework density 19.079865999999999
#
# number of rings (size 3 to 8) (size 9 to 14) (size 15 to 20)
#    0.000    2.667    0.000    1.500    1.167    4.667 
#    1.500    3.750    0.000    2.000    0.000    4.667 
#    0.000    0.000    0.000    0.000    0.000    0.000 
#
# Total GULP energy -267875.168079 kJ/mol
# GULP energy per Si atom -5580.732668 kJ/mol
# Density = 1.903644 g / cm^3
# Si number density = 19.079866 Si / 1000 Ang^3
#
#
#
# Elastic Constant Matrix: (Units=GPa)
#
#
# Indices 1 2 3 4 5 6 
#
# 1 97.4072 39.3888 90.8957 0.0000 0.0000 0.0000
# 2 39.3888 70.3509 61.4401 0.0000 0.0000 0.0000
# 3 90.8957 61.4401 229.7398 0.0000 0.0000 0.0000
# 4 0.0000 0.0000 0.0000 30.8546 0.0000 0.0000
# 5 0.0000 0.0000 0.0000 0.0000 25.6616 0.0000
# 6 0.0000 0.0000 0.0000 0.0000 0.0000 10.5528
#
#
#
# Elastic Compliance Matrix: (Units=1/GPa)
#
#
# Indices 1 2 3 4 5 6 
#
# 1 0.017474 -0.004887 -0.005607 0.000000 0.000000 0.000000
# 2 -0.004887 0.019913 -0.003392 0.000000 0.000000 0.000000
# 3 -0.005607 -0.003392 0.007478 0.000000 0.000000 0.000000
# 4 0.000000 0.000000 0.000000 0.032410 0.000000 0.000000
# 5 0.000000 0.000000 0.000000 0.000000 0.038969 0.000000
# 6 0.000000 0.000000 0.000000 0.000000 0.000000 0.094761
#
#
# Mechanical properties :
#
#
# Convention : Reuss Voigt Hill
#
# Bulk Modulus (GPa) = 58.49989 86.77191 72.63590
# Shear Modulus (GPa) = 20.45203 27.13204 23.79203
#
# Velocity S-wave (km/s) = 3.27757 3.77507 3.53508
# Velocity P-wave (km/s) = 6.71196 8.03607 7.40368
#
# Compressibility (1/GPa) = 0.01709405
#
# Stress axis : x y z
#
# Youngs Moduli (GPa) = 57.22705 50.21864 133.72441
#
# Poissons Ratio (x) = 0.24543 0.74974
# Poissons Ratio (y) = 0.27968 0.45356
# Poissons Ratio (z) = 0.32085 0.17033
#
# Static dielectric constant tensor:
#      x y z
#    x 1.654950 0.000000 0.000000 
#    y 0.000000 1.697910 0.000000 
#    z 0.000000 0.000000 1.625440 
# 
# From -- ./inp_files/33070.got.cif
#   From: 2010.05.17/outbox.cif.g08.bks.cpg/sg59_17_cif.got.tgz:33070.got - 2010.06.03 14:40:33.
