data_PCOD9450754
_publ_section_title
;
Structure prediction by ZEFSAII (Michael W. Deem and Ramdas Pophale) SiO2 
 PCOD9450754
Probable space group: P M M N
;
_chemical_formula_sum "Si O2"
_cell_formula_units_Z 56
_cell_length_a 15.349191
_cell_length_b 8.633771
_cell_length_c 22.017771
_cell_angle_alpha 90.000000
_cell_angle_beta 90.000000
_cell_angle_gamma 90.000000
_cell_volume 2917.825841
_symmetry_space_group_name_H-M "P M M N"
_symmetry_group_IT_number 59
_space_group.IT_coordinate_system_code '2'
_symmetry_cell_setting 'orthorhombic'
loop_
_space_group_symop_operation_xyz
x,y,z
1/2-x,1/2-y,z
1/2+x,-y,-z
-x,1/2+y,-z
-x,-y,-z
1/2+x,1/2+y,-z
1/2-x,y,z
x,1/2-y,z
loop_
_atom_site_type_symbol
_atom_site_label
_atom_site_fract_x
_atom_site_fract_y
_atom_site_fract_z
Si Si1 0.412160 0.926454 0.078968
Si Si2 0.569131 0.063404 0.664306
Si Si3 0.967156 0.563397 0.796480
Si Si4 0.447413 0.563088 0.559285
Si Si5 0.250000 0.938327 0.535189
Si Si6 0.117584 0.074998 0.956180
Si Si7 0.750000 0.438004 0.604269
Si Si8 0.157971 0.566260 0.832055
O O1 0.381167 0.750000 0.082800
O O2 0.513626 0.923234 0.057489
O O3 0.413498 0.004674 0.144981
O O4 0.366223 0.017298 0.024284
O O5 0.563900 0.250000 0.663559
O O6 0.662122 0.013520 0.637129
O O7 0.563155 0.002102 0.732552
O O8 0.495785 0.995679 0.619600
O O9 0.966096 0.750000 0.796514
O O10 0.067338 0.506310 0.805458
O O11 0.500000 0.500000 0.500000
O O12 0.449867 0.750000 0.556232
O O13 0.345087 0.514116 0.560322
O O14 0.250000 0.750000 0.537668
O O15 0.250000 0.989056 0.465135
O O16 0.148649 0.250000 0.947914
O O17 0.154434 0.965763 0.903957
O O18 0.750000 0.250000 0.603463
O O19 0.250000 0.502253 0.808196
O O20 0.157749 0.750000 0.821753
#
# Coordination Sequence:
#
# PCOD9450754 Si02
#       8
#     8   8   8   8   4   8   4   8
#     4   9  16  28  48  73 100 134 175 218 271 330
#     4  11  22  39  61  85 115 150 191 234 282 341
#     4  10  20  35  54  78 109 145 188 232 279 332
#     4  11  21  37  61  89 119 153 192 235 281 333
#     4   9  18  36  60  86 118 156 189 224 279 342
#     4   9  16  26  45  74 102 129 168 222 276 322
#     4   9  18  36  62  86 110 148 187 222 277 348
#     4   9  18  33  52  73 102 144 189 227 271 337
#
# _framework density 19.192371000000001
#
# number of rings (size 3 to 8) (size 9 to 14) (size 15 to 20)
#    0.000    2.286    1.429    2.143    0.000    4.286 
#    1.286    3.571    1.571    0.000    0.000    0.000 
#    0.000    0.000    0.000    0.000    0.000    0.000 
#
# Total GULP energy -312253.592782 kJ/mol
# GULP energy per Si atom -5575.957014 kJ/mol
# Density = 1.914869 g / cm^3
# Si number density = 19.192371 Si / 1000 Ang^3
#
#
#
# Elastic Constant Matrix: (Units=GPa)
#
#
# Indices 1 2 3 4 5 6 
#
# 1 99.8454 8.2475 43.5459 0.0000 0.0000 0.0000
# 2 8.2475 41.9012 23.1599 0.0000 0.0000 0.0000
# 3 43.5459 23.1599 126.7959 0.0000 0.0000 0.0000
# 4 0.0000 0.0000 0.0000 33.9317 0.0000 0.0000
# 5 0.0000 0.0000 0.0000 0.0000 -17.3414 0.0000
# 6 0.0000 0.0000 0.0000 0.0000 0.0000 14.1919
#
#
#
# Elastic Compliance Matrix: (Units=1/GPa)
#
#
# Indices 1 2 3 4 5 6 
#
# 1 0.011780 -0.000092 -0.004029 0.000000 0.000000 0.000000
# 2 -0.000092 0.026546 -0.004817 0.000000 0.000000 0.000000
# 3 -0.004029 -0.004817 0.010150 0.000000 0.000000 0.000000
# 4 0.000000 0.000000 0.000000 0.029471 0.000000 0.000000
# 5 0.000000 0.000000 0.000000 0.000000 -0.057665 0.000000
# 6 0.000000 0.000000 0.000000 0.000000 0.000000 0.070463
#
#
# Mechanical properties :
#
#
# Convention : Reuss Voigt Hill
#
# Bulk Modulus (GPa) = 32.67893 46.49433 39.58663
# Shear Modulus (GPa) = 42.07997 19.06239 30.57118
#
# Velocity S-wave (km/s) = 4.68753 3.15497 3.99542
# Velocity P-wave (km/s) = 6.80891 6.12779 6.47731
#
# Compressibility (1/GPa) = 0.03060076
#
# Stress axis : x y z
#
# Youngs Moduli (GPa) = 84.88802 37.66989 98.51961
#
# Poissons Ratio (x) = 0.00346 0.39693
# Poissons Ratio (y) = 0.00780 0.47460
# Poissons Ratio (z) = 0.34201 0.18147
#
# Static dielectric constant tensor:
#      x y z
#    x 1.744030 0.000000 0.000000 
#    y 0.000000 1.661260 0.000000 
#    z 0.000000 0.000000 1.630020 
# 
# From -- ./inp_files/30474.got.cif
#   From: 2010.05.17/outbox.cif.g08.bks.cpg/sg59_16_cif.got.tgz:30474.got - 2010.06.03 14:40:33.
