data_PCOD9450955
_publ_section_title
;
Structure prediction by ZEFSAII (Michael W. Deem and Ramdas Pophale) SiO2 
 PCOD9450955
Probable space group: P M M N
;
_chemical_formula_sum "Si O2"
_cell_formula_units_Z 48
_cell_length_a 8.917205
_cell_length_b 30.724623
_cell_length_c 9.785138
_cell_angle_alpha 90.000000
_cell_angle_beta 90.000000
_cell_angle_gamma 90.000000
_cell_volume 2680.910209
_symmetry_space_group_name_H-M "P M M N"
_symmetry_group_IT_number 59
_space_group.IT_coordinate_system_code '2'
_symmetry_cell_setting 'orthorhombic'
loop_
_space_group_symop_operation_xyz
x,y,z
1/2-x,1/2-y,z
1/2+x,-y,-z
-x,1/2+y,-z
-x,-y,-z
1/2+x,1/2+y,-z
1/2-x,y,z
x,1/2-y,z
loop_
_atom_site_type_symbol
_atom_site_label
_atom_site_fract_x
_atom_site_fract_y
_atom_site_fract_z
Si Si1 0.570049 0.049709 0.643065
Si Si2 0.069376 0.626125 0.153918
Si Si3 0.070015 0.198965 0.343819
Si Si4 0.428957 0.448442 0.350114
Si Si5 0.430542 0.199647 0.658459
Si Si6 0.429871 0.624520 0.838185
O O1 0.750000 0.052503 0.622465
O O2 0.526896 0.082508 0.763428
O O3 0.489467 0.061949 0.501777
O O4 0.534640 0.999341 0.675034
O O5 0.250000 0.629030 0.156225
O O6 0.003049 0.666828 0.235570
O O7 0.021510 0.624981 0.996365
O O8 0.250000 0.193256 0.332601
O O9 0.037653 0.250000 0.319520
O O10 0.027584 0.188908 0.501328
O O11 0.988297 0.167155 0.240245
O O12 0.250000 0.443050 0.346903
O O13 0.504099 0.416888 0.241093
O O14 0.250000 0.196930 0.666482
O O15 0.472544 0.250000 0.683865
O O16 0.250000 0.623043 0.833230
#
# Coordination Sequence:
#
# PCOD9450955 Si02
#       6
#     8   8   8   8   8   8
#     4   9  19  37  58  79 105 137 174 219 268 314
#     4  10  22  37  52  75 108 143 176 212 258 312
#     4   9  19  37  59  81 105 135 175 221 265 312
#     4  10  20  35  57  82 105 134 176 221 264 313
#     4   9  19  36  57  80 104 132 171 218 263 308
#     4  11  23  36  51  76 111 145 176 213 258 310
#
# _framework density 17.904366
#
# number of rings (size 3 to 8) (size 9 to 14) (size 15 to 20)
#    0.000    2.333    0.000    3.000    0.000    8.000 
#    0.000    5.000    0.000    0.000    0.000    0.000 
#    0.000    0.000    0.000    0.000    0.000    0.000 
#
# Total GULP energy -268000.636046 kJ/mol
# GULP energy per Si atom -5583.346584 kJ/mol
# Density = 1.786361 g / cm^3
# Si number density = 17.904366 Si / 1000 Ang^3
#
#
#
# Elastic Constant Matrix: (Units=GPa)
#
#
# Indices 1 2 3 4 5 6 
#
# 1 30.9643 48.2180 59.6250 0.0000 0.0000 0.0000
# 2 48.2180 120.3487 126.0041 0.0000 0.0000 0.0000
# 3 59.6250 126.0041 194.5759 0.0000 0.0000 0.0000
# 4 0.0000 0.0000 0.0000 -18.0114 0.0000 0.0000
# 5 0.0000 0.0000 0.0000 0.0000 28.4585 0.0000
# 6 0.0000 0.0000 0.0000 0.0000 0.0000 31.3499
#
#
#
# Elastic Compliance Matrix: (Units=1/GPa)
#
#
# Indices 1 2 3 4 5 6 
#
# 1 0.096975 -0.024039 -0.014149 0.000000 0.000000 0.000000
# 2 -0.024039 0.031765 -0.013204 0.000000 0.000000 0.000000
# 3 -0.014149 -0.013204 0.018026 0.000000 0.000000 0.000000
# 4 0.000000 0.000000 0.000000 -0.055520 0.000000 0.000000
# 5 0.000000 0.000000 0.000000 0.000000 0.035139 0.000000
# 6 0.000000 0.000000 0.000000 0.000000 0.000000 0.031898
#
#
# Mechanical properties :
#
#
# Convention : Reuss Voigt Hill
#
# Bulk Modulus (GPa) = 22.73697 90.39814 56.56755
# Shear Modulus (GPa) = 18.13379 15.82886 16.98133
#
# Velocity S-wave (km/s) = 3.18593 2.97657 3.08303
# Velocity P-wave (km/s) = 5.12447 7.90015 6.65855
#
# Compressibility (1/GPa) = 0.04398123
#
# Stress axis : x y z
#
# Youngs Moduli (GPa) = 10.31192 31.48110 55.47522
#
# Poissons Ratio (x) = 0.75677 0.78494
# Poissons Ratio (y) = 0.24789 0.73250
# Poissons Ratio (z) = 0.14591 0.41568
#
# Static dielectric constant tensor:
#      x y z
#    x 1.598760 0.000000 0.000000 
#    y 0.000000 1.604120 0.000000 
#    z 0.000000 0.000000 1.584340 
# 
# From -- ./inp_files/6228.got.cif
#   From: 2010.05.17/outbox.cif.g08.bks.cpg/sg59_4_cif.got.tgz:6228.got - 2010.06.03 14:40:33.
