data_PCOD9450082
_publ_section_title
;
Structure prediction by ZEFSAII (Michael W. Deem and Ramdas Pophale) SiO2 
 PCOD9450082
Probable space group: P M M N
;
_chemical_formula_sum "Si O2"
_cell_formula_units_Z 64
_cell_length_a 14.313536
_cell_length_b 8.620370
_cell_length_c 32.960778
_cell_angle_alpha 90.000000
_cell_angle_beta 90.000000
_cell_angle_gamma 90.000000
_cell_volume 4066.963696
_symmetry_space_group_name_H-M "P M M N"
_symmetry_group_IT_number 59
_space_group.IT_coordinate_system_code '2'
_symmetry_cell_setting 'orthorhombic'
loop_
_space_group_symop_operation_xyz
x,y,z
1/2-x,1/2-y,z
1/2+x,-y,-z
-x,1/2+y,-z
-x,-y,-z
1/2+x,1/2+y,-z
1/2-x,y,z
x,1/2-y,z
loop_
_atom_site_type_symbol
_atom_site_label
_atom_site_fract_x
_atom_site_fract_y
_atom_site_fract_z
Si Si1 0.641385 0.439849 0.856997
Si Si2 0.644112 0.937459 0.017065
Si Si3 0.137784 0.568779 0.474379
Si Si4 0.141412 0.938123 0.320279
Si Si5 0.468075 0.066188 0.396824
Si Si6 0.357928 0.435326 0.562303
Si Si7 0.136482 0.929527 0.231506
Si Si8 0.958781 0.062383 0.938447
O O1 0.750000 0.483820 0.863740
O O2 0.640245 0.250000 0.855542
O O3 0.610040 0.496954 0.812346
O O4 0.577740 0.489302 0.894558
O O5 0.750000 0.988797 0.025768
O O6 0.643843 0.750000 0.015619
O O7 0.608878 0.999934 0.973737
O O8 0.564105 0.985091 0.049252
O O9 0.250000 0.557354 0.470071
O O10 0.111966 0.750000 0.475452
O O11 0.090304 0.490242 0.435953
O O12 0.113136 0.491612 0.517318
O O13 0.250000 0.983728 0.326928
O O14 0.139870 0.750000 0.319463
O O15 0.110622 0.996136 0.275463
O O16 0.077959 0.996634 0.356583
O O17 0.465971 0.250000 0.394761
O O18 0.572586 0.007182 0.405126
O O19 0.250000 0.482464 0.568194
O O20 0.363482 0.250000 0.563621
O O21 0.250000 0.927228 0.231344
O O22 0.105046 0.750000 0.231588
O O23 0.955018 0.250000 0.939274
#
# Coordination Sequence:
#
# PCOD9450082 Si02
#       8
#     8   8   8   8   8   8   8   8
#     4   8  12  19  35  60  83 100 128 173 215 247
#     4   9  17  27  36  50  79 114 141 170 212 254
#     4  10  20  34  51  70  94 122 150 180 213 251
#     4   9  17  30  47  66  89 116 145 175 209 255
#     4  12  23  32  46  68  94 121 148 178 212 254
#     4  10  21  37  54  69  87 113 147 186 222 254
#     4   7  11  21  38  60  84 107 131 166 213 256
#     4   9  16  25  39  58  77 103 143 181 209 247
#
# _framework density 15.736556
#
# number of rings (size 3 to 8) (size 9 to 14) (size 15 to 20)
#    0.000    2.750    0.000    4.500    0.000    4.000 
#    0.000    0.000    0.000    0.750    0.000    2.625 
#    0.000    5.000    0.000    0.125    0.000    0.625 
#
# Total GULP energy -356608.064563 kJ/mol
# GULP energy per Si atom -5572.001009 kJ/mol
# Density = 1.570074 g / cm^3
# Si number density = 15.736556 Si / 1000 Ang^3
#
#
#
# Elastic Constant Matrix: (Units=GPa)
#
#
# Indices 1 2 3 4 5 6 
#
# 1 83.1311 19.2979 71.0127 0.0000 0.0000 0.0000
# 2 19.2979 23.8029 24.3662 0.0000 0.0000 0.0000
# 3 71.0127 24.3662 153.7635 0.0000 0.0000 0.0000
# 4 0.0000 0.0000 0.0000 15.6428 0.0000 0.0000
# 5 0.0000 0.0000 0.0000 0.0000 29.7861 0.0000
# 6 0.0000 0.0000 0.0000 0.0000 0.0000 14.8215
#
#
#
# Elastic Compliance Matrix: (Units=1/GPa)
#
#
# Indices 1 2 3 4 5 6 
#
# 1 0.021236 -0.008567 -0.008450 0.000000 0.000000 0.000000
# 2 -0.008567 0.053602 -0.004538 0.000000 0.000000 0.000000
# 3 -0.008450 -0.004538 0.011125 0.000000 0.000000 0.000000
# 4 0.000000 0.000000 0.000000 0.063927 0.000000 0.000000
# 5 0.000000 0.000000 0.000000 0.000000 0.033573 0.000000
# 6 0.000000 0.000000 0.000000 0.000000 0.000000 0.067470
#
#
# Mechanical properties :
#
#
# Convention : Reuss Voigt Hill
#
# Bulk Modulus (GPa) = 23.33492 54.45014 38.89253
# Shear Modulus (GPa) = 16.21659 21.78480 19.00069
#
# Velocity S-wave (km/s) = 3.21363 3.72471 3.47857
# Velocity P-wave (km/s) = 5.35075 7.29206 6.39549
#
# Compressibility (1/GPa) = 0.04285423
#
# Stress axis : x y z
#
# Youngs Moduli (GPa) = 47.08984 18.65596 89.88800
#
# Poissons Ratio (x) = 0.15983 0.75954
# Poissons Ratio (y) = 0.40342 0.40788
# Poissons Ratio (z) = 0.39790 0.08465
#
# Static dielectric constant tensor:
#      x y z
#    x 1.529930 0.000000 0.000000 
#    y 0.000000 1.536000 0.000000 
#    z 0.000000 0.000000 1.535610 
# 
# From -- ./inp_files/33313.got.cif
#   From: 2010.05.17/outbox.cif.g08.bks.cpg/sg59_17_cif.got.tgz:33313.got - 2010.06.03 14:40:33.
