data_PCOD9450400
_publ_section_title
;
Structure prediction by ZEFSAII (Michael W. Deem and Ramdas Pophale) SiO2 
 PCOD9450400
Probable space group: P M M N
;
_chemical_formula_sum "Si O2"
_cell_formula_units_Z 64
_cell_length_a 8.355542
_cell_length_b 19.202727
_cell_length_c 21.811424
_cell_angle_alpha 90.000000
_cell_angle_beta 90.000000
_cell_angle_gamma 90.000000
_cell_volume 3499.625356
_symmetry_space_group_name_H-M "P M M N"
_symmetry_group_IT_number 59
_space_group.IT_coordinate_system_code '2'
_symmetry_cell_setting 'orthorhombic'
loop_
_space_group_symop_operation_xyz
x,y,z
1/2-x,1/2-y,z
1/2+x,-y,-z
-x,1/2+y,-z
-x,-y,-z
1/2+x,1/2+y,-z
1/2-x,y,z
x,1/2-y,z
loop_
_atom_site_type_symbol
_atom_site_label
_atom_site_fract_x
_atom_site_fract_y
_atom_site_fract_z
Si Si1 0.442077 0.420986 0.495212
Si Si2 0.941925 0.033695 0.810877
Si Si3 0.556574 0.395800 0.250734
Si Si4 0.941252 0.468440 0.063444
Si Si5 0.945141 0.327550 0.122451
Si Si6 0.442782 0.170086 0.609880
Si Si7 0.056342 0.669510 0.619917
Si Si8 0.442360 0.671671 0.253629
O O1 0.500000 0.500000 0.500000
O O2 0.250000 0.420106 0.494480
O O3 0.498007 0.380069 0.555952
O O4 0.501433 0.379489 0.435535
O O5 0.750000 0.034193 0.812277
O O6 0.001101 0.109283 0.789170
O O7 0.996326 0.973425 0.763740
O O8 0.004149 0.012748 0.877762
O O9 0.750000 0.397783 0.251414
O O10 0.508782 0.349603 0.191662
O O11 0.502729 0.362692 0.314818
O O12 0.750000 0.467130 0.062775
O O13 0.998312 0.389398 0.077468
O O14 0.000000 0.500000 0.000000
O O15 0.750000 0.326744 0.121351
O O16 0.001433 0.250000 0.107629
O O17 0.250000 0.165594 0.614494
O O18 0.484208 0.250000 0.594436
O O19 0.514171 0.154424 0.676279
O O20 0.250000 0.670268 0.620560
O O21 0.002387 0.750000 0.612969
O O22 0.250000 0.673812 0.248513
O O23 0.503621 0.750000 0.240470
#
# Coordination Sequence:
#
# PCOD9450400 Si02
#       8
#     8   8   8   8   8   8   8   8
#     4  11  24  39  54  75 105 141 183 229 278 331
#     4  10  20  34  54  80 109 140 175 218 264 313
#     4   9  18  32  53  80 109 140 174 215 263 318
#     4  10  20  35  56  80 108 144 179 216 260 309
#     4   8  14  28  52  79 103 132 174 216 252 297
#     4   9  19  36  56  75  97 131 174 222 275 327
#     4  10  21  37  57  81 109 143 181 222 272 330
#     4   9  19  35  55  79 105 135 175 222 268 315
#
# _framework density 18.287671
#
# number of rings (size 3 to 8) (size 9 to 14) (size 15 to 20)
#    0.000    2.500    0.000    2.625    1.750    4.750 
#    0.000    1.875    0.000   16.125    0.000    0.000 
#    0.000    0.000    0.000    0.000    0.000    0.000 
#
# Total GULP energy -357037.893100 kJ/mol
# GULP energy per Si atom -5578.717080 kJ/mol
# Density = 1.824605 g / cm^3
# Si number density = 18.287671 Si / 1000 Ang^3
#
#
#
# Elastic Constant Matrix: (Units=GPa)
#
#
# Indices 1 2 3 4 5 6 
#
# 1 15.8048 25.0153 17.3733 0.0000 0.0000 0.0000
# 2 25.0153 183.4252 124.2530 0.0000 0.0000 0.0000
# 3 17.3733 124.2530 119.1799 0.0000 0.0000 0.0000
# 4 0.0000 0.0000 0.0000 25.5943 0.0000 0.0000
# 5 0.0000 0.0000 0.0000 0.0000 28.8046 0.0000
# 6 0.0000 0.0000 0.0000 0.0000 0.0000 24.9518
#
#
#
# Elastic Compliance Matrix: (Units=1/GPa)
#
#
# Indices 1 2 3 4 5 6 
#
# 1 0.080723 -0.010341 -0.000986 0.000000 0.000000 0.000000
# 2 -0.010341 0.019883 -0.019222 0.000000 0.000000 0.000000
# 3 -0.000986 -0.019222 0.028575 0.000000 0.000000 0.000000
# 4 0.000000 0.000000 0.000000 0.039071 0.000000 0.000000
# 5 0.000000 0.000000 0.000000 0.000000 0.034717 0.000000
# 6 0.000000 0.000000 0.000000 0.000000 0.000000 0.040077
#
#
# Mechanical properties :
#
#
# Convention : Reuss Voigt Hill
#
# Bulk Modulus (GPa) = 14.68807 72.41037 43.54922
# Shear Modulus (GPa) = 15.29802 25.98802 20.64302
#
# Velocity S-wave (km/s) = 2.89541 3.77380 3.36340
# Velocity P-wave (km/s) = 4.38485 7.65962 6.24087
#
# Compressibility (1/GPa) = 0.06808245
#
# Stress axis : x y z
#
# Youngs Moduli (GPa) = 12.38805 50.29333 34.99558
#
# Poissons Ratio (x) = 0.52007 0.03452
# Poissons Ratio (y) = 0.12810 0.67270
# Poissons Ratio (z) = 0.01222 0.96675
#
# Static dielectric constant tensor:
#      x y z
#    x 1.635850 0.000000 0.000000 
#    y 0.000000 1.684160 0.000000 
#    z 0.000000 0.000000 1.613910 
# 
# From -- ./inp_files/29600.got.cif
#   From: 2010.05.17/outbox.cif.g08.bks.cpg/sg59_15_cif.got.tgz:29600.got - 2010.06.03 14:40:33.
