data_PCOD9450912
_publ_section_title
;
Structure prediction by ZEFSAII (Michael W. Deem and Ramdas Pophale) SiO2 
 PCOD9450912
Probable space group: P M M N
;
_chemical_formula_sum "Si O2"
_cell_formula_units_Z 48
_cell_length_a 18.647330
_cell_length_b 16.540595
_cell_length_c 8.985946
_cell_angle_alpha 90.000000
_cell_angle_beta 90.000000
_cell_angle_gamma 90.000000
_cell_volume 2771.606614
_symmetry_space_group_name_H-M "P M M N"
_symmetry_group_IT_number 59
_space_group.IT_coordinate_system_code '2'
_symmetry_cell_setting 'orthorhombic'
loop_
_space_group_symop_operation_xyz
x,y,z
1/2-x,1/2-y,z
1/2+x,-y,-z
-x,1/2+y,-z
-x,-y,-z
1/2+x,1/2+y,-z
1/2-x,y,z
x,1/2-y,z
loop_
_atom_site_type_symbol
_atom_site_label
_atom_site_fract_x
_atom_site_fract_y
_atom_site_fract_z
Si Si1 0.947857 0.660337 0.197349
Si Si2 0.888893 0.343317 0.889431
Si Si3 0.332401 0.571920 0.820980
Si Si4 0.831413 0.595511 0.992069
Si Si5 0.664701 0.002908 0.710923
Si Si6 0.076135 0.011940 0.581254
O O1 0.948122 0.750000 0.264040
O O2 0.886551 0.653308 0.073155
O O3 0.932813 0.591926 0.319137
O O4 0.025160 0.647030 0.121234
O O5 0.871157 0.250000 0.853935
O O6 0.858579 0.409318 0.773460
O O7 0.858961 0.365944 0.052694
O O8 0.250000 0.589894 0.771748
O O9 0.328936 0.486144 0.908053
O O10 0.390609 0.557119 0.690603
O O11 0.750000 0.626759 0.981324
O O12 0.858102 0.563864 0.832675
O O13 0.750000 0.001787 0.707433
O O14 0.632473 0.982439 0.552251
O O15 0.000000 0.000000 0.500000
#
# Coordination Sequence:
#
# PCOD9450912 Si02
#       6
#     8   8   8   8   8   8
#     4  10  21  36  55  81 111 142 184 229 277 332
#     4  10  20  35  56  83 111 144 185 232 280 322
#     4   9  19  34  54  79 106 139 181 223 265 325
#     4   8  17  33  55  78 102 135 181 228 270 320
#     4  10  20  35  57  83 109 143 186 227 269 332
#     4  11  21  35  57  80 111 151 182 219 272 329
#
# _framework density 17.318474999999999
#
# number of rings (size 3 to 8) (size 9 to 14) (size 15 to 20)
#    0.000    2.333    1.667    2.000    2.333    4.333 
#    0.000    2.500    0.000    3.000    0.000    0.000 
#    0.000    0.000    0.000    0.000    0.000    0.000 
#
# Total GULP energy -267376.940732 kJ/mol
# GULP energy per Si atom -5570.352932 kJ/mol
# Density = 1.727906 g / cm^3
# Si number density = 17.318475 Si / 1000 Ang^3
#
#
#
# Elastic Constant Matrix: (Units=GPa)
#
#
# Indices 1 2 3 4 5 6 
#
# 1 65.5393 45.6143 35.6733 0.0000 0.0000 0.0000
# 2 45.6143 72.2155 31.5457 0.0000 0.0000 0.0000
# 3 35.6733 31.5457 79.4064 0.0000 0.0000 0.0000
# 4 0.0000 0.0000 0.0000 17.2643 0.0000 0.0000
# 5 0.0000 0.0000 0.0000 0.0000 37.1559 0.0000
# 6 0.0000 0.0000 0.0000 0.0000 0.0000 -5.3215
#
#
#
# Elastic Compliance Matrix: (Units=1/GPa)
#
#
# Indices 1 2 3 4 5 6 
#
# 1 0.030350 -0.015989 -0.007283 0.000000 0.000000 0.000000
# 2 -0.015989 0.025178 -0.002820 0.000000 0.000000 0.000000
# 3 -0.007283 -0.002820 0.016985 0.000000 0.000000 0.000000
# 4 0.000000 0.000000 0.000000 0.057923 0.000000 0.000000
# 5 0.000000 0.000000 0.000000 0.000000 0.026914 0.000000
# 6 0.000000 0.000000 0.000000 0.000000 0.000000 -0.187917
#
#
# Mechanical properties :
#
#
# Convention : Reuss Voigt Hill
#
# Bulk Modulus (GPa) = 49.18573 49.20309 49.19441
# Shear Modulus (GPa) = 176.09233 16.77494 96.43363
#
# Velocity S-wave (km/s) = 10.09453 3.11563 7.47017
# Velocity P-wave (km/s) = 12.81907 6.43547 10.14258
#
# Compressibility (1/GPa) = 0.02033110
#
# Stress axis : x y z
#
# Youngs Moduli (GPa) = 32.94860 39.71645 58.87424
#
# Poissons Ratio (x) = 0.63503 0.42877
# Poissons Ratio (y) = 0.52682 0.16600
# Poissons Ratio (z) = 0.23996 0.11198
#
# Static dielectric constant tensor:
#      x y z
#    x 1.607120 0.000000 0.000000 
#    y 0.000000 1.584190 0.000000 
#    z 0.000000 0.000000 1.603700 
# 
# From -- ./inp_files/10259.got.cif
#   From: 2010.05.17/outbox.cif.g08.bks.cpg/sg59_6_cif.got.tgz:10259.got - 2010.06.03 14:40:33.
