data_PCOD9450425
_publ_section_title
;
Structure prediction by ZEFSAII (Michael W. Deem and Ramdas Pophale) SiO2 
 PCOD9450425
Probable space group: P M M N
;
_chemical_formula_sum "Si O2"
_cell_formula_units_Z 64
_cell_length_a 20.852244
_cell_length_b 7.925047
_cell_length_c 18.016005
_cell_angle_alpha 90.000000
_cell_angle_beta 90.000000
_cell_angle_gamma 90.000000
_cell_volume 2977.235154
_symmetry_space_group_name_H-M "P M M N"
_symmetry_group_IT_number 59
_space_group.IT_coordinate_system_code '2'
_symmetry_cell_setting 'orthorhombic'
loop_
_space_group_symop_operation_xyz
x,y,z
1/2-x,1/2-y,z
1/2+x,-y,-z
-x,1/2+y,-z
-x,-y,-z
1/2+x,1/2+y,-z
1/2-x,y,z
x,1/2-y,z
loop_
_atom_site_type_symbol
_atom_site_label
_atom_site_fract_x
_atom_site_fract_y
_atom_site_fract_z
Si Si1 0.963728 0.047440 0.575518
Si Si2 0.178107 0.451872 0.789973
Si Si3 0.590463 0.052608 0.071214
Si Si4 0.183169 0.056236 0.044227
Si Si5 0.524400 0.943033 0.848888
Si Si6 0.444643 0.455709 0.711870
Si Si7 0.677453 0.043906 0.627890
Si Si8 0.842849 0.442932 0.797740
O O1 0.959512 0.250000 0.578645
O O2 0.889395 0.987095 0.587983
O O3 0.012765 0.995732 0.641112
O O4 0.000000 0.000000 0.500000
O O5 0.250000 0.523437 0.787205
O O6 0.183135 0.250000 0.787670
O O7 0.141894 0.491467 0.867440
O O8 0.130771 0.497856 0.721454
O O9 0.582033 0.250000 0.083227
O O10 0.519848 0.979270 0.086431
O O11 0.620891 0.024220 0.991224
O O12 0.250000 0.977806 0.016334
O O13 0.181936 0.250000 0.021287
O O14 0.183941 0.043185 0.132562
O O15 0.546427 0.750000 0.864750
O O16 0.475411 0.947041 0.780523
O O17 0.582235 0.049750 0.816461
O O18 0.450309 0.250000 0.720655
O O19 0.750000 0.992103 0.602583
O O20 0.676911 0.250000 0.625866
O O21 0.670692 0.994334 0.714933
O O22 0.820829 0.250000 0.801698
#
# Coordination Sequence:
#
# PCOD9450425 Si02
#       8
#     8   8   8   8   8   8   8   8
#     4  10  20  36  58  86 116 148 185 223 271 330
#     4   9  17  30  51  77 104 139 182 231 285 334
#     4  10  21  35  52  75 105 145 189 234 283 338
#     4  11  24  39  53  74 107 145 186 236 292 342
#     4  10  20  34  54  81 110 140 180 230 284 334
#     4   9  17  33  54  77 107 142 185 226 268 331
#     4   9  18  35  60  87 114 146 187 231 274 328
#     4  11  21  36  59  83 108 142 187 233 283 341
#
# _framework density 21.496455000000001
#
# number of rings (size 3 to 8) (size 9 to 14) (size 15 to 20)
#    0.000    2.125    1.250    2.250    0.000    5.750 
#    0.000    0.625    0.000    2.625    0.000    0.000 
#    0.000    0.000    0.000    0.000    0.000    0.000 
#
# Total GULP energy -356703.163223 kJ/mol
# GULP energy per Si atom -5573.486925 kJ/mol
# Density = 2.144753 g / cm^3
# Si number density = 21.496455 Si / 1000 Ang^3
#
#
#
# Elastic Constant Matrix: (Units=GPa)
#
#
# Indices 1 2 3 4 5 6 
#
# 1 186.9162 9.7320 46.9604 0.0000 0.0000 0.0000
# 2 9.7320 23.6941 -4.5117 0.0000 0.0000 0.0000
# 3 46.9604 -4.5117 82.4349 0.0000 0.0000 0.0000
# 4 0.0000 0.0000 0.0000 22.6704 0.0000 0.0000
# 5 0.0000 0.0000 0.0000 0.0000 2.0379 0.0000
# 6 0.0000 0.0000 0.0000 0.0000 0.0000 -22.9918
#
#
#
# Elastic Compliance Matrix: (Units=1/GPa)
#
#
# Indices 1 2 3 4 5 6 
#
# 1 0.006506 -0.003413 -0.003893 0.000000 0.000000 0.000000
# 2 -0.003413 0.044440 0.004377 0.000000 0.000000 0.000000
# 3 -0.003893 0.004377 0.014588 0.000000 0.000000 0.000000
# 4 0.000000 0.000000 0.000000 0.044110 0.000000 0.000000
# 5 0.000000 0.000000 0.000000 0.000000 0.490706 0.000000
# 6 0.000000 0.000000 0.000000 0.000000 0.000000 -0.043494
#
#
# Mechanical properties :
#
#
# Convention : Reuss Voigt Hill
#
# Bulk Modulus (GPa) = 16.75756 44.15632 30.45694
# Shear Modulus (GPa) = 8.58211 16.40091 12.49151
#
# Velocity S-wave (km/s) = 2.00025 2.76517 2.41321
# Velocity P-wave (km/s) = 3.62589 5.54803 4.68656
#
# Compressibility (1/GPa) = 0.05967455
#
# Stress axis : x y z
#
# Youngs Moduli (GPa) = 153.70977 22.50221 68.54951
#
# Poissons Ratio (x) = 0.07681 0.26686
# Poissons Ratio (y) = 0.52468 -0.30002
# Poissons Ratio (z) = 0.59838 -0.09849
#
# Static dielectric constant tensor:
#      x y z
#    x 1.978100 0.000000 0.000000 
#    y 0.000000 1.764940 0.000000 
#    z 0.000000 0.000000 1.791700 
# 
# From -- ./inp_files/28167.got.cif
#   From: 2010.05.17/outbox.cif.g08.bks.cpg/sg59_15_cif.got.tgz:28167.got - 2010.06.03 14:40:33.
