data_PCOD9450904
_publ_section_title
;
Structure prediction by ZEFSAII (Michael W. Deem and Ramdas Pophale) SiO2 
 PCOD9450904
Probable space group: P M M N
;
_chemical_formula_sum "Si O2"
_cell_formula_units_Z 48
_cell_length_a 9.011583
_cell_length_b 14.974472
_cell_length_c 20.028921
_cell_angle_alpha 90.000000
_cell_angle_beta 90.000000
_cell_angle_gamma 90.000000
_cell_volume 2702.776653
_symmetry_space_group_name_H-M "P M M N"
_symmetry_group_IT_number 59
_space_group.IT_coordinate_system_code '2'
_symmetry_cell_setting 'orthorhombic'
loop_
_space_group_symop_operation_xyz
x,y,z
1/2-x,1/2-y,z
1/2+x,-y,-z
-x,1/2+y,-z
-x,-y,-z
1/2+x,1/2+y,-z
1/2-x,y,z
x,1/2-y,z
loop_
_atom_site_type_symbol
_atom_site_label
_atom_site_fract_x
_atom_site_fract_y
_atom_site_fract_z
Si Si1 0.918912 0.250000 0.784505
Si Si2 0.929309 0.750000 0.472517
Si Si3 0.429997 0.250000 0.370115
Si Si4 0.919099 0.250000 0.946375
Si Si5 0.573231 0.932538 0.050995
Si Si6 0.073644 0.440367 0.312300
Si Si7 0.573537 0.061952 0.556867
Si Si8 0.427015 0.064572 0.792526
O O1 0.750000 0.250000 0.759085
O O2 0.914703 0.250000 0.865448
O O3 0.001112 0.342169 0.767157
O O4 0.750000 0.750000 0.466616
O O5 0.969556 0.750000 0.551604
O O6 0.996819 0.840999 0.442592
O O7 0.250000 0.250000 0.368852
O O8 0.477976 0.158290 0.334739
O O9 0.750000 0.250000 0.970473
O O10 0.008276 0.163477 0.967117
O O11 0.750000 0.934596 0.045642
O O12 0.534839 0.948132 0.129126
O O13 0.500000 0.000000 0.000000
O O14 0.250000 0.435856 0.297793
O O15 0.054402 0.507919 0.374372
O O16 0.988434 0.483038 0.250467
O O17 0.750000 0.071458 0.544415
O O18 0.500000 0.000000 0.500000
O O19 0.250000 0.071902 0.787250
#
# Coordination Sequence:
#
# PCOD9450904 Si02
#       8
#     4   4   4   4   8   8   8   8
#     4   9  17  32  56  80 106 144 183 219 272 337
#     4  11  21  38  60  84 116 149 186 236 286 332
#     4   9  18  37  59  79 105 146 189 226 271 329
#     4   9  17  31  53  81 109 141 182 227 277 334
#     4  10  20  35  56  82 113 149 189 233 279 334
#     4  10  21  38  59  80 110 149 189 230 278 338
#     4  11  22  37  58  85 112 144 187 233 279 333
#     4  10  21  36  55  83 116 146 183 233 283 329
#
# _framework density 17.759515
#
# number of rings (size 3 to 8) (size 9 to 14) (size 15 to 20)
#    0.000    2.000    1.667    2.250    0.000    6.000 
#    0.000    2.083    0.000    4.000    0.000    0.000 
#    0.000    0.000    0.000    0.000    0.000    0.000 
#
# Total GULP energy -267912.342090 kJ/mol
# GULP energy per Si atom -5581.507127 kJ/mol
# Density = 1.771909 g / cm^3
# Si number density = 17.759515 Si / 1000 Ang^3
#
#
#
# Elastic Constant Matrix: (Units=GPa)
#
#
# Indices 1 2 3 4 5 6 
#
# 1 81.3420 64.2974 52.1284 0.0000 0.0000 0.0000
# 2 64.2974 176.7986 61.3762 0.0000 0.0000 0.0000
# 3 52.1284 61.3762 63.6805 0.0000 0.0000 0.0000
# 4 0.0000 0.0000 0.0000 26.9525 0.0000 0.0000
# 5 0.0000 0.0000 0.0000 0.0000 28.6733 0.0000
# 6 0.0000 0.0000 0.0000 0.0000 0.0000 35.7757
#
#
#
# Elastic Compliance Matrix: (Units=1/GPa)
#
#
# Indices 1 2 3 4 5 6 
#
# 1 0.027034 -0.003230 -0.019017 0.000000 0.000000 0.000000
# 2 -0.003230 0.008886 -0.005921 0.000000 0.000000 0.000000
# 3 -0.019017 -0.005921 0.036977 0.000000 0.000000 0.000000
# 4 0.000000 0.000000 0.000000 0.037102 0.000000 0.000000
# 5 0.000000 0.000000 0.000000 0.000000 0.034876 0.000000
# 6 0.000000 0.000000 0.000000 0.000000 0.000000 0.027952
#
#
# Mechanical properties :
#
#
# Convention : Reuss Voigt Hill
#
# Bulk Modulus (GPa) = 60.37819 75.26946 67.82382
# Shear Modulus (GPa) = 21.30543 27.88157 24.59350
#
# Velocity S-wave (km/s) = 3.46737 3.96656 3.72534
# Velocity P-wave (km/s) = 7.07825 7.96572 7.53507
#
# Compressibility (1/GPa) = 0.01656227
#
# Stress axis : x y z
#
# Youngs Moduli (GPa) = 36.99074 112.53464 27.04393
#
# Poissons Ratio (x) = 0.36347 0.51429
# Poissons Ratio (y) = 0.11947 0.16012
# Poissons Ratio (z) = 0.70344 0.66628
#
# Static dielectric constant tensor:
#      x y z
#    x 1.596690 0.000000 0.000000 
#    y 0.000000 1.587100 0.000000 
#    z 0.000000 0.000000 1.599000 
# 
# From -- ./inp_files/25640.got.cif
#   From: 2010.05.17/outbox.cif.g08.bks.cpg/sg59_13_cif.got.tgz:25640.got - 2010.06.03 14:40:33.
