data_PCOD9450963
_publ_section_title
;
Structure prediction by ZEFSAII (Michael W. Deem and Ramdas Pophale) SiO2 
 PCOD9450963
Probable space group: P M M N
;
_chemical_formula_sum "Si O2"
_cell_formula_units_Z 64
_cell_length_a 9.019868
_cell_length_b 32.073531
_cell_length_c 11.927294
_cell_angle_alpha 90.000000
_cell_angle_beta 90.000000
_cell_angle_gamma 90.000000
_cell_volume 3450.554417
_symmetry_space_group_name_H-M "P M M N"
_symmetry_group_IT_number 59
_space_group.IT_coordinate_system_code '2'
_symmetry_cell_setting 'orthorhombic'
loop_
_space_group_symop_operation_xyz
x,y,z
1/2-x,1/2-y,z
1/2+x,-y,-z
-x,1/2+y,-z
-x,-y,-z
1/2+x,1/2+y,-z
1/2-x,y,z
x,1/2-y,z
loop_
_atom_site_type_symbol
_atom_site_label
_atom_site_fract_x
_atom_site_fract_y
_atom_site_fract_z
Si Si1 0.073963 0.939087 0.558611
Si Si2 0.572746 0.020259 0.666777
Si Si3 0.418524 0.699359 0.338587
Si Si4 0.428290 0.298025 0.895237
Si Si5 0.927156 0.702069 0.565510
Si Si6 0.072682 0.371758 0.286970
Si Si7 0.071442 0.962627 0.073089
Si Si8 0.429912 0.380255 0.031205
O O1 0.250000 0.936446 0.570381
O O2 0.039705 0.944431 0.426398
O O3 0.997894 0.900946 0.619871
O O4 0.014136 0.979991 0.622718
O O5 0.750000 0.011799 0.660690
O O6 0.537357 0.030854 0.794899
O O7 0.250000 0.684300 0.331378
O O8 0.416860 0.750000 0.343658
O O9 0.507438 0.689580 0.226012
O O10 0.494666 0.685305 0.453478
O O11 0.250000 0.297092 0.889130
O O12 0.476586 0.250000 0.921310
O O13 0.469308 0.334786 0.981040
O O14 0.750000 0.700570 0.547111
O O15 0.970285 0.750000 0.581500
O O16 0.962080 0.675025 0.674246
O O17 0.250000 0.376994 0.289753
O O18 0.024524 0.381985 0.161442
O O19 0.250000 0.963313 0.059972
O O20 0.005508 0.918528 0.032900
O O21 0.000000 0.000000 0.000000
O O22 0.250000 0.384431 0.024552
#
# Coordination Sequence:
#
# PCOD9450963 Si02
#       8
#     8   8   8   8   8   8   8   8
#     4  10  20  35  57  83 108 136 172 212 258 315
#     4   9  20  38  57  79 108 139 171 212 260 309
#     4   9  17  30  50  76 105 136 171 216 271 323
#     4   9  18  34  56  80 108 144 184 225 268 318
#     4   9  18  33  53  76 102 136 179 221 262 314
#     4  10  21  36  53  75 106 141 174 217 270 314
#     4  11  23  39  59  82 111 146 182 222 269 320
#     4  10  22  38  55  79 110 143 183 227 271 322
#
# _framework density 18.547744000000002
#
# number of rings (size 3 to 8) (size 9 to 14) (size 15 to 20)
#    0.000    2.375    0.000    1.875    0.000    9.000 
#    0.000    5.000    0.000    0.000    0.000    5.250 
#    0.000    0.000    0.000    0.000    0.000    0.000 
#
# Total GULP energy -356980.706973 kJ/mol
# GULP energy per Si atom -5577.823546 kJ/mol
# Density = 1.850553 g / cm^3
# Si number density = 18.547744 Si / 1000 Ang^3
#
#
#
# Elastic Constant Matrix: (Units=GPa)
#
#
# Indices 1 2 3 4 5 6 
#
# 1 17.2719 28.3734 37.3629 0.0000 0.0000 0.0000
# 2 28.3734 85.9428 60.0038 0.0000 0.0000 0.0000
# 3 37.3629 60.0038 139.8026 0.0000 0.0000 0.0000
# 4 0.0000 0.0000 0.0000 28.2744 0.0000 0.0000
# 5 0.0000 0.0000 0.0000 0.0000 23.2876 0.0000
# 6 0.0000 0.0000 0.0000 0.0000 0.0000 24.5734
#
#
#
# Elastic Compliance Matrix: (Units=1/GPa)
#
#
# Indices 1 2 3 4 5 6 
#
# 1 0.210183 -0.043082 -0.037682 0.000000 0.000000 0.000000
# 2 -0.043082 0.025445 0.000593 0.000000 0.000000 0.000000
# 3 -0.037682 0.000593 0.016969 0.000000 0.000000 0.000000
# 4 0.000000 0.000000 0.000000 0.035368 0.000000 0.000000
# 5 0.000000 0.000000 0.000000 0.000000 0.042941 0.000000
# 6 0.000000 0.000000 0.000000 0.000000 0.000000 0.040694
#
#
# Mechanical properties :
#
#
# Convention : Reuss Voigt Hill
#
# Bulk Modulus (GPa) = 10.83941 54.94418 32.89179
# Shear Modulus (GPa) = 8.88583 23.04557 15.96570
#
# Velocity S-wave (km/s) = 2.19116 3.52874 2.93710
# Velocity P-wave (km/s) = 3.50119 6.80368 5.41056
#
# Compressibility (1/GPa) = 0.09225592
#
# Stress axis : x y z
#
# Youngs Moduli (GPa) = 4.75776 39.30060 58.93056
#
# Poissons Ratio (x) = 1.69314 2.22060
# Poissons Ratio (y) = 0.20497 -0.03493
# Poissons Ratio (z) = 0.17928 -0.02330
#
# Static dielectric constant tensor:
#      x y z
#    x 1.625470 0.000000 0.000000 
#    y 0.000000 1.651620 0.000000 
#    z 0.000000 0.000000 1.625340 
# 
# From -- ./inp_files/14999.got.cif
#   From: 2010.05.17/outbox.cif.g08.bks.cpg/sg59_8_cif.got.tgz:14999.got - 2010.06.03 14:40:33.
