data_PCOD9450161
_publ_section_title
;
Structure prediction by ZEFSAII (Michael W. Deem and Ramdas Pophale) SiO2 
 PCOD9450161
Probable space group: P M M N
;
_chemical_formula_sum "Si O2"
_cell_formula_units_Z 56
_cell_length_a 20.327979
_cell_length_b 7.662362
_cell_length_c 17.841886
_cell_angle_alpha 90.000000
_cell_angle_beta 90.000000
_cell_angle_gamma 90.000000
_cell_volume 2779.058119
_symmetry_space_group_name_H-M "P M M N"
_symmetry_group_IT_number 59
_space_group.IT_coordinate_system_code '2'
_symmetry_cell_setting 'orthorhombic'
loop_
_space_group_symop_operation_xyz
x,y,z
1/2-x,1/2-y,z
1/2+x,-y,-z
-x,1/2+y,-z
-x,-y,-z
1/2+x,1/2+y,-z
1/2-x,y,z
x,1/2-y,z
loop_
_atom_site_type_symbol
_atom_site_label
_atom_site_fract_x
_atom_site_fract_y
_atom_site_fract_z
Si Si1 0.566866 0.453060 0.775357
Si Si2 0.957873 0.463014 0.608376
Si Si3 0.576720 0.452101 0.190102
Si Si4 0.600745 0.455399 0.456975
Si Si5 0.175365 0.538550 0.110101
Si Si6 0.323674 0.535722 0.683004
Si Si7 0.824305 0.955696 0.062952
O O1 0.584392 0.250000 0.765415
O O2 0.561211 0.525742 0.691032
O O3 0.494508 0.461780 0.811745
O O4 0.621665 0.528073 0.830929
O O5 0.959210 0.250000 0.608153
O O6 0.910469 0.524399 0.540839
O O7 0.030934 0.522459 0.585403
O O8 0.563703 0.250000 0.206867
O O9 0.622602 0.524217 0.256784
O O10 0.620035 0.464556 0.115364
O O11 0.614080 0.250000 0.465316
O O12 0.655090 0.524697 0.399755
O O13 0.250000 0.483867 0.128798
O O14 0.173819 0.750000 0.109865
O O15 0.161826 0.482332 0.024863
O O16 0.250000 0.481423 0.702767
O O17 0.324752 0.750000 0.684026
O O18 0.750000 0.025024 0.077851
O O19 0.823555 0.750000 0.078519
#
# Coordination Sequence:
#
# PCOD9450161 Si02
#       7
#     8   8   8   8   8   8   8
#     4  10  20  34  52  77 107 134 168 217 266 309
#     4   9  17  29  48  72 100 130 163 207 255 298
#     4  11  21  33  52  77 105 139 178 213 254 308
#     4   9  16  29  48  70  96 131 172 206 245 298
#     4   9  19  37  58  76  98 133 173 212 260 317
#     4   9  17  29  46  71 103 135 170 212 251 294
#     4  10  21  37  56  78 105 136 171 212 258 308
#
# _framework density 20.150711000000001
#
# number of rings (size 3 to 8) (size 9 to 14) (size 15 to 20)
#    0.000    2.429    1.429    1.286    0.000    2.571 
#    0.000    0.714    0.000    5.571    0.000    0.000 
#    0.000    3.429    0.000    0.000    0.000    0.000 
#
# Total GULP energy -312447.393580 kJ/mol
# GULP energy per Si atom -5579.417742 kJ/mol
# Density = 2.010485 g / cm^3
# Si number density = 20.150711 Si / 1000 Ang^3
#
#
#
# Elastic Constant Matrix: (Units=GPa)
#
#
# Indices 1 2 3 4 5 6 
#
# 1 95.0626 -8.6523 66.9107 0.0000 0.0000 0.0000
# 2 -8.6523 37.3157 -8.8430 0.0000 0.0000 0.0000
# 3 66.9107 -8.8430 119.4402 0.0000 0.0000 0.0000
# 4 0.0000 0.0000 0.0000 8.0182 0.0000 0.0000
# 5 0.0000 0.0000 0.0000 0.0000 28.4375 0.0000
# 6 0.0000 0.0000 0.0000 0.0000 0.0000 1.6976
#
#
#
# Elastic Compliance Matrix: (Units=1/GPa)
#
#
# Indices 1 2 3 4 5 6 
#
# 1 0.017481 0.001763 -0.009662 0.000000 0.000000 0.000000
# 2 0.001763 0.027455 0.001045 0.000000 0.000000 0.000000
# 3 -0.009662 0.001045 0.013863 0.000000 0.000000 0.000000
# 4 0.000000 0.000000 0.000000 0.124717 0.000000 0.000000
# 5 0.000000 0.000000 0.000000 0.000000 0.035165 0.000000
# 6 0.000000 0.000000 0.000000 0.000000 0.000000 0.589078
#
#
# Mechanical properties :
#
#
# Convention : Reuss Voigt Hill
#
# Bulk Modulus (GPa) = 22.17776 38.96104 30.56940
# Shear Modulus (GPa) = 5.97732 21.12419 13.55075
#
# Velocity S-wave (km/s) = 1.72416 3.24127 2.59602
# Velocity P-wave (km/s) = 3.87214 5.77794 4.91824
#
# Compressibility (1/GPa) = 0.04509022
#
# Stress axis : x y z
#
# Youngs Moduli (GPa) = 57.20595 36.42345 72.13695
#
# Poissons Ratio (x) = -0.06423 0.69700
# Poissons Ratio (y) = -0.10088 -0.07537
# Poissons Ratio (z) = 0.55273 -0.03805
#
# Static dielectric constant tensor:
#      x y z
#    x 1.689750 0.000000 0.000000 
#    y 0.000000 1.791370 0.000000 
#    z 0.000000 0.000000 1.725910 
# 
# From -- ./inp_files/26020.got.cif
#   From: 2010.05.17/outbox.cif.g08.bks.cpg/sg59_14_cif.got.tgz:26020.got - 2010.06.03 14:40:33.
