data_PCOD9450308
_publ_section_title
;
Structure prediction by ZEFSAII (Michael W. Deem and Ramdas Pophale) SiO2 
 PCOD9450308
Probable space group: P M M N
;
_chemical_formula_sum "Si O2"
_cell_formula_units_Z 48
_cell_length_a 9.244297
_cell_length_b 19.159669
_cell_length_c 15.059163
_cell_angle_alpha 90.000000
_cell_angle_beta 90.000000
_cell_angle_gamma 90.000000
_cell_volume 2667.243873
_symmetry_space_group_name_H-M "P M M N"
_symmetry_group_IT_number 59
_space_group.IT_coordinate_system_code '2'
_symmetry_cell_setting 'orthorhombic'
loop_
_space_group_symop_operation_xyz
x,y,z
1/2-x,1/2-y,z
1/2+x,-y,-z
-x,1/2+y,-z
-x,-y,-z
1/2+x,1/2+y,-z
1/2-x,y,z
x,1/2-y,z
loop_
_atom_site_type_symbol
_atom_site_label
_atom_site_fract_x
_atom_site_fract_y
_atom_site_fract_z
Si Si1 0.580560 0.669871 0.705775
Si Si2 0.420580 0.057018 0.622648
Si Si3 0.923836 0.330771 0.968941
Si Si4 0.580181 0.399201 0.450386
Si Si5 0.076807 0.929118 0.189789
Si Si6 0.923306 0.580610 0.878830
O O1 0.750000 0.656971 0.685199
O O2 0.565038 0.750000 0.734266
O O3 0.487373 0.654268 0.619233
O O4 0.539733 0.619562 0.786684
O O5 0.250000 0.071646 0.625937
O O6 0.497183 0.099474 0.543683
O O7 0.494430 0.070110 0.717158
O O8 0.439019 0.975695 0.594783
O O9 0.750000 0.334024 0.980202
O O10 0.968971 0.250000 0.977240
O O11 0.956260 0.363133 0.872304
O O12 0.997257 0.379726 0.042184
O O13 0.750000 0.387850 0.464139
O O14 0.250000 0.931664 0.206359
O O15 0.039440 0.999416 0.134644
O O16 0.750000 0.585941 0.891504
#
# Coordination Sequence:
#
# PCOD9450308 Si02
#       6
#     8   8   8   8   8   8
#     4  10  20  34  53  79 113 148 182 226 280 333
#     4  10  20  34  56  83 109 139 180 229 275 322
#     4  10  22  38  55  79 112 147 182 225 279 333
#     4  10  20  34  54  80 110 144 181 223 272 328
#     4  10  20  36  58  82 109 144 186 232 277 327
#     4  10  20  35  57  82 108 143 187 231 276 329
#
# _framework density 17.996105
#
# number of rings (size 3 to 8) (size 9 to 14) (size 15 to 20)
#    0.000    2.000    1.667    2.000    0.000    4.667 
#    0.000    0.833    0.000    3.000    0.000    0.000 
#    0.000    0.000    0.000    0.000    0.000    0.000 
#
# Total GULP energy -267992.163832 kJ/mol
# GULP energy per Si atom -5583.170080 kJ/mol
# Density = 1.795514 g / cm^3
# Si number density = 17.996105 Si / 1000 Ang^3
#
#
#
# Elastic Constant Matrix: (Units=GPa)
#
#
# Indices 1 2 3 4 5 6 
#
# 1 36.6578 16.9095 47.7034 0.0000 0.0000 0.0000
# 2 16.9095 41.8716 26.9996 0.0000 0.0000 0.0000
# 3 47.7034 26.9996 114.8953 0.0000 0.0000 0.0000
# 4 0.0000 0.0000 0.0000 19.7836 0.0000 0.0000
# 5 0.0000 0.0000 0.0000 0.0000 38.6719 0.0000
# 6 0.0000 0.0000 0.0000 0.0000 0.0000 18.7052
#
#
#
# Elastic Compliance Matrix: (Units=1/GPa)
#
#
# Indices 1 2 3 4 5 6 
#
# 1 0.062746 -0.010066 -0.023686 0.000000 0.000000 0.000000
# 2 -0.010066 0.029763 -0.002815 0.000000 0.000000 0.000000
# 3 -0.023686 -0.002815 0.019199 0.000000 0.000000 0.000000
# 4 0.000000 0.000000 0.000000 0.050547 0.000000 0.000000
# 5 0.000000 0.000000 0.000000 0.000000 0.025859 0.000000
# 6 0.000000 0.000000 0.000000 0.000000 0.000000 0.053461
#
#
# Mechanical properties :
#
#
# Convention : Reuss Voigt Hill
#
# Bulk Modulus (GPa) = 25.92426 41.84999 33.88712
# Shear Modulus (GPa) = 15.26414 22.21961 18.74188
#
# Velocity S-wave (km/s) = 2.91553 3.51763 3.23064
# Velocity P-wave (km/s) = 5.07647 6.30902 5.72601
#
# Compressibility (1/GPa) = 0.03857391
#
# Stress axis : x y z
#
# Youngs Moduli (GPa) = 15.93738 33.59922 52.08564
#
# Poissons Ratio (x) = 0.33822 1.23369
# Poissons Ratio (y) = 0.16043 0.14660
# Poissons Ratio (z) = 0.37749 0.09457
#
# Static dielectric constant tensor:
#      x y z
#    x 1.598950 0.000000 0.000000 
#    y 0.000000 1.612780 0.000000 
#    z 0.000000 0.000000 1.584950 
# 
# From -- ./inp_files/20336.got.cif
#   From: 2010.05.17/outbox.cif.g08.bks.cpg/sg59_11_cif.got.tgz:20336.got - 2010.06.03 14:40:33.
