data_PCOD9450724
_publ_section_title
;
Structure prediction by ZEFSAII (Michael W. Deem and Ramdas Pophale) SiO2 
 PCOD9450724
Probable space group: P M M N
;
_chemical_formula_sum "Si O2"
_cell_formula_units_Z 64
_cell_length_a 20.277004
_cell_length_b 8.958258
_cell_length_c 18.966017
_cell_angle_alpha 90.000000
_cell_angle_beta 90.000000
_cell_angle_gamma 90.000000
_cell_volume 3445.113135
_symmetry_space_group_name_H-M "P M M N"
_symmetry_group_IT_number 59
_space_group.IT_coordinate_system_code '2'
_symmetry_cell_setting 'orthorhombic'
loop_
_space_group_symop_operation_xyz
x,y,z
1/2-x,1/2-y,z
1/2+x,-y,-z
-x,1/2+y,-z
-x,-y,-z
1/2+x,1/2+y,-z
1/2-x,y,z
x,1/2-y,z
loop_
_atom_site_type_symbol
_atom_site_label
_atom_site_fract_x
_atom_site_fract_y
_atom_site_fract_z
Si Si1 0.542358 0.430515 0.205870
Si Si2 0.673391 0.427291 0.406566
Si Si3 0.932098 0.071845 0.524478
Si Si4 0.676562 0.425273 0.919013
Si Si5 0.673823 0.928905 0.253238
Si Si6 0.461270 0.071743 0.064320
Si Si7 0.555692 0.922841 0.672220
Si Si8 0.178266 0.083479 0.224197
O O1 0.546818 0.250000 0.205834
O O2 0.615411 0.499811 0.206635
O O3 0.496239 0.472666 0.138903
O O4 0.505252 0.474146 0.278817
O O5 0.750000 0.447327 0.426840
O O6 0.662812 0.250000 0.393047
O O7 0.625331 0.474179 0.469854
O O8 0.662696 0.513742 0.333397
O O9 0.935458 0.250000 0.522421
O O10 0.925848 0.017248 0.604357
O O11 0.000000 0.000000 0.500000
O O12 0.750000 0.470828 0.944326
O O13 0.668315 0.250000 0.933006
O O14 0.613618 0.516281 0.943982
O O15 0.675969 0.459198 0.835426
O O16 0.750000 0.970967 0.234482
O O17 0.669241 0.750000 0.250805
O O18 0.463633 0.250000 0.061559
O O19 0.500000 0.000000 0.000000
O O20 0.542669 0.750000 0.651327
O O21 0.618485 0.925986 0.723210
O O22 0.250000 0.075783 0.259616
O O23 0.173794 0.250000 0.189910
#
# Coordination Sequence:
#
# PCOD9450724 Si02
#       8
#     8   8   8   8   8   8   8   8
#     4  10  21  38  59  83 112 147 186 227 278 342
#     4   9  19  37  57  75 103 146 190 230 278 337
#     4  11  23  36  51  75 105 142 184 231 283 337
#     4  10  20  35  58  88 120 154 193 234 275 327
#     4  10  21  36  57  86 113 139 181 236 287 337
#     4  11  23  41  63  90 121 156 195 238 289 346
#     4  10  20  35  53  78 110 144 184 231 278 335
#     4   9  17  32  54  79 110 148 186 226 274 326
#
# _framework density 18.577038000000002
#
# number of rings (size 3 to 8) (size 9 to 14) (size 15 to 20)
#    0.000    2.000    1.250    2.250    0.000    8.000 
#    0.000    0.625    0.000    0.750    0.000    0.000 
#    0.000    0.000    0.000    0.000    0.000    0.000 
#
# Total GULP energy -356948.350480 kJ/mol
# GULP energy per Si atom -5577.317976 kJ/mol
# Density = 1.853476 g / cm^3
# Si number density = 18.577038 Si / 1000 Ang^3
#
#
#
# Elastic Constant Matrix: (Units=GPa)
#
#
# Indices 1 2 3 4 5 6 
#
# 1 140.3267 41.3933 36.7132 0.0000 0.0000 0.0000
# 2 41.3933 40.0191 20.4110 0.0000 0.0000 0.0000
# 3 36.7132 20.4110 41.0262 0.0000 0.0000 0.0000
# 4 0.0000 0.0000 0.0000 29.8381 0.0000 0.0000
# 5 0.0000 0.0000 0.0000 0.0000 26.4690 0.0000
# 6 0.0000 0.0000 0.0000 0.0000 0.0000 30.8186
#
#
#
# Elastic Compliance Matrix: (Units=1/GPa)
#
#
# Indices 1 2 3 4 5 6 
#
# 1 0.011165 -0.008647 -0.005690 0.000000 0.000000 0.000000
# 2 -0.008647 0.040181 -0.012253 0.000000 0.000000 0.000000
# 3 -0.005690 -0.012253 0.035562 0.000000 0.000000 0.000000
# 4 0.000000 0.000000 0.000000 0.033514 0.000000 0.000000
# 5 0.000000 0.000000 0.000000 0.000000 0.037780 0.000000
# 6 0.000000 0.000000 0.000000 0.000000 0.000000 0.032448
#
#
# Mechanical properties :
#
#
# Convention : Reuss Voigt Hill
#
# Bulk Modulus (GPa) = 29.64717 46.48968 38.06842
# Shear Modulus (GPa) = 19.60225 25.61543 22.60884
#
# Velocity S-wave (km/s) = 3.25189 3.71735 3.49238
# Velocity P-wave (km/s) = 5.48574 6.59580 6.06622
#
# Compressibility (1/GPa) = 0.03373003
#
# Stress axis : x y z
#
# Youngs Moduli (GPa) = 89.56192 24.88731 28.11987
#
# Poissons Ratio (x) = 0.21520 0.15999
# Poissons Ratio (y) = 0.77444 0.34454
# Poissons Ratio (z) = 0.50958 0.30494
#
# Static dielectric constant tensor:
#      x y z
#    x 1.679620 0.000000 0.000000 
#    y 0.000000 1.637980 0.000000 
#    z 0.000000 0.000000 1.536290 
# 
# From -- ./inp_files/28154.got.cif
#   From: 2010.05.17/outbox.cif.g08.bks.cpg/sg59_15_cif.got.tgz:28154.got - 2010.06.03 14:40:33.
