data_PCOD9450362
_publ_section_title
;
Structure prediction by ZEFSAII (Michael W. Deem and Ramdas Pophale) SiO2 
 PCOD9450362
Probable space group: P M M N
;
_chemical_formula_sum "Si O2"
_cell_formula_units_Z 48
_cell_length_a 10.412591
_cell_length_b 8.873965
_cell_length_c 29.797894
_cell_angle_alpha 90.000000
_cell_angle_beta 90.000000
_cell_angle_gamma 90.000000
_cell_volume 2753.354253
_symmetry_space_group_name_H-M "P M M N"
_symmetry_group_IT_number 59
_space_group.IT_coordinate_system_code '2'
_symmetry_cell_setting 'orthorhombic'
loop_
_space_group_symop_operation_xyz
x,y,z
1/2-x,1/2-y,z
1/2+x,-y,-z
-x,1/2+y,-z
-x,-y,-z
1/2+x,1/2+y,-z
1/2-x,y,z
x,1/2-y,z
loop_
_atom_site_type_symbol
_atom_site_label
_atom_site_fract_x
_atom_site_fract_y
_atom_site_fract_z
Si Si1 0.099513 0.429796 0.195640
Si Si2 0.601786 0.069558 0.465791
Si Si3 0.250000 0.431630 0.948135
Si Si4 0.750000 0.068503 0.953005
Si Si5 0.898819 0.068322 0.707994
Si Si6 0.003870 0.931674 0.105958
Si Si7 0.102220 0.431291 0.632191
O O1 0.250000 0.469125 0.187468
O O2 0.088483 0.250000 0.196840
O O3 0.065955 0.497901 0.244044
O O4 0.018814 0.496987 0.154830
O O5 0.750000 0.029086 0.477493
O O6 0.591850 0.250000 0.466201
O O7 0.500000 0.000000 0.500000
O O8 0.578071 0.008062 0.415677
O O9 0.250000 0.250000 0.952256
O O10 0.375528 0.476128 0.920136
O O11 0.250000 0.500119 0.997599
O O12 0.750000 0.250000 0.956680
O O13 0.624915 0.023217 0.924712
O O14 0.750000 0.026727 0.697899
O O15 0.903714 0.250000 0.711677
O O16 0.998291 0.022244 0.669348
O O17 0.005714 0.750000 0.110507
O O18 0.250000 0.465542 0.645605
O O19 0.092904 0.250000 0.626715
#
# Coordination Sequence:
#
# PCOD9450362 Si02
#       7
#     8   8   4   4   8   8   8
#     4  10  20  34  54  79 103 132 173 218 261 306
#     4  10  21  36  55  80 111 148 188 230 275 323
#     4  10  22  36  52  78 108 134 166 210 255 302
#     4  10  20  34  56  78 100 136 174 206 249 306
#     4   9  18  33  54  77 102 135 174 217 262 313
#     4  10  20  36  55  76 103 136 171 208 253 307
#     4   9  18  34  54  77 107 142 179 219 267 321
#
# _framework density 17.433281000000001
#
# number of rings (size 3 to 8) (size 9 to 14) (size 15 to 20)
#    0.000    2.333    0.833    1.500    0.000    4.333 
#    1.500    1.667    0.000    0.000    0.000    0.000 
#    0.000    0.000    0.000    0.000    0.000    0.000 
#
# Total GULP energy -267873.217325 kJ/mol
# GULP energy per Si atom -5580.692028 kJ/mol
# Density = 1.739360 g / cm^3
# Si number density = 17.433281 Si / 1000 Ang^3
#
#
#
# Elastic Constant Matrix: (Units=GPa)
#
#
# Indices 1 2 3 4 5 6 
#
# 1 145.5989 41.7962 117.3250 0.0000 0.0000 0.0000
# 2 41.7962 21.3765 47.5869 0.0000 0.0000 0.0000
# 3 117.3250 47.5869 169.7524 0.0000 0.0000 0.0000
# 4 0.0000 0.0000 0.0000 35.4863 0.0000 0.0000
# 5 0.0000 0.0000 0.0000 0.0000 -62.7957 0.0000
# 6 0.0000 0.0000 0.0000 0.0000 0.0000 12.1138
#
#
#
# Elastic Compliance Matrix: (Units=1/GPa)
#
#
# Indices 1 2 3 4 5 6 
#
# 1 0.018302 -0.020283 -0.006963 0.000000 0.000000 0.000000
# 2 -0.020283 0.146912 -0.027165 0.000000 0.000000 0.000000
# 3 -0.006963 -0.027165 0.018319 0.000000 0.000000 0.000000
# 4 0.000000 0.000000 0.000000 0.028180 0.000000 0.000000
# 5 0.000000 0.000000 0.000000 0.000000 -0.015925 0.000000
# 6 0.000000 0.000000 0.000000 0.000000 0.000000 0.082550
#
#
# Mechanical properties :
#
#
# Convention : Reuss Voigt Hill
#
# Bulk Modulus (GPa) = 13.38521 83.34930 48.36725
# Shear Modulus (GPa) = 12.13399 5.62887 8.88143
#
# Velocity S-wave (km/s) = 2.64109 1.79884 2.25955
# Velocity P-wave (km/s) = 4.12251 7.22694 5.88319
#
# Compressibility (1/GPa) = 0.07470935
#
# Stress axis : x y z
#
# Youngs Moduli (GPa) = 54.63887 6.80679 54.58801
#
# Poissons Ratio (x) = 0.13806 0.38012
# Poissons Ratio (y) = 1.10825 1.48290
# Poissons Ratio (z) = 0.38048 0.18491
#
# Static dielectric constant tensor:
#      x y z
#    x 1.594240 0.000000 0.000000 
#    y 0.000000 1.582490 0.000000 
#    z 0.000000 0.000000 1.548510 
# 
# From -- ./inp_files/32930.got.cif
#   From: 2010.05.17/outbox.cif.g08.bks.cpg/sg59_17_cif.got.tgz:32930.got - 2010.06.03 14:40:33.
