data_PCOD9450373
_publ_section_title
;
Structure prediction by ZEFSAII (Michael W. Deem and Ramdas Pophale) SiO2 
 PCOD9450373
Probable space group: P M M N
;
_chemical_formula_sum "Si O2"
_cell_formula_units_Z 64
_cell_length_a 19.951160
_cell_length_b 8.944204
_cell_length_c 20.644494
_cell_angle_alpha 90.000000
_cell_angle_beta 90.000000
_cell_angle_gamma 90.000000
_cell_volume 3683.953080
_symmetry_space_group_name_H-M "P M M N"
_symmetry_group_IT_number 59
_space_group.IT_coordinate_system_code '2'
_symmetry_cell_setting 'orthorhombic'
loop_
_space_group_symop_operation_xyz
x,y,z
1/2-x,1/2-y,z
1/2+x,-y,-z
-x,1/2+y,-z
-x,-y,-z
1/2+x,1/2+y,-z
1/2-x,y,z
x,1/2-y,z
loop_
_atom_site_type_symbol
_atom_site_label
_atom_site_fract_x
_atom_site_fract_y
_atom_site_fract_z
Si Si1 0.671146 0.924749 0.434239
Si Si2 0.548703 0.574146 0.665856
Si Si3 0.110581 0.925756 0.689489
Si Si4 0.672454 0.069914 0.912296
Si Si5 0.412751 0.070370 0.824987
Si Si6 0.932879 0.071994 0.529937
Si Si7 0.432124 0.929678 0.197952
Si Si8 0.828044 0.929706 0.050054
O O1 0.750000 0.938897 0.446271
O O2 0.652247 0.750000 0.438320
O O3 0.653516 0.986066 0.363109
O O4 0.628188 0.017182 0.485733
O O5 0.563126 0.750000 0.659841
O O6 0.467816 0.556419 0.669851
O O7 0.573873 0.486701 0.603098
O O8 0.576520 0.508872 0.733007
O O9 0.126371 0.750000 0.688184
O O10 0.116833 0.991471 0.761462
O O11 0.750000 0.027095 0.899417
O O12 0.669743 0.250000 0.916725
O O13 0.622544 0.023688 0.855064
O O14 0.652898 0.002091 0.981623
O O15 0.405519 0.250000 0.817884
O O16 0.492261 0.037089 0.826402
O O17 0.374806 0.024057 0.890259
O O18 0.938630 0.250000 0.528357
O O19 0.000000 0.000000 0.500000
O O20 0.427691 0.750000 0.206749
O O21 0.750000 0.968171 0.063005
O O22 0.832275 0.750000 0.044179
#
# Coordination Sequence:
#
# PCOD9450373 Si02
#       8
#     8   8   8   8   8   8   8   8
#     4  11  24  40  58  82 114 150 187 229 277 329
#     4  10  20  35  56  83 110 139 179 225 270 323
#     4  10  20  34  54  79 108 142 179 222 270 324
#     4   9  18  33  52  73  99 133 174 219 268 322
#     4   9  18  32  50  73 104 138 174 216 263 320
#     4  12  23  37  61  87 112 147 188 230 275 328
#     4   9  18  33  52  75 103 136 173 218 269 321
#     4   9  18  32  49  70  98 134 174 214 261 320
#
# _framework density 17.372644000000001
#
# number of rings (size 3 to 8) (size 9 to 14) (size 15 to 20)
#    0.000    2.125    1.250    2.250    0.000    4.000 
#    0.000    1.875    0.000    2.250    0.000    0.000 
#    0.000    0.000    0.000    0.000    0.000    0.000 
#
# Total GULP energy -357279.380556 kJ/mol
# GULP energy per Si atom -5582.490321 kJ/mol
# Density = 1.733310 g / cm^3
# Si number density = 17.372644 Si / 1000 Ang^3
#
#
#
# Elastic Constant Matrix: (Units=GPa)
#
#
# Indices 1 2 3 4 5 6 
#
# 1 61.4025 49.0260 76.2837 0.0000 0.0000 0.0000
# 2 49.0260 79.8177 70.1346 0.0000 0.0000 0.0000
# 3 76.2837 70.1346 165.9535 0.0000 0.0000 0.0000
# 4 0.0000 0.0000 0.0000 37.0080 0.0000 0.0000
# 5 0.0000 0.0000 0.0000 0.0000 29.2247 0.0000
# 6 0.0000 0.0000 0.0000 0.0000 0.0000 17.9369
#
#
#
# Elastic Compliance Matrix: (Units=1/GPa)
#
#
# Indices 1 2 3 4 5 6 
#
# 1 0.048260 -0.016146 -0.015360 0.000000 0.000000 0.000000
# 2 -0.016146 0.025331 -0.003284 0.000000 0.000000 0.000000
# 3 -0.015360 -0.003284 0.014474 0.000000 0.000000 0.000000
# 4 0.000000 0.000000 0.000000 0.027021 0.000000 0.000000
# 5 0.000000 0.000000 0.000000 0.000000 0.034218 0.000000
# 6 0.000000 0.000000 0.000000 0.000000 0.000000 0.055751
#
#
# Mechanical properties :
#
#
# Convention : Reuss Voigt Hill
#
# Bulk Modulus (GPa) = 54.09477 77.56249 65.82863
# Shear Modulus (GPa) = 17.80649 24.28253 21.04451
#
# Velocity S-wave (km/s) = 3.20499 3.74270 3.48423
# Velocity P-wave (km/s) = 6.70086 7.96369 7.35941
#
# Compressibility (1/GPa) = 0.01848608
#
# Stress axis : x y z
#
# Youngs Moduli (GPa) = 20.72095 39.47757 69.08881
#
# Poissons Ratio (x) = 0.63740 1.06123
# Poissons Ratio (y) = 0.33456 0.22685
# Poissons Ratio (z) = 0.31828 0.12962
#
# Static dielectric constant tensor:
#      x y z
#    x 1.580380 0.000000 0.000000 
#    y 0.000000 1.580390 0.000000 
#    z 0.000000 0.000000 1.563390 
# 
# From -- ./inp_files/30694.got.cif
#   From: 2010.05.17/outbox.cif.g08.bks.cpg/sg59_16_cif.got.tgz:30694.got - 2010.06.03 14:40:33.
