data_PCOD9450034
_publ_section_title
;
Structure prediction by ZEFSAII (Michael W. Deem and Ramdas Pophale) SiO2 
 PCOD9450034
Probable space group: P M M N
;
_chemical_formula_sum "Si O2"
_cell_formula_units_Z 56
_cell_length_a 7.975312
_cell_length_b 15.861826
_cell_length_c 21.945243
_cell_angle_alpha 90.000000
_cell_angle_beta 90.000000
_cell_angle_gamma 90.000000
_cell_volume 2776.139322
_symmetry_space_group_name_H-M "P M M N"
_symmetry_group_IT_number 59
_space_group.IT_coordinate_system_code '2'
_symmetry_cell_setting 'orthorhombic'
loop_
_space_group_symop_operation_xyz
x,y,z
1/2-x,1/2-y,z
1/2+x,-y,-z
-x,1/2+y,-z
-x,-y,-z
1/2+x,1/2+y,-z
1/2-x,y,z
x,1/2-y,z
loop_
_atom_site_type_symbol
_atom_site_label
_atom_site_fract_x
_atom_site_fract_y
_atom_site_fract_z
Si Si1 0.553240 0.597106 0.492366
Si Si2 0.952637 0.845790 0.928306
Si Si3 0.045230 0.345743 0.931803
Si Si4 0.551563 0.006355 0.290104
Si Si5 0.046975 0.656517 0.624556
Si Si6 0.450802 0.496929 0.846887
Si Si7 0.053899 0.843415 0.362491
O O1 0.500000 0.500000 0.500000
O O2 0.750000 0.600454 0.479580
O O3 0.514395 0.642139 0.555888
O O4 0.463711 0.637560 0.434309
O O5 0.750000 0.847261 0.927356
O O6 0.005648 0.750000 0.912811
O O7 0.005868 0.863105 0.998248
O O8 0.016245 0.917108 0.883191
O O9 0.250000 0.346682 0.931490
O O10 0.994221 0.250000 0.916010
O O11 0.984057 0.417520 0.885967
O O12 0.750000 0.023092 0.284380
O O13 0.481234 0.001529 0.221838
O O14 0.529556 0.918699 0.325318
O O15 0.482581 0.082159 0.331793
O O16 0.250000 0.652015 0.622585
O O17 0.999246 0.750000 0.645856
O O18 0.250000 0.485370 0.842771
O O19 0.250000 0.844306 0.347009
O O20 0.985156 0.750000 0.349649
#
# Coordination Sequence:
#
# PCOD9450034 Si02
#       7
#     8   8   8   8   8   8   8
#     4  12  23  37  61  89 115 143 181 231 284 334
#     4   9  18  33  53  77 107 146 186 224 275 334
#     4   8  15  30  52  78 109 143 181 228 279 330
#     4  10  22  38  56  81 113 151 189 228 275 330
#     4  10  21  38  58  80 110 148 187 229 280 334
#     4  10  20  33  54  83 110 141 185 231 278 325
#     4  11  24  41  61  85 114 149 186 228 280 331
#
# _framework density 20.171900000000001
#
# number of rings (size 3 to 8) (size 9 to 14) (size 15 to 20)
#    0.000    2.000    1.429    3.429    0.000    5.143 
#    0.000    2.857    0.000    1.286    0.000    0.000 
#    0.000    0.000    0.000    0.000    0.000    0.000 
#
# Total GULP energy -312781.472772 kJ/mol
# GULP energy per Si atom -5585.383442 kJ/mol
# Density = 2.012599 g / cm^3
# Si number density = 20.171900 Si / 1000 Ang^3
#
#
#
# Elastic Constant Matrix: (Units=GPa)
#
#
# Indices 1 2 3 4 5 6 
#
# 1 15.5417 -10.2163 -8.1102 0.0000 0.0000 0.0000
# 2 -10.2163 124.2814 65.7500 0.0000 0.0000 0.0000
# 3 -8.1102 65.7500 127.8014 0.0000 0.0000 0.0000
# 4 0.0000 0.0000 0.0000 -5.5633 0.0000 0.0000
# 5 0.0000 0.0000 0.0000 0.0000 -3.9373 0.0000
# 6 0.0000 0.0000 0.0000 0.0000 0.0000 24.4979
#
#
#
# Elastic Compliance Matrix: (Units=1/GPa)
#
#
# Indices 1 2 3 4 5 6 
#
# 1 0.068384 0.004569 0.001989 0.000000 0.000000 0.000000
# 2 0.004569 0.011361 -0.005555 0.000000 0.000000 0.000000
# 3 0.001989 -0.005555 0.010809 0.000000 0.000000 0.000000
# 4 0.000000 0.000000 0.000000 -0.179750 0.000000 0.000000
# 5 0.000000 0.000000 0.000000 0.000000 -0.253981 0.000000
# 6 0.000000 0.000000 0.000000 0.000000 0.000000 0.040820
#
#
# Mechanical properties :
#
#
# Convention : Reuss Voigt Hill
#
# Bulk Modulus (GPa) = 10.80376 40.27460 25.53918
# Shear Modulus (GPa) = -18.28081 17.67953 -0.30064
#
# Velocity S-wave (km/s) = -3.01367 2.96369 -0.38648
# Velocity P-wave (km/s) = 2.59656 5.63208 3.53399
#
# Compressibility (1/GPa) = 0.09256037
#
# Stress axis : x y z
#
# Youngs Moduli (GPa) = 14.62321 88.02413 92.51906
#
# Poissons Ratio (x) = -0.40220 -0.18401
# Poissons Ratio (y) = -0.06682 0.51391
# Poissons Ratio (z) = -0.02908 0.48895
#
# Static dielectric constant tensor:
#      x y z
#    x 1.725180 0.000000 0.000000 
#    y 0.000000 1.707360 0.000000 
#    z 0.000000 0.000000 1.687150 
# 
# From -- ./inp_files/28990.got.cif
#   From: 2010.05.17/outbox.cif.g08.bks.cpg/sg59_15_cif.got.tgz:28990.got - 2010.06.03 14:40:33.
