data_PCOD9450479
_publ_section_title
;
Structure prediction by ZEFSAII (Michael W. Deem and Ramdas Pophale) SiO2 
 PCOD9450479
Probable space group: P M M N
;
_chemical_formula_sum "Si O2"
_cell_formula_units_Z 56
_cell_length_a 8.583475
_cell_length_b 14.636552
_cell_length_c 24.939566
_cell_angle_alpha 90.000000
_cell_angle_beta 90.000000
_cell_angle_gamma 90.000000
_cell_volume 3133.219481
_symmetry_space_group_name_H-M "P M M N"
_symmetry_group_IT_number 59
_space_group.IT_coordinate_system_code '2'
_symmetry_cell_setting 'orthorhombic'
loop_
_space_group_symop_operation_xyz
x,y,z
1/2-x,1/2-y,z
1/2+x,-y,-z
-x,1/2+y,-z
-x,-y,-z
1/2+x,1/2+y,-z
1/2-x,y,z
x,1/2-y,z
loop_
_atom_site_type_symbol
_atom_site_label
_atom_site_fract_x
_atom_site_fract_y
_atom_site_fract_z
Si Si1 0.563375 0.501463 0.730952
Si Si2 0.936901 0.552128 0.153913
Si Si3 0.561656 0.355401 0.351717
Si Si4 0.061885 0.645295 0.357830
Si Si5 0.060179 0.250000 0.886804
Si Si6 0.062536 0.054078 0.051418
Si Si7 0.939308 0.750000 0.988620
Si Si8 0.436410 0.002572 0.559902
O O1 0.750000 0.505660 0.732477
O O2 0.499025 0.485870 0.790086
O O3 0.500467 0.590745 0.700209
O O4 0.516255 0.415040 0.693751
O O5 0.750000 0.551822 0.154444
O O6 0.989570 0.656685 0.142215
O O7 0.995853 0.490779 0.104823
O O8 0.750000 0.356447 0.350048
O O9 0.510524 0.250000 0.354356
O O10 0.512925 0.415821 0.403441
O O11 0.250000 0.644285 0.360925
O O12 0.009964 0.750000 0.354364
O O13 0.995601 0.592128 0.408973
O O14 0.250000 0.250000 0.887476
O O15 0.008473 0.250000 0.949157
O O16 0.250000 0.049760 0.052443
O O17 0.013147 0.158710 0.042027
O O18 0.000000 0.000000 0.000000
O O19 0.750000 0.750000 0.990743
O O20 0.250000 0.002606 0.558578
O O21 0.500000 0.000000 0.500000
#
# Coordination Sequence:
#
# PCOD9450479 Si02
#       8
#     8   8   8   8   4   8   4   8
#     4  10  21  37  57  83 112 142 180 228 280 331
#     4  11  22  38  58  82 112 146 184 227 273 329
#     4   9  19  38  61  81 106 146 192 234 276 325
#     4   9  19  36  56  78 110 148 182 223 276 328
#     4   9  18  34  56  82 110 144 180 217 270 329
#     4  11  21  37  59  82 110 145 182 227 278 334
#     4   9  18  36  58  78 108 144 178 217 272 333
#     4  10  20  34  54  83 116 148 186 230 275 327
#
# _framework density 17.872990000000001
#
# number of rings (size 3 to 8) (size 9 to 14) (size 15 to 20)
#    0.000    2.143    1.429    1.714    1.000    2.286 
#    1.286    4.643    0.000    0.000    0.000    0.000 
#    0.000    0.000    0.000    0.000    0.000    0.000 
#
# Total GULP energy -312576.973535 kJ/mol
# GULP energy per Si atom -5581.731670 kJ/mol
# Density = 1.783231 g / cm^3
# Si number density = 17.872990 Si / 1000 Ang^3
#
#
#
# Elastic Constant Matrix: (Units=GPa)
#
#
# Indices 1 2 3 4 5 6 
#
# 1 23.9492 30.2585 29.2380 0.0000 0.0000 0.0000
# 2 30.2585 177.8174 86.6930 0.0000 0.0000 0.0000
# 3 29.2380 86.6930 171.7959 0.0000 0.0000 0.0000
# 4 0.0000 0.0000 0.0000 10.8868 0.0000 0.0000
# 5 0.0000 0.0000 0.0000 0.0000 31.8930 0.0000
# 6 0.0000 0.0000 0.0000 0.0000 0.0000 23.1739
#
#
#
# Elastic Compliance Matrix: (Units=1/GPa)
#
#
# Indices 1 2 3 4 5 6 
#
# 1 0.058206 -0.006731 -0.006509 0.000000 0.000000 0.000000
# 2 -0.006731 0.008237 -0.003011 0.000000 0.000000 0.000000
# 3 -0.006509 -0.003011 0.008448 0.000000 0.000000 0.000000
# 4 0.000000 0.000000 0.000000 0.091855 0.000000 0.000000
# 5 0.000000 0.000000 0.000000 0.000000 0.031355 0.000000
# 6 0.000000 0.000000 0.000000 0.000000 0.000000 0.043152
#
#
# Mechanical properties :
#
#
# Convention : Reuss Voigt Hill
#
# Bulk Modulus (GPa) = 23.59142 73.99349 48.79246
# Shear Modulus (GPa) = 17.36798 28.34894 22.85846
#
# Velocity S-wave (km/s) = 3.12066 3.98695 3.58011
# Velocity P-wave (km/s) = 5.11985 7.91731 6.66696
#
# Compressibility (1/GPa) = 0.04238830
#
# Stress axis : x y z
#
# Youngs Moduli (GPa) = 17.18027 121.40030 118.36815
#
# Poissons Ratio (x) = 0.81716 0.77051
# Poissons Ratio (y) = 0.11564 0.35642
# Poissons Ratio (z) = 0.11183 0.36555
#
# Static dielectric constant tensor:
#      x y z
#    x 1.631770 0.000000 0.000000 
#    y 0.000000 1.613010 0.000000 
#    z 0.000000 0.000000 1.569110 
# 
# From -- ./inp_files/29228.got.cif
#   From: 2010.05.17/outbox.cif.g08.bks.cpg/sg59_15_cif.got.tgz:29228.got - 2010.06.03 14:40:33.
