data_PCOD9450920
_publ_section_title
;
Structure prediction by ZEFSAII (Michael W. Deem and Ramdas Pophale) SiO2 
 PCOD9450920
Probable space group: P M M N
;
_chemical_formula_sum "Si O2"
_cell_formula_units_Z 48
_cell_length_a 16.476762
_cell_length_b 8.530566
_cell_length_c 17.355406
_cell_angle_alpha 90.000000
_cell_angle_beta 90.000000
_cell_angle_gamma 90.000000
_cell_volume 2439.408280
_symmetry_space_group_name_H-M "P M M N"
_symmetry_group_IT_number 59
_space_group.IT_coordinate_system_code '2'
_symmetry_cell_setting 'orthorhombic'
loop_
_space_group_symop_operation_xyz
x,y,z
1/2-x,1/2-y,z
1/2+x,-y,-z
-x,1/2+y,-z
-x,-y,-z
1/2+x,1/2+y,-z
1/2-x,y,z
x,1/2-y,z
loop_
_atom_site_type_symbol
_atom_site_label
_atom_site_fract_x
_atom_site_fract_y
_atom_site_fract_z
Si Si1 0.104121 0.438721 0.161459
Si Si2 0.750000 0.060629 0.554306
Si Si3 0.085017 0.937159 0.532397
Si Si4 0.841985 0.937230 0.317126
Si Si5 0.750000 0.940334 0.728222
Si Si6 0.579393 0.439824 0.165626
Si Si7 0.844078 0.061298 0.004826
O O1 0.105621 0.250000 0.161466
O O2 0.171321 0.491816 0.222728
O O3 0.013088 0.488962 0.181088
O O4 0.125432 0.493501 0.075602
O O5 0.750000 0.250000 0.550965
O O6 0.666312 0.006259 0.513098
O O7 0.750000 0.006118 0.642499
O O8 0.083400 0.750000 0.527331
O O9 0.098174 0.988030 0.620569
O O10 0.000000 0.000000 0.500000
O O11 0.750000 0.988593 0.335353
O O12 0.846125 0.750000 0.322683
O O13 0.864180 0.990351 0.231433
O O14 0.750000 0.750000 0.724581
O O15 0.584578 0.250000 0.168729
O O16 0.605734 0.489332 0.079849
O O17 0.750000 0.017653 0.015677
O O18 0.848895 0.250000 0.000427
#
# Coordination Sequence:
#
# PCOD9450920 Si02
#       7
#     8   4   8   8   4   8   8
#     4  10  21  38  58  84 116 155 199 247 302 355
#     4  10  24  44  66  93 124 161 204 251 308 371
#     4  11  24  44  68  96 128 165 208 255 313 374
#     4  11  24  42  64  93 125 160 204 251 304 364
#     4  10  22  38  58  85 118 155 198 249 302 355
#     4  10  22  38  59  87 120 158 202 248 301 362
#     4  10  20  35  56  83 115 156 201 246 302 361
#
# _framework density 19.676902999999999
#
# number of rings (size 3 to 8) (size 9 to 14) (size 15 to 20)
#    0.000    1.667    1.667    2.000    2.333    5.000 
#    0.000    0.000    0.000    0.000    0.000    0.000 
#    0.000    0.000    0.000    0.000    0.000    0.000 
#
# Total GULP energy -268224.454486 kJ/mol
# GULP energy per Si atom -5588.009468 kJ/mol
# Density = 1.963212 g / cm^3
# Si number density = 19.676903 Si / 1000 Ang^3
#
#
#
# Elastic Constant Matrix: (Units=GPa)
#
#
# Indices 1 2 3 4 5 6 
#
# 1 98.5579 18.1500 20.0339 0.0000 0.0000 0.0000
# 2 18.1500 9.5733 5.1980 0.0000 0.0000 0.0000
# 3 20.0339 5.1980 99.6345 0.0000 0.0000 0.0000
# 4 0.0000 0.0000 0.0000 33.9509 0.0000 0.0000
# 5 0.0000 0.0000 0.0000 0.0000 27.5572 0.0000
# 6 0.0000 0.0000 0.0000 0.0000 0.0000 20.2870
#
#
#
# Elastic Compliance Matrix: (Units=1/GPa)
#
#
# Indices 1 2 3 4 5 6 
#
# 1 0.015854 -0.029152 -0.001667 0.000000 0.000000 0.000000
# 2 -0.029152 0.161107 -0.002543 0.000000 0.000000 0.000000
# 3 -0.001667 -0.002543 0.010505 0.000000 0.000000 0.000000
# 4 0.000000 0.000000 0.000000 0.029454 0.000000 0.000000
# 5 0.000000 0.000000 0.000000 0.000000 0.036288 0.000000
# 6 0.000000 0.000000 0.000000 0.000000 0.000000 0.049293
#
#
# Mechanical properties :
#
#
# Convention : Reuss Voigt Hill
#
# Bulk Modulus (GPa) = 8.28220 32.72550 20.50385
# Shear Modulus (GPa) = 12.21088 27.31792 19.76440
#
# Velocity S-wave (km/s) = 2.49383 3.73006 3.17274
# Velocity P-wave (km/s) = 3.53701 5.93454 4.88514
#
# Compressibility (1/GPa) = 0.12074080
#
# Stress axis : x y z
#
# Youngs Moduli (GPa) = 63.07710 6.20707 95.19689
#
# Poissons Ratio (x) = 0.18095 0.15868
# Poissons Ratio (y) = 1.83881 0.24212
# Poissons Ratio (z) = 0.10514 0.01579
#
# Static dielectric constant tensor:
#      x y z
#    x 1.699990 0.000000 0.000000 
#    y 0.000000 1.670440 0.000000 
#    z 0.000000 0.000000 1.644580 
# 
# From -- ./inp_files/23697.got.cif
#   From: 2010.05.17/outbox.cif.g08.bks.cpg/sg59_12_cif.got.tgz:23697.got - 2010.06.03 14:40:33.
