data_PCOD9450152
_publ_section_title
;
Structure prediction by ZEFSAII (Michael W. Deem and Ramdas Pophale) SiO2 
 PCOD9450152
Probable space group: P M M N
;
_chemical_formula_sum "Si O2"
_cell_formula_units_Z 64
_cell_length_a 19.713864
_cell_length_b 8.815324
_cell_length_c 19.981261
_cell_angle_alpha 90.000000
_cell_angle_beta 90.000000
_cell_angle_gamma 90.000000
_cell_volume 3472.425429
_symmetry_space_group_name_H-M "P M M N"
_symmetry_group_IT_number 59
_space_group.IT_coordinate_system_code '2'
_symmetry_cell_setting 'orthorhombic'
loop_
_space_group_symop_operation_xyz
x,y,z
1/2-x,1/2-y,z
1/2+x,-y,-z
-x,1/2+y,-z
-x,-y,-z
1/2+x,1/2+y,-z
1/2-x,y,z
x,1/2-y,z
loop_
_atom_site_type_symbol
_atom_site_label
_atom_site_fract_x
_atom_site_fract_y
_atom_site_fract_z
Si Si1 0.584429 0.433180 0.069827
Si Si2 0.433479 0.932600 0.077207
Si Si3 0.047733 0.566409 0.711938
Si Si4 0.416171 0.569119 0.222541
Si Si5 0.327262 0.931519 0.479106
Si Si6 0.544685 0.431837 0.440287
Si Si7 0.172126 0.934896 0.802527
Si Si8 0.831537 0.575372 0.660988
O O1 0.580979 0.250000 0.073741
O O2 0.508942 0.497925 0.080244
O O3 0.636373 0.482852 0.127600
O O4 0.601394 0.476385 0.992942
O O5 0.440293 0.750000 0.076083
O O6 0.397554 0.974972 0.146548
O O7 0.045260 0.750000 0.712642
O O8 0.033645 0.515212 0.635689
O O9 0.120655 0.521298 0.742719
O O10 0.988485 0.502757 0.758492
O O11 0.421526 0.750000 0.225998
O O12 0.363617 0.512317 0.277496
O O13 0.250000 0.980625 0.491572
O O14 0.327262 0.750000 0.469342
O O15 0.377832 0.965883 0.539058
O O16 0.352327 0.006490 0.410387
O O17 0.500000 0.500000 0.500000
O O18 0.535188 0.250000 0.441195
O O19 0.250000 0.987045 0.796208
O O20 0.173885 0.750000 0.802898
O O21 0.750000 0.567119 0.663646
O O22 0.853190 0.750000 0.664020
#
# Coordination Sequence:
#
# PCOD9450152 Si02
#       8
#     8   8   8   8   8   8   8   8
#     4   9  16  30  51  74 100 132 171 210 252 302
#     4   9  18  30  48  75 103 131 168 211 253 299
#     4  10  20  34  52  76 104 136 177 216 259 311
#     4  11  21  33  51  76 106 137 172 214 258 307
#     4   9  18  34  54  74  98 131 169 208 256 312
#     4  10  21  34  50  74 102 131 165 210 258 307
#     4   9  17  30  51  78 106 136 173 217 260 303
#     4  10  21  36  54  76 101 131 169 212 258 312
#
# _framework density 18.430921000000001
#
# number of rings (size 3 to 8) (size 9 to 14) (size 15 to 20)
#    0.000    2.375    1.250    1.500    0.000    4.750 
#    0.000    3.125    0.000    3.750    0.000    1.750 
#    0.000    0.000    0.000    0.000    0.000    0.000 
#
# Total GULP energy -356835.851148 kJ/mol
# GULP energy per Si atom -5575.560174 kJ/mol
# Density = 1.838897 g / cm^3
# Si number density = 18.430921 Si / 1000 Ang^3
#
#
#
# Elastic Constant Matrix: (Units=GPa)
#
#
# Indices 1 2 3 4 5 6 
#
# 1 42.8498 9.1041 23.3847 0.0000 0.0000 0.0000
# 2 9.1041 6.8513 19.3560 0.0000 0.0000 0.0000
# 3 23.3847 19.3560 118.7086 0.0000 0.0000 0.0000
# 4 0.0000 0.0000 0.0000 18.1054 0.0000 0.0000
# 5 0.0000 0.0000 0.0000 0.0000 29.0879 0.0000
# 6 0.0000 0.0000 0.0000 0.0000 0.0000 18.8320
#
#
#
# Elastic Compliance Matrix: (Units=1/GPa)
#
#
# Indices 1 2 3 4 5 6 
#
# 1 0.032608 -0.046691 0.001190 0.000000 0.000000 0.000000
# 2 -0.046691 0.337471 -0.045828 0.000000 0.000000 0.000000
# 3 0.001190 -0.045828 0.015662 0.000000 0.000000 0.000000
# 4 0.000000 0.000000 0.000000 0.055232 0.000000 0.000000
# 5 0.000000 0.000000 0.000000 0.000000 0.034379 0.000000
# 6 0.000000 0.000000 0.000000 0.000000 0.000000 0.053101
#
#
# Mechanical properties :
#
#
# Convention : Reuss Voigt Hill
#
# Bulk Modulus (GPa) = 4.92411 30.23325 17.57868
# Shear Modulus (GPa) = 6.42007 20.97604 13.69806
#
# Velocity S-wave (km/s) = 1.86839 3.37722 2.72915
# Velocity P-wave (km/s) = 2.70776 5.62553 4.41467
#
# Compressibility (1/GPa) = 0.20308232
#
# Stress axis : x y z
#
# Youngs Moduli (GPa) = 30.66699 2.96321 63.84805
#
# Poissons Ratio (x) = 0.13836 -0.07595
# Poissons Ratio (y) = 1.43187 2.92606
# Poissons Ratio (z) = -0.03648 0.13580
#
# Static dielectric constant tensor:
#      x y z
#    x 1.631260 0.000000 0.000000 
#    y 0.000000 1.629470 0.000000 
#    z 0.000000 0.000000 1.656420 
# 
# From -- ./inp_files/28316.got.cif
#   From: 2010.05.17/outbox.cif.g08.bks.cpg/sg59_15_cif.got.tgz:28316.got - 2010.06.03 14:40:33.
