data_PCOD9450112
_publ_section_title
;
Structure prediction by ZEFSAII (Michael W. Deem and Ramdas Pophale) SiO2 
 PCOD9450112
Probable space group: P M M N
;
_chemical_formula_sum "Si O2"
_cell_formula_units_Z 64
_cell_length_a 14.869604
_cell_length_b 7.512144
_cell_length_c 26.105250
_cell_angle_alpha 90.000000
_cell_angle_beta 90.000000
_cell_angle_gamma 90.000000
_cell_volume 2916.024468
_symmetry_space_group_name_H-M "P M M N"
_symmetry_group_IT_number 59
_space_group.IT_coordinate_system_code '2'
_symmetry_cell_setting 'orthorhombic'
loop_
_space_group_symop_operation_xyz
x,y,z
1/2-x,1/2-y,z
1/2+x,-y,-z
-x,1/2+y,-z
-x,-y,-z
1/2+x,1/2+y,-z
1/2-x,y,z
x,1/2-y,z
loop_
_atom_site_type_symbol
_atom_site_label
_atom_site_fract_x
_atom_site_fract_y
_atom_site_fract_z
Si Si1 0.351122 0.537476 0.782646
Si Si2 0.147466 0.038876 0.587182
Si Si3 0.647455 0.035730 0.019836
Si Si4 0.849022 0.543003 0.901701
Si Si5 0.853024 0.467506 0.637615
Si Si6 0.967663 0.964091 0.317147
Si Si7 0.854818 0.036735 0.523964
Si Si8 0.459379 0.968971 0.881275
O O1 0.250000 0.467664 0.774307
O O2 0.344082 0.750000 0.788371
O O3 0.415640 0.505673 0.734632
O O4 0.396577 0.471294 0.834882
O O5 0.250000 0.965843 0.587469
O O6 0.154578 0.250000 0.594963
O O7 0.089154 0.967738 0.634041
O O8 0.104904 0.017003 0.530604
O O9 0.750000 0.991589 0.035028
O O10 0.641271 0.250000 0.016243
O O11 0.633192 0.964004 0.962858
O O12 0.580506 0.974457 0.063961
O O13 0.750000 0.462806 0.892821
O O14 0.843792 0.750000 0.887061
O O15 0.938036 0.468298 0.875559
O O16 0.750000 0.526693 0.645844
O O17 0.849821 0.250000 0.637717
O O18 0.885221 0.521866 0.580249
O O19 0.929286 0.526040 0.677222
O O20 0.970775 0.750000 0.321111
O O21 0.750000 0.978344 0.521493
O O22 0.856764 0.250000 0.524542
O O23 0.459796 0.750000 0.881723
#
# Coordination Sequence:
#
# PCOD9450112 Si02
#       8
#     8   8   8   8   8   8   8   8
#     4  10  21  37  55  73  94 122 160 205 246 285
#     4   9  17  28  42  64  96 128 154 186 235 290
#     4   9  16  27  46  71  97 126 159 193 230 274
#     4   9  17  29  46  70 100 130 157 188 230 280
#     4   8  15  30  51  72  95 125 160 196 235 283
#     4  10  20  34  52  72  95 126 162 199 243 291
#     4   8  14  26  45  68  93 122 156 191 226 272
#     4   9  17  31  50  69  92 126 164 196 232 281
#
# _framework density 21.947687999999999
#
# number of rings (size 3 to 8) (size 9 to 14) (size 15 to 20)
#    0.000    3.000    0.000    1.875    0.000    3.250 
#    0.000    3.750    0.000    3.375    0.000    0.000 
#    0.000    0.000    0.000    0.000    0.000    0.000 
#
# Total GULP energy -357046.944649 kJ/mol
# GULP energy per Si atom -5578.858510 kJ/mol
# Density = 2.189773 g / cm^3
# Si number density = 21.947688 Si / 1000 Ang^3
#
#
#
# Elastic Constant Matrix: (Units=GPa)
#
#
# Indices 1 2 3 4 5 6 
#
# 1 131.0826 8.1381 36.8277 0.0000 0.0000 0.0000
# 2 8.1381 54.4052 -2.8366 0.0000 0.0000 0.0000
# 3 36.8277 -2.8366 24.5190 0.0000 0.0000 0.0000
# 4 0.0000 0.0000 0.0000 18.1832 0.0000 0.0000
# 5 0.0000 0.0000 0.0000 0.0000 34.3976 0.0000
# 6 0.0000 0.0000 0.0000 0.0000 0.0000 3.6502
#
#
#
# Elastic Compliance Matrix: (Units=1/GPa)
#
#
# Indices 1 2 3 4 5 6 
#
# 1 0.013713 -0.003144 -0.020961 0.000000 0.000000 0.000000
# 2 -0.003144 0.019213 0.006945 0.000000 0.000000 0.000000
# 3 -0.020961 0.006945 0.073071 0.000000 0.000000 0.000000
# 4 0.000000 0.000000 0.000000 0.054996 0.000000 0.000000
# 5 0.000000 0.000000 0.000000 0.000000 0.029072 0.000000
# 6 0.000000 0.000000 0.000000 0.000000 0.000000 0.273955
#
#
# Mechanical properties :
#
#
# Convention : Reuss Voigt Hill
#
# Bulk Modulus (GPa) = 13.95125 32.69612 23.32369
# Shear Modulus (GPa) = 9.57429 22.43802 16.00616
#
# Velocity S-wave (km/s) = 2.09088 3.20088 2.70346
# Velocity P-wave (km/s) = 3.49277 5.34700 4.51608
#
# Compressibility (1/GPa) = 0.07167816
#
# Stress axis : x y z
#
# Youngs Moduli (GPa) = 72.92423 52.04808 13.68526
#
# Poissons Ratio (x) = 0.16364 0.28685
# Poissons Ratio (y) = 0.22928 -0.09505
# Poissons Ratio (z) = 1.52854 -0.36148
#
# Static dielectric constant tensor:
#      x y z
#    x 1.841240 0.000000 0.000000 
#    y 0.000000 1.833070 0.000000 
#    z 0.000000 0.000000 1.766340 
# 
# From -- ./inp_files/32236.got.cif
#   From: 2010.05.17/outbox.cif.g08.bks.cpg/sg59_17_cif.got.tgz:32236.got - 2010.06.03 14:40:33.
