data_PCOD9450909
_publ_section_title
;
Structure prediction by ZEFSAII (Michael W. Deem and Ramdas Pophale) SiO2 
 PCOD9450909
Probable space group: P M M N
;
_chemical_formula_sum "Si O2"
_cell_formula_units_Z 48
_cell_length_a 8.619613
_cell_length_b 16.543921
_cell_length_c 18.453618
_cell_angle_alpha 90.000000
_cell_angle_beta 90.000000
_cell_angle_gamma 90.000000
_cell_volume 2631.526461
_symmetry_space_group_name_H-M "P M M N"
_symmetry_group_IT_number 59
_space_group.IT_coordinate_system_code '2'
_symmetry_cell_setting 'orthorhombic'
loop_
_space_group_symop_operation_xyz
x,y,z
1/2-x,1/2-y,z
1/2+x,-y,-z
-x,1/2+y,-z
-x,-y,-z
1/2+x,1/2+y,-z
1/2-x,y,z
x,1/2-y,z
loop_
_atom_site_type_symbol
_atom_site_label
_atom_site_fract_x
_atom_site_fract_y
_atom_site_fract_z
Si Si1 0.064179 0.158468 0.665498
Si Si2 0.066173 0.990057 0.420200
Si Si3 0.438464 0.420362 0.277199
Si Si4 0.934825 0.569450 0.187430
Si Si5 0.434383 0.586144 0.028877
Si Si6 0.061465 0.250000 0.213737
Si Si7 0.062890 0.250000 0.045316
O O1 0.250000 0.150891 0.655416
O O2 0.017639 0.250000 0.651899
O O3 0.032462 0.133295 0.748498
O O4 0.981213 0.095918 0.613088
O O5 0.250000 0.996886 0.424722
O O6 0.012730 0.053758 0.358319
O O7 0.000000 0.000000 0.500000
O O8 0.250000 0.425779 0.273416
O O9 0.508472 0.484573 0.220862
O O10 0.487914 0.331130 0.254371
O O11 0.750000 0.567313 0.174479
O O12 0.021140 0.589329 0.113505
O O13 0.250000 0.585889 0.018870
O O14 0.500000 0.500000 0.000000
O O15 0.502958 0.666661 0.990852
O O16 0.250000 0.250000 0.213954
O O17 0.014331 0.250000 0.129762
O O18 0.250000 0.250000 0.041202
#
# Coordination Sequence:
#
# PCOD9450909 Si02
#       7
#     8   8   8   8   8   4   4
#     4   9  19  36  58  84 111 146 188 231 284 344
#     4  10  20  35  56  82 116 151 186 231 281 337
#     4   9  18  35  58  83 109 147 192 235 283 342
#     4  10  20  35  58  84 113 149 189 237 291 350
#     4  12  25  41  59  85 119 159 203 250 301 357
#     4   9  18  35  59  81 104 137 188 237 279 334
#     4  11  23  39  61  89 120 155 192 247 309 364
#
# _framework density 18.240365000000001
#
# number of rings (size 3 to 8) (size 9 to 14) (size 15 to 20)
#    0.000    2.000    0.000    3.750    1.167    3.000 
#    1.500    1.250    0.000    0.000    0.000    0.000 
#    0.000    0.000    0.000    0.000    0.000    0.000 
#
# Total GULP energy -267981.491060 kJ/mol
# GULP energy per Si atom -5582.947730 kJ/mol
# Density = 1.819885 g / cm^3
# Si number density = 18.240365 Si / 1000 Ang^3
#
#
#
# Elastic Constant Matrix: (Units=GPa)
#
#
# Indices 1 2 3 4 5 6 
#
# 1 62.7151 46.8947 46.1449 0.0000 0.0000 0.0000
# 2 46.8947 152.2871 94.7923 0.0000 0.0000 0.0000
# 3 46.1449 94.7923 153.5224 0.0000 0.0000 0.0000
# 4 0.0000 0.0000 0.0000 7.2674 0.0000 0.0000
# 5 0.0000 0.0000 0.0000 0.0000 31.5310 0.0000
# 6 0.0000 0.0000 0.0000 0.0000 0.0000 30.7862
#
#
#
# Elastic Compliance Matrix: (Units=1/GPa)
#
#
# Indices 1 2 3 4 5 6 
#
# 1 0.022108 -0.004339 -0.003966 0.000000 0.000000 0.000000
# 2 -0.004339 0.011517 -0.005807 0.000000 0.000000 0.000000
# 3 -0.003966 -0.005807 0.011291 0.000000 0.000000 0.000000
# 4 0.000000 0.000000 0.000000 0.137601 0.000000 0.000000
# 5 0.000000 0.000000 0.000000 0.000000 0.031715 0.000000
# 6 0.000000 0.000000 0.000000 0.000000 0.000000 0.032482
#
#
# Mechanical properties :
#
#
# Convention : Reuss Voigt Hill
#
# Bulk Modulus (GPa) = 59.90833 82.68758 71.29796
# Shear Modulus (GPa) = 17.82512 25.96310 21.89411
#
# Velocity S-wave (km/s) = 3.12947 3.77687 3.46831
# Velocity P-wave (km/s) = 6.78036 8.02809 7.43046
#
# Compressibility (1/GPa) = 0.01669217
#
# Stress axis : x y z
#
# Youngs Moduli (GPa) = 45.23310 86.82451 88.56326
#
# Poissons Ratio (x) = 0.37675 0.35122
# Poissons Ratio (y) = 0.19628 0.51430
# Poissons Ratio (z) = 0.17938 0.50421
#
# Static dielectric constant tensor:
#      x y z
#    x 1.634470 0.000000 0.000000 
#    y 0.000000 1.614770 0.000000 
#    z 0.000000 0.000000 1.607000 
# 
# From -- ./inp_files/25594.got.cif
#   From: 2010.05.17/outbox.cif.g08.bks.cpg/sg59_13_cif.got.tgz:25594.got - 2010.06.03 14:40:33.
