data_PCOD9450399
_publ_section_title
;
Structure prediction by ZEFSAII (Michael W. Deem and Ramdas Pophale) SiO2 
 PCOD9450399
Probable space group: P M M N
;
_chemical_formula_sum "Si O2"
_cell_formula_units_Z 56
_cell_length_a 14.980403
_cell_length_b 7.983882
_cell_length_c 22.773448
_cell_angle_alpha 90.000000
_cell_angle_beta 90.000000
_cell_angle_gamma 90.000000
_cell_volume 2723.744687
_symmetry_space_group_name_H-M "P M M N"
_symmetry_group_IT_number 59
_space_group.IT_coordinate_system_code '2'
_symmetry_cell_setting 'orthorhombic'
loop_
_space_group_symop_operation_xyz
x,y,z
1/2-x,1/2-y,z
1/2+x,-y,-z
-x,1/2+y,-z
-x,-y,-z
1/2+x,1/2+y,-z
1/2-x,y,z
x,1/2-y,z
loop_
_atom_site_type_symbol
_atom_site_label
_atom_site_fract_x
_atom_site_fract_y
_atom_site_fract_z
Si Si1 0.647006 0.048854 0.026895
Si Si2 0.147072 0.955111 0.746279
Si Si3 0.651164 0.551585 0.893761
Si Si4 0.649546 0.944614 0.478171
Si Si5 0.959095 0.053962 0.367917
Si Si6 0.536930 0.455570 0.139752
Si Si7 0.849687 0.444051 0.608842
O O1 0.750000 0.013854 0.043402
O O2 0.638101 0.250000 0.020985
O O3 0.582616 0.990965 0.078731
O O4 0.631305 0.971483 0.963046
O O5 0.250000 0.008333 0.745971
O O6 0.146524 0.750000 0.746254
O O7 0.094517 0.011922 0.688330
O O8 0.095223 0.008712 0.804777
O O9 0.750000 0.478878 0.882478
O O10 0.656053 0.750000 0.882290
O O11 0.565512 0.485793 0.859060
O O12 0.750000 0.982801 0.455538
O O13 0.646639 0.750000 0.495266
O O14 0.578213 0.974995 0.427692
O O15 0.636724 0.044079 0.538360
O O16 0.939820 0.250000 0.372934
O O17 0.064967 0.029587 0.362378
O O18 0.536995 0.250000 0.139298
O O19 0.750000 0.513480 0.620755
O O20 0.850353 0.250000 0.625773
#
# Coordination Sequence:
#
# PCOD9450399 Si02
#       7
#     8   8   8   8   8   8   8
#     4   9  16  26  44  69  93 119 154 196 240 287
#     4   9  18  32  50  73  99 127 163 206 247 289
#     4   9  17  28  43  66  96 125 153 191 241 294
#     4  10  20  34  54  80 109 139 171 209 252 299
#     4  11  21  33  52  77 105 135 168 209 256 304
#     4   9  16  28  46  67  92 124 162 201 240 282
#     4  10  21  37  56  77 103 135 170 208 250 299
#
# _framework density 20.559930000000001
#
# number of rings (size 3 to 8) (size 9 to 14) (size 15 to 20)
#    0.000    2.429    0.000    3.000    0.000    4.000 
#    0.000    0.714    0.000    6.000    0.000    4.000 
#    0.000    0.000    0.000    0.000    0.000    0.000 
#
# Total GULP energy -312586.274292 kJ/mol
# GULP energy per Si atom -5581.897755 kJ/mol
# Density = 2.051313 g / cm^3
# Si number density = 20.559930 Si / 1000 Ang^3
#
#
#
# Elastic Constant Matrix: (Units=GPa)
#
#
# Indices 1 2 3 4 5 6 
#
# 1 161.6174 0.9972 62.9393 0.0000 0.0000 0.0000
# 2 0.9972 19.0772 -5.0056 0.0000 0.0000 0.0000
# 3 62.9393 -5.0056 39.2315 0.0000 0.0000 0.0000
# 4 0.0000 0.0000 0.0000 3.1378 0.0000 0.0000
# 5 0.0000 0.0000 0.0000 0.0000 35.8165 0.0000
# 6 0.0000 0.0000 0.0000 0.0000 0.0000 15.8895
#
#
#
# Elastic Compliance Matrix: (Units=1/GPa)
#
#
# Indices 1 2 3 4 5 6 
#
# 1 0.017786 -0.008708 -0.029645 0.000000 0.000000 0.000000
# 2 -0.008708 0.058498 0.021435 0.000000 0.000000 0.000000
# 3 -0.029645 0.021435 0.075785 0.000000 0.000000 0.000000
# 4 0.000000 0.000000 0.000000 0.318699 0.000000 0.000000
# 5 0.000000 0.000000 0.000000 0.000000 0.027920 0.000000
# 6 0.000000 0.000000 0.000000 0.000000 0.000000 0.062935
#
#
# Mechanical properties :
#
#
# Convention : Reuss Voigt Hill
#
# Bulk Modulus (GPa) = 8.45804 37.53196 22.99500
# Shear Modulus (GPa) = 7.87561 21.70177 14.78869
#
# Velocity S-wave (km/s) = 1.95931 3.25243 2.68488
# Velocity P-wave (km/s) = 3.03995 5.69200 4.56291
#
# Compressibility (1/GPa) = 0.11823065
#
# Stress axis : x y z
#
# Youngs Moduli (GPa) = 56.22356 17.09463 13.19522
#
# Poissons Ratio (x) = 0.14886 0.39118
# Poissons Ratio (y) = 0.48961 -0.28283
# Poissons Ratio (z) = 1.66677 -0.36642
#
# Static dielectric constant tensor:
#      x y z
#    x 1.761810 0.000000 0.000000 
#    y 0.000000 1.740790 0.000000 
#    z 0.000000 0.000000 1.692330 
# 
# From -- ./inp_files/29042.got.cif
#   From: 2010.05.17/outbox.cif.g08.bks.cpg/sg59_15_cif.got.tgz:29042.got - 2010.06.03 14:40:33.
