data_PCOD9450239
_publ_section_title
;
Structure prediction by ZEFSAII (Michael W. Deem and Ramdas Pophale) SiO2 
 PCOD9450239
Probable space group: P M M N
;
_chemical_formula_sum "Si O2"
_cell_formula_units_Z 48
_cell_length_a 8.639738
_cell_length_b 14.578711
_cell_length_c 21.777955
_cell_angle_alpha 90.000000
_cell_angle_beta 90.000000
_cell_angle_gamma 90.000000
_cell_volume 2743.069401
_symmetry_space_group_name_H-M "P M M N"
_symmetry_group_IT_number 59
_space_group.IT_coordinate_system_code '2'
_symmetry_cell_setting 'orthorhombic'
loop_
_space_group_symop_operation_xyz
x,y,z
1/2-x,1/2-y,z
1/2+x,-y,-z
-x,1/2+y,-z
-x,-y,-z
1/2+x,1/2+y,-z
1/2-x,y,z
x,1/2-y,z
loop_
_atom_site_type_symbol
_atom_site_label
_atom_site_fract_x
_atom_site_fract_y
_atom_site_fract_z
Si Si1 0.064733 0.006766 0.901247
Si Si2 0.064264 0.993956 0.235482
Si Si3 0.435791 0.143544 0.665530
Si Si4 0.061844 0.354154 0.332163
Si Si5 0.064152 0.502563 0.431570
Si Si6 0.936913 0.144294 0.999669
O O1 0.250000 0.008912 0.897240
O O2 0.018749 0.917293 0.941388
O O3 0.994443 0.005097 0.833719
O O4 0.006667 0.093652 0.940521
O O5 0.250000 0.989152 0.236696
O O6 0.997942 0.909086 0.274483
O O7 0.015896 0.085390 0.273137
O O8 0.250000 0.138007 0.664479
O O9 0.481442 0.250000 0.665226
O O10 0.502323 0.088958 0.607114
O O11 0.250000 0.351141 0.332104
O O12 0.004610 0.250000 0.331631
O O13 0.016318 0.412736 0.392084
O O14 0.250000 0.505531 0.432620
O O15 0.000000 0.500000 0.500000
O O16 0.750000 0.141474 0.995030
O O17 0.985103 0.250000 0.004770
#
# Coordination Sequence:
#
# PCOD9450239 Si02
#       6
#     8   8   8   8   8   8
#     4  10  20  34  53  77 105 135 169 211 257 307
#     4  10  20  34  54  78 104 136 171 211 260 312
#     4  10  21  37  56  77 103 137 177 221 266 310
#     4   8  16  32  52  74 100 131 169 210 251 299
#     4  10  20  34  54  79 108 141 175 214 260 310
#     4   9  19  36  55  75 102 136 173 213 256 302
#
# _framework density 17.498646000000001
#
# number of rings (size 3 to 8) (size 9 to 14) (size 15 to 20)
#    0.000    2.500    0.000    3.000    0.000    4.333 
#    0.000    1.667    0.000   17.000    0.000    0.000 
#    0.000    0.000    0.000    0.000    0.000    0.000 
#
# Total GULP energy -267802.341747 kJ/mol
# GULP energy per Si atom -5579.215453 kJ/mol
# Density = 1.745882 g / cm^3
# Si number density = 17.498646 Si / 1000 Ang^3
#
#
#
# Elastic Constant Matrix: (Units=GPa)
#
#
# Indices 1 2 3 4 5 6 
#
# 1 41.7145 45.7128 46.1322 0.0000 0.0000 0.0000
# 2 45.7128 190.8487 101.7927 0.0000 0.0000 0.0000
# 3 46.1322 101.7927 190.6638 0.0000 0.0000 0.0000
# 4 0.0000 0.0000 0.0000 5.3565 0.0000 0.0000
# 5 0.0000 0.0000 0.0000 0.0000 30.0343 0.0000
# 6 0.0000 0.0000 0.0000 0.0000 0.0000 22.6449
#
#
#
# Elastic Compliance Matrix: (Units=1/GPa)
#
#
# Indices 1 2 3 4 5 6 
#
# 1 0.036635 -0.005658 -0.005843 0.000000 0.000000 0.000000
# 2 -0.005658 0.008200 -0.003009 0.000000 0.000000 0.000000
# 3 -0.005843 -0.003009 0.008265 0.000000 0.000000 0.000000
# 4 0.000000 0.000000 0.000000 0.186689 0.000000 0.000000
# 5 0.000000 0.000000 0.000000 0.000000 0.033295 0.000000
# 6 0.000000 0.000000 0.000000 0.000000 0.000000 0.044160
#
#
# Mechanical properties :
#
#
# Convention : Reuss Voigt Hill
#
# Bulk Modulus (GPa) = 41.52918 90.05583 65.79251
# Shear Modulus (GPa) = 14.11268 26.91309 20.51289
#
# Velocity S-wave (km/s) = 2.84298 3.92600 3.42754
# Velocity P-wave (km/s) = 5.87886 8.49279 7.30372
#
# Compressibility (1/GPa) = 0.02407945
#
# Stress axis : x y z
#
# Youngs Moduli (GPa) = 27.29608 121.95392 120.99356
#
# Poissons Ratio (x) = 0.69007 0.70698
# Poissons Ratio (y) = 0.15445 0.36403
# Poissons Ratio (z) = 0.15950 0.36692
#
# Static dielectric constant tensor:
#      x y z
#    x 1.591870 0.000000 0.000000 
#    y 0.000000 1.590240 0.000000 
#    z 0.000000 0.000000 1.560870 
# 
# From -- ./inp_files/28835.got.cif
#   From: 2010.05.17/outbox.cif.g08.bks.cpg/sg59_15_cif.got.tgz:28835.got - 2010.06.03 14:40:33.
