data_PCOD9450072
_publ_section_title
;
Structure prediction by ZEFSAII (Michael W. Deem and Ramdas Pophale) SiO2 
 PCOD9450072
Probable space group: P M M N
;
_chemical_formula_sum "Si O2"
_cell_formula_units_Z 64
_cell_length_a 8.528299
_cell_length_b 29.374371
_cell_length_c 16.208763
_cell_angle_alpha 90.000000
_cell_angle_beta 90.000000
_cell_angle_gamma 90.000000
_cell_volume 4060.512634
_symmetry_space_group_name_H-M "P M M N"
_symmetry_group_IT_number 59
_space_group.IT_coordinate_system_code '2'
_symmetry_cell_setting 'orthorhombic'
loop_
_space_group_symop_operation_xyz
x,y,z
1/2-x,1/2-y,z
1/2+x,-y,-z
-x,1/2+y,-z
-x,-y,-z
1/2+x,1/2+y,-z
1/2-x,y,z
x,1/2-y,z
loop_
_atom_site_type_symbol
_atom_site_label
_atom_site_fract_x
_atom_site_fract_y
_atom_site_fract_z
Si Si1 0.062165 0.142455 0.160899
Si Si2 0.558028 0.697206 0.678406
Si Si3 0.937769 0.448667 0.093303
Si Si4 0.068461 0.194673 0.501553
Si Si5 0.059892 0.302813 0.681938
Si Si6 0.937688 0.357047 0.838203
Si Si7 0.062153 0.448130 0.907497
Si Si8 0.060392 0.802809 0.997464
O O1 0.250000 0.143068 0.159821
O O2 0.007737 0.166235 0.245463
O O3 0.003964 0.090985 0.150313
O O4 0.002176 0.171124 0.082511
O O5 0.750000 0.696754 0.675669
O O6 0.512687 0.750000 0.691854
O O7 0.500510 0.681742 0.587634
O O8 0.750000 0.445857 0.091605
O O9 0.983449 0.500290 0.116736
O O10 0.999408 0.440665 0.000358
O O11 0.250000 0.179442 0.501603
O O12 0.070459 0.250000 0.501240
O O13 0.001055 0.181988 0.590883
O O14 0.250000 0.303462 0.679711
O O15 0.012596 0.250000 0.695226
O O16 0.001243 0.333690 0.755959
O O17 0.750000 0.356210 0.836954
O O18 0.995499 0.408463 0.850649
O O19 0.990657 0.328310 0.918883
O O20 0.250000 0.445543 0.909055
O O21 0.250000 0.804154 0.995191
O O22 0.011137 0.750000 0.997840
#
# Coordination Sequence:
#
# PCOD9450072 Si02
#       8
#     8   8   8   8   8   8   8   8
#     4  11  20  29  46  71  95 123 159 194 228 270
#     4   8  14  25  42  67  97 124 154 193 231 266
#     4  10  20  34  50  68  92 120 150 190 240 282
#     4   7  11  23  43  65  90 120 153 192 234 268
#     4   9  17  29  47  70  94 123 160 196 227 268
#     4  11  21  32  47  67  94 127 156 187 235 282
#     4  10  20  34  52  70  87 114 156 199 233 272
#     4  10  21  34  44  58  89 131 164 187 221 270
#
# _framework density 15.761556000000001
#
# number of rings (size 3 to 8) (size 9 to 14) (size 15 to 20)
#    0.000    2.500    1.250    3.750    0.000    3.500 
#    0.000    0.000    0.000    1.500    0.000    4.375 
#    0.000    0.000    0.000    0.000    0.000    0.000 
#
# Total GULP energy -356711.563269 kJ/mol
# GULP energy per Si atom -5573.618176 kJ/mol
# Density = 1.572568 g / cm^3
# Si number density = 15.761556 Si / 1000 Ang^3
#
#
#
# Elastic Constant Matrix: (Units=GPa)
#
#
# Indices 1 2 3 4 5 6 
#
# 1 16.2865 21.9481 22.9753 0.0000 0.0000 0.0000
# 2 21.9481 113.6302 81.9919 0.0000 0.0000 0.0000
# 3 22.9753 81.9919 158.0023 0.0000 0.0000 0.0000
# 4 0.0000 0.0000 0.0000 8.9842 0.0000 0.0000
# 5 0.0000 0.0000 0.0000 0.0000 1.7343 0.0000
# 6 0.0000 0.0000 0.0000 0.0000 0.0000 20.9065
#
#
#
# Elastic Compliance Matrix: (Units=1/GPa)
#
#
# Indices 1 2 3 4 5 6 
#
# 1 0.086718 -0.012231 -0.006263 0.000000 0.000000 0.000000
# 2 -0.012231 0.015793 -0.006417 0.000000 0.000000 0.000000
# 3 -0.006263 -0.006417 0.010570 0.000000 0.000000 0.000000
# 4 0.000000 0.000000 0.000000 0.111307 0.000000 0.000000
# 5 0.000000 0.000000 0.000000 0.000000 0.576589 0.000000
# 6 0.000000 0.000000 0.000000 0.000000 0.000000 0.047832
#
#
# Mechanical properties :
#
#
# Convention : Reuss Voigt Hill
#
# Bulk Modulus (GPa) = 15.80788 60.19441 38.00115
# Shear Modulus (GPa) = 5.43645 17.05858 11.24752
#
# Velocity S-wave (km/s) = 1.85921 3.29339 2.67424
# Velocity P-wave (km/s) = 3.82885 7.26192 5.80498
#
# Compressibility (1/GPa) = 0.06325957
#
# Stress axis : x y z
#
# Youngs Moduli (GPa) = 11.53160 63.31802 94.60998
#
# Poissons Ratio (x) = 0.77444 0.59253
# Poissons Ratio (y) = 0.14104 0.60712
# Poissons Ratio (z) = 0.07222 0.40632
#
# Static dielectric constant tensor:
#      x y z
#    x 1.537210 0.000000 0.000000 
#    y 0.000000 1.517610 0.000000 
#    z 0.000000 0.000000 1.533520 
# 
# From -- ./inp_files/21881.got.cif
#   From: 2010.05.17/outbox.cif.g08.bks.cpg/sg59_11_cif.got.tgz:21881.got - 2010.06.03 14:40:33.
