data_PCOD9450763
_publ_section_title
;
Structure prediction by ZEFSAII (Michael W. Deem and Ramdas Pophale) SiO2 
 PCOD9450763
Probable space group: P M M N
;
_chemical_formula_sum "Si O2"
_cell_formula_units_Z 64
_cell_length_a 21.769080
_cell_length_b 8.962474
_cell_length_c 16.822017
_cell_angle_alpha 90.000000
_cell_angle_beta 90.000000
_cell_angle_gamma 90.000000
_cell_volume 3282.056490
_symmetry_space_group_name_H-M "P M M N"
_symmetry_group_IT_number 59
_space_group.IT_coordinate_system_code '2'
_symmetry_cell_setting 'orthorhombic'
loop_
_space_group_symop_operation_xyz
x,y,z
1/2-x,1/2-y,z
1/2+x,-y,-z
-x,1/2+y,-z
-x,-y,-z
1/2+x,1/2+y,-z
1/2-x,y,z
x,1/2-y,z
loop_
_atom_site_type_symbol
_atom_site_label
_atom_site_fract_x
_atom_site_fract_y
_atom_site_fract_z
Si Si1 0.379313 0.428765 0.387952
Si Si2 0.631562 0.074067 0.455102
Si Si3 0.988786 0.573731 0.379810
Si Si4 0.442109 0.572510 0.956262
Si Si5 0.819926 0.421357 0.283035
Si Si6 0.323388 0.076101 0.219880
Si Si7 0.679157 0.070236 0.948732
Si Si8 0.931521 0.921783 0.208429
O O1 0.376870 0.250000 0.391537
O O2 0.345404 0.497674 0.464377
O O3 0.448415 0.488873 0.395710
O O4 0.354015 0.476699 0.301800
O O5 0.622595 0.250000 0.468648
O O6 0.674367 0.056014 0.377839
O O7 0.567574 0.998678 0.427537
O O8 0.993167 0.750000 0.398126
O O9 0.973547 0.557586 0.286151
O O10 0.444968 0.750000 0.965565
O O11 0.446840 0.526695 0.864640
O O12 0.500000 0.500000 0.000000
O O13 0.375720 0.522315 0.992156
O O14 0.750000 0.434810 0.257461
O O15 0.840895 0.250000 0.267649
O O16 0.863911 0.535144 0.238980
O O17 0.250000 0.069373 0.230931
O O18 0.340494 0.250000 0.207644
O O19 0.337476 0.985709 0.139902
O O20 0.750000 0.019670 0.966476
O O21 0.680490 0.250000 0.949385
O O22 0.935229 0.750000 0.183284
#
# Coordination Sequence:
#
# PCOD9450763 Si02
#       8
#     8   8   8   8   8   8   8   8
#     4  11  22  34  53  80 109 145 186 229 281 339
#     4  10  20  35  54  79 111 146 187 234 282 334
#     4  10  21  37  56  77 108 146 186 232 280 336
#     4  11  24  40  61  90 124 157 193 242 298 355
#     4   9  19  37  60  84 113 151 192 235 284 340
#     4   9  20  38  57  80 110 144 184 230 279 334
#     4   9  20  40  63  85 112 150 194 238 286 342
#     4  10  22  39  58  85 116 148 188 235 286 344
#
# _framework density 19.499969
#
# number of rings (size 3 to 8) (size 9 to 14) (size 15 to 20)
#    0.000    2.125    0.000    2.250    1.750    5.250 
#    0.000    1.250    0.000    0.000    0.000    0.000 
#    0.000    0.000    0.000    0.000    0.000    0.000 
#
# Total GULP energy -357301.370191 kJ/mol
# GULP energy per Si atom -5582.833909 kJ/mol
# Density = 1.945559 g / cm^3
# Si number density = 19.499969 Si / 1000 Ang^3
#
#
#
# Elastic Constant Matrix: (Units=GPa)
#
#
# Indices 1 2 3 4 5 6 
#
# 1 40.3206 16.8119 18.8565 0.0000 0.0000 0.0000
# 2 16.8119 49.0948 30.4000 0.0000 0.0000 0.0000
# 3 18.8565 30.4000 64.7215 0.0000 0.0000 0.0000
# 4 0.0000 0.0000 0.0000 38.1140 0.0000 0.0000
# 5 0.0000 0.0000 0.0000 0.0000 0.3479 0.0000
# 6 0.0000 0.0000 0.0000 0.0000 0.0000 23.3063
#
#
#
# Elastic Compliance Matrix: (Units=1/GPa)
#
#
# Indices 1 2 3 4 5 6 
#
# 1 0.030295 -0.006922 -0.005575 0.000000 0.000000 0.000000
# 2 -0.006922 0.030304 -0.012217 0.000000 0.000000 0.000000
# 3 -0.005575 -0.012217 0.022814 0.000000 0.000000 0.000000
# 4 0.000000 0.000000 0.000000 0.026237 0.000000 0.000000
# 5 0.000000 0.000000 0.000000 0.000000 2.874128 0.000000
# 6 0.000000 0.000000 0.000000 0.000000 0.000000 0.042907
#
#
# Mechanical properties :
#
#
# Convention : Reuss Voigt Hill
#
# Bulk Modulus (GPa) = 29.42572 31.80819 30.61695
# Shear Modulus (GPa) = 1.61946 18.22488 9.92217
#
# Velocity S-wave (km/s) = 0.91230 3.06046 2.25817
# Velocity P-wave (km/s) = 4.02897 5.36990 4.74702
#
# Compressibility (1/GPa) = 0.03398388
#
# Stress axis : x y z
#
# Youngs Moduli (GPa) = 33.00923 32.99876 43.83337
#
# Poissons Ratio (x) = 0.22841 0.24437
# Poissons Ratio (y) = 0.22849 0.53553
# Poissons Ratio (z) = 0.18403 0.40316
#
# Static dielectric constant tensor:
#      x y z
#    x 1.685990 0.000000 0.000000 
#    y 0.000000 1.662490 0.000000 
#    z 0.000000 0.000000 1.694580 
# 
# From -- ./inp_files/24659.got.cif
#   From: 2010.05.17/outbox.cif.g08.bks.cpg/sg59_13_cif.got.tgz:24659.got - 2010.06.03 14:40:33.
