data_PCOD9450894
_publ_section_title
;
Structure prediction by ZEFSAII (Michael W. Deem and Ramdas Pophale) SiO2 
 PCOD9450894
Probable space group: P M M N
;
_chemical_formula_sum "Si O2"
_cell_formula_units_Z 64
_cell_length_a 19.353738
_cell_length_b 7.562369
_cell_length_c 20.745602
_cell_angle_alpha 90.000000
_cell_angle_beta 90.000000
_cell_angle_gamma 90.000000
_cell_volume 3036.328555
_symmetry_space_group_name_H-M "P M M N"
_symmetry_group_IT_number 59
_space_group.IT_coordinate_system_code '2'
_symmetry_cell_setting 'orthorhombic'
loop_
_space_group_symop_operation_xyz
x,y,z
1/2-x,1/2-y,z
1/2+x,-y,-z
-x,1/2+y,-z
-x,-y,-z
1/2+x,1/2+y,-z
1/2-x,y,z
x,1/2-y,z
loop_
_atom_site_type_symbol
_atom_site_label
_atom_site_fract_x
_atom_site_fract_y
_atom_site_fract_z
Si Si1 0.576319 0.037458 0.470868
Si Si2 0.927447 0.541098 0.967108
Si Si3 0.671915 0.960350 0.727080
Si Si4 0.331259 0.966033 0.651315
Si Si5 0.400353 0.533845 0.786669
Si Si6 0.173142 0.959853 0.917468
Si Si7 0.171881 0.537230 0.415123
Si Si8 0.945506 0.532706 0.821586
O O1 0.579258 0.250000 0.466979
O O2 0.612359 0.977335 0.403384
O O3 0.626940 0.970082 0.526637
O O4 0.500000 0.000000 0.500000
O O5 0.919211 0.750000 0.961249
O O6 0.932279 0.470803 0.894489
O O7 0.869018 0.481446 0.016699
O O8 0.000000 0.500000 0.000000
O O9 0.750000 0.033232 0.731269
O O10 0.676769 0.750000 0.736838
O O11 0.617665 0.029525 0.778047
O O12 0.644464 0.990799 0.655181
O O13 0.250000 0.019714 0.640982
O O14 0.330067 0.750000 0.650240
O O15 0.359993 0.020705 0.721864
O O16 0.399669 0.750000 0.786012
O O17 0.364758 0.472301 0.853218
O O18 0.480517 0.479586 0.792446
O O19 0.250000 0.033625 0.923168
O O20 0.178032 0.750000 0.907141
O O21 0.250000 0.470184 0.418726
O O22 0.173796 0.750000 0.419701
O O23 0.946341 0.750000 0.822077
#
# Coordination Sequence:
#
# PCOD9450894 Si02
#       8
#     8   8   8   8   8   8   8   8
#     4  10  21  34  51  77 107 135 168 213 256 304
#     4  11  21  36  56  78 107 143 181 219 264 320
#     4   9  18  32  52  78 103 130 170 216 256 301
#     4   9  17  30  51  78 104 134 175 219 259 302
#     4   9  16  29  51  79 105 133 171 218 267 309
#     4  10  20  35  56  82 111 140 175 221 271 324
#     4   9  18  34  53  72 101 139 170 201 250 307
#     4   9  18  31  51  75 104 137 170 214 264 311
#
# _framework density 21.078087
#
# number of rings (size 3 to 8) (size 9 to 14) (size 15 to 20)
#    0.000    2.500    1.250    1.125    1.750    4.250 
#    0.000    2.500    0.000    3.375    0.000    0.000 
#    0.000    0.000    0.000    0.000    0.000    0.000 
#
# Total GULP energy -356914.116269 kJ/mol
# GULP energy per Si atom -5576.783067 kJ/mol
# Density = 2.103011 g / cm^3
# Si number density = 21.078087 Si / 1000 Ang^3
#
#
#
# Elastic Constant Matrix: (Units=GPa)
#
#
# Indices 1 2 3 4 5 6 
#
# 1 122.9299 4.1057 100.0959 0.0000 0.0000 0.0000
# 2 4.1057 47.3517 0.5539 0.0000 0.0000 0.0000
# 3 100.0959 0.5539 176.1072 0.0000 0.0000 0.0000
# 4 0.0000 0.0000 0.0000 6.2398 0.0000 0.0000
# 5 0.0000 0.0000 0.0000 0.0000 29.4360 0.0000
# 6 0.0000 0.0000 0.0000 0.0000 0.0000 10.9629
#
#
#
# Elastic Compliance Matrix: (Units=1/GPa)
#
#
# Indices 1 2 3 4 5 6 
#
# 1 0.015213 -0.001218 -0.008643 0.000000 0.000000 0.000000
# 2 -0.001218 0.021217 0.000626 0.000000 0.000000 0.000000
# 3 -0.008643 0.000626 0.010589 0.000000 0.000000 0.000000
# 4 0.000000 0.000000 0.000000 0.160261 0.000000 0.000000
# 5 0.000000 0.000000 0.000000 0.000000 0.033972 0.000000
# 6 0.000000 0.000000 0.000000 0.000000 0.000000 0.091216
#
#
# Mechanical properties :
#
#
# Convention : Reuss Voigt Hill
#
# Bulk Modulus (GPa) = 35.02878 61.76666 48.39772
# Shear Modulus (GPa) = 13.87136 25.43664 19.65400
#
# Velocity S-wave (km/s) = 2.56812 3.47764 3.05690
# Velocity P-wave (km/s) = 5.04463 6.74483 5.95571
#
# Compressibility (1/GPa) = 0.02854795
#
# Stress axis : x y z
#
# Youngs Moduli (GPa) = 65.73387 47.13239 94.43918
#
# Poissons Ratio (x) = 0.05740 0.81622
# Poissons Ratio (y) = 0.08006 -0.05907
# Poissons Ratio (z) = 0.56813 -0.02948
#
# Static dielectric constant tensor:
#      x y z
#    x 1.737630 0.000000 0.000000 
#    y 0.000000 1.802810 0.000000 
#    z 0.000000 0.000000 1.756570 
# 
# From -- ./inp_files/30771.got.cif
#   From: 2010.05.17/outbox.cif.g08.bks.cpg/sg59_16_cif.got.tgz:30771.got - 2010.06.03 14:40:33.
