data_PCOD9450370
_publ_section_title
;
Structure prediction by ZEFSAII (Michael W. Deem and Ramdas Pophale) SiO2 
 PCOD9450370
Probable space group: P M M N
;
_chemical_formula_sum "Si O2"
_cell_formula_units_Z 64
_cell_length_a 19.838562
_cell_length_b 8.952406
_cell_length_c 20.784450
_cell_angle_alpha 90.000000
_cell_angle_beta 90.000000
_cell_angle_gamma 90.000000
_cell_volume 3691.377794
_symmetry_space_group_name_H-M "P M M N"
_symmetry_group_IT_number 59
_space_group.IT_coordinate_system_code '2'
_symmetry_cell_setting 'orthorhombic'
loop_
_space_group_symop_operation_xyz
x,y,z
1/2-x,1/2-y,z
1/2+x,-y,-z
-x,1/2+y,-z
-x,-y,-z
1/2+x,1/2+y,-z
1/2-x,y,z
x,1/2-y,z
loop_
_atom_site_type_symbol
_atom_site_label
_atom_site_fract_x
_atom_site_fract_y
_atom_site_fract_z
Si Si1 0.829538 0.927583 0.681656
Si Si2 0.423373 0.571807 0.425497
Si Si3 0.079222 0.571862 0.932262
Si Si4 0.579309 0.571728 0.929559
Si Si5 0.329511 0.071968 0.822615
Si Si6 0.930650 0.429281 0.426876
Si Si7 0.829441 0.071516 0.819253
Si Si8 0.171659 0.571007 0.686114
O O1 0.750000 0.955581 0.670410
O O2 0.839832 0.750000 0.686459
O O3 0.873280 0.994374 0.624151
O O4 0.847374 0.003687 0.749658
O O5 0.420811 0.750000 0.417325
O O6 0.407245 0.536673 0.500315
O O7 0.499106 0.512374 0.414852
O O8 0.087576 0.750000 0.936863
O O9 0.125763 0.505692 0.876707
O O10 0.000207 0.540986 0.918096
O O11 0.095791 0.497214 0.000772
O O12 0.588662 0.750000 0.930893
O O13 0.624952 0.499697 0.874537
O O14 0.250000 0.038331 0.832482
O O15 0.338231 0.250000 0.825082
O O16 0.347740 0.010705 0.751992
O O17 0.942105 0.250000 0.423849
O O18 0.875840 0.469537 0.373370
O O19 0.750000 0.038532 0.830619
O O20 0.837676 0.250000 0.818195
O O21 0.250000 0.536161 0.672310
O O22 0.166648 0.750000 0.695951
#
# Coordination Sequence:
#
# PCOD9450370 Si02
#       8
#     8   8   8   8   8   8   8   8
#     4  10  21  37  56  78 106 140 177 219 267 317
#     4  10  20  34  54  79 107 140 177 219 265 314
#     4  10  21  37  57  80 106 139 178 217 258 307
#     4  10  21  37  57  81 109 140 174 215 263 312
#     4  10  21  36  54  78 107 138 173 215 263 312
#     4   9  19  35  54  77 107 141 177 218 263 314
#     4  10  21  37  57  81 108 139 177 219 262 312
#     4   9  18  34  55  77 102 135 175 217 261 310
#
# _framework density 17.337699000000001
#
# number of rings (size 3 to 8) (size 9 to 14) (size 15 to 20)
#    0.000    2.250    0.000    2.250    0.000    6.750 
#    0.000    2.500    0.000    1.500    0.000    0.000 
#    0.000    0.000    0.000    0.000    0.000    0.000 
#
# Total GULP energy -357305.566558 kJ/mol
# GULP energy per Si atom -5582.899477 kJ/mol
# Density = 1.729824 g / cm^3
# Si number density = 17.337699 Si / 1000 Ang^3
#
#
#
# Elastic Constant Matrix: (Units=GPa)
#
#
# Indices 1 2 3 4 5 6 
#
# 1 87.7369 65.5928 115.4173 0.0000 0.0000 0.0000
# 2 65.5928 71.4165 87.1571 0.0000 0.0000 0.0000
# 3 115.4173 87.1571 184.2935 0.0000 0.0000 0.0000
# 4 0.0000 0.0000 0.0000 33.8441 0.0000 0.0000
# 5 0.0000 0.0000 0.0000 0.0000 44.1698 0.0000
# 6 0.0000 0.0000 0.0000 0.0000 0.0000 50.8862
#
#
#
# Elastic Compliance Matrix: (Units=1/GPa)
#
#
# Indices 1 2 3 4 5 6 
#
# 1 0.087404 -0.031864 -0.039669 0.000000 0.000000 0.000000
# 2 -0.031864 0.044732 -0.001199 0.000000 0.000000 0.000000
# 3 -0.039669 -0.001199 0.030837 0.000000 0.000000 0.000000
# 4 0.000000 0.000000 0.000000 0.029547 0.000000 0.000000
# 5 0.000000 0.000000 0.000000 0.000000 0.022640 0.000000
# 6 0.000000 0.000000 0.000000 0.000000 0.000000 0.019652
#
#
# Mechanical properties :
#
#
# Convention : Reuss Voigt Hill
#
# Bulk Modulus (GPa) = 57.11820 97.75348 77.43584
# Shear Modulus (GPa) = 12.94960 30.79866 21.87413
#
# Velocity S-wave (km/s) = 2.73592 4.21931 3.55583
# Velocity P-wave (km/s) = 6.55716 8.95774 7.84976
#
# Compressibility (1/GPa) = 0.01750755
#
# Stress axis : x y z
#
# Youngs Moduli (GPa) = 11.44111 22.35554 32.42883
#
# Poissons Ratio (x) = 0.71234 1.28642
# Poissons Ratio (y) = 0.36456 0.03889
# Poissons Ratio (z) = 0.45386 0.02681
#
# Static dielectric constant tensor:
#      x y z
#    x 1.567750 0.000000 0.000000 
#    y 0.000000 1.576270 0.000000 
#    z 0.000000 0.000000 1.555950 
# 
# From -- ./inp_files/28275.got.cif
#   From: 2010.05.17/outbox.cif.g08.bks.cpg/sg59_15_cif.got.tgz:28275.got - 2010.06.03 14:40:33.
