data_PCOD9450559
_publ_section_title
;
Structure prediction by ZEFSAII (Michael W. Deem and Ramdas Pophale) SiO2 
 PCOD9450559
Probable space group: P M M N
;
_chemical_formula_sum "Si O2"
_cell_formula_units_Z 64
_cell_length_a 8.937739
_cell_length_b 20.116263
_cell_length_c 20.390837
_cell_angle_alpha 90.000000
_cell_angle_beta 90.000000
_cell_angle_gamma 90.000000
_cell_volume 3666.148279
_symmetry_space_group_name_H-M "P M M N"
_symmetry_group_IT_number 59
_space_group.IT_coordinate_system_code '2'
_symmetry_cell_setting 'orthorhombic'
loop_
_space_group_symop_operation_xyz
x,y,z
1/2-x,1/2-y,z
1/2+x,-y,-z
-x,1/2+y,-z
-x,-y,-z
1/2+x,1/2+y,-z
1/2-x,y,z
x,1/2-y,z
loop_
_atom_site_type_symbol
_atom_site_label
_atom_site_fract_x
_atom_site_fract_y
_atom_site_fract_z
Si Si1 0.428751 0.327271 0.047714
Si Si2 0.574681 0.546681 0.337100
Si Si3 0.073532 0.890268 0.692837
Si Si4 0.929731 0.579684 0.829672
Si Si5 0.574262 0.672168 0.568485
Si Si6 0.572507 0.067516 0.527912
Si Si7 0.929488 0.564219 0.187503
Si Si8 0.928505 0.172158 0.907205
O O1 0.250000 0.332855 0.036106
O O2 0.459885 0.250000 0.064726
O O3 0.468228 0.376074 0.107080
O O4 0.514177 0.343129 0.980584
O O5 0.750000 0.560388 0.350217
O O6 0.557806 0.466699 0.331886
O O7 0.476439 0.573166 0.396477
O O8 0.535727 0.573419 0.264835
O O9 0.250000 0.876165 0.697819
O O10 0.997104 0.887995 0.763825
O O11 0.995024 0.844533 0.639298
O O12 0.750000 0.575960 0.824342
O O13 0.997373 0.505678 0.833956
O O14 0.750000 0.654850 0.568755
O O15 0.558508 0.750000 0.554436
O O16 0.490544 0.627754 0.515011
O O17 0.750000 0.063490 0.521430
O O18 0.500000 0.000000 0.500000
O O19 0.750000 0.558721 0.181987
O O20 0.991670 0.623728 0.143861
O O21 0.750000 0.163777 0.903640
O O22 0.963852 0.250000 0.894712
#
# Coordination Sequence:
#
# PCOD9450559 Si02
#       8
#     8   8   8   8   8   8   8   8
#     4   9  19  36  56  78 107 147 192 232 276 335
#     4   9  19  36  57  83 111 142 185 230 273 328
#     4  10  20  35  56  81 112 149 186 227 277 338
#     4  10  20  34  55  83 116 150 187 234 281 328
#     4  11  24  40  58  82 114 151 192 238 285 335
#     4  12  23  36  60  87 113 148 189 233 281 338
#     4  10  21  37  58  83 113 147 186 232 280 336
#     4  10  21  37  58  83 110 142 184 234 287 343
#
# _framework density 17.457014999999998
#
# number of rings (size 3 to 8) (size 9 to 14) (size 15 to 20)
#    0.000    1.875    1.250    3.750    0.000    6.250 
#    0.000    1.875    0.000    0.750    0.000    0.000 
#    0.000    0.000    0.000    0.000    0.000    0.000 
#
# Total GULP energy -357453.665259 kJ/mol
# GULP energy per Si atom -5585.213520 kJ/mol
# Density = 1.741728 g / cm^3
# Si number density = 17.457015 Si / 1000 Ang^3
#
#
#
# Elastic Constant Matrix: (Units=GPa)
#
#
# Indices 1 2 3 4 5 6 
#
# 1 113.6526 69.0518 85.2232 0.0000 0.0000 0.0000
# 2 69.0518 77.9441 82.7919 0.0000 0.0000 0.0000
# 3 85.2232 82.7919 136.4557 0.0000 0.0000 0.0000
# 4 0.0000 0.0000 0.0000 31.4489 0.0000 0.0000
# 5 0.0000 0.0000 0.0000 0.0000 34.4733 0.0000
# 6 0.0000 0.0000 0.0000 0.0000 0.0000 23.3088
#
#
#
# Elastic Compliance Matrix: (Units=1/GPa)
#
#
# Indices 1 2 3 4 5 6 
#
# 1 0.020173 -0.012626 -0.004938 0.000000 0.000000 0.000000
# 2 -0.012626 0.043988 -0.018803 0.000000 0.000000 0.000000
# 3 -0.004938 -0.018803 0.021821 0.000000 0.000000 0.000000
# 4 0.000000 0.000000 0.000000 0.031798 0.000000 0.000000
# 5 0.000000 0.000000 0.000000 0.000000 0.029008 0.000000
# 6 0.000000 0.000000 0.000000 0.000000 0.000000 0.042902
#
#
# Mechanical properties :
#
#
# Convention : Reuss Voigt Hill
#
# Bulk Modulus (GPa) = 75.49012 89.13181 82.31096
# Shear Modulus (GPa) = 18.73768 23.91188 21.32478
#
# Velocity S-wave (km/s) = 3.27977 3.70504 3.49887
# Velocity P-wave (km/s) = 7.59473 8.33497 7.97345
#
# Compressibility (1/GPa) = 0.01324677
#
# Stress axis : x y z
#
# Youngs Moduli (GPa) = 49.57114 22.73337 45.82661
#
# Poissons Ratio (x) = 0.28703 0.22631
# Poissons Ratio (y) = 0.62588 0.86170
# Poissons Ratio (z) = 0.24481 0.42747
#
# Static dielectric constant tensor:
#      x y z
#    x 1.584390 0.000000 0.000000 
#    y 0.000000 1.571320 0.000000 
#    z 0.000000 0.000000 1.577990 
# 
# From -- ./inp_files/29456.got.cif
#   From: 2010.05.17/outbox.cif.g08.bks.cpg/sg59_15_cif.got.tgz:29456.got - 2010.06.03 14:40:33.
