data_PCOD9450086
_publ_section_title
;
Structure prediction by ZEFSAII (Michael W. Deem and Ramdas Pophale) SiO2 
 PCOD9450086
Probable space group: P M M N
;
_chemical_formula_sum "Si O2"
_cell_formula_units_Z 48
_cell_length_a 18.761354
_cell_length_b 7.533877
_cell_length_c 17.128142
_cell_angle_alpha 90.000000
_cell_angle_beta 90.000000
_cell_angle_gamma 90.000000
_cell_volume 2420.989793
_symmetry_space_group_name_H-M "P M M N"
_symmetry_group_IT_number 59
_space_group.IT_coordinate_system_code '2'
_symmetry_cell_setting 'orthorhombic'
loop_
_space_group_symop_operation_xyz
x,y,z
1/2-x,1/2-y,z
1/2+x,-y,-z
-x,1/2+y,-z
-x,-y,-z
1/2+x,1/2+y,-z
1/2-x,y,z
x,1/2-y,z
loop_
_atom_site_type_symbol
_atom_site_label
_atom_site_fract_x
_atom_site_fract_y
_atom_site_fract_z
Si Si1 0.452545 0.966754 0.741916
Si Si2 0.525642 0.537682 0.586769
Si Si3 0.171003 0.466930 0.336468
Si Si4 0.670228 0.040939 0.149902
Si Si5 0.084312 0.461086 0.005643
Si Si6 0.100193 0.465913 0.177392
O O1 0.450428 0.750000 0.741694
O O2 0.471649 0.026038 0.654432
O O3 0.380798 0.033238 0.782206
O O4 0.520477 0.015658 0.795277
O O5 0.500000 0.500000 0.500000
O O6 0.528324 0.750000 0.594809
O O7 0.605110 0.473543 0.609506
O O8 0.250000 0.526150 0.359067
O O9 0.171115 0.250000 0.337628
O O10 0.152199 0.520661 0.247442
O O11 0.750000 0.965922 0.145380
O O12 0.676867 0.250000 0.166114
O O13 0.627952 0.027306 0.068500
O O14 0.092208 0.250000 0.005551
O O15 0.112311 0.529067 0.089479
O O16 0.000000 0.500000 0.000000
O O17 0.102344 0.250000 0.175908
#
# Coordination Sequence:
#
# PCOD9450086 Si02
#       6
#     8   8   8   8   8   8
#     4   8  14  29  49  67  89 122 163 198 235 291
#     4   9  17  30  51  74  97 124 158 199 239 294
#     4   8  14  26  46  71  95 121 156 197 240 283
#     4  10  20  34  51  70  97 134 174 214 254 294
#     4  11  20  31  50  74 102 134 170 210 251 297
#     4   8  14  25  45  68  90 120 159 200 235 281
#
# _framework density 19.826602999999999
#
# number of rings (size 3 to 8) (size 9 to 14) (size 15 to 20)
#    0.000    3.000    1.667    2.500    0.000    1.000 
#    0.000    3.333    0.000    1.500    0.000    0.000 
#    0.000    0.000    0.000    0.000    0.000    0.000 
#
# Total GULP energy -267615.440384 kJ/mol
# GULP energy per Si atom -5575.321675 kJ/mol
# Density = 1.978148 g / cm^3
# Si number density = 19.826603 Si / 1000 Ang^3
#
#
#
# Elastic Constant Matrix: (Units=GPa)
#
#
# Indices 1 2 3 4 5 6 
#
# 1 169.6036 3.4121 100.4994 0.0000 0.0000 0.0000
# 2 3.4121 48.2066 -1.3298 0.0000 0.0000 0.0000
# 3 100.4994 -1.3298 172.8161 0.0000 0.0000 0.0000
# 4 0.0000 0.0000 0.0000 19.9561 0.0000 0.0000
# 5 0.0000 0.0000 0.0000 0.0000 18.7318 0.0000
# 6 0.0000 0.0000 0.0000 0.0000 0.0000 4.9099
#
#
#
# Elastic Compliance Matrix: (Units=1/GPa)
#
#
# Indices 1 2 3 4 5 6 
#
# 1 0.009026 -0.000784 -0.005255 0.000000 0.000000 0.000000
# 2 -0.000784 0.020816 0.000616 0.000000 0.000000 0.000000
# 3 -0.005255 0.000616 0.008847 0.000000 0.000000 0.000000
# 4 0.000000 0.000000 0.000000 0.050110 0.000000 0.000000
# 5 0.000000 0.000000 0.000000 0.000000 0.053385 0.000000
# 6 0.000000 0.000000 0.000000 0.000000 0.000000 0.203672
#
#
# Mechanical properties :
#
#
# Convention : Reuss Voigt Hill
#
# Bulk Modulus (GPa) = 35.91435 66.19888 51.05661
# Shear Modulus (GPa) = 13.66186 27.92253 20.79219
#
# Velocity S-wave (km/s) = 2.62786 3.75685 3.24188
# Velocity P-wave (km/s) = 5.23078 7.23049 6.31035
#
# Compressibility (1/GPa) = 0.02784402
#
# Stress axis : x y z
#
# Youngs Moduli (GPa) = 110.79578 48.03882 113.03139
#
# Poissons Ratio (x) = 0.03765 0.59396
# Poissons Ratio (y) = 0.08684 -0.06963
# Poissons Ratio (z) = 0.58221 -0.02959
#
# Static dielectric constant tensor:
#      x y z
#    x 1.696830 0.000000 0.000000 
#    y 0.000000 1.767270 0.000000 
#    z 0.000000 0.000000 1.676750 
# 
# From -- ./inp_files/27784.got.cif
#   From: 2010.05.17/outbox.cif.g08.bks.cpg/sg59_14_cif.got.tgz:27784.got - 2010.06.03 14:40:33.
