data_PCOD9450174
_publ_section_title
;
Structure prediction by ZEFSAII (Michael W. Deem and Ramdas Pophale) SiO2 
 PCOD9450174
Probable space group: P M M N
;
_chemical_formula_sum "Si O2"
_cell_formula_units_Z 56
_cell_length_a 22.246347
_cell_length_b 8.844885
_cell_length_c 14.985534
_cell_angle_alpha 90.000000
_cell_angle_beta 90.000000
_cell_angle_gamma 90.000000
_cell_volume 2948.649291
_symmetry_space_group_name_H-M "P M M N"
_symmetry_group_IT_number 59
_space_group.IT_coordinate_system_code '2'
_symmetry_cell_setting 'orthorhombic'
loop_
_space_group_symop_operation_xyz
x,y,z
1/2-x,1/2-y,z
1/2+x,-y,-z
-x,1/2+y,-z
-x,-y,-z
1/2+x,1/2+y,-z
1/2-x,y,z
x,1/2-y,z
loop_
_atom_site_type_symbol
_atom_site_label
_atom_site_fract_x
_atom_site_fract_y
_atom_site_fract_z
Si Si1 0.876445 0.931042 0.455016
Si Si2 0.181399 0.932168 0.243420
Si Si3 0.319690 0.568342 0.036731
Si Si4 0.944673 0.431364 0.288131
Si Si5 0.250000 0.570942 0.562297
Si Si6 0.127601 0.071229 0.865945
Si Si7 0.750000 0.928143 0.244585
Si Si8 0.425304 0.068342 0.358086
O O1 0.873216 0.750000 0.446225
O O2 0.919585 0.972009 0.537570
O O3 0.900814 0.000835 0.363516
O O4 0.810555 0.996658 0.475061
O O5 0.250000 0.979850 0.264442
O O6 0.179762 0.750000 0.249681
O O7 0.131480 0.001617 0.306520
O O8 0.168717 0.972035 0.139804
O O9 0.250000 0.526092 0.017795
O O10 0.323833 0.750000 0.028788
O O11 0.362598 0.491785 0.964930
O O12 0.941211 0.250000 0.290907
O O13 0.923224 0.490408 0.192392
O O14 0.011991 0.480503 0.314388
O O15 0.250000 0.750000 0.548268
O O16 0.250000 0.530096 0.667647
O O17 0.116968 0.250000 0.867695
O O18 0.190589 0.044323 0.813613
O O19 0.750000 0.750000 0.271540
O O20 0.422628 0.250000 0.352843
#
# Coordination Sequence:
#
# PCOD9450174 Si02
#       8
#     8   8   8   8   4   8   4   8
#     4  11  23  40  60  84 118 154 192 239 292 341
#     4   9  20  39  62  89 117 147 189 242 292 343
#     4   9  18  34  57  85 118 151 186 234 291 343
#     4  11  23  40  59  84 116 153 198 239 283 344
#     4  12  24  36  56  87 118 153 192 235 288 340
#     4  11  21  34  56  86 118 153 191 232 287 345
#     4  10  20  34  52  79 120 153 186 237 286 338
#     4  10  24  42  61  84 113 152 196 242 289 341
#
# _framework density 18.991747
#
# number of rings (size 3 to 8) (size 9 to 14) (size 15 to 20)
#    0.000    1.714    2.143    3.214    1.000    3.714 
#    0.000    2.143    0.000    0.000    0.000    0.000 
#    0.000    0.000    0.000    0.000    0.000    0.000 
#
# Total GULP energy -312915.113282 kJ/mol
# GULP energy per Si atom -5587.769880 kJ/mol
# Density = 1.894852 g / cm^3
# Si number density = 18.991747 Si / 1000 Ang^3
#
#
#
# Elastic Constant Matrix: (Units=GPa)
#
#
# Indices 1 2 3 4 5 6 
#
# 1 73.7907 10.8538 14.5072 0.0000 0.0000 0.0000
# 2 10.8538 28.2232 9.8609 0.0000 0.0000 0.0000
# 3 14.5072 9.8609 54.4586 0.0000 0.0000 0.0000
# 4 0.0000 0.0000 0.0000 32.6465 0.0000 0.0000
# 5 0.0000 0.0000 0.0000 0.0000 22.4228 0.0000
# 6 0.0000 0.0000 0.0000 0.0000 0.0000 27.0485
#
#
#
# Elastic Compliance Matrix: (Units=1/GPa)
#
#
# Indices 1 2 3 4 5 6 
#
# 1 0.014844 -0.004619 -0.003118 0.000000 0.000000 0.000000
# 2 -0.004619 0.039262 -0.005879 0.000000 0.000000 0.000000
# 3 -0.003118 -0.005879 0.020258 0.000000 0.000000 0.000000
# 4 0.000000 0.000000 0.000000 0.030631 0.000000 0.000000
# 5 0.000000 0.000000 0.000000 0.000000 0.044597 0.000000
# 6 0.000000 0.000000 0.000000 0.000000 0.000000 0.036971
#
#
# Mechanical properties :
#
#
# Convention : Reuss Voigt Hill
#
# Bulk Modulus (GPa) = 21.21689 25.21290 23.21489
# Shear Modulus (GPa) = 21.78593 24.50694 23.14644
#
# Velocity S-wave (km/s) = 3.39060 3.59611 3.49487
# Velocity P-wave (km/s) = 5.15016 5.52695 5.34188
#
# Compressibility (1/GPa) = 0.04713227
#
# Stress axis : x y z
#
# Youngs Moduli (GPa) = 67.36602 25.46977 49.36416
#
# Poissons Ratio (x) = 0.11765 0.15391
# Poissons Ratio (y) = 0.31118 0.29020
# Poissons Ratio (z) = 0.21004 0.14973
#
# Static dielectric constant tensor:
#      x y z
#    x 1.654090 0.000000 0.000000 
#    y 0.000000 1.633050 0.000000 
#    z 0.000000 0.000000 1.647830 
# 
# From -- ./inp_files/24361.got.cif
#   From: 2010.05.17/outbox.cif.g08.bks.cpg/sg59_13_cif.got.tgz:24361.got - 2010.06.03 14:40:33.
