data_PCOD9450391
_publ_section_title
;
Structure prediction by ZEFSAII (Michael W. Deem and Ramdas Pophale) SiO2 
 PCOD9450391
Probable space group: P M M N
;
_chemical_formula_sum "Si O2"
_cell_formula_units_Z 64
_cell_length_a 8.063461
_cell_length_b 20.560075
_cell_length_c 20.782358
_cell_angle_alpha 90.000000
_cell_angle_beta 90.000000
_cell_angle_gamma 90.000000
_cell_volume 3445.410763
_symmetry_space_group_name_H-M "P M M N"
_symmetry_group_IT_number 59
_space_group.IT_coordinate_system_code '2'
_symmetry_cell_setting 'orthorhombic'
loop_
_space_group_symop_operation_xyz
x,y,z
1/2-x,1/2-y,z
1/2+x,-y,-z
-x,1/2+y,-z
-x,-y,-z
1/2+x,1/2+y,-z
1/2-x,y,z
x,1/2-y,z
loop_
_atom_site_type_symbol
_atom_site_label
_atom_site_fract_x
_atom_site_fract_y
_atom_site_fract_z
Si Si1 0.051505 0.677127 0.832571
Si Si2 0.453219 0.572092 0.229640
Si Si3 0.555060 0.927940 0.729973
Si Si4 0.446975 0.945432 0.589266
Si Si5 0.448400 0.410627 0.548385
Si Si6 0.550048 0.176255 0.665026
Si Si7 0.450669 0.911031 0.947328
Si Si8 0.449911 0.557380 0.086665
O O1 0.250000 0.681537 0.839225
O O2 0.985872 0.750000 0.822797
O O3 0.987393 0.643299 0.897989
O O4 0.018771 0.628443 0.773868
O O5 0.250000 0.572095 0.231120
O O6 0.509341 0.500051 0.251340
O O7 0.510289 0.626930 0.279507
O O8 0.506673 0.582892 0.155920
O O9 0.750000 0.928526 0.743007
O O10 0.524311 0.918582 0.654413
O O11 0.250000 0.947883 0.598007
O O12 0.487116 0.906379 0.524369
O O13 0.508829 0.019497 0.576426
O O14 0.250000 0.412952 0.546226
O O15 0.503819 0.354554 0.596479
O O16 0.750000 0.177659 0.669136
O O17 0.488872 0.250000 0.672232
O O18 0.250000 0.908768 0.948195
O O19 0.501231 0.981816 0.920747
O O20 0.509323 0.907591 0.021384
O O21 0.250000 0.560547 0.086755
#
# Coordination Sequence:
#
# PCOD9450391 Si02
#       8
#     8   8   8   8   8   8   8   8
#     4  10  21  36  51  72 107 145 179 219 270 327
#     4   9  17  30  50  77 106 136 173 220 267 310
#     4  11  20  33  55  80 107 138 177 225 267 313
#     4  10  20  34  55  82 109 136 171 215 265 315
#     4  10  20  34  54  80 108 138 173 216 260 309
#     4  10  20  35  54  76 107 146 181 215 263 320
#     4   9  17  29  48  73 100 131 172 215 260 314
#     4   9  16  29  49  74 102 131 168 218 267 306
#
# _framework density 18.575434999999999
#
# number of rings (size 3 to 8) (size 9 to 14) (size 15 to 20)
#    0.000    2.250    2.500    1.125    0.000    1.500 
#    0.000    1.875    0.000    7.500    0.000    0.000 
#    0.000    3.000    0.000    0.000    0.000    0.000 
#
# Total GULP energy -357034.114903 kJ/mol
# GULP energy per Si atom -5578.658045 kJ/mol
# Density = 1.853316 g / cm^3
# Si number density = 18.575435 Si / 1000 Ang^3
#
#
#
# Elastic Constant Matrix: (Units=GPa)
#
#
# Indices 1 2 3 4 5 6 
#
# 1 10.4810 4.5320 -6.1420 0.0000 0.0000 0.0000
# 2 4.5320 123.6217 75.3254 0.0000 0.0000 0.0000
# 3 -6.1420 75.3254 135.3052 0.0000 0.0000 0.0000
# 4 0.0000 0.0000 0.0000 23.8947 0.0000 0.0000
# 5 0.0000 0.0000 0.0000 0.0000 13.8440 0.0000
# 6 0.0000 0.0000 0.0000 0.0000 0.0000 17.1073
#
#
#
# Elastic Compliance Matrix: (Units=1/GPa)
#
#
# Indices 1 2 3 4 5 6 
#
# 1 0.106064 -0.010324 0.010562 0.000000 0.000000 0.000000
# 2 -0.010324 0.013247 -0.007843 0.000000 0.000000 0.000000
# 3 0.010562 -0.007843 0.012237 0.000000 0.000000 0.000000
# 4 0.000000 0.000000 0.000000 0.041850 0.000000 0.000000
# 5 0.000000 0.000000 0.000000 0.000000 0.072233 0.000000
# 6 0.000000 0.000000 0.000000 0.000000 0.000000 0.058455
#
#
# Mechanical properties :
#
#
# Convention : Reuss Voigt Hill
#
# Bulk Modulus (GPa) = 8.59569 46.31541 27.45555
# Shear Modulus (GPa) = 13.96354 24.01536 18.98945
#
# Velocity S-wave (km/s) = 2.74473 3.59953 3.20079
# Velocity P-wave (km/s) = 3.83174 6.50102 5.33599
#
# Compressibility (1/GPa) = 0.11633736
#
# Stress axis : x y z
#
# Youngs Moduli (GPa) = 9.42824 75.49054 81.72268
#
# Poissons Ratio (x) = 0.77937 -0.86316
# Poissons Ratio (y) = 0.09734 0.64097
# Poissons Ratio (z) = -0.09958 0.59209
#
# Static dielectric constant tensor:
#      x y z
#    x 1.658860 0.000000 0.000000 
#    y 0.000000 1.628000 0.000000 
#    z 0.000000 0.000000 1.648360 
# 
# From -- ./inp_files/29555.got.cif
#   From: 2010.05.17/outbox.cif.g08.bks.cpg/sg59_15_cif.got.tgz:29555.got - 2010.06.03 14:40:33.
