data_PCOD9450052
_publ_section_title
;
Structure prediction by ZEFSAII (Michael W. Deem and Ramdas Pophale) SiO2 
 PCOD9450052
Probable space group: P M M N
;
_chemical_formula_sum "Si O2"
_cell_formula_units_Z 64
_cell_length_a 8.912496
_cell_length_b 20.174202
_cell_length_c 20.488520
_cell_angle_alpha 90.000000
_cell_angle_beta 90.000000
_cell_angle_gamma 90.000000
_cell_volume 3683.887007
_symmetry_space_group_name_H-M "P M M N"
_symmetry_group_IT_number 59
_space_group.IT_coordinate_system_code '2'
_symmetry_cell_setting 'orthorhombic'
loop_
_space_group_symop_operation_xyz
x,y,z
1/2-x,1/2-y,z
1/2+x,-y,-z
-x,1/2+y,-z
-x,-y,-z
1/2+x,1/2+y,-z
1/2-x,y,z
x,1/2-y,z
loop_
_atom_site_type_symbol
_atom_site_label
_atom_site_fract_x
_atom_site_fract_y
_atom_site_fract_z
Si Si1 0.071090 0.941368 0.412219
Si Si2 0.069810 0.826865 0.661482
Si Si3 0.929362 0.327250 0.832349
Si Si4 0.429737 0.426350 0.727371
Si Si5 0.071444 0.447856 0.088090
Si Si6 0.430178 0.574474 0.777852
Si Si7 0.428740 0.409977 0.943501
Si Si8 0.571361 0.907286 0.546149
O O1 0.250000 0.933543 0.408697
O O2 0.995324 0.919404 0.345112
O O3 0.006180 0.904529 0.475596
O O4 0.037523 0.019524 0.424277
O O5 0.250000 0.833527 0.653632
O O6 0.034975 0.750000 0.672951
O O7 0.025831 0.872846 0.722612
O O8 0.991418 0.854150 0.596717
O O9 0.750000 0.335102 0.830917
O O10 0.965806 0.250000 0.823139
O O11 0.001886 0.372770 0.776473
O O12 0.992310 0.353930 0.901048
O O13 0.250000 0.420860 0.726268
O O14 0.467914 0.500342 0.753059
O O15 0.250000 0.458447 0.092422
O O16 0.009885 0.414380 0.153229
O O17 0.990594 0.518994 0.080857
O O18 0.041056 0.408391 0.021018
O O19 0.250000 0.577577 0.786393
O O20 0.250000 0.407878 0.933046
O O21 0.750000 0.901923 0.538978
#
# Coordination Sequence:
#
# PCOD9450052 Si02
#       8
#     8   8   8   8   8   8   8   8
#     4  10  20  34  56  84 114 146 183 230 280 329
#     4  10  21  38  58  80 112 153 191 229 278 337
#     4  11  24  40  58  82 113 150 190 233 284 344
#     4  11  21  35  58  86 115 148 187 235 284 332
#     4  10  20  33  55  84 113 143 183 233 281 328
#     4  10  20  34  55  84 115 148 189 233 280 334
#     4  10  20  35  55  82 112 146 184 229 281 333
#     4  10  20  34  55  83 113 145 183 231 280 330
#
# _framework density 17.372955000000001
#
# number of rings (size 3 to 8) (size 9 to 14) (size 15 to 20)
#    0.000    1.750    2.500    2.250    0.000    4.750 
#    0.000    1.250    0.000    6.000    0.000    0.000 
#    0.000    0.000    0.000    0.000    0.000    0.000 
#
# Total GULP energy -357442.760927 kJ/mol
# GULP energy per Si atom -5585.043139 kJ/mol
# Density = 1.733341 g / cm^3
# Si number density = 17.372955 Si / 1000 Ang^3
#
#
#
# Elastic Constant Matrix: (Units=GPa)
#
#
# Indices 1 2 3 4 5 6 
#
# 1 53.3439 54.9340 61.7956 0.0000 0.0000 0.0000
# 2 54.9340 110.0288 75.1112 0.0000 0.0000 0.0000
# 3 61.7956 75.1112 155.9570 0.0000 0.0000 0.0000
# 4 0.0000 0.0000 0.0000 25.6945 0.0000 0.0000
# 5 0.0000 0.0000 0.0000 0.0000 37.6076 0.0000
# 6 0.0000 0.0000 0.0000 0.0000 0.0000 23.6228
#
#
#
# Elastic Compliance Matrix: (Units=1/GPa)
#
#
# Indices 1 2 3 4 5 6 
#
# 1 0.049313 -0.016808 -0.011445 0.000000 0.000000 0.000000
# 2 -0.016808 0.019269 -0.002620 0.000000 0.000000 0.000000
# 3 -0.011445 -0.002620 0.012209 0.000000 0.000000 0.000000
# 4 0.000000 0.000000 0.000000 0.038919 0.000000 0.000000
# 5 0.000000 0.000000 0.000000 0.000000 0.026590 0.000000
# 6 0.000000 0.000000 0.000000 0.000000 0.000000 0.042332
#
#
# Mechanical properties :
#
#
# Convention : Reuss Voigt Hill
#
# Bulk Modulus (GPa) = 52.50682 78.11236 65.30959
# Shear Modulus (GPa) = 19.47601 25.88424 22.68013
#
# Velocity S-wave (km/s) = 3.35185 3.86413 3.61707
# Velocity P-wave (km/s) = 6.72821 8.06029 7.42419
#
# Compressibility (1/GPa) = 0.01904514
#
# Stress axis : x y z
#
# Youngs Moduli (GPa) = 20.27859 51.89692 81.90810
#
# Poissons Ratio (x) = 0.87227 0.93741
# Poissons Ratio (y) = 0.34084 0.21463
# Poissons Ratio (z) = 0.23208 0.13599
#
# Static dielectric constant tensor:
#      x y z
#    x 1.577010 0.000000 0.000000 
#    y 0.000000 1.569200 0.000000 
#    z 0.000000 0.000000 1.580740 
# 
# From -- ./inp_files/26224.got.cif
#   From: 2010.05.17/outbox.cif.g08.bks.cpg/sg59_14_cif.got.tgz:26224.got - 2010.06.03 14:40:33.
