data_PCOD9450132
_publ_section_title
;
Structure prediction by ZEFSAII (Michael W. Deem and Ramdas Pophale) SiO2 
 PCOD9450132
Probable space group: P M M N
;
_chemical_formula_sum "Si O2"
_cell_formula_units_Z 56
_cell_length_a 8.930645
_cell_length_b 19.638652
_cell_length_c 17.055213
_cell_angle_alpha 90.000000
_cell_angle_beta 90.000000
_cell_angle_gamma 90.000000
_cell_volume 2991.242676
_symmetry_space_group_name_H-M "P M M N"
_symmetry_group_IT_number 59
_space_group.IT_coordinate_system_code '2'
_symmetry_cell_setting 'orthorhombic'
loop_
_space_group_symop_operation_xyz
x,y,z
1/2-x,1/2-y,z
1/2+x,-y,-z
-x,1/2+y,-z
-x,-y,-z
1/2+x,1/2+y,-z
1/2-x,y,z
x,1/2-y,z
loop_
_atom_site_type_symbol
_atom_site_label
_atom_site_fract_x
_atom_site_fract_y
_atom_site_fract_z
Si Si1 0.069691 0.329781 0.149768
Si Si2 0.081997 0.461131 0.791065
Si Si3 0.929925 0.327593 0.782139
Si Si4 0.931511 0.325287 0.600305
Si Si5 0.928622 0.576704 0.699676
Si Si6 0.069461 0.569574 0.531348
Si Si7 0.918067 0.054076 0.055749
O O1 0.250000 0.332340 0.142873
O O2 0.024106 0.250000 0.149078
O O3 0.032246 0.367829 0.232533
O O4 0.000271 0.375752 0.079947
O O5 0.250000 0.449783 0.760021
O O6 0.091693 0.512896 0.863013
O O7 0.011422 0.390768 0.821703
O O8 0.979492 0.501716 0.729298
O O9 0.750000 0.333051 0.789438
O O10 0.971026 0.250000 0.804379
O O11 0.972452 0.338110 0.690464
O O12 0.750000 0.325450 0.600448
O O13 0.983922 0.250000 0.579970
O O14 0.979886 0.376679 0.534361
O O15 0.750000 0.577447 0.689895
O O16 0.008933 0.588656 0.617121
O O17 0.250000 0.565733 0.533580
O O18 0.000000 0.500000 0.500000
O O19 0.750000 0.068150 0.026359
O O20 0.000000 0.000000 0.000000
#
# Coordination Sequence:
#
# PCOD9450132 Si02
#       7
#     8   8   8   8   8   8   8
#     4   9  19  37  60  84 111 145 183 224 273 327
#     4  10  20  34  53  77 103 131 169 213 254 302
#     4   9  17  31  52  75  99 131 171 212 256 308
#     4   8  16  31  48  66  91 126 166 206 251 301
#     4  10  20  34  52  74 103 139 176 217 267 321
#     4  11  21  32  49  73 101 134 175 223 272 321
#     4  10  21  37  58  84 112 143 177 215 262 317
#
# _framework density 18.721316999999999
#
# number of rings (size 3 to 8) (size 9 to 14) (size 15 to 20)
#    0.000    2.429    0.000    3.429    0.000    4.571 
#    0.000    1.429    0.000    3.857    0.000    0.000 
#    0.000    0.000    0.000    0.000    0.000    0.000 
#
# Total GULP energy -312080.162450 kJ/mol
# GULP energy per Si atom -5572.860044 kJ/mol
# Density = 1.867871 g / cm^3
# Si number density = 18.721317 Si / 1000 Ang^3
#
#
#
# Elastic Constant Matrix: (Units=GPa)
#
#
# Indices 1 2 3 4 5 6 
#
# 1 58.5403 39.2263 15.9774 0.0000 0.0000 0.0000
# 2 39.2263 133.1343 11.0246 0.0000 0.0000 0.0000
# 3 15.9774 11.0246 19.2294 0.0000 0.0000 0.0000
# 4 0.0000 0.0000 0.0000 28.1041 0.0000 0.0000
# 5 0.0000 0.0000 0.0000 0.0000 28.2786 0.0000
# 6 0.0000 0.0000 0.0000 0.0000 0.0000 26.8537
#
#
#
# Elastic Compliance Matrix: (Units=1/GPa)
#
#
# Indices 1 2 3 4 5 6 
#
# 1 0.026221 -0.006217 -0.018223 0.000000 0.000000 0.000000
# 2 -0.006217 0.009360 -0.000201 0.000000 0.000000 0.000000
# 3 -0.018223 -0.000201 0.067260 0.000000 0.000000 0.000000
# 4 0.000000 0.000000 0.000000 0.035582 0.000000 0.000000
# 5 0.000000 0.000000 0.000000 0.000000 0.035362 0.000000
# 6 0.000000 0.000000 0.000000 0.000000 0.000000 0.037239
#
#
# Mechanical properties :
#
#
# Convention : Reuss Voigt Hill
#
# Bulk Modulus (GPa) = 18.67052 38.15119 28.41085
# Shear Modulus (GPa) = 17.97543 26.29233 22.13388
#
# Velocity S-wave (km/s) = 3.10200 3.75161 3.44216
# Velocity P-wave (km/s) = 4.77749 6.26009 5.56836
#
# Compressibility (1/GPa) = 0.05356037
#
# Stress axis : x y z
#
# Youngs Moduli (GPa) = 38.13666 106.84297 14.86778
#
# Poissons Ratio (x) = 0.66423 0.27093
# Poissons Ratio (y) = 0.23709 0.00298
# Poissons Ratio (z) = 0.69495 0.02143
#
# Static dielectric constant tensor:
#      x y z
#    x 1.659650 0.000000 0.000000 
#    y 0.000000 1.651960 0.000000 
#    z 0.000000 0.000000 1.684410 
# 
# From -- ./inp_files/26105.got.cif
#   From: 2010.05.17/outbox.cif.g08.bks.cpg/sg59_14_cif.got.tgz:26105.got - 2010.06.03 14:40:33.
