data_PCOD9450640
_publ_section_title
;
Structure prediction by ZEFSAII (Michael W. Deem and Ramdas Pophale) SiO2 
 PCOD9450640
Probable space group: P M M N
;
_chemical_formula_sum "Si O2"
_cell_formula_units_Z 56
_cell_length_a 20.333241
_cell_length_b 8.806747
_cell_length_c 15.561975
_cell_angle_alpha 90.000000
_cell_angle_beta 90.000000
_cell_angle_gamma 90.000000
_cell_volume 2786.678337
_symmetry_space_group_name_H-M "P M M N"
_symmetry_group_IT_number 59
_space_group.IT_coordinate_system_code '2'
_symmetry_cell_setting 'orthorhombic'
loop_
_space_group_symop_operation_xyz
x,y,z
1/2-x,1/2-y,z
1/2+x,-y,-z
-x,1/2+y,-z
-x,-y,-z
1/2+x,1/2+y,-z
1/2-x,y,z
x,1/2-y,z
loop_
_atom_site_type_symbol
_atom_site_label
_atom_site_fract_x
_atom_site_fract_y
_atom_site_fract_z
Si Si1 0.175467 0.425406 0.985522
Si Si2 0.004502 0.424489 0.234596
Si Si3 0.145244 0.574951 0.811923
Si Si4 0.327359 0.919826 0.619229
Si Si5 0.172242 0.428488 0.445189
Si Si6 0.465463 0.568682 0.413784
Si Si7 0.947766 0.072155 0.932974
O O1 0.250000 0.444727 0.016123
O O2 0.155742 0.250000 0.997981
O O3 0.172452 0.467799 0.885046
O O4 0.123857 0.534744 0.030367
O O5 0.024412 0.250000 0.249034
O O6 0.000872 0.506356 0.326652
O O7 0.048516 0.504658 0.162895
O O8 0.933418 0.424347 0.188884
O O9 0.167969 0.750000 0.823988
O O10 0.162488 0.527314 0.715653
O O11 0.250000 0.899488 0.608950
O O12 0.358675 0.750000 0.608580
O O13 0.344266 0.037232 0.545282
O O14 0.250000 0.471920 0.429080
O O15 0.166959 0.250000 0.426787
O O16 0.111584 0.518678 0.402864
O O17 0.500000 0.500000 0.500000
O O18 0.469614 0.750000 0.418908
O O19 0.960997 0.250000 0.929790
O O20 0.000000 0.000000 0.000000
#
# Coordination Sequence:
#
# PCOD9450640 Si02
#       7
#     8   8   8   8   8   8   8
#     4  11  24  40  61  91 127 166 210 264 322 379
#     4  11  23  40  64  95 127 164 210 262 320 385
#     4  10  20  34  56  85 119 160 202 250 312 383
#     4   9  17  30  50  79 116 157 202 250 306 377
#     4  10  21  38  60  86 119 162 211 264 324 386
#     4  12  25  42  65  95 131 170 216 272 325 382
#     4  12  24  42  67  94 126 167 213 262 313 375
#
# _framework density 20.095610000000001
#
# number of rings (size 3 to 8) (size 9 to 14) (size 15 to 20)
#    0.000    1.286    1.429    5.143    0.000    4.857 
#    0.000    2.143    0.000    4.286    0.000    0.000 
#    0.000    0.000    0.000    0.000    0.000    0.000 
#
# Total GULP energy -312599.119980 kJ/mol
# GULP energy per Si atom -5582.127143 kJ/mol
# Density = 2.004987 g / cm^3
# Si number density = 20.095610 Si / 1000 Ang^3
#
#
#
# Elastic Constant Matrix: (Units=GPa)
#
#
# Indices 1 2 3 4 5 6 
#
# 1 66.1935 31.4744 12.7680 0.0000 0.0000 0.0000
# 2 31.4744 106.5273 30.9178 0.0000 0.0000 0.0000
# 3 12.7680 30.9178 73.6560 0.0000 0.0000 0.0000
# 4 0.0000 0.0000 0.0000 23.5656 0.0000 0.0000
# 5 0.0000 0.0000 0.0000 0.0000 28.8294 0.0000
# 6 0.0000 0.0000 0.0000 0.0000 0.0000 26.9506
#
#
#
# Elastic Compliance Matrix: (Units=1/GPa)
#
#
# Indices 1 2 3 4 5 6 
#
# 1 0.017640 -0.004924 -0.000991 0.000000 0.000000 0.000000
# 2 -0.004924 0.012064 -0.004210 0.000000 0.000000 0.000000
# 3 -0.000991 -0.004210 0.015516 0.000000 0.000000 0.000000
# 4 0.000000 0.000000 0.000000 0.042435 0.000000 0.000000
# 5 0.000000 0.000000 0.000000 0.000000 0.034687 0.000000
# 6 0.000000 0.000000 0.000000 0.000000 0.000000 0.037105
#
#
# Mechanical properties :
#
#
# Convention : Reuss Voigt Hill
#
# Bulk Modulus (GPa) = 40.05011 44.07747 42.06379
# Shear Modulus (GPa) = 26.59289 27.28355 26.93822
#
# Velocity S-wave (km/s) = 3.64169 3.68868 3.66526
# Velocity P-wave (km/s) = 6.13642 6.33429 6.23614
#
# Compressibility (1/GPa) = 0.02496872
#
# Stress axis : x y z
#
# Youngs Moduli (GPa) = 56.69007 82.88994 64.45066
#
# Poissons Ratio (x) = 0.40817 0.06386
# Poissons Ratio (y) = 0.27916 0.27137
# Poissons Ratio (z) = 0.05617 0.34900
#
# Static dielectric constant tensor:
#      x y z
#    x 1.747820 0.000000 0.000000 
#    y 0.000000 1.709210 0.000000 
#    z 0.000000 0.000000 1.717440 
# 
# From -- ./inp_files/24241.got.cif
#   From: 2010.05.17/outbox.cif.g08.bks.cpg/sg59_13_cif.got.tgz:24241.got - 2010.06.03 14:40:33.
