data_PCOD9450473
_publ_section_title
;
Structure prediction by ZEFSAII (Michael W. Deem and Ramdas Pophale) SiO2 
 PCOD9450473
Probable space group: P M M N
;
_chemical_formula_sum "Si O2"
_cell_formula_units_Z 48
_cell_length_a 8.516768
_cell_length_b 18.169699
_cell_length_c 16.551745
_cell_angle_alpha 90.000000
_cell_angle_beta 90.000000
_cell_angle_gamma 90.000000
_cell_volume 2561.334721
_symmetry_space_group_name_H-M "P M M N"
_symmetry_group_IT_number 59
_space_group.IT_coordinate_system_code '2'
_symmetry_cell_setting 'orthorhombic'
loop_
_space_group_symop_operation_xyz
x,y,z
1/2-x,1/2-y,z
1/2+x,-y,-z
-x,1/2+y,-z
-x,-y,-z
1/2+x,1/2+y,-z
1/2-x,y,z
x,1/2-y,z
loop_
_atom_site_type_symbol
_atom_site_label
_atom_site_fract_x
_atom_site_fract_y
_atom_site_fract_z
Si Si1 0.562827 0.250000 0.872909
Si Si2 0.061490 0.898272 0.034162
Si Si3 0.438609 0.163796 0.437006
Si Si4 0.062000 0.962185 0.870673
Si Si5 0.934406 0.750000 0.303947
Si Si6 0.439222 0.545233 0.686297
Si Si7 0.437203 0.894259 0.393015
O O1 0.750000 0.250000 0.852538
O O2 0.528453 0.179265 0.926388
O O3 0.465462 0.250000 0.791131
O O4 0.250000 0.910338 0.035751
O O5 0.009108 0.905886 0.940954
O O6 0.983765 0.960094 0.089964
O O7 0.250000 0.162461 0.439261
O O8 0.488263 0.250000 0.435692
O O9 0.498310 0.116018 0.361732
O O10 0.502589 0.123722 0.517131
O O11 0.250000 0.957153 0.865198
O O12 0.002869 0.954109 0.779451
O O13 0.750000 0.750000 0.323495
O O14 0.009919 0.676222 0.340524
O O15 0.250000 0.546227 0.685190
O O16 0.494251 0.469902 0.642994
O O17 0.250000 0.899756 0.393286
#
# Coordination Sequence:
#
# PCOD9450473 Si02
#       7
#     4   8   8   8   4   8   8
#     4  10  20  34  54  83 114 147 190 237 288 347
#     4   9  18  34  56  81 112 149 189 237 289 342
#     4  11  24  43  64  86 119 158 198 247 300 350
#     4   9  19  36  56  82 112 150 192 236 286 341
#     4  12  24  38  58  87 124 157 192 245 302 355
#     4  11  23  39  61  90 122 157 201 246 294 354
#     4  12  24  40  63  89 119 155 199 244 297 356
#
# _framework density 18.740231000000001
#
# number of rings (size 3 to 8) (size 9 to 14) (size 15 to 20)
#    0.000    1.500    0.833    4.750    0.000    5.667 
#    1.500    0.000    0.000    0.000    0.000    0.000 
#    0.000    0.000    0.000    0.000    0.000    0.000 
#
# Total GULP energy -268129.693180 kJ/mol
# GULP energy per Si atom -5586.035275 kJ/mol
# Density = 1.869758 g / cm^3
# Si number density = 18.740231 Si / 1000 Ang^3
#
#
#
# Elastic Constant Matrix: (Units=GPa)
#
#
# Indices 1 2 3 4 5 6 
#
# 1 56.3653 13.5583 32.3387 0.0000 0.0000 0.0000
# 2 13.5583 37.3825 56.9557 0.0000 0.0000 0.0000
# 3 32.3387 56.9557 172.4468 0.0000 0.0000 0.0000
# 4 0.0000 0.0000 0.0000 -6.6742 0.0000 0.0000
# 5 0.0000 0.0000 0.0000 0.0000 22.1478 0.0000
# 6 0.0000 0.0000 0.0000 0.0000 0.0000 152.8206
#
#
#
# Elastic Compliance Matrix: (Units=1/GPa)
#
#
# Indices 1 2 3 4 5 6 
#
# 1 0.020058 -0.003108 -0.002735 0.000000 0.000000 0.000000
# 2 -0.003108 0.054328 -0.017361 0.000000 0.000000 0.000000
# 3 -0.002735 -0.017361 0.012046 0.000000 0.000000 0.000000
# 4 0.000000 0.000000 0.000000 -0.149831 0.000000 0.000000
# 5 0.000000 0.000000 0.000000 0.000000 0.045151 0.000000
# 6 0.000000 0.000000 0.000000 0.000000 0.000000 0.006544
#
#
# Mechanical properties :
#
#
# Convention : Reuss Voigt Hill
#
# Bulk Modulus (GPa) = 24.98439 52.43332 38.70886
# Shear Modulus (GPa) = 104.06829 44.54831 74.30830
#
# Velocity S-wave (km/s) = 7.46007 4.88089 6.30380
# Velocity P-wave (km/s) = 9.35758 7.73330 8.58394
#
# Compressibility (1/GPa) = 0.04002499
#
# Stress axis : x y z
#
# Youngs Moduli (GPa) = 49.85497 18.40655 83.01723
#
# Poissons Ratio (x) = 0.05721 0.22705
# Poissons Ratio (y) = 0.15494 1.44124
# Poissons Ratio (z) = 0.13635 0.31955
#
# Static dielectric constant tensor:
#      x y z
#    x 1.645580 0.000000 0.000000 
#    y 0.000000 1.605530 0.000000 
#    z 0.000000 0.000000 1.652430 
# 
# From -- ./inp_files/20523.got.cif
#   From: 2010.05.17/outbox.cif.g08.bks.cpg/sg59_11_cif.got.tgz:20523.got - 2010.06.03 14:40:33.
