data_PCOD9450250
_publ_section_title
;
Structure prediction by ZEFSAII (Michael W. Deem and Ramdas Pophale) SiO2 
 PCOD9450250
Probable space group: P M M N
;
_chemical_formula_sum "Si O2"
_cell_formula_units_Z 40
_cell_length_a 9.389547
_cell_length_b 8.435614
_cell_length_c 26.525553
_cell_angle_alpha 90.000000
_cell_angle_beta 90.000000
_cell_angle_gamma 90.000000
_cell_volume 2100.998710
_symmetry_space_group_name_H-M "P M M N"
_symmetry_group_IT_number 59
_space_group.IT_coordinate_system_code '2'
_symmetry_cell_setting 'orthorhombic'
loop_
_space_group_symop_operation_xyz
x,y,z
1/2-x,1/2-y,z
1/2+x,-y,-z
-x,1/2+y,-z
-x,-y,-z
1/2+x,1/2+y,-z
1/2-x,y,z
x,1/2-y,z
loop_
_atom_site_type_symbol
_atom_site_label
_atom_site_fract_x
_atom_site_fract_y
_atom_site_fract_z
Si Si1 0.585626 0.941830 0.048563
Si Si2 0.913875 0.056326 0.852182
Si Si3 0.085132 0.939577 0.643599
Si Si4 0.584661 0.558571 0.246427
Si Si5 0.412875 0.560371 0.451974
O O1 0.750000 0.995032 0.047570
O O2 0.585732 0.750000 0.048474
O O3 0.505470 0.994289 0.099464
O O4 0.500000 0.000000 0.000000
O O5 0.750000 0.004972 0.855761
O O6 0.914380 0.250000 0.852096
O O7 0.988144 0.005420 0.800206
O O8 0.250000 0.992784 0.636997
O O9 0.082925 0.750000 0.641179
O O10 0.038889 0.994014 0.699242
O O11 0.988936 0.006919 0.599247
O O12 0.750000 0.511850 0.238221
O O13 0.580276 0.750000 0.248280
O O14 0.500000 0.500000 0.500000
O O15 0.250000 0.502090 0.453858
O O16 0.410896 0.750000 0.453612
#
# Coordination Sequence:
#
# PCOD9450250 Si02
#       5
#     8   8   8   8   8
#     4  10  20  34  53  77 105 138 177 220 267 321
#     4   9  17  30  50  75 102 134 175 222 268 315
#     4  10  21  37  57  82 112 145 181 220 264 316
#     4   9  17  31  52  76 102 135 175 218 265 316
#     4  11  24  40  59  84 112 143 181 223 267 317
#
# _framework density 19.038564000000001
#
# number of rings (size 3 to 8) (size 9 to 14) (size 15 to 20)
#    0.000    2.200    0.000    3.000    0.000    9.600 
#    0.000    3.000    0.000    3.600    0.000    0.000 
#    0.000    0.000    0.000    0.000    0.000    0.000 
#
# Total GULP energy -223405.404781 kJ/mol
# GULP energy per Si atom -5585.135120 kJ/mol
# Density = 1.899523 g / cm^3
# Si number density = 19.038564 Si / 1000 Ang^3
#
#
#
# Elastic Constant Matrix: (Units=GPa)
#
#
# Indices 1 2 3 4 5 6 
#
# 1 174.1477 25.6661 139.9076 0.0000 0.0000 0.0000
# 2 25.6661 14.4768 28.6036 0.0000 0.0000 0.0000
# 3 139.9076 28.6036 213.4762 0.0000 0.0000 0.0000
# 4 0.0000 0.0000 0.0000 32.2416 0.0000 0.0000
# 5 0.0000 0.0000 0.0000 0.0000 42.5900 0.0000
# 6 0.0000 0.0000 0.0000 0.0000 0.0000 20.0439
#
#
#
# Elastic Compliance Matrix: (Units=1/GPa)
#
#
# Indices 1 2 3 4 5 6 
#
# 1 0.012828 -0.008339 -0.007290 0.000000 0.000000 0.000000
# 2 -0.008339 0.099369 -0.007849 0.000000 0.000000 0.000000
# 3 -0.007290 -0.007849 0.010513 0.000000 0.000000 0.000000
# 4 0.000000 0.000000 0.000000 0.031016 0.000000 0.000000
# 5 0.000000 0.000000 0.000000 0.000000 0.023480 0.000000
# 6 0.000000 0.000000 0.000000 0.000000 0.000000 0.049891
#
#
# Mechanical properties :
#
#
# Convention : Reuss Voigt Hill
#
# Bulk Modulus (GPa) = 13.20051 87.82835 50.51443
# Shear Modulus (GPa) = 16.70541 32.83666 24.77103
#
# Velocity S-wave (km/s) = 2.96539 4.15751 3.61099
# Velocity P-wave (km/s) = 4.32127 8.32337 6.63143
#
# Compressibility (1/GPa) = 0.07575464
#
# Stress axis : x y z
#
# Youngs Moduli (GPa) = 77.95657 10.06345 95.11601
#
# Poissons Ratio (x) = 0.08392 0.69336
# Poissons Ratio (y) = 0.65011 0.74657
# Poissons Ratio (z) = 0.56827 0.07899
#
# Static dielectric constant tensor:
#      x y z
#    x 1.654820 0.000000 0.000000 
#    y 0.000000 1.661620 0.000000 
#    z 0.000000 0.000000 1.622050 
# 
# From -- ./inp_files/31147.got.cif
#   From: 2010.05.17/outbox.cif.g08.bks.cpg/sg59_16_cif.got.tgz:31147.got - 2010.06.03 14:40:33.
