data_PCOD9450897
_publ_section_title
;
Structure prediction by ZEFSAII (Michael W. Deem and Ramdas Pophale) SiO2 
 PCOD9450897
Probable space group: P M M N
;
_chemical_formula_sum "Si O2"
_cell_formula_units_Z 40
_cell_length_a 16.634785
_cell_length_b 7.901614
_cell_length_c 14.322429
_cell_angle_alpha 90.000000
_cell_angle_beta 90.000000
_cell_angle_gamma 90.000000
_cell_volume 1882.563700
_symmetry_space_group_name_H-M "P M M N"
_symmetry_group_IT_number 59
_space_group.IT_coordinate_system_code '2'
_symmetry_cell_setting 'orthorhombic'
loop_
_space_group_symop_operation_xyz
x,y,z
1/2-x,1/2-y,z
1/2+x,-y,-z
-x,1/2+y,-z
-x,-y,-z
1/2+x,1/2+y,-z
1/2-x,y,z
x,1/2-y,z
loop_
_atom_site_type_symbol
_atom_site_label
_atom_site_fract_x
_atom_site_fract_y
_atom_site_fract_z
Si Si1 0.250000 0.542978 0.952980
Si Si2 0.250000 0.953190 0.737430
Si Si3 0.916370 0.454268 0.948913
Si Si4 0.068124 0.542317 0.264046
Si Si5 0.338353 0.547584 0.441545
Si Si6 0.910865 0.949100 0.370283
O O1 0.250000 0.750000 0.955323
O O2 0.250000 0.490284 0.844862
O O3 0.333633 0.487165 0.001426
O O4 0.250000 0.750000 0.735294
O O5 0.328870 0.013848 0.684078
O O6 0.912684 0.250000 0.948008
O O7 0.919454 0.514893 0.841646
O O8 0.000000 0.500000 0.000000
O O9 0.068055 0.750000 0.261162
O O10 0.134101 0.488243 0.339867
O O11 0.984301 0.482464 0.309003
O O12 0.250000 0.479947 0.466545
O O13 0.333243 0.750000 0.436245
O O14 0.400399 0.511868 0.524250
O O15 0.923373 0.750000 0.376946
#
# Coordination Sequence:
#
# PCOD9450897 Si02
#       6
#     4   4   8   8   8   8
#     4   9  20  35  58  85 110 144 189 239 284 331
#     4  11  21  35  54  79 108 142 187 229 274 327
#     4  10  20  38  60  85 115 148 191 238 284 335
#     4   9  20  35  56  83 111 145 184 225 275 332
#     4  10  20  35  56  82 111 144 184 224 267 327
#     4  11  21  35  54  80 112 145 181 225 277 328
#
# _framework density 21.247620999999999
#
# number of rings (size 3 to 8) (size 9 to 14) (size 15 to 20)
#    0.000    2.000    1.000    2.700    1.400    0.000 
#    0.000    4.500    0.000    0.000    0.000    0.000 
#    0.000    0.000    0.000    0.000    0.000    0.000 
#
# Total GULP energy -223403.036533 kJ/mol
# GULP energy per Si atom -5585.075913 kJ/mol
# Density = 2.119926 g / cm^3
# Si number density = 21.247621 Si / 1000 Ang^3
#
#
#
# Elastic Constant Matrix: (Units=GPa)
#
#
# Indices 1 2 3 4 5 6 
#
# 1 112.6334 1.2909 56.9255 0.0000 0.0000 0.0000
# 2 1.2909 17.7366 6.2039 0.0000 0.0000 0.0000
# 3 56.9255 6.2039 186.7728 0.0000 0.0000 0.0000
# 4 0.0000 0.0000 0.0000 19.0467 0.0000 0.0000
# 5 0.0000 0.0000 0.0000 0.0000 34.3963 0.0000
# 6 0.0000 0.0000 0.0000 0.0000 0.0000 16.9784
#
#
#
# Elastic Compliance Matrix: (Units=1/GPa)
#
#
# Indices 1 2 3 4 5 6 
#
# 1 0.010497 0.000359 -0.003211 0.000000 0.000000 0.000000
# 2 0.000359 0.057056 -0.002005 0.000000 0.000000 0.000000
# 3 -0.003211 -0.002005 0.006399 0.000000 0.000000 0.000000
# 4 0.000000 0.000000 0.000000 0.052502 0.000000 0.000000
# 5 0.000000 0.000000 0.000000 0.000000 0.029073 0.000000
# 6 0.000000 0.000000 0.000000 0.000000 0.000000 0.058898
#
#
# Mechanical properties :
#
#
# Convention : Reuss Voigt Hill
#
# Bulk Modulus (GPa) = 15.56689 49.55368 32.56029
# Shear Modulus (GPa) = 20.36226 30.93247 25.64736
#
# Velocity S-wave (km/s) = 3.09905 3.81965 3.47806
# Velocity P-wave (km/s) = 4.48863 6.54412 5.61130
#
# Compressibility (1/GPa) = 0.06423891
#
# Stress axis : x y z
#
# Youngs Moduli (GPa) = 95.26282 17.52673 156.26331
#
# Poissons Ratio (x) = -0.00630 0.50181
# Poissons Ratio (y) = -0.03422 0.31326
# Poissons Ratio (z) = 0.30592 0.03514
#
# Static dielectric constant tensor:
#      x y z
#    x 1.779330 0.000000 0.000000 
#    y 0.000000 1.781280 0.000000 
#    z 0.000000 0.000000 1.739410 
# 
# From -- ./inp_files/22992.got.cif
#   From: 2010.05.17/outbox.cif.g08.bks.cpg/sg59_12_cif.got.tgz:22992.got - 2010.06.03 14:40:33.
