data_PCOD9450889
_publ_section_title
;
Structure prediction by ZEFSAII (Michael W. Deem and Ramdas Pophale) SiO2 
 PCOD9450889
Probable space group: P M M N
;
_chemical_formula_sum "Si O2"
_cell_formula_units_Z 48
_cell_length_a 7.673572
_cell_length_b 15.500555
_cell_length_c 19.654602
_cell_angle_alpha 90.000000
_cell_angle_beta 90.000000
_cell_angle_gamma 90.000000
_cell_volume 2337.809261
_symmetry_space_group_name_H-M "P M M N"
_symmetry_group_IT_number 59
_space_group.IT_coordinate_system_code '2'
_symmetry_cell_setting 'orthorhombic'
loop_
_space_group_symop_operation_xyz
x,y,z
1/2-x,1/2-y,z
1/2+x,-y,-z
-x,1/2+y,-z
-x,-y,-z
1/2+x,1/2+y,-z
1/2-x,y,z
x,1/2-y,z
loop_
_atom_site_type_symbol
_atom_site_label
_atom_site_fract_x
_atom_site_fract_y
_atom_site_fract_z
Si Si1 0.962194 0.750000 0.734131
Si Si2 0.536893 0.750000 0.954065
Si Si3 0.462803 0.110899 0.155009
Si Si4 0.964035 0.750000 0.578008
Si Si5 0.458046 0.576616 0.191178
Si Si6 0.956599 0.597046 0.480253
Si Si7 0.541786 0.750000 0.109020
Si Si8 0.957508 0.347062 0.671136
O O1 0.750000 0.750000 0.732677
O O2 0.013944 0.833681 0.778315
O O3 0.022306 0.750000 0.656310
O O4 0.750000 0.750000 0.954963
O O5 0.475597 0.750000 0.031468
O O6 0.481955 0.666131 0.910687
O O7 0.250000 0.111105 0.153514
O O8 0.525792 0.012679 0.159596
O O9 0.750000 0.750000 0.579565
O O10 0.022913 0.666376 0.535327
O O11 0.250000 0.564640 0.195828
O O12 0.487835 0.663136 0.148068
O O13 0.526694 0.594608 0.267401
O O14 0.750000 0.606936 0.479696
O O15 0.000000 0.500000 0.500000
O O16 0.017445 0.617814 0.404284
O O17 0.750000 0.750000 0.106915
O O18 0.750000 0.341093 0.681903
O O19 0.030018 0.250000 0.675755
#
# Coordination Sequence:
#
# PCOD9450889 Si02
#       8
#     4   4   8   4   8   8   4   8
#     4   8  14  27  49  77 101 127 166 219 270 305
#     4   8  16  32  50  78 112 140 171 214 272 327
#     4   8  15  29  53  79 104 133 171 219 268 318
#     4   9  19  33  51  75 105 134 177 229 265 310
#     4  10  20  35  56  82 106 137 185 229 265 315
#     4  11  23  38  55  81 112 146 185 226 272 326
#     4  11  22  34  51  76 114 149 174 216 271 326
#     4  10  20  36  56  77 107 143 180 230 280 322
#
# _framework density 20.532042000000001
#
# number of rings (size 3 to 8) (size 9 to 14) (size 15 to 20)
#    0.000    2.500    1.667    1.750    2.333    1.333 
#    0.000    0.000    0.000    1.000    0.000    1.750 
#    0.000    0.000    0.000    0.000    0.000    0.000 
#
# Total GULP energy -267895.806438 kJ/mol
# GULP energy per Si atom -5581.162634 kJ/mol
# Density = 2.048531 g / cm^3
# Si number density = 20.532042 Si / 1000 Ang^3
#
#
#
# Elastic Constant Matrix: (Units=GPa)
#
#
# Indices 1 2 3 4 5 6 
#
# 1 30.5425 -9.6129 -9.6327 0.0000 0.0000 0.0000
# 2 -9.6129 158.0802 61.5606 0.0000 0.0000 0.0000
# 3 -9.6327 61.5606 152.7982 0.0000 0.0000 0.0000
# 4 0.0000 0.0000 0.0000 -21.2144 0.0000 0.0000
# 5 0.0000 0.0000 0.0000 0.0000 10.9281 0.0000
# 6 0.0000 0.0000 0.0000 0.0000 0.0000 5.0091
#
#
#
# Elastic Compliance Matrix: (Units=1/GPa)
#
#
# Indices 1 2 3 4 5 6 
#
# 1 0.033683 0.001449 0.001540 0.000000 0.000000 0.000000
# 2 0.001449 0.007565 -0.002957 0.000000 0.000000 0.000000
# 3 0.001540 -0.002957 0.007833 0.000000 0.000000 0.000000
# 4 0.000000 0.000000 0.000000 -0.047138 0.000000 0.000000
# 5 0.000000 0.000000 0.000000 0.000000 0.091507 0.000000
# 6 0.000000 0.000000 0.000000 0.000000 0.000000 0.199636
#
#
# Mechanical properties :
#
#
# Convention : Reuss Voigt Hill
#
# Bulk Modulus (GPa) = 20.34813 47.33899 33.84356
# Shear Modulus (GPa) = 16.16007 18.88496 17.52252
#
# Velocity S-wave (km/s) = 2.80851 3.03608 2.92451
# Velocity P-wave (km/s) = 4.52205 5.94950 5.28420
#
# Compressibility (1/GPa) = 0.04914457
#
# Stress axis : x y z
#
# Youngs Moduli (GPa) = 29.68872 132.18059 127.66717
#
# Poissons Ratio (x) = -0.19148 -0.19658
# Poissons Ratio (y) = -0.04301 0.37747
# Poissons Ratio (z) = -0.04571 0.39082
#
# Static dielectric constant tensor:
#      x y z
#    x 1.760820 0.000000 0.000000 
#    y 0.000000 1.782350 0.000000 
#    z 0.000000 0.000000 1.708260 
# 
# From -- ./inp_files/25662.got.cif
#   From: 2010.05.17/outbox.cif.g08.bks.cpg/sg59_13_cif.got.tgz:25662.got - 2010.06.03 14:40:33.
