data_PCOD9450297
_publ_section_title
;
Structure prediction by ZEFSAII (Michael W. Deem and Ramdas Pophale) SiO2 
 PCOD9450297
Probable space group: P M M N
;
_chemical_formula_sum "Si O2"
_cell_formula_units_Z 48
_cell_length_a 10.487615
_cell_length_b 15.839797
_cell_length_c 15.135018
_cell_angle_alpha 90.000000
_cell_angle_beta 90.000000
_cell_angle_gamma 90.000000
_cell_volume 2514.254808
_symmetry_space_group_name_H-M "P M M N"
_symmetry_group_IT_number 59
_space_group.IT_coordinate_system_code '2'
_symmetry_cell_setting 'orthorhombic'
loop_
_space_group_symop_operation_xyz
x,y,z
1/2-x,1/2-y,z
1/2+x,-y,-z
-x,1/2+y,-z
-x,-y,-z
1/2+x,1/2+y,-z
1/2-x,y,z
x,1/2-y,z
loop_
_atom_site_type_symbol
_atom_site_label
_atom_site_fract_x
_atom_site_fract_y
_atom_site_fract_z
Si Si1 0.389409 0.872116 0.842583
Si Si2 0.599530 0.154885 0.521129
Si Si3 0.603649 0.039238 0.685482
Si Si4 0.467401 0.344229 0.331632
Si Si5 0.106169 0.072185 0.827043
Si Si6 0.106888 0.152180 0.013311
O O1 0.250000 0.841483 0.871014
O O2 0.425768 0.841892 0.744798
O O3 0.382157 0.972373 0.837284
O O4 0.504315 0.853892 0.909254
O O5 0.750000 0.149196 0.500987
O O6 0.576300 0.250000 0.558085
O O7 0.570671 0.081016 0.590746
O O8 0.524048 0.148744 0.429748
O O9 0.750000 0.062790 0.706047
O O10 0.503344 0.080050 0.753836
O O11 0.597437 0.936230 0.684905
O O12 0.403242 0.250000 0.325811
O O13 0.250000 0.105254 0.805117
O O14 0.068586 0.106304 0.923213
O O15 0.250000 0.122144 0.040065
O O16 0.116898 0.250000 0.990666
#
# Coordination Sequence:
#
# PCOD9450297 Si02
#       6
#     8   8   8   8   8   8
#     4  10  20  34  54  79 105 136 178 223 263 311
#     4   9  18  34  56  81 110 144 181 222 268 317
#     4  10  21  36  56  83 111 140 179 227 272 312
#     4  10  20  34  53  78 111 148 180 213 263 325
#     4   9  20  38  56  75 103 141 180 216 262 322
#     4  10  21  36  54  77 106 139 173 214 268 324
#
# _framework density 19.091144
#
# number of rings (size 3 to 8) (size 9 to 14) (size 15 to 20)
#    0.000    2.333    0.000    2.000    0.000    7.000 
#    0.000    0.833    0.000    1.000    0.000    0.000 
#    0.000    0.000    0.000    0.000    0.000    0.000 
#
# Total GULP energy -267202.476540 kJ/mol
# GULP energy per Si atom -5566.718261 kJ/mol
# Density = 1.904769 g / cm^3
# Si number density = 19.091144 Si / 1000 Ang^3
#
#
#
# Elastic Constant Matrix: (Units=GPa)
#
#
# Indices 1 2 3 4 5 6 
#
# 1 84.1052 29.2351 54.8692 0.0000 0.0000 0.0000
# 2 29.2351 32.0279 34.9726 0.0000 0.0000 0.0000
# 3 54.8692 34.9726 82.9910 0.0000 0.0000 0.0000
# 4 0.0000 0.0000 0.0000 59.0420 0.0000 0.0000
# 5 0.0000 0.0000 0.0000 0.0000 -6.2767 0.0000
# 6 0.0000 0.0000 0.0000 0.0000 0.0000 26.3447
#
#
#
# Elastic Compliance Matrix: (Units=1/GPa)
#
#
# Indices 1 2 3 4 5 6 
#
# 1 0.021898 -0.007742 -0.011215 0.000000 0.000000 0.000000
# 2 -0.007742 0.060573 -0.020407 0.000000 0.000000 0.000000
# 3 -0.011215 -0.020407 0.028064 0.000000 0.000000 0.000000
# 4 0.000000 0.000000 0.000000 0.016937 0.000000 0.000000
# 5 0.000000 0.000000 0.000000 0.000000 -0.159319 0.000000
# 6 0.000000 0.000000 0.000000 0.000000 0.000000 0.037958
#
#
# Mechanical properties :
#
#
# Convention : Reuss Voigt Hill
#
# Bulk Modulus (GPa) = 31.44032 48.58644 40.01338
# Shear Modulus (GPa) = 52.38904 21.15849 36.77376
#
# Velocity S-wave (km/s) = 5.24415 3.33271 4.39363
# Velocity P-wave (km/s) = 7.29194 6.34935 6.83691
#
# Compressibility (1/GPa) = 0.03180630
#
# Stress axis : x y z
#
# Youngs Moduli (GPa) = 45.66728 16.50909 35.63309
#
# Poissons Ratio (x) = 0.12781 0.39963
# Poissons Ratio (y) = 0.35355 0.72716
# Poissons Ratio (z) = 0.51216 0.33690
#
# Static dielectric constant tensor:
#      x y z
#    x 1.695040 0.000000 0.000000 
#    y 0.000000 1.786310 0.000000 
#    z 0.000000 0.000000 1.641200 
# 
# From -- ./inp_files/20381.got.cif
#   From: 2010.05.17/outbox.cif.g08.bks.cpg/sg59_11_cif.got.tgz:20381.got - 2010.06.03 14:40:33.
