data_PCOD9450158
_publ_section_title
;
Structure prediction by ZEFSAII (Michael W. Deem and Ramdas Pophale) SiO2 
 PCOD9450158
Probable space group: P M M N
;
_chemical_formula_sum "Si O2"
_cell_formula_units_Z 64
_cell_length_a 8.123276
_cell_length_b 29.938668
_cell_length_c 12.788396
_cell_angle_alpha 90.000000
_cell_angle_beta 90.000000
_cell_angle_gamma 90.000000
_cell_volume 3110.138716
_symmetry_space_group_name_H-M "P M M N"
_symmetry_group_IT_number 59
_space_group.IT_coordinate_system_code '2'
_symmetry_cell_setting 'orthorhombic'
loop_
_space_group_symop_operation_xyz
x,y,z
1/2-x,1/2-y,z
1/2+x,-y,-z
-x,1/2+y,-z
-x,-y,-z
1/2+x,1/2+y,-z
1/2-x,y,z
x,1/2-y,z
loop_
_atom_site_type_symbol
_atom_site_label
_atom_site_fract_x
_atom_site_fract_y
_atom_site_fract_z
Si Si1 0.949564 0.667252 0.504868
Si Si2 0.551839 0.933296 0.506900
Si Si3 0.946596 0.201730 0.280371
Si Si4 0.553529 0.006562 0.672818
Si Si5 0.444457 0.800715 0.051988
Si Si6 0.445658 0.973903 0.895968
Si Si7 0.548090 0.371346 0.119559
Si Si8 0.439586 0.303500 0.720165
O O1 0.750000 0.670588 0.503752
O O2 0.000811 0.616762 0.528830
O O3 0.008703 0.678596 0.388554
O O4 0.013615 0.697664 0.597787
O O5 0.750000 0.934751 0.508462
O O6 0.497035 0.949814 0.392584
O O7 0.489706 0.966607 0.597128
O O8 0.750000 0.202080 0.266218
O O9 0.008817 0.250000 0.240114
O O10 0.007439 0.157640 0.220055
O O11 0.750000 0.004375 0.675743
O O12 0.491778 0.000109 0.789995
O O13 0.250000 0.797412 0.030916
O O14 0.513223 0.750000 0.037386
O O15 0.470042 0.814084 0.172357
O O16 0.506604 0.839727 0.976536
O O17 0.250000 0.970820 0.900401
O O18 0.510526 0.922563 0.887447
O O19 0.500000 0.000000 0.000000
O O20 0.750000 0.373240 0.120104
O O21 0.250000 0.318784 0.730346
O O22 0.438876 0.250000 0.710861
#
# Coordination Sequence:
#
# PCOD9450158 Si02
#       8
#     8   8   8   8   8   8   8   8
#     4  10  20  34  52  76 108 143 178 216 261 312
#     4   9  19  35  56  81 107 139 179 223 269 319
#     4  10  20  34  55  83 113 144 179 219 264 320
#     4  10  20  36  57  80 107 138 176 221 271 327
#     4   9  17  32  55  78 100 130 172 219 263 313
#     4  11  23  39  58  79 108 144 183 229 281 336
#     4   9  19  36  57  80 106 138 175 218 271 325
#     4   9  18  32  48  68  99 136 168 202 249 301
#
# _framework density 20.577862
#
# number of rings (size 3 to 8) (size 9 to 14) (size 15 to 20)
#    0.000    2.375    0.000    2.250    0.000    4.750 
#    0.000    6.250    0.000    1.500    0.000    0.000 
#    0.000    0.000    0.000    0.000    0.000    0.000 
#
# Total GULP energy -357049.431083 kJ/mol
# GULP energy per Si atom -5578.897361 kJ/mol
# Density = 2.053103 g / cm^3
# Si number density = 20.577862 Si / 1000 Ang^3
#
#
#
# Elastic Constant Matrix: (Units=GPa)
#
#
# Indices 1 2 3 4 5 6 
#
# 1 9.6938 8.5189 -1.9651 0.0000 0.0000 0.0000
# 2 8.5189 96.2193 45.8377 0.0000 0.0000 0.0000
# 3 -1.9651 45.8377 125.6474 0.0000 0.0000 0.0000
# 4 0.0000 0.0000 0.0000 -285.3924 0.0000 0.0000
# 5 0.0000 0.0000 0.0000 0.0000 8.8121 0.0000
# 6 0.0000 0.0000 0.0000 0.0000 0.0000 10.7240
#
#
#
# Elastic Compliance Matrix: (Units=1/GPa)
#
#
# Indices 1 2 3 4 5 6 
#
# 1 0.116414 -0.013525 0.006755 0.000000 0.000000 0.000000
# 2 -0.013525 0.014150 -0.005374 0.000000 0.000000 0.000000
# 3 0.006755 -0.005374 0.010025 0.000000 0.000000 0.000000
# 4 0.000000 0.000000 0.000000 -0.003504 0.000000 0.000000
# 5 0.000000 0.000000 0.000000 0.000000 0.113480 0.000000
# 6 0.000000 0.000000 0.000000 0.000000 0.000000 0.093249
#
#
# Mechanical properties :
#
#
# Convention : Reuss Voigt Hill
#
# Bulk Modulus (GPa) = 8.59835 37.37149 22.98492
# Shear Modulus (GPa) = 12.28898 -41.22666 -14.46884
#
# Velocity S-wave (km/s) = 2.44641 -4.48084 -2.65453
# Velocity P-wave (km/s) = 3.48818 2.92749 1.34112
#
# Compressibility (1/GPa) = 0.11630143
#
# Stress axis : x y z
#
# Youngs Moduli (GPa) = 8.59005 70.66963 99.75223
#
# Poissons Ratio (x) = 0.95579 -0.67380
# Poissons Ratio (y) = 0.11618 0.53604
# Poissons Ratio (z) = -0.05802 0.37976
#
# Static dielectric constant tensor:
#      x y z
#    x 1.733800 0.000000 0.000000 
#    y 0.000000 1.769590 0.000000 
#    z 0.000000 0.000000 1.735470 
# 
# From -- ./inp_files/14991.got.cif
#   From: 2010.05.17/outbox.cif.g08.bks.cpg/sg59_8_cif.got.tgz:14991.got - 2010.06.03 14:40:33.
