data_PCOD9450646
_publ_section_title
;
Structure prediction by ZEFSAII (Michael W. Deem and Ramdas Pophale) SiO2 
 PCOD9450646
Probable space group: P M M N
;
_chemical_formula_sum "Si O2"
_cell_formula_units_Z 56
_cell_length_a 14.573505
_cell_length_b 8.885397
_cell_length_c 23.286059
_cell_angle_alpha 90.000000
_cell_angle_beta 90.000000
_cell_angle_gamma 90.000000
_cell_volume 3015.343859
_symmetry_space_group_name_H-M "P M M N"
_symmetry_group_IT_number 59
_space_group.IT_coordinate_system_code '2'
_symmetry_cell_setting 'orthorhombic'
loop_
_space_group_symop_operation_xyz
x,y,z
1/2-x,1/2-y,z
1/2+x,-y,-z
-x,1/2+y,-z
-x,-y,-z
1/2+x,1/2+y,-z
1/2-x,y,z
x,1/2-y,z
loop_
_atom_site_type_symbol
_atom_site_label
_atom_site_fract_x
_atom_site_fract_y
_atom_site_fract_z
Si Si1 0.463447 0.569859 0.085618
Si Si2 0.642373 0.431152 0.033016
Si Si3 0.357323 0.067864 0.193497
Si Si4 0.350962 0.923118 0.404624
Si Si5 0.145971 0.069015 0.648531
Si Si6 0.030595 0.070563 0.307046
Si Si7 0.902780 0.569343 0.482670
O O1 0.469287 0.750000 0.090182
O O2 0.565764 0.504335 0.074651
O O3 0.413416 0.500960 0.140684
O O4 0.398715 0.534238 0.030375
O O5 0.750000 0.477746 0.038718
O O6 0.639819 0.250000 0.040136
O O7 0.250000 0.022091 0.193390
O O8 0.359526 0.250000 0.189714
O O9 0.409147 0.023792 0.252223
O O10 0.250000 0.924842 0.377538
O O11 0.381459 0.750000 0.410989
O O12 0.419787 0.010910 0.364090
O O13 0.343901 0.999455 0.466428
O O14 0.250000 0.025917 0.662444
O O15 0.138236 0.250000 0.651433
O O16 0.125804 0.026837 0.581885
O O17 0.071140 0.996331 0.689892
O O18 0.026609 0.250000 0.308163
O O19 0.902574 0.750000 0.485884
O O20 0.000000 0.500000 0.500000
#
# Coordination Sequence:
#
# PCOD9450646 Si02
#       7
#     8   8   8   8   8   8   8
#     4  10  20  34  56  88 121 153 194 240 286 336
#     4   9  18  34  56  84 121 161 197 235 281 334
#     4  10  22  40  60  83 113 150 191 233 282 340
#     4  11  23  37  55  81 112 145 181 223 275 335
#     4  10  22  40  60  81 109 145 183 227 282 341
#     4  11  23  39  60  83 109 143 186 235 281 331
#     4  11  21  35  57  83 111 143 179 222 278 339
#
# _framework density 18.571679
#
# number of rings (size 3 to 8) (size 9 to 14) (size 15 to 20)
#    0.000    1.714    1.429    3.000    0.000    6.000 
#    0.000    0.714    0.000    0.857    0.000    0.000 
#    0.000    0.000    0.000    0.000    0.000    0.000 
#
# Total GULP energy -312541.722142 kJ/mol
# GULP energy per Si atom -5581.102181 kJ/mol
# Density = 1.852941 g / cm^3
# Si number density = 18.571679 Si / 1000 Ang^3
#
#
#
# Elastic Constant Matrix: (Units=GPa)
#
#
# Indices 1 2 3 4 5 6 
#
# 1 193.4607 48.4086 73.6459 0.0000 0.0000 0.0000
# 2 48.4086 33.8161 36.2879 0.0000 0.0000 0.0000
# 3 73.6459 36.2879 97.8243 0.0000 0.0000 0.0000
# 4 0.0000 0.0000 0.0000 28.2104 0.0000 0.0000
# 5 0.0000 0.0000 0.0000 0.0000 26.3162 0.0000
# 6 0.0000 0.0000 0.0000 0.0000 0.0000 24.5977
#
#
#
# Elastic Compliance Matrix: (Units=1/GPa)
#
#
# Indices 1 2 3 4 5 6 
#
# 1 0.008608 -0.008919 -0.003172 0.000000 0.000000 0.000000
# 2 -0.008919 0.058369 -0.014937 0.000000 0.000000 0.000000
# 3 -0.003172 -0.014937 0.018152 0.000000 0.000000 0.000000
# 4 0.000000 0.000000 0.000000 0.035448 0.000000 0.000000
# 5 0.000000 0.000000 0.000000 0.000000 0.037999 0.000000
# 6 0.000000 0.000000 0.000000 0.000000 0.000000 0.040654
#
#
# Mechanical properties :
#
#
# Convention : Reuss Voigt Hill
#
# Bulk Modulus (GPa) = 32.18376 71.30955 51.74665
# Shear Modulus (GPa) = 18.96497 26.94212 22.95355
#
# Velocity S-wave (km/s) = 3.19905 3.81295 3.51941
# Velocity P-wave (km/s) = 5.56887 7.60691 6.66624
#
# Compressibility (1/GPa) = 0.03107157
#
# Stress axis : x y z
#
# Youngs Moduli (GPa) = 116.16655 17.13251 55.09182
#
# Poissons Ratio (x) = 0.15280 0.17476
# Poissons Ratio (y) = 1.03609 0.82292
# Poissons Ratio (z) = 0.36850 0.25591
#
# Static dielectric constant tensor:
#      x y z
#    x 1.716570 0.000000 0.000000 
#    y 0.000000 1.623510 0.000000 
#    z 0.000000 0.000000 1.616770 
# 
# From -- ./inp_files/30329.got.cif
#   From: 2010.05.17/outbox.cif.g08.bks.cpg/sg59_16_cif.got.tgz:30329.got - 2010.06.03 14:40:33.
