data_PCOD9450197
_publ_section_title
;
Structure prediction by ZEFSAII (Michael W. Deem and Ramdas Pophale) SiO2 
 PCOD9450197
Probable space group: P M M N
;
_chemical_formula_sum "Si O2"
_cell_formula_units_Z 64
_cell_length_a 7.434703
_cell_length_b 25.617146
_cell_length_c 14.368186
_cell_angle_alpha 90.000000
_cell_angle_beta 90.000000
_cell_angle_gamma 90.000000
_cell_volume 2736.505397
_symmetry_space_group_name_H-M "P M M N"
_symmetry_group_IT_number 59
_space_group.IT_coordinate_system_code '2'
_symmetry_cell_setting 'orthorhombic'
loop_
_space_group_symop_operation_xyz
x,y,z
1/2-x,1/2-y,z
1/2+x,-y,-z
-x,1/2+y,-z
-x,-y,-z
1/2+x,1/2+y,-z
1/2-x,y,z
x,1/2-y,z
loop_
_atom_site_type_symbol
_atom_site_label
_atom_site_fract_x
_atom_site_fract_y
_atom_site_fract_z
Si Si1 0.543852 0.010675 0.372621
Si Si2 0.462706 0.124169 0.810143
Si Si3 0.963821 0.691809 0.535650
Si Si4 0.465447 0.989325 0.156861
Si Si5 0.956404 0.903558 0.903832
Si Si6 0.529264 0.691554 0.026485
Si Si7 0.034882 0.617036 0.691379
Si Si8 0.028826 0.398509 0.601450
O O1 0.750000 0.014492 0.402045
O O2 0.462396 0.068586 0.371691
O O3 0.540436 0.997339 0.261434
O O4 0.467579 0.958087 0.418581
O O5 0.250000 0.130739 0.799816
O O6 0.491821 0.070260 0.867109
O O7 0.527335 0.172538 0.870866
O O8 0.532724 0.116264 0.705983
O O9 0.750000 0.694106 0.519616
O O10 0.035957 0.750000 0.521419
O O11 0.034010 0.646505 0.467736
O O12 0.993568 0.670496 0.639479
O O13 0.250000 0.994190 0.162887
O O14 0.534538 0.037576 0.094762
O O15 0.750000 0.908177 0.935506
O O16 0.959493 0.888527 0.794541
O O17 0.034966 0.854511 0.958483
O O18 0.750000 0.692131 0.023371
O O19 0.469951 0.750000 0.004140
O O20 0.250000 0.611058 0.698260
O O21 0.250000 0.400128 0.600869
#
# Coordination Sequence:
#
# PCOD9450197 Si02
#       8
#     8   8   8   8   8   8   8   8
#     4   8  15  30  51  74  99 126 159 201 251 302
#     4   9  17  31  52  76 102 130 161 203 251 296
#     4  10  21  35  50  70  97 131 170 206 241 288
#     4   9  16  27  46  73 103 132 163 199 243 298
#     4   9  18  33  52  75 103 133 166 205 248 296
#     4   9  18  32  51  75  99 127 169 213 248 288
#     4  10  20  34  53  76 101 129 162 204 254 302
#     4   8  15  30  51  73  98 127 160 199 242 290
#
# _framework density 23.387492999999999
#
# number of rings (size 3 to 8) (size 9 to 14) (size 15 to 20)
#    0.000    3.000    0.000    1.500    0.000    3.250 
#    0.000    6.875    0.000    1.125    0.000    0.000 
#    0.000    0.000    0.000    0.000    0.000    0.000 
#
# Total GULP energy -357252.780946 kJ/mol
# GULP energy per Si atom -5582.074702 kJ/mol
# Density = 2.333426 g / cm^3
# Si number density = 23.387493 Si / 1000 Ang^3
#
#
#
# Elastic Constant Matrix: (Units=GPa)
#
#
# Indices 1 2 3 4 5 6 
#
# 1 87.0872 -2.9719 -0.9307 0.0000 0.0000 0.0000
# 2 -2.9719 148.5204 39.4260 0.0000 0.0000 0.0000
# 3 -0.9307 39.4260 62.1917 0.0000 0.0000 0.0000
# 4 0.0000 0.0000 0.0000 32.7959 0.0000 0.0000
# 5 0.0000 0.0000 0.0000 0.0000 5.9781 0.0000
# 6 0.0000 0.0000 0.0000 0.0000 0.0000 7.1594
#
#
#
# Elastic Compliance Matrix: (Units=1/GPa)
#
#
# Indices 1 2 3 4 5 6 
#
# 1 0.011491 0.000222 0.000032 0.000000 0.000000 0.000000
# 2 0.000222 0.008100 -0.005131 0.000000 0.000000 0.000000
# 3 0.000032 -0.005131 0.019333 0.000000 0.000000 0.000000
# 4 0.000000 0.000000 0.000000 0.030492 0.000000 0.000000
# 5 0.000000 0.000000 0.000000 0.000000 0.167277 0.000000
# 6 0.000000 0.000000 0.000000 0.000000 0.000000 0.139677
#
#
# Mechanical properties :
#
#
# Convention : Reuss Voigt Hill
#
# Bulk Modulus (GPa) = 34.28598 40.98289 37.63444
# Shear Modulus (GPa) = 12.63111 26.67175 19.65143
#
# Velocity S-wave (km/s) = 2.32648 3.38069 2.90186
# Velocity P-wave (km/s) = 4.68065 5.72714 5.23014
#
# Compressibility (1/GPa) = 0.02916644
#
# Stress axis : x y z
#
# Youngs Moduli (GPa) = 87.02739 123.46140 51.72548
#
# Poissons Ratio (x) = -0.02736 -0.00163
# Poissons Ratio (y) = -0.01928 0.26543
# Poissons Ratio (z) = -0.00274 0.63353
#
# Static dielectric constant tensor:
#      x y z
#    x 1.928980 0.000000 0.000000 
#    y 0.000000 1.897350 0.000000 
#    z 0.000000 0.000000 1.894660 
# 
# From -- ./inp_files/21540.got.cif
#   From: 2010.05.17/outbox.cif.g08.bks.cpg/sg59_11_cif.got.tgz:21540.got - 2010.06.03 14:40:33.
