data_PCOD9450227
_publ_section_title
;
Structure prediction by ZEFSAII (Michael W. Deem and Ramdas Pophale) SiO2 
 PCOD9450227
Probable space group: P M M N
;
_chemical_formula_sum "Si O2"
_cell_formula_units_Z 48
_cell_length_a 14.177117
_cell_length_b 8.674221
_cell_length_c 21.604489
_cell_angle_alpha 90.000000
_cell_angle_beta 90.000000
_cell_angle_gamma 90.000000
_cell_volume 2656.821670
_symmetry_space_group_name_H-M "P M M N"
_symmetry_group_IT_number 59
_space_group.IT_coordinate_system_code '2'
_symmetry_cell_setting 'orthorhombic'
loop_
_space_group_symop_operation_xyz
x,y,z
1/2-x,1/2-y,z
1/2+x,-y,-z
-x,1/2+y,-z
-x,-y,-z
1/2+x,1/2+y,-z
1/2-x,y,z
x,1/2-y,z
loop_
_atom_site_type_symbol
_atom_site_label
_atom_site_fract_x
_atom_site_fract_y
_atom_site_fract_z
Si Si1 0.643644 0.436183 0.529794
Si Si2 0.636688 0.071329 0.033003
Si Si3 0.547735 0.563528 0.407555
Si Si4 0.359061 0.438151 0.720737
Si Si5 0.538086 0.565637 0.153831
Si Si6 0.141238 0.066194 0.100142
O O1 0.750000 0.486741 0.545281
O O2 0.643319 0.250000 0.527322
O O3 0.612189 0.499345 0.462941
O O4 0.560078 0.482890 0.576864
O O5 0.750000 0.063406 0.039353
O O6 0.608679 0.250000 0.027250
O O7 0.591122 0.999225 0.093673
O O8 0.612717 0.984869 0.969315
O O9 0.552071 0.750000 0.409464
O O10 0.586387 0.512347 0.341142
O O11 0.250000 0.487762 0.719719
O O12 0.359036 0.250000 0.720841
O O13 0.411090 0.487887 0.783422
O O14 0.541398 0.750000 0.152014
O O15 0.430836 0.509695 0.147652
O O16 0.250000 0.017864 0.109306
O O17 0.135963 0.250000 0.104300
#
# Coordination Sequence:
#
# PCOD9450227 Si02
#       6
#     8   8   8   8   8   8
#     4   9  17  29  47  74 105 131 159 202 252 292
#     4  10  20  34  53  77 103 130 164 206 250 298
#     4   9  17  31  51  73  98 132 171 204 238 287
#     4   9  18  32  50  73 100 130 164 200 239 287
#     4  11  21  33  51  74 101 131 165 206 250 297
#     4  10  21  37  55  73  96 128 165 206 253 301
#
# _framework density 18.066700000000001
#
# number of rings (size 3 to 8) (size 9 to 14) (size 15 to 20)
#    0.000    2.333    0.000    3.000    0.000    3.667 
#    0.000    2.500    0.000    7.000    0.000    0.000 
#    0.000    0.000    0.000    0.000    0.000    0.000 
#
# Total GULP energy -267899.444091 kJ/mol
# GULP energy per Si atom -5581.238419 kJ/mol
# Density = 1.802558 g / cm^3
# Si number density = 18.066700 Si / 1000 Ang^3
#
#
#
# Elastic Constant Matrix: (Units=GPa)
#
#
# Indices 1 2 3 4 5 6 
#
# 1 134.5022 15.0385 78.0428 0.0000 0.0000 0.0000
# 2 15.0385 19.2282 6.7545 0.0000 0.0000 0.0000
# 3 78.0428 6.7545 106.8778 0.0000 0.0000 0.0000
# 4 0.0000 0.0000 0.0000 21.7743 0.0000 0.0000
# 5 0.0000 0.0000 0.0000 0.0000 21.7758 0.0000
# 6 0.0000 0.0000 0.0000 0.0000 0.0000 25.7923
#
#
#
# Elastic Compliance Matrix: (Units=1/GPa)
#
#
# Indices 1 2 3 4 5 6 
#
# 1 0.013873 -0.007457 -0.009659 0.000000 0.000000 0.000000
# 2 -0.007457 0.057196 0.001831 0.000000 0.000000 0.000000
# 3 -0.009659 0.001831 0.016294 0.000000 0.000000 0.000000
# 4 0.000000 0.000000 0.000000 0.045926 0.000000 0.000000
# 5 0.000000 0.000000 0.000000 0.000000 0.045922 0.000000
# 6 0.000000 0.000000 0.000000 0.000000 0.000000 0.038771
#
#
# Mechanical properties :
#
#
# Convention : Reuss Voigt Hill
#
# Bulk Modulus (GPa) = 17.60812 51.14221 34.37516
# Shear Modulus (GPa) = 18.69271 24.58665 21.63968
#
# Velocity S-wave (km/s) = 3.22009 3.69302 3.46463
# Velocity P-wave (km/s) = 4.85722 6.82300 5.92225
#
# Compressibility (1/GPa) = 0.05679198
#
# Stress axis : x y z
#
# Youngs Moduli (GPa) = 72.08248 17.48367 61.37325
#
# Poissons Ratio (x) = 0.13038 0.59280
# Poissons Ratio (y) = 0.53753 -0.11235
# Poissons Ratio (z) = 0.69623 -0.03200
#
# Static dielectric constant tensor:
#      x y z
#    x 1.650390 0.000000 0.000000 
#    y 0.000000 1.611880 0.000000 
#    z 0.000000 0.000000 1.583530 
# 
# From -- ./inp_files/25490.got.cif
#   From: 2010.05.17/outbox.cif.g08.bks.cpg/sg59_13_cif.got.tgz:25490.got - 2010.06.03 14:40:33.
