data_PCOD9450010
_publ_section_title
;
Structure prediction by ZEFSAII (Michael W. Deem and Ramdas Pophale) SiO2 
 PCOD9450010
Probable space group: P M M N
;
_chemical_formula_sum "Si O2"
_cell_formula_units_Z 64
_cell_length_a 8.125565
_cell_length_b 19.287887
_cell_length_c 21.764878
_cell_angle_alpha 90.000000
_cell_angle_beta 90.000000
_cell_angle_gamma 90.000000
_cell_volume 3411.100059
_symmetry_space_group_name_H-M "P M M N"
_symmetry_group_IT_number 59
_space_group.IT_coordinate_system_code '2'
_symmetry_cell_setting 'orthorhombic'
loop_
_space_group_symop_operation_xyz
x,y,z
1/2-x,1/2-y,z
1/2+x,-y,-z
-x,1/2+y,-z
-x,-y,-z
1/2+x,1/2+y,-z
1/2-x,y,z
x,1/2-y,z
loop_
_atom_site_type_symbol
_atom_site_label
_atom_site_fract_x
_atom_site_fract_y
_atom_site_fract_z
Si Si1 0.946864 0.579440 0.504400
Si Si2 0.446876 0.827581 0.252457
Si Si3 0.552123 0.673159 0.878966
Si Si4 0.949366 0.033177 0.808282
Si Si5 0.551615 0.967344 0.935963
Si Si6 0.948592 0.329554 0.379277
Si Si7 0.447092 0.607997 0.750733
Si Si8 0.448597 0.329243 0.608867
O O1 0.750000 0.582115 0.503628
O O2 0.008673 0.619847 0.443974
O O3 0.000000 0.500000 0.500000
O O4 0.003603 0.620230 0.565005
O O5 0.250000 0.824867 0.243967
O O6 0.512940 0.750000 0.239405
O O7 0.510704 0.891574 0.212443
O O8 0.481682 0.843381 0.323766
O O9 0.750000 0.675217 0.884589
O O10 0.486668 0.750000 0.891728
O O11 0.491961 0.611192 0.922972
O O12 0.513132 0.650600 0.809220
O O13 0.750000 0.033862 0.807982
O O14 0.004061 0.011560 0.876637
O O15 0.003059 0.971715 0.762512
O O16 0.750000 0.966102 0.934394
O O17 0.500000 0.000000 0.000000
O O18 0.750000 0.327433 0.376986
O O19 0.007129 0.250000 0.387841
O O20 0.006350 0.360786 0.313938
O O21 0.250000 0.612412 0.751683
O O22 0.250000 0.333693 0.612822
O O23 0.491296 0.250000 0.592405
#
# Coordination Sequence:
#
# PCOD9450010 Si02
#       8
#     8   8   8   8   8   8   8   8
#     4  11  24  39  55  76 104 138 179 222 266 317
#     4   9  18  33  55  80 103 131 171 217 263 311
#     4   9  18  34  55  78 106 140 177 217 262 313
#     4   9  19  35  53  76 107 141 177 216 260 312
#     4   9  18  33  52  75 105 139 175 213 253 302
#     4  10  22  39  56  77 108 141 173 216 269 320
#     4  10  20  33  53  81 110 138 172 217 266 313
#     4   9  19  36  55  74  99 131 168 214 265 314
#
# _framework density 18.762276
#
# number of rings (size 3 to 8) (size 9 to 14) (size 15 to 20)
#    0.000    2.500    0.000    2.250    1.750    6.000 
#    0.000    1.875    0.000    0.750    0.000    0.000 
#    0.000    0.000    0.000    0.000    0.000    0.000 
#
# Total GULP energy -357045.273393 kJ/mol
# GULP energy per Si atom -5578.832397 kJ/mol
# Density = 1.871957 g / cm^3
# Si number density = 18.762276 Si / 1000 Ang^3
#
#
#
# Elastic Constant Matrix: (Units=GPa)
#
#
# Indices 1 2 3 4 5 6 
#
# 1 9.5042 13.3209 7.0413 0.0000 0.0000 0.0000
# 2 13.3209 195.3332 118.7036 0.0000 0.0000 0.0000
# 3 7.0413 118.7036 106.7548 0.0000 0.0000 0.0000
# 4 0.0000 0.0000 0.0000 25.8836 0.0000 0.0000
# 5 0.0000 0.0000 0.0000 0.0000 27.4928 0.0000
# 6 0.0000 0.0000 0.0000 0.0000 0.0000 21.2501
#
#
#
# Elastic Compliance Matrix: (Units=1/GPa)
#
#
# Indices 1 2 3 4 5 6 
#
# 1 0.116772 -0.010123 0.003555 0.000000 0.000000 0.000000
# 2 -0.010123 0.016665 -0.017862 0.000000 0.000000 0.000000
# 3 0.003555 -0.017862 0.028994 0.000000 0.000000 0.000000
# 4 0.000000 0.000000 0.000000 0.038634 0.000000 0.000000
# 5 0.000000 0.000000 0.000000 0.000000 0.036373 0.000000
# 6 0.000000 0.000000 0.000000 0.000000 0.000000 0.047059
#
#
# Mechanical properties :
#
#
# Convention : Reuss Voigt Hill
#
# Bulk Modulus (GPa) = 8.80524 65.52485 37.16505
# Shear Modulus (GPa) = 13.46928 26.42706 19.94817
#
# Velocity S-wave (km/s) = 2.68226 3.75710 3.26422
# Velocity P-wave (km/s) = 3.78099 7.33625 5.83594
#
# Compressibility (1/GPa) = 0.11356868
#
# Stress axis : x y z
#
# Youngs Moduli (GPa) = 8.56371 60.00745 34.48968
#
# Poissons Ratio (x) = 0.60748 -0.12259
# Poissons Ratio (y) = 0.08669 0.61606
# Poissons Ratio (z) = -0.03044 1.07186
#
# Static dielectric constant tensor:
#      x y z
#    x 1.662890 0.000000 0.000000 
#    y 0.000000 1.691860 0.000000 
#    z 0.000000 0.000000 1.618240 
# 
# From -- ./inp_files/29595.got.cif
#   From: 2010.05.17/outbox.cif.g08.bks.cpg/sg59_15_cif.got.tgz:29595.got - 2010.06.03 14:40:33.
