data_PCOD9450392
_publ_section_title
;
Structure prediction by ZEFSAII (Michael W. Deem and Ramdas Pophale) SiO2 
 PCOD9450392
Probable space group: P M M N
;
_chemical_formula_sum "Si O2"
_cell_formula_units_Z 48
_cell_length_a 14.068093
_cell_length_b 8.935474
_cell_length_c 21.289595
_cell_angle_alpha 90.000000
_cell_angle_beta 90.000000
_cell_angle_gamma 90.000000
_cell_volume 2676.210226
_symmetry_space_group_name_H-M "P M M N"
_symmetry_group_IT_number 59
_space_group.IT_coordinate_system_code '2'
_symmetry_cell_setting 'orthorhombic'
loop_
_space_group_symop_operation_xyz
x,y,z
1/2-x,1/2-y,z
1/2+x,-y,-z
-x,1/2+y,-z
-x,-y,-z
1/2+x,1/2+y,-z
1/2-x,y,z
x,1/2-y,z
loop_
_atom_site_type_symbol
_atom_site_label
_atom_site_fract_x
_atom_site_fract_y
_atom_site_fract_z
Si Si1 0.037575 0.929170 0.653104
Si Si2 0.864257 0.576780 0.467114
Si Si3 0.861093 0.071589 0.600707
Si Si4 0.538294 0.928763 0.096626
Si Si5 0.139306 0.930371 0.783491
Si Si6 0.359525 0.069972 0.034281
O O1 0.036972 0.750000 0.647522
O O2 0.090889 0.970589 0.717275
O O3 0.091120 0.999720 0.593487
O O4 0.931093 0.992959 0.649473
O O5 0.750000 0.573701 0.460842
O O6 0.894794 0.750000 0.471918
O O7 0.887012 0.490480 0.531501
O O8 0.750000 0.036805 0.611470
O O9 0.872979 0.250000 0.602045
O O10 0.533791 0.750000 0.101435
O O11 0.583706 0.997365 0.158770
O O12 0.434394 0.993981 0.080959
O O13 0.604373 0.966649 0.036227
O O14 0.250000 0.975410 0.784000
O O15 0.135427 0.750000 0.789190
O O16 0.250000 0.024710 0.042893
O O17 0.365355 0.250000 0.041136
#
# Coordination Sequence:
#
# PCOD9450392 Si02
#       6
#     8   8   8   8   8   8
#     4  11  22  36  55  78 106 139 177 220 264 315
#     4  10  20  34  54  80 108 138 174 217 266 319
#     4  10  21  37  56  77 103 136 175 221 271 320
#     4  10  20  34  55  84 114 143 179 223 268 312
#     4  10  22  39  57  78 107 144 181 215 259 318
#     4   9  18  34  56  82 113 147 182 220 263 312
#
# _framework density 17.93581
#
# number of rings (size 3 to 8) (size 9 to 14) (size 15 to 20)
#    0.000    2.000    0.000    3.500    0.000    6.000 
#    0.000    0.833    0.000    1.000    0.000    0.000 
#    0.000    0.000    0.000    0.000    0.000    0.000 
#
# Total GULP energy -268144.494693 kJ/mol
# GULP energy per Si atom -5586.343639 kJ/mol
# Density = 1.789499 g / cm^3
# Si number density = 17.935810 Si / 1000 Ang^3
#
#
#
# Elastic Constant Matrix: (Units=GPa)
#
#
# Indices 1 2 3 4 5 6 
#
# 1 153.0147 52.9203 88.0425 0.0000 0.0000 0.0000
# 2 52.9203 55.9937 48.1715 0.0000 0.0000 0.0000
# 3 88.0425 48.1715 108.6213 0.0000 0.0000 0.0000
# 4 0.0000 0.0000 0.0000 30.3299 0.0000 0.0000
# 5 0.0000 0.0000 0.0000 0.0000 27.3457 0.0000
# 6 0.0000 0.0000 0.0000 0.0000 0.0000 31.6997
#
#
#
# Elastic Compliance Matrix: (Units=1/GPa)
#
#
# Indices 1 2 3 4 5 6 
#
# 1 0.013142 -0.005265 -0.008317 0.000000 0.000000 0.000000
# 2 -0.005265 0.030986 -0.009474 0.000000 0.000000 0.000000
# 3 -0.008317 -0.009474 0.020149 0.000000 0.000000 0.000000
# 4 0.000000 0.000000 0.000000 0.032971 0.000000 0.000000
# 5 0.000000 0.000000 0.000000 0.000000 0.036569 0.000000
# 6 0.000000 0.000000 0.000000 0.000000 0.000000 0.031546
#
#
# Mechanical properties :
#
#
# Convention : Reuss Voigt Hill
#
# Bulk Modulus (GPa) = 55.05272 77.32204 66.18738
# Shear Modulus (GPa) = 22.98542 26.44143 24.71343
#
# Velocity S-wave (km/s) = 3.58374 3.84373 3.71601
# Velocity P-wave (km/s) = 6.91991 7.93114 7.44272
#
# Compressibility (1/GPa) = 0.01816441
#
# Stress axis : x y z
#
# Youngs Moduli (GPa) = 76.09306 32.27284 49.63034
#
# Poissons Ratio (x) = 0.16993 0.41277
# Poissons Ratio (y) = 0.40066 0.47019
# Poissons Ratio (z) = 0.63286 0.30575
#
# Static dielectric constant tensor:
#      x y z
#    x 1.630060 0.000000 0.000000 
#    y 0.000000 1.600710 0.000000 
#    z 0.000000 0.000000 1.573990 
# 
# From -- ./inp_files/25497.got.cif
#   From: 2010.05.17/outbox.cif.g08.bks.cpg/sg59_13_cif.got.tgz:25497.got - 2010.06.03 14:40:33.
