data_PCOD9450130
_publ_section_title
;
Structure prediction by ZEFSAII (Michael W. Deem and Ramdas Pophale) SiO2 
 PCOD9450130
Probable space group: P M M N
;
_chemical_formula_sum "Si O2"
_cell_formula_units_Z 64
_cell_length_a 9.496568
_cell_length_b 26.875930
_cell_length_c 14.122289
_cell_angle_alpha 90.000000
_cell_angle_beta 90.000000
_cell_angle_gamma 90.000000
_cell_volume 3604.419066
_symmetry_space_group_name_H-M "P M M N"
_symmetry_group_IT_number 59
_space_group.IT_coordinate_system_code '2'
_symmetry_cell_setting 'orthorhombic'
loop_
_space_group_symop_operation_xyz
x,y,z
1/2-x,1/2-y,z
1/2+x,-y,-z
-x,1/2+y,-z
-x,-y,-z
1/2+x,1/2+y,-z
1/2-x,y,z
x,1/2-y,z
loop_
_atom_site_type_symbol
_atom_site_label
_atom_site_fract_x
_atom_site_fract_y
_atom_site_fract_z
Si Si1 0.085443 0.613932 0.191688
Si Si2 0.915779 0.307847 0.340727
Si Si3 0.916935 0.308908 0.970717
Si Si4 0.910776 0.810595 0.844765
Si Si5 0.912654 0.467799 0.269449
Si Si6 0.416671 0.598000 0.549304
Si Si7 0.087410 0.077452 0.637534
Si Si8 0.084266 0.504696 0.097703
O O1 0.250000 0.618937 0.218245
O O2 0.047637 0.658289 0.120507
O O3 0.071493 0.561479 0.135983
O O4 0.990775 0.611188 0.284805
O O5 0.750000 0.312251 0.315766
O O6 0.945018 0.250000 0.360954
O O7 0.940882 0.343908 0.428857
O O8 0.007024 0.324075 0.250537
O O9 0.750000 0.315172 0.989921
O O10 0.941968 0.250000 0.955317
O O11 0.005269 0.326075 0.061634
O O12 0.750000 0.828061 0.844781
O O13 0.909635 0.750000 0.846443
O O14 0.750000 0.458143 0.240636
O O15 0.951876 0.429710 0.352400
O O16 0.917307 0.521871 0.319410
O O17 0.013115 0.470442 0.178646
O O18 0.250000 0.589524 0.531692
O O19 0.506521 0.579439 0.461537
O O20 0.250000 0.091476 0.625591
O O21 0.250000 0.493743 0.085780
O O22 0.000000 0.500000 0.000000
#
# Coordination Sequence:
#
# PCOD9450130 Si02
#       8
#     8   8   8   8   8   8   8   8
#     4   9  19  35  53  72  97 131 166 200 243 291
#     4   9  18  33  51  71  97 130 166 200 236 284
#     4   9  17  31  52  75  97 126 167 208 241 282
#     4   9  17  29  46  69  98 130 160 196 244 289
#     4   9  19  35  53  75 101 128 162 203 245 289
#     4  10  20  34  54  76  98 127 163 205 248 289
#     4  10  20  34  53  75  99 127 160 202 250 296
#     4  10  20  34  52  74 103 136 165 197 240 291
#
# _framework density 17.755981999999999
#
# number of rings (size 3 to 8) (size 9 to 14) (size 15 to 20)
#    0.000    2.625    0.000    1.500    0.000    5.000 
#    0.000    5.625    0.000    3.750    0.000    0.000 
#    0.000    0.000    0.000    0.000    0.000    0.000 
#
# Total GULP energy -357015.094377 kJ/mol
# GULP energy per Si atom -5578.360850 kJ/mol
# Density = 1.771557 g / cm^3
# Si number density = 17.755982 Si / 1000 Ang^3
#
#
#
# Elastic Constant Matrix: (Units=GPa)
#
#
# Indices 1 2 3 4 5 6 
#
# 1 90.5126 22.1650 76.5622 0.0000 0.0000 0.0000
# 2 22.1650 15.8202 14.6351 0.0000 0.0000 0.0000
# 3 76.5622 14.6351 104.6027 0.0000 0.0000 0.0000
# 4 0.0000 0.0000 0.0000 12.2913 0.0000 0.0000
# 5 0.0000 0.0000 0.0000 0.0000 33.3099 0.0000
# 6 0.0000 0.0000 0.0000 0.0000 0.0000 15.0787
#
#
#
# Elastic Compliance Matrix: (Units=1/GPa)
#
#
# Indices 1 2 3 4 5 6 
#
# 1 0.040080 -0.033330 -0.024673 0.000000 0.000000 0.000000
# 2 -0.033330 0.100325 0.010359 0.000000 0.000000 0.000000
# 3 -0.024673 0.010359 0.026170 0.000000 0.000000 0.000000
# 4 0.000000 0.000000 0.000000 0.081358 0.000000 0.000000
# 5 0.000000 0.000000 0.000000 0.000000 0.030021 0.000000
# 6 0.000000 0.000000 0.000000 0.000000 0.000000 0.066319
#
#
# Mechanical properties :
#
#
# Convention : Reuss Voigt Hill
#
# Bulk Modulus (GPa) = 14.02793 48.62890 31.32842
# Shear Modulus (GPa) = 10.79161 18.64085 14.71623
#
# Velocity S-wave (km/s) = 2.46798 3.24363 2.88202
# Velocity P-wave (km/s) = 4.00485 6.44011 5.36254
#
# Compressibility (1/GPa) = 0.07128634
#
# Stress axis : x y z
#
# Youngs Moduli (GPa) = 24.94993 9.96764 38.21234
#
# Poissons Ratio (x) = 0.33222 0.94281
# Poissons Ratio (y) = 0.83158 -0.39583
# Poissons Ratio (z) = 0.61559 -0.10325
#
# Static dielectric constant tensor:
#      x y z
#    x 1.598960 0.000000 0.000000 
#    y 0.000000 1.628000 0.000000 
#    z 0.000000 0.000000 1.567850 
# 
# From -- ./inp_files/15020.got.cif
#   From: 2010.05.17/outbox.cif.g08.bks.cpg/sg59_8_cif.got.tgz:15020.got - 2010.06.03 14:40:33.
