data_PCOD9450708
_publ_section_title
;
Structure prediction by ZEFSAII (Michael W. Deem and Ramdas Pophale) SiO2 
 PCOD9450708
Probable space group: P M M N
;
_chemical_formula_sum "Si O2"
_cell_formula_units_Z 56
_cell_length_a 15.360497
_cell_length_b 7.424131
_cell_length_c 22.619466
_cell_angle_alpha 90.000000
_cell_angle_beta 90.000000
_cell_angle_gamma 90.000000
_cell_volume 2579.486399
_symmetry_space_group_name_H-M "P M M N"
_symmetry_group_IT_number 59
_space_group.IT_coordinate_system_code '2'
_symmetry_cell_setting 'orthorhombic'
loop_
_space_group_symop_operation_xyz
x,y,z
1/2-x,1/2-y,z
1/2+x,-y,-z
-x,1/2+y,-z
-x,-y,-z
1/2+x,1/2+y,-z
1/2-x,y,z
x,1/2-y,z
loop_
_atom_site_type_symbol
_atom_site_label
_atom_site_fract_x
_atom_site_fract_y
_atom_site_fract_z
Si Si1 0.110406 0.958204 0.435358
Si Si2 0.993459 0.531981 0.910368
Si Si3 0.006197 0.540701 0.777305
Si Si4 0.649843 0.462840 0.005700
Si Si5 0.153985 0.967884 0.305679
Si Si6 0.094686 0.969440 0.562529
Si Si7 0.654237 0.030171 0.309059
O O1 0.138825 0.750000 0.435308
O O2 0.141158 0.035646 0.373011
O O3 0.134444 0.032610 0.500039
O O4 0.005435 0.968698 0.434259
O O5 0.995787 0.750000 0.911125
O O6 0.994965 0.465992 0.842968
O O7 0.904736 0.483622 0.944925
O O8 0.079753 0.466882 0.945780
O O9 0.029597 0.750000 0.786040
O O10 0.919172 0.532275 0.738755
O O11 0.081172 0.462253 0.735502
O O12 0.750000 0.533288 0.005337
O O13 0.657414 0.250000 0.016931
O O14 0.250000 0.017252 0.285210
O O15 0.147353 0.750000 0.307709
O O16 0.094213 0.750000 0.560688
O O17 0.139056 0.026748 0.623229
O O18 0.750000 0.979171 0.289092
O O19 0.649352 0.250000 0.310600
#
# Coordination Sequence:
#
# PCOD9450708 Si02
#       7
#     8   8   8   8   8   8   8
#     4   9  17  29  47  69  93 124 162 207 256 301
#     4   9  19  34  53  78 106 136 167 202 245 289
#     4  10  20  35  53  74 103 135 168 206 246 292
#     4   9  18  34  56  81 107 134 165 201 242 290
#     4  10  21  35  50  70  98 134 173 211 254 301
#     4   9  16  28  48  71  94 122 160 206 255 303
#     4   9  17  29  48  74  99 125 161 205 251 297
#
# _framework density 21.709748000000001
#
# number of rings (size 3 to 8) (size 9 to 14) (size 15 to 20)
#    0.000    2.714    1.429    0.000    0.000    2.857 
#    0.000    8.571    0.000    1.714    0.000    6.000 
#    0.000    0.000    0.000    0.000    0.000    0.000 
#
# Total GULP energy -312406.947289 kJ/mol
# GULP energy per Si atom -5578.695487 kJ/mol
# Density = 2.166034 g / cm^3
# Si number density = 21.709748 Si / 1000 Ang^3
#
#
#
# Elastic Constant Matrix: (Units=GPa)
#
#
# Indices 1 2 3 4 5 6 
#
# 1 157.3694 -6.4945 82.2469 0.0000 0.0000 0.0000
# 2 -6.4945 70.3329 -3.0491 0.0000 0.0000 0.0000
# 3 82.2469 -3.0491 178.3141 0.0000 0.0000 0.0000
# 4 0.0000 0.0000 0.0000 23.7266 0.0000 0.0000
# 5 0.0000 0.0000 0.0000 0.0000 -76.7909 0.0000
# 6 0.0000 0.0000 0.0000 0.0000 0.0000 56.8115
#
#
#
# Elastic Compliance Matrix: (Units=1/GPa)
#
#
# Indices 1 2 3 4 5 6 
#
# 1 0.008399 0.000608 -0.003864 0.000000 0.000000 0.000000
# 2 0.000608 0.014273 -0.000036 0.000000 0.000000 0.000000
# 3 -0.003864 -0.000036 0.007389 0.000000 0.000000 0.000000
# 4 0.000000 0.000000 0.000000 0.042147 0.000000 0.000000
# 5 0.000000 0.000000 0.000000 0.000000 -0.013022 0.000000
# 6 0.000000 0.000000 0.000000 0.000000 0.000000 0.017602
#
#
# Mechanical properties :
#
#
# Convention : Reuss Voigt Hill
#
# Bulk Modulus (GPa) = 42.59455 61.26924 51.93189
# Shear Modulus (GPa) = 54.82643 22.97032 38.89837
#
# Velocity S-wave (km/s) = 5.03082 3.25632 4.23750
# Velocity P-wave (km/s) = 7.30808 6.51317 6.92205
#
# Compressibility (1/GPa) = 0.02347718
#
# Stress axis : x y z
#
# Youngs Moduli (GPa) = 119.06491 70.06403 135.32727
#
# Poissons Ratio (x) = -0.04260 0.52284
# Poissons Ratio (y) = -0.07240 0.00493
# Poissons Ratio (z) = 0.46001 0.00255
#
# Static dielectric constant tensor:
#      x y z
#    x 1.759470 0.000000 0.000000 
#    y 0.000000 2.334020 0.000000 
#    z 0.000000 0.000000 1.785310 
# 
# From -- ./inp_files/30414.got.cif
#   From: 2010.05.17/outbox.cif.g08.bks.cpg/sg59_16_cif.got.tgz:30414.got - 2010.06.03 14:40:33.
