data_PCOD9450839
_publ_section_title
;
Structure prediction by ZEFSAII (Michael W. Deem and Ramdas Pophale) SiO2 
 PCOD9450839
Probable space group: P M M N
;
_chemical_formula_sum "Si O2"
_cell_formula_units_Z 40
_cell_length_a 21.039607
_cell_length_b 8.287992
_cell_length_c 11.896142
_cell_angle_alpha 90.000000
_cell_angle_beta 90.000000
_cell_angle_gamma 90.000000
_cell_volume 2074.402782
_symmetry_space_group_name_H-M "P M M N"
_symmetry_group_IT_number 59
_space_group.IT_coordinate_system_code '2'
_symmetry_cell_setting 'orthorhombic'
loop_
_space_group_symop_operation_xyz
x,y,z
1/2-x,1/2-y,z
1/2+x,-y,-z
-x,1/2+y,-z
-x,-y,-z
1/2+x,1/2+y,-z
1/2-x,y,z
x,1/2-y,z
loop_
_atom_site_type_symbol
_atom_site_label
_atom_site_fract_x
_atom_site_fract_y
_atom_site_fract_z
Si Si1 0.375766 0.943449 0.761877
Si Si2 0.926220 0.943354 0.000888
Si Si3 0.376078 0.052986 0.239333
Si Si4 0.250000 0.057118 0.633480
Si Si5 0.250000 0.052530 0.372121
Si Si6 0.000762 0.555496 0.627031
O O1 0.375410 0.750000 0.761678
O O2 0.436206 0.002460 0.689820
O O3 0.389195 0.000105 0.888442
O O4 0.311957 0.002030 0.701933
O O5 0.927958 0.750000 0.999257
O O6 0.889118 0.998827 0.888619
O O7 0.000000 0.000000 0.000000
O O8 0.374587 0.250000 0.238696
O O9 0.312384 0.000271 0.302988
O O10 0.437541 0.000427 0.309622
O O11 0.250000 0.250000 0.628934
O O12 0.250000 0.999004 0.502893
O O13 0.250000 0.250000 0.374156
O O14 0.001042 0.750000 0.630928
O O15 0.000000 0.500000 0.500000
#
# Coordination Sequence:
#
# PCOD9450839 Si02
#       6
#     8   8   8   4   4   8
#     4  11  23  40  60  85 122 162 199 250 310 360
#     4  11  21  37  61  88 122 158 204 255 304 362
#     4   9  18  34  55  83 117 155 194 243 299 350
#     4  11  23  40  63  90 118 155 202 247 298 371
#     4   9  18  34  59  86 118 151 192 247 298 353
#     4  10  20  35  55  82 116 154 200 250 301 354
#
# _framework density 19.282658999999999
#
# number of rings (size 3 to 8) (size 9 to 14) (size 15 to 20)
#    0.000    1.800    2.000    2.700    0.000    4.000 
#    0.000    2.000    0.000    3.600    0.000    0.000 
#    0.000    0.000    0.000    0.000    0.000    0.000 
#
# Total GULP energy -223389.776046 kJ/mol
# GULP energy per Si atom -5584.744401 kJ/mol
# Density = 1.923877 g / cm^3
# Si number density = 19.282659 Si / 1000 Ang^3
#
#
#
# Elastic Constant Matrix: (Units=GPa)
#
#
# Indices 1 2 3 4 5 6 
#
# 1 214.9360 25.8448 136.0119 0.0000 0.0000 0.0000
# 2 25.8448 27.4045 25.1932 0.0000 0.0000 0.0000
# 3 136.0119 25.1932 241.9149 0.0000 0.0000 0.0000
# 4 0.0000 0.0000 0.0000 25.9226 0.0000 0.0000
# 5 0.0000 0.0000 0.0000 0.0000 50.5814 0.0000
# 6 0.0000 0.0000 0.0000 0.0000 0.0000 12.5868
#
#
#
# Elastic Compliance Matrix: (Units=1/GPa)
#
#
# Indices 1 2 3 4 5 6 
#
# 1 0.007521 -0.003545 -0.003859 0.000000 0.000000 0.000000
# 2 -0.003545 0.042025 -0.002383 0.000000 0.000000 0.000000
# 3 -0.003859 -0.002383 0.006552 0.000000 0.000000 0.000000
# 4 0.000000 0.000000 0.000000 0.038576 0.000000 0.000000
# 5 0.000000 0.000000 0.000000 0.000000 0.019770 0.000000
# 6 0.000000 0.000000 0.000000 0.000000 0.000000 0.079448
#
#
# Mechanical properties :
#
#
# Convention : Reuss Voigt Hill
#
# Bulk Modulus (GPa) = 27.38083 95.37283 61.37683
# Shear Modulus (GPa) = 22.15901 37.63185 29.89543
#
# Velocity S-wave (km/s) = 3.39362 4.42247 3.94176
# Velocity P-wave (km/s) = 5.43931 8.69744 7.25367
#
# Compressibility (1/GPa) = 0.03652190
#
# Stress axis : x y z
#
# Youngs Moduli (GPa) = 132.96036 23.79556 152.63106
#
# Poissons Ratio (x) = 0.08436 0.58906
# Poissons Ratio (y) = 0.47135 0.36377
# Poissons Ratio (z) = 0.51314 0.05671
#
# Static dielectric constant tensor:
#      x y z
#    x 1.636440 0.000000 0.000000 
#    y 0.000000 1.674900 0.000000 
#    z 0.000000 0.000000 1.666520 
# 
# From -- ./inp_files/18170.got.cif
#   From: 2010.05.17/outbox.cif.g08.bks.cpg/sg59_10_cif.got.tgz:18170.got - 2010.06.03 14:40:33.
