data_PCOD9450247
_publ_section_title
;
Structure prediction by ZEFSAII (Michael W. Deem and Ramdas Pophale) SiO2 
 PCOD9450247
Probable space group: P M M N
;
_chemical_formula_sum "Si O2"
_cell_formula_units_Z 48
_cell_length_a 7.781289
_cell_length_b 9.267913
_cell_length_c 31.825021
_cell_angle_alpha 90.000000
_cell_angle_beta 90.000000
_cell_angle_gamma 90.000000
_cell_volume 2295.103064
_symmetry_space_group_name_H-M "P M M N"
_symmetry_group_IT_number 59
_space_group.IT_coordinate_system_code '2'
_symmetry_cell_setting 'orthorhombic'
loop_
_space_group_symop_operation_xyz
x,y,z
1/2-x,1/2-y,z
1/2+x,-y,-z
-x,1/2+y,-z
-x,-y,-z
1/2+x,1/2+y,-z
1/2-x,y,z
x,1/2-y,z
loop_
_atom_site_type_symbol
_atom_site_label
_atom_site_fract_x
_atom_site_fract_y
_atom_site_fract_z
Si Si1 0.043025 0.085698 0.792799
Si Si2 0.955679 0.086451 0.125906
Si Si3 0.039505 0.916530 0.374760
Si Si4 0.545234 0.086161 0.957891
Si Si5 0.542900 0.914673 0.708335
Si Si6 0.456909 0.085477 0.457763
O O1 0.250000 0.092759 0.796194
O O2 0.977904 0.250000 0.791158
O O3 0.977060 0.000799 0.833757
O O4 0.001914 0.999502 0.750565
O O5 0.750000 0.096491 0.130974
O O6 0.023817 0.250000 0.123825
O O7 0.987006 0.000169 0.083156
O O8 0.250000 0.916698 0.374781
O O9 0.984786 0.750000 0.374784
O O10 0.982377 0.999650 0.332885
O O11 0.982025 0.999844 0.416581
O O12 0.750000 0.095100 0.956005
O O13 0.475508 0.250000 0.958626
O O14 0.500000 0.000000 0.000000
O O15 0.750000 0.908875 0.705676
O O16 0.478787 0.750000 0.709358
O O17 0.250000 0.091910 0.454781
O O18 0.521674 0.250000 0.459024
O O19 0.500000 0.000000 0.500000
#
# Coordination Sequence:
#
# PCOD9450247 Si02
#       6
#     8   8   8   8   8   8
#     4  10  21  37  57  81 110 145 182 221 269 321
#     4  10  21  38  60  84 110 143 183 224 268 320
#     4   9  17  31  52  76 103 137 175 216 264 317
#     4  11  24  40  59  85 115 147 184 225 270 320
#     4  10  20  34  54  80 108 139 177 220 265 315
#     4  10  20  34  53  77 105 137 174 217 265 318
#
# _framework density 20.914092
#
# number of rings (size 3 to 8) (size 9 to 14) (size 15 to 20)
#    0.000    2.000    0.000    3.500    0.000   10.000 
#    0.000    0.833    0.000    5.000    0.000    0.000 
#    0.000    0.000    0.000    0.000    0.000    0.000 
#
# Total GULP energy -268309.010234 kJ/mol
# GULP energy per Si atom -5589.771047 kJ/mol
# Density = 2.086649 g / cm^3
# Si number density = 20.914092 Si / 1000 Ang^3
#
#
#
# Elastic Constant Matrix: (Units=GPa)
#
#
# Indices 1 2 3 4 5 6 
#
# 1 27.8795 9.4357 -2.2575 0.0000 0.0000 0.0000
# 2 9.4357 269.9932 158.5436 0.0000 0.0000 0.0000
# 3 -2.2575 158.5436 246.2302 0.0000 0.0000 0.0000
# 4 0.0000 0.0000 0.0000 46.2779 0.0000 0.0000
# 5 0.0000 0.0000 0.0000 0.0000 31.0694 0.0000
# 6 0.0000 0.0000 0.0000 0.0000 0.0000 20.0541
#
#
#
# Elastic Compliance Matrix: (Units=1/GPa)
#
#
# Indices 1 2 3 4 5 6 
#
# 1 0.036829 -0.002388 0.001876 0.000000 0.000000 0.000000
# 2 -0.002388 0.006110 -0.003956 0.000000 0.000000 0.000000
# 3 0.001876 -0.003956 0.006626 0.000000 0.000000 0.000000
# 4 0.000000 0.000000 0.000000 0.021609 0.000000 0.000000
# 5 0.000000 0.000000 0.000000 0.000000 0.032186 0.000000
# 6 0.000000 0.000000 0.000000 0.000000 0.000000 0.049865
#
#
# Mechanical properties :
#
#
# Convention : Reuss Voigt Hill
#
# Bulk Modulus (GPa) = 24.61433 97.28294 60.94864
# Shear Modulus (GPa) = 28.45667 44.70568 36.58117
#
# Velocity S-wave (km/s) = 3.69269 4.62842 4.18678
# Velocity P-wave (km/s) = 5.47505 8.67061 7.25106
#
# Compressibility (1/GPa) = 0.04062674
#
# Stress axis : x y z
#
# Youngs Moduli (GPa) = 27.15260 163.65337 150.92398
#
# Poissons Ratio (x) = 0.39087 -0.28306
# Poissons Ratio (y) = 0.06485 0.59711
# Poissons Ratio (z) = -0.05092 0.64747
#
# Static dielectric constant tensor:
#      x y z
#    x 1.783360 0.000000 0.000000 
#    y 0.000000 1.739070 0.000000 
#    z 0.000000 0.000000 1.721470 
# 
# From -- ./inp_files/32818.got.cif
#   From: 2010.05.17/outbox.cif.g08.bks.cpg/sg59_17_cif.got.tgz:32818.got - 2010.06.03 14:40:33.
