data_PCOD9450543
_publ_section_title
;
Structure prediction by ZEFSAII (Michael W. Deem and Ramdas Pophale) SiO2 
 PCOD9450543
Probable space group: P M M N
;
_chemical_formula_sum "Si O2"
_cell_formula_units_Z 48
_cell_length_a 7.844367
_cell_length_b 9.447905
_cell_length_c 31.726992
_cell_angle_alpha 90.000000
_cell_angle_beta 90.000000
_cell_angle_gamma 90.000000
_cell_volume 2351.377298
_symmetry_space_group_name_H-M "P M M N"
_symmetry_group_IT_number 59
_space_group.IT_coordinate_system_code '2'
_symmetry_cell_setting 'orthorhombic'
loop_
_space_group_symop_operation_xyz
x,y,z
1/2-x,1/2-y,z
1/2+x,-y,-z
-x,1/2+y,-z
-x,-y,-z
1/2+x,1/2+y,-z
1/2-x,y,z
x,1/2-y,z
loop_
_atom_site_type_symbol
_atom_site_label
_atom_site_fract_x
_atom_site_fract_y
_atom_site_fract_z
Si Si1 0.041831 0.086851 0.202862
Si Si2 0.045236 0.589995 0.123302
Si Si3 0.545908 0.589973 0.378896
Si Si4 0.544336 0.411333 0.458593
Si Si5 0.453139 0.910743 0.958740
Si Si6 0.044269 0.088107 0.297821
O O1 0.250000 0.084232 0.202587
O O2 0.992029 0.250000 0.194782
O O3 0.987941 0.048723 0.250410
O O4 0.980576 0.984886 0.165872
O O5 0.250000 0.598402 0.127114
O O6 0.979741 0.750000 0.118022
O O7 0.009220 0.493629 0.082935
O O8 0.750000 0.597925 0.384057
O O9 0.477921 0.750000 0.380678
O O10 0.479822 0.492809 0.417064
O O11 0.512087 0.516362 0.334319
O O12 0.500000 0.500000 0.500000
O O13 0.750000 0.404909 0.455890
O O14 0.480504 0.250000 0.460896
O O15 0.250000 0.901507 0.957603
O O16 0.522483 0.750000 0.960223
O O17 0.500000 0.000000 0.000000
O O18 0.250000 0.089582 0.297470
O O19 0.987060 0.250000 0.306280
#
# Coordination Sequence:
#
# PCOD9450543 Si02
#       6
#     8   8   8   8   8   8
#     4   8  15  30  52  77 106 140 177 217 261 308
#     4  10  20  34  55  83 111 140 176 216 261 313
#     4  10  21  36  53  75 105 140 176 214 259 311
#     4  10  21  37  57  79 103 134 172 213 260 313
#     4  11  24  40  58  81 108 139 177 218 261 312
#     4   9  18  33  54  80 107 137 177 221 262 308
#
# _framework density 20.413567
#
# number of rings (size 3 to 8) (size 9 to 14) (size 15 to 20)
#    0.000    2.333    0.000    3.500    0.000    8.000 
#    0.000    2.500    0.000    1.000    0.000    0.000 
#    0.000    0.000    0.000    0.000    0.000    0.000 
#
# Total GULP energy -268066.247764 kJ/mol
# GULP energy per Si atom -5584.713495 kJ/mol
# Density = 2.036710 g / cm^3
# Si number density = 20.413567 Si / 1000 Ang^3
#
#
#
# Elastic Constant Matrix: (Units=GPa)
#
#
# Indices 1 2 3 4 5 6 
#
# 1 23.1211 10.9491 2.4798 0.0000 0.0000 0.0000
# 2 10.9491 214.0826 141.9636 0.0000 0.0000 0.0000
# 3 2.4798 141.9636 188.1881 0.0000 0.0000 0.0000
# 4 0.0000 0.0000 0.0000 42.1103 0.0000 0.0000
# 5 0.0000 0.0000 0.0000 0.0000 26.7914 0.0000
# 6 0.0000 0.0000 0.0000 0.0000 0.0000 20.7393
#
#
#
# Elastic Compliance Matrix: (Units=1/GPa)
#
#
# Indices 1 2 3 4 5 6 
#
# 1 0.044807 -0.003802 0.002278 0.000000 0.000000 0.000000
# 2 -0.003802 0.009669 -0.007244 0.000000 0.000000 0.000000
# 3 0.002278 -0.007244 0.010749 0.000000 0.000000 0.000000
# 4 0.000000 0.000000 0.000000 0.023747 0.000000 0.000000
# 5 0.000000 0.000000 0.000000 0.000000 0.037325 0.000000
# 6 0.000000 0.000000 0.000000 0.000000 0.000000 0.048218
#
#
# Mechanical properties :
#
#
# Convention : Reuss Voigt Hill
#
# Bulk Modulus (GPa) = 20.96981 81.79744 51.38362
# Shear Modulus (GPa) = 24.04452 35.92816 29.98634
#
# Velocity S-wave (km/s) = 3.43573 4.19980 3.83684
# Velocity P-wave (km/s) = 5.10233 7.97966 6.69734
#
# Compressibility (1/GPa) = 0.04768761
#
# Stress axis : x y z
#
# Youngs Moduli (GPa) = 22.31813 103.41962 93.03526
#
# Poissons Ratio (x) = 0.39320 -0.21191
# Poissons Ratio (y) = 0.08485 0.67396
# Poissons Ratio (z) = -0.05083 0.74919
#
# Static dielectric constant tensor:
#      x y z
#    x 1.758290 0.000000 0.000000 
#    y 0.000000 1.720900 0.000000 
#    z 0.000000 0.000000 1.699750 
# 
# From -- ./inp_files/32837.got.cif
#   From: 2010.05.17/outbox.cif.g08.bks.cpg/sg59_17_cif.got.tgz:32837.got - 2010.06.03 14:40:33.
