data_PCOD9450366
_publ_section_title
;
Structure prediction by ZEFSAII (Michael W. Deem and Ramdas Pophale) SiO2 
 PCOD9450366
Probable space group: P M M N
;
_chemical_formula_sum "Si O2"
_cell_formula_units_Z 64
_cell_length_a 19.354307
_cell_length_b 8.946877
_cell_length_c 22.115236
_cell_angle_alpha 90.000000
_cell_angle_beta 90.000000
_cell_angle_gamma 90.000000
_cell_volume 3829.487627
_symmetry_space_group_name_H-M "P M M N"
_symmetry_group_IT_number 59
_space_group.IT_coordinate_system_code '2'
_symmetry_cell_setting 'orthorhombic'
loop_
_space_group_symop_operation_xyz
x,y,z
1/2-x,1/2-y,z
1/2+x,-y,-z
-x,1/2+y,-z
-x,-y,-z
1/2+x,1/2+y,-z
1/2-x,y,z
x,1/2-y,z
loop_
_atom_site_type_symbol
_atom_site_label
_atom_site_fract_x
_atom_site_fract_y
_atom_site_fract_z
Si Si1 0.531014 0.072381 0.323631
Si Si2 0.965115 0.572381 0.196410
Si Si3 0.037900 0.419465 0.088178
Si Si4 0.827722 0.075186 0.384264
Si Si5 0.108162 0.579779 0.984152
Si Si6 0.330463 0.074666 0.486675
Si Si7 0.962407 0.072012 0.558468
Si Si8 0.171682 0.930833 0.860258
O O1 0.517871 0.250000 0.322458
O O2 0.612793 0.049237 0.336057
O O3 0.513557 0.997024 0.260375
O O4 0.493323 0.998224 0.380711
O O5 0.960708 0.750000 0.199469
O O6 0.890177 0.505763 0.177047
O O7 0.019350 0.522031 0.144988
O O8 0.051979 0.250000 0.107476
O O9 0.966478 0.416799 0.049507
O O10 0.096500 0.480977 0.043324
O O11 0.750000 0.050922 0.361254
O O12 0.833068 0.250000 0.403374
O O13 0.838566 0.974417 0.443326
O O14 0.125597 0.750000 0.001173
O O15 0.159505 0.528595 0.931044
O O16 0.250000 0.051922 0.471303
O O17 0.347113 0.250000 0.480271
O O18 0.382716 0.975434 0.448406
O O19 0.971175 0.250000 0.557409
O O20 0.000000 0.000000 0.500000
O O21 0.250000 0.968339 0.841728
O O22 0.163389 0.750000 0.856287
#
# Coordination Sequence:
#
# PCOD9450366 Si02
#       8
#     8   8   8   8   8   8   8   8
#     4  11  22  36  53  74 102 138 178 221 266 320
#     4  11  22  34  48  69  99 134 172 214 255 303
#     4   9  16  28  46  67  92 123 159 200 246 294
#     4   9  18  32  50  71  96 130 170 210 254 308
#     4   8  14  25  44  70  95 121 157 202 246 285
#     4  10  20  34  54  79 105 132 165 208 258 313
#     4  12  23  36  55  79 107 138 172 217 271 323
#     4   9  18  33  51  71 100 139 178 211 246 294
#
# _framework density 16.712419000000001
#
# number of rings (size 3 to 8) (size 9 to 14) (size 15 to 20)
#    0.000    2.125    1.250    4.125    0.000    5.000 
#    0.000    1.250    0.000    0.000    0.000    0.875 
#    0.000    5.000    0.000    0.000    0.000    0.000 
#
# Total GULP energy -356958.228397 kJ/mol
# GULP energy per Si atom -5577.472319 kJ/mol
# Density = 1.667438 g / cm^3
# Si number density = 16.712419 Si / 1000 Ang^3
#
#
#
# Elastic Constant Matrix: (Units=GPa)
#
#
# Indices 1 2 3 4 5 6 
#
# 1 25.8333 24.4694 22.9909 0.0000 0.0000 0.0000
# 2 24.4694 99.2033 54.0320 0.0000 0.0000 0.0000
# 3 22.9909 54.0320 96.9939 0.0000 0.0000 0.0000
# 4 0.0000 0.0000 0.0000 29.0293 0.0000 0.0000
# 5 0.0000 0.0000 0.0000 0.0000 15.5244 0.0000
# 6 0.0000 0.0000 0.0000 0.0000 0.0000 20.2303
#
#
#
# Elastic Compliance Matrix: (Units=1/GPa)
#
#
# Indices 1 2 3 4 5 6 
#
# 1 0.054302 -0.009164 -0.007766 0.000000 0.000000 0.000000
# 2 -0.009164 0.016017 -0.006751 0.000000 0.000000 0.000000
# 3 -0.007766 -0.006751 0.015911 0.000000 0.000000 0.000000
# 4 0.000000 0.000000 0.000000 0.034448 0.000000 0.000000
# 5 0.000000 0.000000 0.000000 0.000000 0.064415 0.000000
# 6 0.000000 0.000000 0.000000 0.000000 0.000000 0.049431
#
#
# Mechanical properties :
#
#
# Convention : Reuss Voigt Hill
#
# Bulk Modulus (GPa) = 25.72768 47.22388 36.47578
# Shear Modulus (GPa) = 16.95821 20.99269 18.97545
#
# Velocity S-wave (km/s) = 3.18890 3.54801 3.37324
# Velocity P-wave (km/s) = 5.38392 6.71585 6.08643
#
# Compressibility (1/GPa) = 0.03886864
#
# Stress axis : x y z
#
# Youngs Moduli (GPa) = 18.41556 62.43180 62.84805
#
# Poissons Ratio (x) = 0.57212 0.48811
# Poissons Ratio (y) = 0.16876 0.42426
# Poissons Ratio (z) = 0.14302 0.42145
#
# Static dielectric constant tensor:
#      x y z
#    x 1.575020 0.000000 0.000000 
#    y 0.000000 1.565710 0.000000 
#    z 0.000000 0.000000 1.554800 
# 
# From -- ./inp_files/30970.got.cif
#   From: 2010.05.17/outbox.cif.g08.bks.cpg/sg59_16_cif.got.tgz:30970.got - 2010.06.03 14:40:33.
