data_PCOD9450116
_publ_section_title
;
Structure prediction by ZEFSAII (Michael W. Deem and Ramdas Pophale) SiO2 
 PCOD9450116
Probable space group: P M M N
;
_chemical_formula_sum "Si O2"
_cell_formula_units_Z 40
_cell_length_a 9.487630
_cell_length_b 14.770170
_cell_length_c 13.225212
_cell_angle_alpha 90.000000
_cell_angle_beta 90.000000
_cell_angle_gamma 90.000000
_cell_volume 1853.300642
_symmetry_space_group_name_H-M "P M M N"
_symmetry_group_IT_number 59
_space_group.IT_coordinate_system_code '2'
_symmetry_cell_setting 'orthorhombic'
loop_
_space_group_symop_operation_xyz
x,y,z
1/2-x,1/2-y,z
1/2+x,-y,-z
-x,1/2+y,-z
-x,-y,-z
1/2+x,1/2+y,-z
1/2-x,y,z
x,1/2-y,z
loop_
_atom_site_type_symbol
_atom_site_label
_atom_site_fract_x
_atom_site_fract_y
_atom_site_fract_z
Si Si1 0.088827 0.359186 0.331477
Si Si2 0.408567 0.357224 0.715889
Si Si3 0.410392 0.395768 0.103564
Si Si4 0.588462 0.361115 0.525176
Si Si5 0.409919 0.611837 0.084457
O O1 0.250000 0.392745 0.343328
O O2 0.093851 0.250000 0.336479
O O3 0.039724 0.383204 0.218595
O O4 0.989808 0.389374 0.422623
O O5 0.250000 0.395694 0.721738
O O6 0.394606 0.250000 0.697101
O O7 0.500870 0.392942 0.622702
O O8 0.493248 0.366265 0.819818
O O9 0.250000 0.359178 0.096318
O O10 0.401508 0.502825 0.083299
O O11 0.513786 0.357716 0.018402
O O12 0.750000 0.391200 0.529014
O O13 0.590160 0.250000 0.526537
O O14 0.250000 0.645650 0.094904
#
# Coordination Sequence:
#
# PCOD9450116 Si02
#       5
#     8   8   8   8   8
#     4   9  17  31  52  75  99 129 165 202 240 288
#     4  10  20  34  53  75  99 129 166 206 248 298
#     4   9  19  35  52  72 101 136 170 203 245 297
#     4   9  17  30  49  74 103 130 158 198 248 296
#     4  10  20  34  52  73 100 133 168 208 251 294
#
# _framework density 21.583116
#
# number of rings (size 3 to 8) (size 9 to 14) (size 15 to 20)
#    0.000    2.600    0.000    1.800    0.000    6.000 
#    0.000    3.000    0.000    0.000    0.000    0.000 
#    0.000    0.000    0.000    0.000    0.000    0.000 
#
# Total GULP energy -223427.183675 kJ/mol
# GULP energy per Si atom -5585.679592 kJ/mol
# Density = 2.153399 g / cm^3
# Si number density = 21.583116 Si / 1000 Ang^3
#
#
#
# Elastic Constant Matrix: (Units=GPa)
#
#
# Indices 1 2 3 4 5 6 
#
# 1 200.2975 1.1155 146.6431 0.0000 0.0000 0.0000
# 2 1.1155 44.4360 -10.2811 0.0000 0.0000 0.0000
# 3 146.6431 -10.2811 212.7683 0.0000 0.0000 0.0000
# 4 0.0000 0.0000 0.0000 26.5221 0.0000 0.0000
# 5 0.0000 0.0000 0.0000 0.0000 67.0363 0.0000
# 6 0.0000 0.0000 0.0000 0.0000 0.0000 13.9073
#
#
#
# Elastic Compliance Matrix: (Units=1/GPa)
#
#
# Indices 1 2 3 4 5 6 
#
# 1 0.010236 -0.001911 -0.007147 0.000000 0.000000 0.000000
# 2 -0.001911 0.023115 0.002434 0.000000 0.000000 0.000000
# 3 -0.007147 0.002434 0.009743 0.000000 0.000000 0.000000
# 4 0.000000 0.000000 0.000000 0.037704 0.000000 0.000000
# 5 0.000000 0.000000 0.000000 0.000000 0.014917 0.000000
# 6 0.000000 0.000000 0.000000 0.000000 0.000000 0.071905
#
#
# Mechanical properties :
#
#
# Convention : Reuss Voigt Hill
#
# Bulk Modulus (GPa) = 33.50434 81.38408 57.44421
# Shear Modulus (GPa) = 26.20311 42.82808 34.51560
#
# Velocity S-wave (km/s) = 3.48811 4.45942 4.00333
# Velocity P-wave (km/s) = 5.63735 8.01900 6.93123
#
# Compressibility (1/GPa) = 0.02984688
#
# Stress axis : x y z
#
# Youngs Moduli (GPa) = 97.69803 43.26133 102.63493
#
# Poissons Ratio (x) = 0.08265 0.73352
# Poissons Ratio (y) = 0.18665 -0.24978
# Poissons Ratio (z) = 0.69823 -0.10528
#
# Static dielectric constant tensor:
#      x y z
#    x 1.769030 0.000000 0.000000 
#    y 0.000000 1.833040 0.000000 
#    z 0.000000 0.000000 1.738780 
# 
# From -- ./inp_files/5671.got.cif
#   From: 2010.05.17/outbox.cif.g08.bks.cpg/sg59_3_cif.got.tgz:5671.got - 2010.06.03 14:40:33.
