data_PCOD9450645
_publ_section_title
;
Structure prediction by ZEFSAII (Michael W. Deem and Ramdas Pophale) SiO2 
 PCOD9450645
Probable space group: P M M N
;
_chemical_formula_sum "Si O2"
_cell_formula_units_Z 56
_cell_length_a 9.019816
_cell_length_b 13.934680
_cell_length_c 24.025430
_cell_angle_alpha 90.000000
_cell_angle_beta 90.000000
_cell_angle_gamma 90.000000
_cell_volume 3019.714243
_symmetry_space_group_name_H-M "P M M N"
_symmetry_group_IT_number 59
_space_group.IT_coordinate_system_code '2'
_symmetry_cell_setting 'orthorhombic'
loop_
_space_group_symop_operation_xyz
x,y,z
1/2-x,1/2-y,z
1/2+x,-y,-z
-x,1/2+y,-z
-x,-y,-z
1/2+x,1/2+y,-z
1/2-x,y,z
x,1/2-y,z
loop_
_atom_site_type_symbol
_atom_site_label
_atom_site_fract_x
_atom_site_fract_y
_atom_site_fract_z
Si Si1 0.073037 0.446078 0.415793
Si Si2 0.080750 0.866831 0.028241
Si Si3 0.075450 0.363988 0.855696
Si Si4 0.927032 0.140924 0.524912
Si Si5 0.072569 0.468281 0.199963
Si Si6 0.427471 0.636522 0.695244
Si Si7 0.574019 0.863593 0.915131
O O1 0.250000 0.435093 0.410564
O O2 0.040008 0.557685 0.430384
O O3 0.013818 0.386403 0.468797
O O4 0.993323 0.409516 0.360665
O O5 0.250000 0.899855 0.034149
O O6 0.081891 0.750000 0.025930
O O7 0.988855 0.890287 0.083448
O O8 0.009890 0.898977 0.970124
O O9 0.250000 0.384902 0.853727
O O10 0.054402 0.250000 0.848440
O O11 0.989066 0.425151 0.809867
O O12 0.750000 0.135284 0.513405
O O13 0.960904 0.250000 0.542156
O O14 0.250000 0.467891 0.205739
O O15 0.033010 0.413395 0.142573
O O16 0.998546 0.415690 0.251759
O O17 0.250000 0.626150 0.696061
O O18 0.462688 0.750000 0.696546
O O19 0.750000 0.875519 0.923807
O O20 0.544959 0.750000 0.909402
#
# Coordination Sequence:
#
# PCOD9450645 Si02
#       7
#     8   8   8   8   8   8   8
#     4  10  20  34  56  86 117 152 195 237 277 325
#     4   9  17  30  51  78 105 135 174 219 268 326
#     4  10  21  38  58  78 104 139 178 223 276 334
#     4   9  18  34  56  84 120 157 190 229 279 330
#     4  11  23  38  58  82 107 139 182 231 279 328
#     4  11  24  41  60  82 112 150 188 227 274 330
#     4   9  18  33  52  76 107 139 171 214 272 333
#
# _framework density 18.544801
#
# number of rings (size 3 to 8) (size 9 to 14) (size 15 to 20)
#    0.000    2.143    0.000    3.000    0.000    8.571 
#    0.000    2.143    0.000    2.571    0.000    0.000 
#    0.000    0.000    0.000    0.000    0.000    0.000 
#
# Total GULP energy -312866.831353 kJ/mol
# GULP energy per Si atom -5586.907703 kJ/mol
# Density = 1.850259 g / cm^3
# Si number density = 18.544801 Si / 1000 Ang^3
#
#
#
# Elastic Constant Matrix: (Units=GPa)
#
#
# Indices 1 2 3 4 5 6 
#
# 1 78.0083 58.5186 73.5904 0.0000 0.0000 0.0000
# 2 58.5186 105.0661 71.5266 0.0000 0.0000 0.0000
# 3 73.5904 71.5266 135.8009 0.0000 0.0000 0.0000
# 4 0.0000 0.0000 0.0000 25.6810 0.0000 0.0000
# 5 0.0000 0.0000 0.0000 0.0000 36.2939 0.0000
# 6 0.0000 0.0000 0.0000 0.0000 0.0000 24.0953
#
#
#
# Elastic Compliance Matrix: (Units=1/GPa)
#
#
# Indices 1 2 3 4 5 6 
#
# 1 0.030924 -0.009067 -0.011983 0.000000 0.000000 0.000000
# 2 -0.009067 0.017497 -0.004302 0.000000 0.000000 0.000000
# 3 -0.011983 -0.004302 0.016123 0.000000 0.000000 0.000000
# 4 0.000000 0.000000 0.000000 0.038939 0.000000 0.000000
# 5 0.000000 0.000000 0.000000 0.000000 0.027553 0.000000
# 6 0.000000 0.000000 0.000000 0.000000 0.000000 0.041502
#
#
# Mechanical properties :
#
#
# Convention : Reuss Voigt Hill
#
# Bulk Modulus (GPa) = 72.24778 80.68296 76.46537
# Shear Modulus (GPa) = 21.94382 24.89669 23.42025
#
# Velocity S-wave (km/s) = 3.44363 3.66801 3.55759
# Velocity P-wave (km/s) = 7.40638 7.84478 7.62873
#
# Compressibility (1/GPa) = 0.01384126
#
# Stress axis : x y z
#
# Youngs Moduli (GPa) = 32.33687 57.15428 62.02278
#
# Poissons Ratio (x) = 0.51819 0.74319
# Poissons Ratio (y) = 0.29318 0.26684
# Poissons Ratio (z) = 0.38748 0.24590
#
# Static dielectric constant tensor:
#      x y z
#    x 1.620070 0.000000 0.000000 
#    y 0.000000 1.683510 0.000000 
#    z 0.000000 0.000000 1.591330 
# 
# From -- ./inp_files/29024.got.cif
#   From: 2010.05.17/outbox.cif.g08.bks.cpg/sg59_15_cif.got.tgz:29024.got - 2010.06.03 14:40:33.
