data_PCOD9450173
_publ_section_title
;
Structure prediction by ZEFSAII (Michael W. Deem and Ramdas Pophale) SiO2 
 PCOD9450173
Probable space group: P M M N
;
_chemical_formula_sum "Si O2"
_cell_formula_units_Z 56
_cell_length_a 8.665309
_cell_length_b 24.986132
_cell_length_c 15.095819
_cell_angle_alpha 90.000000
_cell_angle_beta 90.000000
_cell_angle_gamma 90.000000
_cell_volume 3268.434334
_symmetry_space_group_name_H-M "P M M N"
_symmetry_group_IT_number 59
_space_group.IT_coordinate_system_code '2'
_symmetry_cell_setting 'orthorhombic'
loop_
_space_group_symop_operation_xyz
x,y,z
1/2-x,1/2-y,z
1/2+x,-y,-z
-x,1/2+y,-z
-x,-y,-z
1/2+x,1/2+y,-z
1/2-x,y,z
x,1/2-y,z
loop_
_atom_site_type_symbol
_atom_site_label
_atom_site_fract_x
_atom_site_fract_y
_atom_site_fract_z
Si Si1 0.936348 0.069370 0.636532
Si Si2 0.937550 0.750000 0.292531
Si Si3 0.934217 0.550993 0.673099
Si Si4 0.934601 0.364441 0.461463
Si Si5 0.564740 0.750000 0.497453
Si Si6 0.564994 0.639210 0.204870
Si Si7 0.565945 0.425108 0.945152
Si Si8 0.066076 0.535269 0.866692
O O1 0.750000 0.071687 0.643838
O O2 0.984191 0.104041 0.551208
O O3 0.008788 0.095512 0.723820
O O4 0.980559 0.006904 0.632170
O O5 0.750000 0.750000 0.294060
O O6 0.988678 0.750000 0.394482
O O7 0.986591 0.803545 0.242575
O O8 0.750000 0.555572 0.666084
O O9 0.011886 0.598987 0.619824
O O10 0.983310 0.549843 0.775707
O O11 0.750000 0.360653 0.462843
O O12 0.004263 0.305032 0.460636
O O13 0.750000 0.750000 0.499189
O O14 0.750000 0.637963 0.199820
O O15 0.493973 0.624984 0.110170
O O16 0.750000 0.430572 0.935615
O O17 0.487220 0.476892 0.900254
O O18 0.529743 0.426478 0.049587
O O19 0.250000 0.534855 0.852708
#
# Coordination Sequence:
#
# PCOD9450173 Si02
#       8
#     8   4   8   8   4   8   8   8
#     4  10  21  35  52  79 114 147 181 224 273 328
#     4   9  20  35  53  80 109 142 183 229 270 322
#     4  11  22  36  55  81 114 149 185 229 278 331
#     4  11  23  38  56  80 111 147 189 231 277 331
#     4  11  21  39  59  78 107 144 189 233 278 324
#     4  11  20  33  55  80 110 147 185 223 273 328
#     4  10  20  34  52  79 112 141 177 222 272 327
#     4  10  20  34  54  79 108 144 181 221 270 327
#
# _framework density 17.133586000000001
#
# number of rings (size 3 to 8) (size 9 to 14) (size 15 to 20)
#    0.000    1.571    2.857    2.786    0.000    2.857 
#    0.000    1.429    0.000    0.857    0.000    2.000 
#    0.000    0.000    0.000    0.000    0.000    0.000 
#
# Total GULP energy -312749.780161 kJ/mol
# GULP energy per Si atom -5584.817503 kJ/mol
# Density = 1.709459 g / cm^3
# Si number density = 17.133586 Si / 1000 Ang^3
#
#
#
# Elastic Constant Matrix: (Units=GPa)
#
#
# Indices 1 2 3 4 5 6 
#
# 1 33.8371 30.4088 18.8212 0.0000 0.0000 0.0000
# 2 30.4088 129.6219 47.5869 0.0000 0.0000 0.0000
# 3 18.8212 47.5869 74.3178 0.0000 0.0000 0.0000
# 4 0.0000 0.0000 0.0000 23.8878 0.0000 0.0000
# 5 0.0000 0.0000 0.0000 0.0000 28.7482 0.0000
# 6 0.0000 0.0000 0.0000 0.0000 0.0000 21.9469
#
#
#
# Elastic Compliance Matrix: (Units=1/GPa)
#
#
# Indices 1 2 3 4 5 6 
#
# 1 0.038953 -0.007212 -0.005247 0.000000 0.000000 0.000000
# 2 -0.007212 0.011421 -0.005487 0.000000 0.000000 0.000000
# 3 -0.005247 -0.005487 0.018298 0.000000 0.000000 0.000000
# 4 0.000000 0.000000 0.000000 0.041862 0.000000 0.000000
# 5 0.000000 0.000000 0.000000 0.000000 0.034785 0.000000
# 6 0.000000 0.000000 0.000000 0.000000 0.000000 0.045565
#
#
# Mechanical properties :
#
#
# Convention : Reuss Voigt Hill
#
# Bulk Modulus (GPa) = 30.50580 47.93453 39.22016
# Shear Modulus (GPa) = 21.03477 24.31389 22.67433
#
# Velocity S-wave (km/s) = 3.50765 3.77115 3.64178
# Velocity P-wave (km/s) = 5.85219 6.85564 6.37369
#
# Compressibility (1/GPa) = 0.03278065
#
# Stress axis : x y z
#
# Youngs Moduli (GPa) = 25.67175 87.55897 54.65172
#
# Poissons Ratio (x) = 0.63147 0.28676
# Poissons Ratio (y) = 0.18514 0.29985
# Poissons Ratio (z) = 0.13470 0.48039
#
# Static dielectric constant tensor:
#      x y z
#    x 1.573190 0.000000 0.000000 
#    y 0.000000 1.569730 0.000000 
#    z 0.000000 0.000000 1.574890 
# 
# From -- ./inp_files/21109.got.cif
#   From: 2010.05.17/outbox.cif.g08.bks.cpg/sg59_11_cif.got.tgz:21109.got - 2010.06.03 14:40:33.
