data_PCOD9450902
_publ_section_title
;
Structure prediction by ZEFSAII (Michael W. Deem and Ramdas Pophale) SiO2 
 PCOD9450902
Probable space group: P M M N
;
_chemical_formula_sum "Si O2"
_cell_formula_units_Z 64
_cell_length_a 7.862606
_cell_length_b 15.179943
_cell_length_c 24.667771
_cell_angle_alpha 90.000000
_cell_angle_beta 90.000000
_cell_angle_gamma 90.000000
_cell_volume 2944.194942
_symmetry_space_group_name_H-M "P M M N"
_symmetry_group_IT_number 59
_space_group.IT_coordinate_system_code '2'
_symmetry_cell_setting 'orthorhombic'
loop_
_space_group_symop_operation_xyz
x,y,z
1/2-x,1/2-y,z
1/2+x,-y,-z
-x,1/2+y,-z
-x,-y,-z
1/2+x,1/2+y,-z
1/2-x,y,z
x,1/2-y,z
loop_
_atom_site_type_symbol
_atom_site_label
_atom_site_fract_x
_atom_site_fract_y
_atom_site_fract_z
Si Si1 0.450720 0.849340 0.347710
Si Si2 0.059271 0.477821 0.560361
Si Si3 0.049649 0.652197 0.905623
Si Si4 0.956223 0.532827 0.130103
Si Si5 0.954565 0.648465 0.028712
Si Si6 0.046242 0.961619 0.245767
Si Si7 0.949286 0.845938 0.613187
Si Si8 0.950313 0.844392 0.743666
O O1 0.250000 0.841133 0.337112
O O2 0.521138 0.750000 0.351632
O O3 0.466505 0.905604 0.402734
O O4 0.521029 0.905566 0.296609
O O5 0.250000 0.445262 0.556789
O O6 0.000000 0.500000 0.500000
O O7 0.047044 0.570486 0.591566
O O8 0.250000 0.656848 0.893088
O O9 0.974934 0.750000 0.896249
O O10 0.977789 0.567893 0.874478
O O11 0.031626 0.631652 0.969615
O O12 0.750000 0.531624 0.129269
O O13 0.013056 0.585121 0.076697
O O14 0.013060 0.576529 0.186277
O O15 0.750000 0.639915 0.023378
O O16 0.992352 0.750000 0.042746
O O17 0.250000 0.970798 0.253862
O O18 0.972178 0.060994 0.242680
O O19 0.750000 0.856446 0.598288
O O20 0.008316 0.750000 0.593170
O O21 0.955867 0.843917 0.678196
O O22 0.750000 0.844046 0.759083
O O23 0.024124 0.750000 0.762759
#
# Coordination Sequence:
#
# PCOD9450902 Si02
#       8
#     8   8   8   8   8   8   8   8
#     4  10  22  43  67  88 116 155 199 247 295 341
#     4  12  25  40  62  90 123 156 192 238 287 344
#     4   9  18  33  52  74 103 139 177 222 278 336
#     4  10  21  34  49  74 109 144 179 223 278 333
#     4   9  18  33  52  73  99 134 178 228 279 331
#     4  10  20  35  56  82 112 146 189 234 279 334
#     4   9  17  34  61  87 114 148 184 226 279 336
#     4   8  14  28  53  80 105 136 174 219 271 326
#
# _framework density 21.737690000000001
#
# number of rings (size 3 to 8) (size 9 to 14) (size 15 to 20)
#    0.000    2.375    1.250    2.250    0.000    3.500 
#    0.000    0.000    0.000    0.000    0.000    0.000 
#    0.000    0.000    0.000    0.000    0.000    0.000 
#
# Total GULP energy -357074.821649 kJ/mol
# GULP energy per Si atom -5579.294088 kJ/mol
# Density = 2.168821 g / cm^3
# Si number density = 21.737690 Si / 1000 Ang^3
#
#
#
# Elastic Constant Matrix: (Units=GPa)
#
#
# Indices 1 2 3 4 5 6 
#
# 1 22.8383 7.7273 -1.9398 0.0000 0.0000 0.0000
# 2 7.7273 124.2049 59.8908 0.0000 0.0000 0.0000
# 3 -1.9398 59.8908 110.0213 0.0000 0.0000 0.0000
# 4 0.0000 0.0000 0.0000 -6.1013 0.0000 0.0000
# 5 0.0000 0.0000 0.0000 0.0000 18.0564 0.0000
# 6 0.0000 0.0000 0.0000 0.0000 0.0000 2.7726
#
#
#
# Elastic Compliance Matrix: (Units=1/GPa)
#
#
# Indices 1 2 3 4 5 6 
#
# 1 0.045533 -0.004366 0.003179 0.000000 0.000000 0.000000
# 2 -0.004366 0.011335 -0.006247 0.000000 0.000000 0.000000
# 3 0.003179 -0.006247 0.012546 0.000000 0.000000 0.000000
# 4 0.000000 0.000000 0.000000 -0.163899 0.000000 0.000000
# 5 0.000000 0.000000 0.000000 0.000000 0.055382 0.000000
# 6 0.000000 0.000000 0.000000 0.000000 0.000000 0.360674
#
#
# Mechanical properties :
#
#
# Convention : Reuss Voigt Hill
#
# Bulk Modulus (GPa) = 18.33288 43.15791 30.74539
# Shear Modulus (GPa) = 14.09952 15.70461 14.90207
#
# Velocity S-wave (km/s) = 2.54957 2.69078 2.62112
# Velocity P-wave (km/s) = 4.13752 5.43606 4.83062
#
# Compressibility (1/GPa) = 0.05454682
#
# Stress axis : x y z
#
# Youngs Moduli (GPa) = 21.96194 88.22003 79.70652
#
# Poissons Ratio (x) = 0.38516 -0.25342
# Poissons Ratio (y) = 0.09588 0.49796
# Poissons Ratio (z) = -0.06983 0.55115
#
# Static dielectric constant tensor:
#      x y z
#    x 1.775720 0.000000 0.000000 
#    y 0.000000 2.034580 0.000000 
#    z 0.000000 0.000000 11.759800 
# 
# From -- ./inp_files/31486.got.cif
#   From: 2010.05.17/outbox.cif.g08.bks.cpg/sg59_16_cif.got.tgz:31486.got - 2010.06.03 14:40:33.
