data_PCOD9450037
_publ_section_title
;
Structure prediction by ZEFSAII (Michael W. Deem and Ramdas Pophale) SiO2 
 PCOD9450037
Probable space group: P M M N
;
_chemical_formula_sum "Si O2"
_cell_formula_units_Z 40
_cell_length_a 8.575889
_cell_length_b 15.329947
_cell_length_c 15.610446
_cell_angle_alpha 90.000000
_cell_angle_beta 90.000000
_cell_angle_gamma 90.000000
_cell_volume 2052.272926
_symmetry_space_group_name_H-M "P M M N"
_symmetry_group_IT_number 59
_space_group.IT_coordinate_system_code '2'
_symmetry_cell_setting 'orthorhombic'
loop_
_space_group_symop_operation_xyz
x,y,z
1/2-x,1/2-y,z
1/2+x,-y,-z
-x,1/2+y,-z
-x,-y,-z
1/2+x,1/2+y,-z
1/2-x,y,z
x,1/2-y,z
loop_
_atom_site_type_symbol
_atom_site_label
_atom_site_fract_x
_atom_site_fract_y
_atom_site_fract_z
Si Si1 0.437914 0.387590 0.168681
Si Si2 0.561321 0.066547 0.758039
Si Si3 0.062270 0.750000 0.499284
Si Si4 0.935846 0.932095 0.430508
Si Si5 0.563352 0.250000 0.301285
Si Si6 0.561813 0.250000 0.836026
Si Si7 0.938473 0.750000 0.972174
O O1 0.250000 0.383440 0.171023
O O2 0.484906 0.488097 0.178166
O O3 0.500084 0.333471 0.249917
O O4 0.487193 0.334412 0.084155
O O5 0.750000 0.067917 0.753442
O O6 0.496435 0.046379 0.664258
O O7 0.507576 0.161411 0.789826
O O8 0.250000 0.750000 0.493704
O O9 0.016400 0.750000 0.599541
O O10 0.997378 0.836402 0.455037
O O11 0.750000 0.934025 0.431856
O O12 0.000000 0.000000 0.500000
O O13 0.750000 0.250000 0.297640
O O14 0.750000 0.250000 0.833139
O O15 0.508985 0.250000 0.934111
O O16 0.750000 0.750000 0.978189
#
# Coordination Sequence:
#
# PCOD9450037 Si02
#       7
#     8   8   4   8   4   4   4
#     4   9  19  36  58  81 110 149 188 229 284 345
#     4  10  21  39  60  82 113 153 194 238 288 341
#     4  11  23  39  58  83 117 156 199 247 296 347
#     4  12  25  40  60  88 120 156 199 244 294 350
#     4  10  20  33  54  84 112 140 182 238 289 334
#     4  10  22  38  58  85 116 149 188 235 288 343
#     4   9  19  36  56  82 113 145 187 236 283 342
#
# _framework density 19.490584999999999
#
# number of rings (size 3 to 8) (size 9 to 14) (size 15 to 20)
#    0.000    1.800    0.000    4.800    0.000    9.600 
#    0.000    0.000    0.000    0.000    0.000    0.000 
#    0.000    0.000    0.000    0.000    0.000    0.000 
#
# Total GULP energy -223531.233073 kJ/mol
# GULP energy per Si atom -5588.280827 kJ/mol
# Density = 1.944622 g / cm^3
# Si number density = 19.490585 Si / 1000 Ang^3
#
#
#
# Elastic Constant Matrix: (Units=GPa)
#
#
# Indices 1 2 3 4 5 6 
#
# 1 22.7197 27.4036 16.3125 0.0000 0.0000 0.0000
# 2 27.4036 158.4670 49.1460 0.0000 0.0000 0.0000
# 3 16.3125 49.1460 109.5741 0.0000 0.0000 0.0000
# 4 0.0000 0.0000 0.0000 -8.2865 0.0000 0.0000
# 5 0.0000 0.0000 0.0000 0.0000 35.1339 0.0000
# 6 0.0000 0.0000 0.0000 0.0000 0.0000 17.1957
#
#
#
# Elastic Compliance Matrix: (Units=1/GPa)
#
#
# Indices 1 2 3 4 5 6 
#
# 1 0.057691 -0.008495 -0.004779 0.000000 0.000000 0.000000
# 2 -0.008495 0.008581 -0.002584 0.000000 0.000000 0.000000
# 3 -0.004779 -0.002584 0.010997 0.000000 0.000000 0.000000
# 4 0.000000 0.000000 0.000000 -0.120678 0.000000 0.000000
# 5 0.000000 0.000000 0.000000 0.000000 0.028463 0.000000
# 6 0.000000 0.000000 0.000000 0.000000 0.000000 0.058154
#
#
# Mechanical properties :
#
#
# Convention : Reuss Voigt Hill
#
# Bulk Modulus (GPa) = 21.95176 52.94277 37.44726
# Shear Modulus (GPa) = 55.48938 22.00185 38.74562
#
# Velocity S-wave (km/s) = 5.34150 3.36347 4.46344
# Velocity P-wave (km/s) = 7.02349 6.50432 6.76888
#
# Compressibility (1/GPa) = 0.04555443
#
# Stress axis : x y z
#
# Youngs Moduli (GPa) = 17.33358 116.53890 90.93678
#
# Poissons Ratio (x) = 0.98994 0.43456
# Poissons Ratio (y) = 0.14724 0.23499
# Poissons Ratio (z) = 0.08283 0.30114
#
# Static dielectric constant tensor:
#      x y z
#    x 1.653500 0.000000 0.000000 
#    y 0.000000 1.691310 0.000000 
#    z 0.000000 0.000000 1.641720 
# 
# From -- ./inp_files/20025.got.cif
#   From: 2010.05.17/outbox.cif.g08.bks.cpg/sg59_11_cif.got.tgz:20025.got - 2010.06.03 14:40:33.
