data_PCOD9450993
_publ_section_title
;
Structure prediction by ZEFSAII (Michael W. Deem and Ramdas Pophale) SiO2 
 PCOD9450993
Probable space group: P M M N
;
_chemical_formula_sum "Si O2"
_cell_formula_units_Z 56
_cell_length_a 14.917998
_cell_length_b 15.163906
_cell_length_c 12.655077
_cell_angle_alpha 90.000000
_cell_angle_beta 90.000000
_cell_angle_gamma 90.000000
_cell_volume 2862.769754
_symmetry_space_group_name_H-M "P M M N"
_symmetry_group_IT_number 59
_space_group.IT_coordinate_system_code '2'
_symmetry_cell_setting 'orthorhombic'
loop_
_space_group_symop_operation_xyz
x,y,z
1/2-x,1/2-y,z
1/2+x,-y,-z
-x,1/2+y,-z
-x,-y,-z
1/2+x,1/2+y,-z
1/2-x,y,z
x,1/2-y,z
loop_
_atom_site_type_symbol
_atom_site_label
_atom_site_fract_x
_atom_site_fract_y
_atom_site_fract_z
Si Si1 0.154002 0.463996 0.103914
Si Si2 0.490709 0.148557 0.994415
Si Si3 0.848615 0.891162 0.663485
Si Si4 0.103695 0.651795 0.193905
Si Si5 0.551763 0.350739 0.371905
Si Si6 0.352508 0.856294 0.842667
Si Si7 0.853276 0.090154 0.579527
O O1 0.250000 0.451084 0.051920
O O2 0.148707 0.405342 0.210362
O O3 0.149877 0.564147 0.147337
O O4 0.077736 0.425808 0.029709
O O5 0.464792 0.250000 0.024073
O O6 0.583668 0.128495 0.056763
O O7 0.510274 0.148079 0.869563
O O8 0.750000 0.852197 0.637430
O O9 0.943890 0.850317 0.633063
O O10 0.850153 0.988160 0.612239
O O11 0.141066 0.750000 0.168364
O O12 0.104643 0.640371 0.319629
O O13 0.582814 0.250000 0.382077
O O14 0.594849 0.387067 0.262834
O O15 0.589905 0.399244 0.473965
O O16 0.250000 0.889324 0.850528
O O17 0.346960 0.750000 0.835234
O O18 0.750000 0.120566 0.565186
#
# Coordination Sequence:
#
# PCOD9450993 Si02
#       7
#     8   8   8   8   8   8   8
#     4  10  20  35  57  84 113 145 184 230 272 322
#     4  10  20  36  56  80 113 148 179 224 278 328
#     4   9  19  35  54  78 109 144 181 223 268 318
#     4  10  21  36  56  80 109 145 186 229 275 323
#     4  11  20  32  53  79 110 142 175 223 274 322
#     4   9  18  31  48  75 109 142 174 213 270 328
#     4  10  21  36  55  79 106 141 184 225 269 322
#
# _framework density 19.561475999999999
#
# number of rings (size 3 to 8) (size 9 to 14) (size 15 to 20)
#    0.000    2.143    1.429    3.000    0.000    4.286 
#    0.000    4.286    0.000    0.857    0.000    2.000 
#    0.000    0.000    0.000    0.000    0.000    0.000 
#
# Total GULP energy -312055.278920 kJ/mol
# GULP energy per Si atom -5572.415695 kJ/mol
# Density = 1.951695 g / cm^3
# Si number density = 19.561476 Si / 1000 Ang^3
#
#
#
# Elastic Constant Matrix: (Units=GPa)
#
#
# Indices 1 2 3 4 5 6 
#
# 1 108.8851 22.6592 42.2157 0.0000 0.0000 0.0000
# 2 22.6592 60.3984 16.0781 0.0000 0.0000 0.0000
# 3 42.2157 16.0781 90.4154 0.0000 0.0000 0.0000
# 4 0.0000 0.0000 0.0000 16.1007 0.0000 0.0000
# 5 0.0000 0.0000 0.0000 0.0000 5.8802 0.0000
# 6 0.0000 0.0000 0.0000 0.0000 0.0000 -4.8314
#
#
#
# Elastic Compliance Matrix: (Units=1/GPa)
#
#
# Indices 1 2 3 4 5 6 
#
# 1 0.011739 -0.003091 -0.004931 0.000000 0.000000 0.000000
# 2 -0.003091 0.018194 -0.001792 0.000000 0.000000 0.000000
# 3 -0.004931 -0.001792 0.013681 0.000000 0.000000 0.000000
# 4 0.000000 0.000000 0.000000 0.062109 0.000000 0.000000
# 5 0.000000 0.000000 0.000000 0.000000 0.170062 0.000000
# 6 0.000000 0.000000 0.000000 0.000000 0.000000 -0.206979
#
#
# Mechanical properties :
#
#
# Convention : Reuss Voigt Hill
#
# Bulk Modulus (GPa) = 41.69337 46.84500 44.26919
# Shear Modulus (GPa) = 51.85069 15.34629 33.59849
#
# Velocity S-wave (km/s) = 5.15403 2.80396 4.14887
# Velocity P-wave (km/s) = 7.53519 5.87218 6.75506
#
# Compressibility (1/GPa) = 0.02398463
#
# Stress axis : x y z
#
# Youngs Moduli (GPa) = 85.18410 54.96467 73.09278
#
# Poissons Ratio (x) = 0.16992 0.36045
# Poissons Ratio (y) = 0.26334 0.13097
# Poissons Ratio (z) = 0.42008 0.09849
#
# Static dielectric constant tensor:
#      x y z
#    x 1.708510 0.000000 0.000000 
#    y 0.000000 1.715620 0.000000 
#    z 0.000000 0.000000 1.688630 
# 
# From -- ./inp_files/16926.got.cif
#   From: 2010.05.17/outbox.cif.g08.bks.cpg/sg59_9_cif.got.tgz:16926.got - 2010.06.03 14:40:33.
