data_PCOD9450869
_publ_section_title
;
Structure prediction by ZEFSAII (Michael W. Deem and Ramdas Pophale) SiO2 
 PCOD9450869
Probable space group: P M M N
;
_chemical_formula_sum "Si O2"
_cell_formula_units_Z 40
_cell_length_a 18.761638
_cell_length_b 13.435883
_cell_length_c 8.391749
_cell_angle_alpha 90.000000
_cell_angle_beta 90.000000
_cell_angle_gamma 90.000000
_cell_volume 2115.385148
_symmetry_space_group_name_H-M "P M M N"
_symmetry_group_IT_number 59
_space_group.IT_coordinate_system_code '2'
_symmetry_cell_setting 'orthorhombic'
loop_
_space_group_symop_operation_xyz
x,y,z
1/2-x,1/2-y,z
1/2+x,-y,-z
-x,1/2+y,-z
-x,-y,-z
1/2+x,1/2+y,-z
1/2-x,y,z
x,1/2-y,z
loop_
_atom_site_type_symbol
_atom_site_label
_atom_site_fract_x
_atom_site_fract_y
_atom_site_fract_z
Si Si1 0.607224 0.635723 0.877309
Si Si2 0.966098 0.358930 0.918339
Si Si3 0.332324 0.545014 0.926237
Si Si4 0.439747 0.986469 0.368903
Si Si5 0.166238 0.633613 0.580819
O O1 0.632678 0.750000 0.870576
O O2 0.599805 0.583013 0.704883
O O3 0.527345 0.637365 0.950013
O O4 0.650828 0.563559 0.997735
O O5 0.966938 0.250000 0.845227
O O6 0.978939 0.438645 0.782548
O O7 0.889174 0.383320 0.989898
O O8 0.250000 0.569856 0.959576
O O9 0.343531 0.564724 0.738021
O O10 0.381662 0.911113 0.440932
O O11 0.500000 0.000000 0.500000
O O12 0.250000 0.630460 0.539664
O O13 0.148272 0.750000 0.615262
#
# Coordination Sequence:
#
# PCOD9450869 Si02
#       5
#     8   8   8   8   8
#     4  10  22  39  57  78 109 150 191 228 265 315
#     4  10  20  35  56  81 107 138 180 228 275 323
#     4  10  20  36  58  81 107 141 182 226 270 321
#     4  11  21  34  54  82 113 144 179 221 271 329
#     4  10  21  37  57  83 114 143 173 220 284 340
#
# _framework density 18.909087
#
# number of rings (size 3 to 8) (size 9 to 14) (size 15 to 20)
#    0.000    1.800    0.000    6.000    0.000    8.000 
#    0.000    1.000    0.000    1.200    0.000    0.000 
#    0.000    0.000    0.000    0.000    0.000    0.000 
#
# Total GULP energy -223054.859933 kJ/mol
# GULP energy per Si atom -5576.371498 kJ/mol
# Density = 1.886605 g / cm^3
# Si number density = 18.909087 Si / 1000 Ang^3
#
#
#
# Elastic Constant Matrix: (Units=GPa)
#
#
# Indices 1 2 3 4 5 6 
#
# 1 60.4000 2.0198 13.5248 0.0000 0.0000 0.0000
# 2 2.0198 87.4828 23.3465 0.0000 0.0000 0.0000
# 3 13.5248 23.3465 61.2604 0.0000 0.0000 0.0000
# 4 0.0000 0.0000 0.0000 19.1950 0.0000 0.0000
# 5 0.0000 0.0000 0.0000 0.0000 30.2931 0.0000
# 6 0.0000 0.0000 0.0000 0.0000 0.0000 21.2071
#
#
#
# Elastic Compliance Matrix: (Units=1/GPa)
#
#
# Indices 1 2 3 4 5 6 
#
# 1 0.017455 0.000696 -0.004119 0.000000 0.000000 0.000000
# 2 0.000696 0.012753 -0.005014 0.000000 0.000000 0.000000
# 3 -0.004119 -0.005014 0.019144 0.000000 0.000000 0.000000
# 4 0.000000 0.000000 0.000000 0.052097 0.000000 0.000000
# 5 0.000000 0.000000 0.000000 0.000000 0.033011 0.000000
# 6 0.000000 0.000000 0.000000 0.000000 0.000000 0.047154
#
#
# Mechanical properties :
#
#
# Convention : Reuss Voigt Hill
#
# Bulk Modulus (GPa) = 30.78934 31.88060 31.33497
# Shear Modulus (GPa) = 23.88763 25.48918 24.68840
#
# Velocity S-wave (km/s) = 3.55813 3.67548 3.61728
# Velocity P-wave (km/s) = 5.76182 5.90836 5.83555
#
# Compressibility (1/GPa) = 0.03247877
#
# Stress axis : x y z
#
# Youngs Moduli (GPa) = 57.28899 78.41429 52.23592
#
# Poissons Ratio (x) = -0.05459 0.21516
# Poissons Ratio (y) = -0.03989 0.26190
# Poissons Ratio (z) = 0.23598 0.39316
#
# Static dielectric constant tensor:
#      x y z
#    x 1.761700 0.000000 0.000000 
#    y 0.000000 1.700300 0.000000 
#    z 0.000000 0.000000 1.666610 
# 
# From -- ./inp_files/8818.got.cif
#   From: 2010.05.17/outbox.cif.g08.bks.cpg/sg59_5_cif.got.tgz:8818.got - 2010.06.03 14:40:33.
