data_PCOD9450299
_publ_section_title
;
Structure prediction by ZEFSAII (Michael W. Deem and Ramdas Pophale) SiO2 
 PCOD9450299
Probable space group: P M M N
;
_chemical_formula_sum "Si O2"
_cell_formula_units_Z 64
_cell_length_a 8.934588
_cell_length_b 14.175644
_cell_length_c 26.679681
_cell_angle_alpha 90.000000
_cell_angle_beta 90.000000
_cell_angle_gamma 90.000000
_cell_volume 3379.076012
_symmetry_space_group_name_H-M "P M M N"
_symmetry_group_IT_number 59
_space_group.IT_coordinate_system_code '2'
_symmetry_cell_setting 'orthorhombic'
loop_
_space_group_symop_operation_xyz
x,y,z
1/2-x,1/2-y,z
1/2+x,-y,-z
-x,1/2+y,-z
-x,-y,-z
1/2+x,1/2+y,-z
1/2-x,y,z
x,1/2-y,z
loop_
_atom_site_type_symbol
_atom_site_label
_atom_site_fract_x
_atom_site_fract_y
_atom_site_fract_z
Si Si1 0.577563 0.635810 0.916622
Si Si2 0.929333 0.858590 0.124042
Si Si3 0.423546 0.136227 0.467478
Si Si4 0.567826 0.856725 0.419874
Si Si5 0.921216 0.365088 0.980991
Si Si6 0.070755 0.139993 0.274660
Si Si7 0.428004 0.957765 0.821340
Si Si8 0.928690 0.044868 0.371786
O O1 0.750000 0.606849 0.910135
O O2 0.572561 0.750000 0.915452
O O3 0.479010 0.596925 0.871332
O O4 0.515665 0.604579 0.970714
O O5 0.750000 0.861570 0.116079
O O6 0.970863 0.750000 0.134857
O O7 0.007636 0.889595 0.072421
O O8 0.965568 0.932831 0.167420
O O9 0.250000 0.105030 0.461772
O O10 0.423194 0.250000 0.464698
O O11 0.478151 0.113382 0.523767
O O12 0.522545 0.095797 0.423073
O O13 0.750000 0.854428 0.421604
O O14 0.516542 0.750000 0.409834
O O15 0.525202 0.935731 0.380006
O O16 0.750000 0.396936 0.985012
O O17 0.921246 0.250000 0.982045
O O18 0.250000 0.136205 0.275371
O O19 0.025498 0.250000 0.272057
O O20 0.009512 0.085468 0.226365
O O21 0.006724 0.093539 0.324909
O O22 0.250000 0.949302 0.814798
O O23 0.750000 0.049569 0.365760
#
# Coordination Sequence:
#
# PCOD9450299 Si02
#       8
#     8   8   8   8   8   8   8   8
#     4  10  20  34  53  78 111 149 182 215 265 327
#     4   9  19  37  58  80 109 142 174 211 262 324
#     4   9  17  31  52  78 112 153 188 219 265 325
#     4   8  16  32  53  79 113 151 187 221 263 319
#     4   9  17  30  51  80 111 143 181 223 262 304
#     4  11  25  44  62  79 105 142 178 215 267 328
#     4  11  23  38  59  84 106 134 176 226 273 314
#     4  11  21  33  55  84 110 141 184 232 274 311
#
# _framework density 18.940089
#
# number of rings (size 3 to 8) (size 9 to 14) (size 15 to 20)
#    0.000    2.250    0.000    3.750    0.000    8.000 
#    0.000    1.250    0.000    6.750    0.000    0.000 
#    0.000    0.000    0.000    0.000    0.000    0.000 
#
# Total GULP energy -357462.879160 kJ/mol
# GULP energy per Si atom -5585.357487 kJ/mol
# Density = 1.889698 g / cm^3
# Si number density = 18.940089 Si / 1000 Ang^3
#
#
#
# Elastic Constant Matrix: (Units=GPa)
#
#
# Indices 1 2 3 4 5 6 
#
# 1 48.5731 40.6177 41.3710 0.0000 0.0000 0.0000
# 2 40.6177 101.0560 74.6992 0.0000 0.0000 0.0000
# 3 41.3710 74.6992 113.5524 0.0000 0.0000 0.0000
# 4 0.0000 0.0000 0.0000 33.6777 0.0000 0.0000
# 5 0.0000 0.0000 0.0000 0.0000 16.3357 0.0000
# 6 0.0000 0.0000 0.0000 0.0000 0.0000 18.2688
#
#
#
# Elastic Compliance Matrix: (Units=1/GPa)
#
#
# Indices 1 2 3 4 5 6 
#
# 1 0.033288 -0.008594 -0.006475 0.000000 0.000000 0.000000
# 2 -0.008594 0.021480 -0.011000 0.000000 0.000000 0.000000
# 3 -0.006475 -0.011000 0.018402 0.000000 0.000000 0.000000
# 4 0.000000 0.000000 0.000000 0.029693 0.000000 0.000000
# 5 0.000000 0.000000 0.000000 0.000000 0.061215 0.000000
# 6 0.000000 0.000000 0.000000 0.000000 0.000000 0.054738
#
#
# Mechanical properties :
#
#
# Convention : Reuss Voigt Hill
#
# Bulk Modulus (GPa) = 47.54199 64.06193 55.80196
# Shear Modulus (GPa) = 17.98787 20.75601 19.37194
#
# Velocity S-wave (km/s) = 3.08510 3.31400 3.20160
# Velocity P-wave (km/s) = 6.15193 6.96709 6.57216
#
# Compressibility (1/GPa) = 0.02103404
#
# Stress axis : x y z
#
# Youngs Moduli (GPa) = 30.04042 46.55421 54.34324
#
# Poissons Ratio (x) = 0.40007 0.35187
# Poissons Ratio (y) = 0.25815 0.59776
# Poissons Ratio (z) = 0.19451 0.51208
#
# Static dielectric constant tensor:
#      x y z
#    x 1.728880 0.000000 0.000000 
#    y 0.000000 1.705810 0.000000 
#    z 0.000000 0.000000 1.612360 
# 
# From -- ./inp_files/31400.got.cif
#   From: 2010.05.17/outbox.cif.g08.bks.cpg/sg59_16_cif.got.tgz:31400.got - 2010.06.03 14:40:33.
