data_PCOD9450070
_publ_section_title
;
Structure prediction by ZEFSAII (Michael W. Deem and Ramdas Pophale) SiO2 
 PCOD9450070
Probable space group: P M M N
;
_chemical_formula_sum "Si O2"
_cell_formula_units_Z 64
_cell_length_a 7.954845
_cell_length_b 24.212400
_cell_length_c 19.002730
_cell_angle_alpha 90.000000
_cell_angle_beta 90.000000
_cell_angle_gamma 90.000000
_cell_volume 3660.037707
_symmetry_space_group_name_H-M "P M M N"
_symmetry_group_IT_number 59
_space_group.IT_coordinate_system_code '2'
_symmetry_cell_setting 'orthorhombic'
loop_
_space_group_symop_operation_xyz
x,y,z
1/2-x,1/2-y,z
1/2+x,-y,-z
-x,1/2+y,-z
-x,-y,-z
1/2+x,1/2+y,-z
1/2-x,y,z
x,1/2-y,z
loop_
_atom_site_type_symbol
_atom_site_label
_atom_site_fract_x
_atom_site_fract_y
_atom_site_fract_z
Si Si1 0.952774 0.313524 0.773235
Si Si2 0.549575 0.998220 0.417703
Si Si3 0.550100 0.617145 0.634274
Si Si4 0.452229 0.813252 0.768966
Si Si5 0.547100 0.619458 0.363845
Si Si6 0.050681 0.816835 0.073449
Si Si7 0.044215 0.186779 0.499574
Si Si8 0.948603 0.316937 0.077852
O O1 0.750000 0.311058 0.777978
O O2 0.011178 0.250000 0.760398
O O3 0.016955 0.333585 0.850030
O O4 0.997791 0.353663 0.709847
O O5 0.750000 0.995951 0.416209
O O6 0.495176 0.053594 0.378106
O O7 0.500000 0.000000 0.500000
O O8 0.484900 0.942340 0.380642
O O9 0.750000 0.621429 0.632793
O O10 0.492044 0.645619 0.705992
O O11 0.484389 0.651805 0.567267
O O12 0.250000 0.810051 0.774989
O O13 0.512114 0.750000 0.754964
O O14 0.517910 0.833050 0.845633
O O15 0.750000 0.618229 0.366037
O O16 0.489673 0.658376 0.428070
O O17 0.250000 0.830249 0.072227
O O18 0.039547 0.750000 0.074287
O O19 0.978779 0.835532 0.997756
O O20 0.250000 0.186181 0.499160
O O21 0.990118 0.250000 0.495045
O O22 0.750000 0.331377 0.076814
O O23 0.957008 0.250000 0.078376
#
# Coordination Sequence:
#
# PCOD9450070 Si02
#       8
#     8   8   8   8   8   8   8   8
#     4   9  17  28  44  71 103 128 155 193 233 274
#     4  11  22  38  56  72  89 116 159 208 247 283
#     4  11  21  34  50  70  95 127 162 195 240 287
#     4   9  17  29  46  72 103 130 160 198 236 277
#     4  10  20  34  50  67  90 123 159 191 233 284
#     4   7  10  19  37  62  93 127 158 187 222 269
#     4   9  17  30  47  66  90 121 154 182 216 276
#     4   7  10  19  38  63  92 127 161 189 222 270
#
# _framework density 17.486158
#
# number of rings (size 3 to 8) (size 9 to 14) (size 15 to 20)
#    0.000    2.875    1.250    3.750    0.000    2.500 
#    0.000    0.000    0.000    3.000    0.000    4.375 
#    0.000    0.000    0.000    0.000    0.000    0.000 
#
# Total GULP energy -356401.295216 kJ/mol
# GULP energy per Si atom -5568.770238 kJ/mol
# Density = 1.744636 g / cm^3
# Si number density = 17.486158 Si / 1000 Ang^3
#
#
#
# Elastic Constant Matrix: (Units=GPa)
#
#
# Indices 1 2 3 4 5 6 
#
# 1 15.8041 8.8607 14.9348 0.0000 0.0000 0.0000
# 2 8.8607 97.6171 66.6870 0.0000 0.0000 0.0000
# 3 14.9348 66.6870 181.2951 0.0000 0.0000 0.0000
# 4 0.0000 0.0000 0.0000 1.0850 0.0000 0.0000
# 5 0.0000 0.0000 0.0000 0.0000 -85.4990 0.0000
# 6 0.0000 0.0000 0.0000 0.0000 0.0000 13.5949
#
#
#
# Elastic Compliance Matrix: (Units=1/GPa)
#
#
# Indices 1 2 3 4 5 6 
#
# 1 0.069354 -0.003195 -0.004538 0.000000 0.000000 0.000000
# 2 -0.003195 0.013830 -0.004824 0.000000 0.000000 0.000000
# 3 -0.004538 -0.004824 0.007664 0.000000 0.000000 0.000000
# 4 0.000000 0.000000 0.000000 0.921697 0.000000 0.000000
# 5 0.000000 0.000000 0.000000 0.000000 -0.011696 0.000000
# 6 0.000000 0.000000 0.000000 0.000000 0.000000 0.073557
#
#
# Mechanical properties :
#
#
# Convention : Reuss Voigt Hill
#
# Bulk Modulus (GPa) = 15.21282 52.85348 34.03315
# Shear Modulus (GPa) = 4.45859 -0.54825 1.95517
#
# Velocity S-wave (km/s) = 1.59854 -0.56055 1.05856
# Velocity P-wave (km/s) = 3.48223 5.46558 4.58249
#
# Compressibility (1/GPa) = 0.06573401
#
# Stress axis : x y z
#
# Youngs Moduli (GPa) = 14.41871 72.30916 130.47899
#
# Poissons Ratio (x) = 0.23104 0.59211
# Poissons Ratio (y) = 0.04607 0.62940
# Poissons Ratio (z) = 0.06543 0.34880
#
# Static dielectric constant tensor:
#      x y z
#    x 1.641500 0.000000 0.000000 
#    y 0.000000 1.556540 0.000000 
#    z 0.000000 0.000000 1.641220 
# 
# From -- ./inp_files/26309.got.cif
#   From: 2010.05.17/outbox.cif.g08.bks.cpg/sg59_14_cif.got.tgz:26309.got - 2010.06.03 14:40:33.
