data_PCOD9450325
_publ_section_title
;
Structure prediction by ZEFSAII (Michael W. Deem and Ramdas Pophale) SiO2 
 PCOD9450325
Probable space group: P M M N
;
_chemical_formula_sum "Si O2"
_cell_formula_units_Z 64
_cell_length_a 25.485501
_cell_length_b 14.648204
_cell_length_c 8.945790
_cell_angle_alpha 90.000000
_cell_angle_beta 90.000000
_cell_angle_gamma 90.000000
_cell_volume 3339.613855
_symmetry_space_group_name_H-M "P M M N"
_symmetry_group_IT_number 59
_space_group.IT_coordinate_system_code '2'
_symmetry_cell_setting 'orthorhombic'
loop_
_space_group_symop_operation_xyz
x,y,z
1/2-x,1/2-y,z
1/2+x,-y,-z
-x,1/2+y,-z
-x,-y,-z
1/2+x,1/2+y,-z
1/2-x,y,z
x,1/2-y,z
loop_
_atom_site_type_symbol
_atom_site_label
_atom_site_fract_x
_atom_site_fract_y
_atom_site_fract_z
Si Si1 0.121236 0.857378 0.333435
Si Si2 0.189288 0.356705 0.963571
Si Si3 0.581897 0.140480 0.000273
Si Si4 0.366818 0.506277 0.773456
Si Si5 0.868213 0.642158 0.729695
Si Si6 0.519317 0.855295 0.838390
Si Si7 0.689323 0.997412 0.529539
Si Si8 0.042450 0.562383 0.578054
O O1 0.131219 0.750000 0.345471
O O2 0.172454 0.917030 0.368560
O O3 0.079139 0.888467 0.457691
O O4 0.098372 0.876804 0.169410
O O5 0.250000 0.382188 0.939866
O O6 0.182857 0.250000 0.925413
O O7 0.151339 0.419232 0.866252
O O8 0.173860 0.366586 0.137170
O O9 0.583701 0.250000 0.026844
O O10 0.521963 0.109325 0.037682
O O11 0.621447 0.088640 0.111856
O O12 0.324619 0.521440 0.641842
O O13 0.421137 0.499236 0.682820
O O14 0.874237 0.750000 0.693195
O O15 0.923345 0.605772 0.799031
O O16 0.847653 0.584485 0.589848
O O17 0.529534 0.750000 0.877578
O O18 0.486169 0.865999 0.686172
O O19 0.750000 0.973538 0.544539
O O20 0.000000 0.500000 0.500000
#
# Coordination Sequence:
#
# PCOD9450325 Si02
#       8
#     8   8   8   8   8   8   8   8
#     4  10  21  38  59  84 114 149 190 234 282 336
#     4  10  21  38  58  79 107 146 191 239 287 331
#     4   9  19  36  59  85 113 146 183 228 282 339
#     4  10  21  36  57  81 109 144 183 229 280 336
#     4  10  21  37  58  84 114 149 190 233 279 336
#     4   9  17  32  53  78 110 144 178 217 266 326
#     4  11  23  38  57  81 110 146 189 237 287 338
#     4  10  20  34  53  81 114 148 182 221 273 332
#
# _framework density 19.163893000000002
#
# number of rings (size 3 to 8) (size 9 to 14) (size 15 to 20)
#    0.000    2.125    0.000    3.375    0.000    5.500 
#    0.000    6.250    0.000    2.625    0.000    0.000 
#    0.000    0.000    0.000    0.000    0.000    0.000 
#
# Total GULP energy -357003.445721 kJ/mol
# GULP energy per Si atom -5578.178839 kJ/mol
# Density = 1.912028 g / cm^3
# Si number density = 19.163893 Si / 1000 Ang^3
#
#
#
# Elastic Constant Matrix: (Units=GPa)
#
#
# Indices 1 2 3 4 5 6 
#
# 1 72.2920 21.2871 11.3882 0.0000 0.0000 0.0000
# 2 21.2871 67.6517 21.6675 0.0000 0.0000 0.0000
# 3 11.3882 21.6675 60.3941 0.0000 0.0000 0.0000
# 4 0.0000 0.0000 0.0000 26.8783 0.0000 0.0000
# 5 0.0000 0.0000 0.0000 0.0000 20.4613 0.0000
# 6 0.0000 0.0000 0.0000 0.0000 0.0000 24.3135
#
#
#
# Elastic Compliance Matrix: (Units=1/GPa)
#
#
# Indices 1 2 3 4 5 6 
#
# 1 0.015337 -0.004406 -0.001311 0.000000 0.000000 0.000000
# 2 -0.004406 0.017966 -0.005615 0.000000 0.000000 0.000000
# 3 -0.001311 -0.005615 0.018820 0.000000 0.000000 0.000000
# 4 0.000000 0.000000 0.000000 0.037205 0.000000 0.000000
# 5 0.000000 0.000000 0.000000 0.000000 0.048873 0.000000
# 6 0.000000 0.000000 0.000000 0.000000 0.000000 0.041129
#
#
# Mechanical properties :
#
#
# Convention : Reuss Voigt Hill
#
# Bulk Modulus (GPa) = 33.94608 34.33593 34.14101
# Shear Modulus (GPa) = 23.60571 24.06361 23.83466
#
# Velocity S-wave (km/s) = 3.51348 3.54739 3.53048
# Velocity P-wave (km/s) = 5.84905 5.89360 5.87137
#
# Compressibility (1/GPa) = 0.02945848
#
# Stress axis : x y z
#
# Youngs Moduli (GPa) = 65.20310 55.65986 53.13603
#
# Poissons Ratio (x) = 0.24523 0.06968
# Poissons Ratio (y) = 0.28727 0.29836
# Poissons Ratio (z) = 0.08550 0.31253
#
# Static dielectric constant tensor:
#      x y z
#    x 1.673840 0.000000 0.000000 
#    y 0.000000 1.671600 0.000000 
#    z 0.000000 0.000000 1.670160 
# 
# From -- ./inp_files/12184.got.cif
#   From: 2010.05.17/outbox.cif.g08.bks.cpg/sg59_7_cif.got.tgz:12184.got - 2010.06.03 14:40:33.
