data_PCOD9450476
_publ_section_title
;
Structure prediction by ZEFSAII (Michael W. Deem and Ramdas Pophale) SiO2 
 PCOD9450476
Probable space group: P M M N
;
_chemical_formula_sum "Si O2"
_cell_formula_units_Z 56
_cell_length_a 8.889052
_cell_length_b 14.591287
_cell_length_c 24.215910
_cell_angle_alpha 90.000000
_cell_angle_beta 90.000000
_cell_angle_gamma 90.000000
_cell_volume 3140.869125
_symmetry_space_group_name_H-M "P M M N"
_symmetry_group_IT_number 59
_space_group.IT_coordinate_system_code '2'
_symmetry_cell_setting 'orthorhombic'
loop_
_space_group_symop_operation_xyz
x,y,z
1/2-x,1/2-y,z
1/2+x,-y,-z
-x,1/2+y,-z
-x,-y,-z
1/2+x,1/2+y,-z
1/2-x,y,z
x,1/2-y,z
loop_
_atom_site_type_symbol
_atom_site_label
_atom_site_fract_x
_atom_site_fract_y
_atom_site_fract_z
Si Si1 0.430997 0.856617 0.347980
Si Si2 0.070255 0.494801 0.439625
Si Si3 0.427313 0.640758 0.941838
Si Si4 0.929363 0.999061 0.858371
Si Si5 0.069119 0.856183 0.645497
Si Si6 0.070066 0.004970 0.737413
Si Si7 0.572683 0.859219 0.059666
O O1 0.250000 0.862080 0.340506
O O2 0.472635 0.750000 0.352378
O O3 0.468320 0.915516 0.402709
O O4 0.510447 0.908214 0.297341
O O5 0.250000 0.489346 0.443454
O O6 0.000000 0.500000 0.500000
O O7 0.007647 0.408302 0.405430
O O8 0.250000 0.619134 0.943108
O O9 0.443977 0.750000 0.934854
O O10 0.506802 0.586827 0.892769
O O11 0.501937 0.615761 0.000421
O O12 0.750000 0.997896 0.857725
O O13 0.989664 0.086658 0.892150
O O14 0.993748 0.999716 0.796753
O O15 0.250000 0.860160 0.638282
O O16 0.024872 0.750000 0.649992
O O17 0.033084 0.915713 0.700024
O O18 0.250000 0.009995 0.743360
O O19 0.750000 0.880857 0.059940
O O20 0.555329 0.750000 0.066472
#
# Coordination Sequence:
#
# PCOD9450476 Si02
#       7
#     8   8   8   8   8   8   8
#     4   9  19  37  58  78 105 144 184 222 270 324
#     4  10  20  34  54  83 116 147 182 224 267 314
#     4  10  21  38  59  82 110 143 179 222 273 328
#     4  12  24  37  56  81 111 146 183 224 271 325
#     4   9  19  37  59  80 106 143 182 222 272 324
#     4  10  21  37  56  80 108 138 179 228 274 322
#     4  10  21  38  59  82 109 141 180 226 274 327
#
# _framework density 17.829460000000001
#
# number of rings (size 3 to 8) (size 9 to 14) (size 15 to 20)
#    0.000    2.000    0.000    3.429    0.000    5.143 
#    0.000    2.857    0.000    0.000    0.000    0.000 
#    0.000    0.000    0.000    0.000    0.000    0.000 
#
# Total GULP energy -312817.672950 kJ/mol
# GULP energy per Si atom -5586.029874 kJ/mol
# Density = 1.778888 g / cm^3
# Si number density = 17.829460 Si / 1000 Ang^3
#
#
#
# Elastic Constant Matrix: (Units=GPa)
#
#
# Indices 1 2 3 4 5 6 
#
# 1 100.1292 63.4922 88.1206 0.0000 0.0000 0.0000
# 2 63.4922 144.1955 85.8732 0.0000 0.0000 0.0000
# 3 88.1206 85.8732 190.3920 0.0000 0.0000 0.0000
# 4 0.0000 0.0000 0.0000 10.3543 0.0000 0.0000
# 5 0.0000 0.0000 0.0000 0.0000 36.2528 0.0000
# 6 0.0000 0.0000 0.0000 0.0000 0.0000 31.2068
#
#
#
# Elastic Compliance Matrix: (Units=1/GPa)
#
#
# Indices 1 2 3 4 5 6 
#
# 1 0.018520 -0.004170 -0.006691 0.000000 0.000000 0.000000
# 2 -0.004170 0.010421 -0.002770 0.000000 0.000000 0.000000
# 3 -0.006691 -0.002770 0.009599 0.000000 0.000000 0.000000
# 4 0.000000 0.000000 0.000000 0.096578 0.000000 0.000000
# 5 0.000000 0.000000 0.000000 0.000000 0.027584 0.000000
# 6 0.000000 0.000000 0.000000 0.000000 0.000000 0.032044
#
#
# Mechanical properties :
#
#
# Convention : Reuss Voigt Hill
#
# Bulk Modulus (GPa) = 88.67455 101.07653 94.87554
# Shear Modulus (GPa) = 22.14679 28.71149 25.42914
#
# Velocity S-wave (km/s) = 3.52823 4.01726 3.78066
# Velocity P-wave (km/s) = 8.15112 8.85052 8.50801
#
# Compressibility (1/GPa) = 0.01127719
#
# Stress axis : x y z
#
# Youngs Moduli (GPa) = 53.99668 95.96136 104.18291
#
# Poissons Ratio (x) = 0.40016 0.69707
# Poissons Ratio (y) = 0.22517 0.28860
# Poissons Ratio (z) = 0.36128 0.26583
#
# Static dielectric constant tensor:
#      x y z
#    x 1.595450 0.000000 0.000000 
#    y 0.000000 1.608940 0.000000 
#    z 0.000000 0.000000 1.566850 
# 
# From -- ./inp_files/29033.got.cif
#   From: 2010.05.17/outbox.cif.g08.bks.cpg/sg59_15_cif.got.tgz:29033.got - 2010.06.03 14:40:33.
