data_PCOD9450224
_publ_section_title
;
Structure prediction by ZEFSAII (Michael W. Deem and Ramdas Pophale) SiO2 
 PCOD9450224
Probable space group: P M M N
;
_chemical_formula_sum "Si O2"
_cell_formula_units_Z 64
_cell_length_a 16.751379
_cell_length_b 21.675115
_cell_length_c 9.175213
_cell_angle_alpha 90.000000
_cell_angle_beta 90.000000
_cell_angle_gamma 90.000000
_cell_volume 3331.410345
_symmetry_space_group_name_H-M "P M M N"
_symmetry_group_IT_number 59
_space_group.IT_coordinate_system_code '2'
_symmetry_cell_setting 'orthorhombic'
loop_
_space_group_symop_operation_xyz
x,y,z
1/2-x,1/2-y,z
1/2+x,-y,-z
-x,1/2+y,-z
-x,-y,-z
1/2+x,1/2+y,-z
1/2-x,y,z
x,1/2-y,z
loop_
_atom_site_type_symbol
_atom_site_label
_atom_site_fract_x
_atom_site_fract_y
_atom_site_fract_z
Si Si1 0.575503 0.318031 0.093999
Si Si2 0.897169 0.180796 0.437980
Si Si3 0.905178 0.816739 0.052961
Si Si4 0.155102 0.055406 0.588883
Si Si5 0.066693 0.318069 0.601475
Si Si6 0.342166 0.562345 0.404541
Si Si7 0.392694 0.448106 0.920491
Si Si8 0.414696 0.933733 0.092553
O O1 0.607372 0.250000 0.053501
O O2 0.586644 0.326491 0.265931
O O3 0.481549 0.317063 0.052927
O O4 0.610168 0.374255 0.001338
O O5 0.862912 0.250000 0.460525
O O6 0.847968 0.122835 0.495096
O O7 0.980414 0.178985 0.526967
O O8 0.864064 0.750000 0.036886
O O9 0.936244 0.819680 0.221492
O O10 0.859655 0.881062 0.031978
O O11 0.250000 0.061217 0.574797
O O12 0.115174 0.121358 0.555294
O O13 0.134977 0.039466 0.756459
O O14 0.127725 0.998669 0.488346
O O15 0.101218 0.250000 0.563980
O O16 0.250000 0.552082 0.365048
O O17 0.392127 0.573457 0.259527
O O18 0.489283 0.440756 0.919282
O O19 0.375464 0.504802 0.025931
#
# Coordination Sequence:
#
# PCOD9450224 Si02
#       8
#     8   8   8   8   8   8   8   8
#     4   9  17  30  51  78 103 126 158 208 264 312
#     4  10  20  35  57  82 105 132 171 217 265 316
#     4   8  14  27  47  74 105 129 157 201 252 303
#     4  10  21  35  51  75 109 146 179 214 259 311
#     4   9  18  33  56  83 107 136 174 217 263 311
#     4  11  24  38  52  73 105 145 182 217 259 310
#     4   9  18  32  53  78 101 131 172 219 265 305
#     4  10  20  34  53  77 101 131 175 221 263 309
#
# _framework density 19.211084
#
# number of rings (size 3 to 8) (size 9 to 14) (size 15 to 20)
#    0.000    2.500    0.000    3.000    0.000    7.500 
#    0.000    0.625    0.000    0.750    0.000    0.000 
#    0.000    5.000    0.000    0.000    0.000    0.000 
#
# Total GULP energy -356744.686304 kJ/mol
# GULP energy per Si atom -5574.135724 kJ/mol
# Density = 1.916736 g / cm^3
# Si number density = 19.211084 Si / 1000 Ang^3
#
#
#
# Elastic Constant Matrix: (Units=GPa)
#
#
# Indices 1 2 3 4 5 6 
#
# 1 14.6111 20.9725 6.0060 0.0000 0.0000 0.0000
# 2 20.9725 166.0881 63.1501 0.0000 0.0000 0.0000
# 3 6.0060 63.1501 61.9790 0.0000 0.0000 0.0000
# 4 0.0000 0.0000 0.0000 29.3961 0.0000 0.0000
# 5 0.0000 0.0000 0.0000 0.0000 7.3256 0.0000
# 6 0.0000 0.0000 0.0000 0.0000 0.0000 9.8809
#
#
#
# Elastic Compliance Matrix: (Units=1/GPa)
#
#
# Indices 1 2 3 4 5 6 
#
# 1 0.084312 -0.012308 0.004371 0.000000 0.000000 0.000000
# 2 -0.012308 0.011625 -0.010652 0.000000 0.000000 0.000000
# 3 0.004371 -0.010652 0.026565 0.000000 0.000000 0.000000
# 4 0.000000 0.000000 0.000000 0.034018 0.000000 0.000000
# 5 0.000000 0.000000 0.000000 0.000000 0.136508 0.000000
# 6 0.000000 0.000000 0.000000 0.000000 0.000000 0.101205
#
#
# Mechanical properties :
#
#
# Convention : Reuss Voigt Hill
#
# Bulk Modulus (GPa) = 11.72033 46.99281 29.35657
# Shear Modulus (GPa) = 10.87303 19.49047 15.18175
#
# Velocity S-wave (km/s) = 2.38161 3.18864 2.81421
# Velocity P-wave (km/s) = 3.69822 6.17017 5.08664
#
# Compressibility (1/GPa) = 0.08532182
#
# Stress axis : x y z
#
# Youngs Moduli (GPa) = 11.86076 86.01930 37.64418
#
# Poissons Ratio (x) = 1.05873 -0.16453
# Poissons Ratio (y) = 0.14598 0.40100
# Poissons Ratio (z) = -0.05184 0.91630
#
# Static dielectric constant tensor:
#      x y z
#    x 1.644260 0.000000 0.000000 
#    y 0.000000 1.736990 0.000000 
#    z 0.000000 0.000000 1.633000 
# 
# From -- ./inp_files/10704.got.cif
#   From: 2010.05.17/outbox.cif.g08.bks.cpg/sg59_6_cif.got.tgz:10704.got - 2010.06.03 14:40:33.
