data_PCOD9450054
_publ_section_title
;
Structure prediction by ZEFSAII (Michael W. Deem and Ramdas Pophale) SiO2 
 PCOD9450054
Probable space group: P M M N
;
_chemical_formula_sum "Si O2"
_cell_formula_units_Z 64
_cell_length_a 14.389004
_cell_length_b 19.550178
_cell_length_c 12.500487
_cell_angle_alpha 90.000000
_cell_angle_beta 90.000000
_cell_angle_gamma 90.000000
_cell_volume 3516.481865
_symmetry_space_group_name_H-M "P M M N"
_symmetry_group_IT_number 59
_space_group.IT_coordinate_system_code '2'
_symmetry_cell_setting 'orthorhombic'
loop_
_space_group_symop_operation_xyz
x,y,z
1/2-x,1/2-y,z
1/2+x,-y,-z
-x,1/2+y,-z
-x,-y,-z
1/2+x,1/2+y,-z
1/2-x,y,z
x,1/2-y,z
loop_
_atom_site_type_symbol
_atom_site_label
_atom_site_fract_x
_atom_site_fract_y
_atom_site_fract_z
Si Si1 0.528908 0.327569 0.497762
Si Si2 0.145563 0.010816 0.208854
Si Si3 0.357232 0.096692 0.405386
Si Si4 0.139417 0.965024 0.554678
Si Si5 0.481393 0.176074 0.747582
Si Si6 0.357098 0.969157 0.970072
Si Si7 0.858485 0.325664 0.924203
Si Si8 0.054160 0.467828 0.765100
O O1 0.558101 0.250000 0.467143
O O2 0.431003 0.347699 0.442699
O O3 0.596106 0.391137 0.471052
O O4 0.513425 0.327710 0.625033
O O5 0.250000 0.983613 0.232944
O O6 0.136971 0.079378 0.279051
O O7 0.057551 0.967276 0.246387
O O8 0.138103 0.012292 0.080502
O O9 0.250000 0.113786 0.431007
O O10 0.380177 0.025154 0.467644
O O11 0.250000 0.958977 0.561498
O O12 0.098185 0.992428 0.666251
O O13 0.436058 0.250000 0.765055
O O14 0.570387 0.173268 0.825957
O O15 0.416758 0.111070 0.767994
O O16 0.250000 0.971145 0.933282
O O17 0.420619 0.996758 0.876274
O O18 0.379454 0.890925 0.002234
O O19 0.750000 0.333139 0.890793
O O20 0.866892 0.250000 0.975140
#
# Coordination Sequence:
#
# PCOD9450054 Si02
#       8
#     8   8   8   8   8   8   8   8
#     4  11  22  38  57  85 123 154 186 236 292 351
#     4  10  20  33  55  85 110 138 191 246 284 322
#     4  10  20  37  61  85 111 149 195 241 281 331
#     4  11  23  37  58  86 116 155 194 230 279 344
#     4  10  21  33  54  85 115 147 185 231 292 349
#     4  10  21  34  54  86 112 147 195 234 280 341
#     4   9  18  33  51  77 113 147 185 234 284 338
#     4  12  20  36  60  78 119 153 190 237 286 341
#
# _framework density 18.200008
#
# number of rings (size 3 to 8) (size 9 to 14) (size 15 to 20)
#    0.000    1.625    3.750    1.875    0.000    1.000 
#    0.000    1.875    0.000    3.750    0.000    1.750 
#    0.000    0.000    0.000    0.000    0.000    0.000 
#
# Total GULP energy -356770.868274 kJ/mol
# GULP energy per Si atom -5574.544817 kJ/mol
# Density = 1.815858 g / cm^3
# Si number density = 18.200008 Si / 1000 Ang^3
#
#
#
# Elastic Constant Matrix: (Units=GPa)
#
#
# Indices 1 2 3 4 5 6 
#
# 1 47.7904 25.9537 19.0747 0.0000 0.0000 0.0000
# 2 25.9537 117.6213 45.6287 0.0000 0.0000 0.0000
# 3 19.0747 45.6287 77.9597 0.0000 0.0000 0.0000
# 4 0.0000 0.0000 0.0000 24.4364 0.0000 0.0000
# 5 0.0000 0.0000 0.0000 0.0000 18.9763 0.0000
# 6 0.0000 0.0000 0.0000 0.0000 0.0000 9.7851
#
#
#
# Elastic Compliance Matrix: (Units=1/GPa)
#
#
# Indices 1 2 3 4 5 6 
#
# 1 0.024560 -0.003995 -0.003671 0.000000 0.000000 0.000000
# 2 -0.003995 0.011649 -0.005841 0.000000 0.000000 0.000000
# 3 -0.003671 -0.005841 0.017144 0.000000 0.000000 0.000000
# 4 0.000000 0.000000 0.000000 0.040922 0.000000 0.000000
# 5 0.000000 0.000000 0.000000 0.000000 0.052697 0.000000
# 6 0.000000 0.000000 0.000000 0.000000 0.000000 0.102196
#
#
# Mechanical properties :
#
#
# Convention : Reuss Voigt Hill
#
# Bulk Modulus (GPa) = 37.96603 47.18728 42.57665
# Shear Modulus (GPa) = 17.54625 20.82052 19.18338
#
# Velocity S-wave (km/s) = 3.10833 3.38595 3.25011
# Velocity P-wave (km/s) = 5.81275 6.42414 6.12608
#
# Compressibility (1/GPa) = 0.02633934
#
# Stress axis : x y z
#
# Youngs Moduli (GPa) = 40.71743 85.84334 58.33061
#
# Poissons Ratio (x) = 0.34296 0.21412
# Poissons Ratio (y) = 0.16267 0.34068
# Poissons Ratio (z) = 0.14946 0.50137
#
# Static dielectric constant tensor:
#      x y z
#    x 1.646680 0.000000 0.000000 
#    y 0.000000 1.743540 0.000000 
#    z 0.000000 0.000000 1.612830 
# 
# From -- ./inp_files/17266.got.cif
#   From: 2010.05.17/outbox.cif.g08.bks.cpg/sg59_9_cif.got.tgz:17266.got - 2010.06.03 14:40:33.
