data_PCOD9450749
_publ_section_title
;
Structure prediction by ZEFSAII (Michael W. Deem and Ramdas Pophale) SiO2 
 PCOD9450749
Probable space group: P M M N
;
_chemical_formula_sum "Si O2"
_cell_formula_units_Z 64
_cell_length_a 8.975739
_cell_length_b 19.738628
_cell_length_c 20.747114
_cell_angle_alpha 90.000000
_cell_angle_beta 90.000000
_cell_angle_gamma 90.000000
_cell_volume 3675.740734
_symmetry_space_group_name_H-M "P M M N"
_symmetry_group_IT_number 59
_space_group.IT_coordinate_system_code '2'
_symmetry_cell_setting 'orthorhombic'
loop_
_space_group_symop_operation_xyz
x,y,z
1/2-x,1/2-y,z
1/2+x,-y,-z
-x,1/2+y,-z
-x,-y,-z
1/2+x,1/2+y,-z
1/2-x,y,z
x,1/2-y,z
loop_
_atom_site_type_symbol
_atom_site_label
_atom_site_fract_x
_atom_site_fract_y
_atom_site_fract_z
Si Si1 0.928974 0.328233 0.607960
Si Si2 0.570681 0.437557 0.237743
Si Si3 0.928926 0.419856 0.729034
Si Si4 0.078714 0.167763 0.475371
Si Si5 0.072140 0.171516 0.838132
Si Si6 0.427951 0.403347 0.964128
Si Si7 0.430129 0.170274 0.331817
Si Si8 0.428537 0.552100 0.910698
O O1 0.750000 0.327055 0.606951
O O2 0.979797 0.250000 0.618905
O O3 0.975489 0.377664 0.665525
O O4 0.986949 0.351771 0.538296
O O5 0.750000 0.439604 0.240248
O O6 0.504232 0.506990 0.266135
O O7 0.507557 0.375291 0.278527
O O8 0.524960 0.433262 0.162371
O O9 0.750000 0.426627 0.728965
O O10 0.982446 0.376247 0.790168
O O11 0.250000 0.145871 0.482894
O O12 0.078413 0.250000 0.473636
O O13 0.024647 0.147225 0.404289
O O14 0.250000 0.157891 0.830628
O O15 0.044492 0.250000 0.823918
O O16 0.034064 0.153758 0.912061
O O17 0.250000 0.403684 0.973143
O O18 0.470240 0.475014 0.930418
O O19 0.503667 0.401060 0.033623
O O20 0.250000 0.164066 0.328455
O O21 0.465755 0.250000 0.324453
O O22 0.250000 0.556255 0.913318
#
# Coordination Sequence:
#
# PCOD9450749 Si02
#       8
#     8   8   8   8   8   8   8   8
#     4   9  18  32  50  75 107 140 177 222 265 309
#     4  11  22  37  56  80 110 141 178 221 267 320
#     4  11  22  35  52  76 109 146 184 223 266 315
#     4   8  15  30  53  78 103 134 173 216 262 316
#     4  10  20  35  54  77 109 145 179 221 270 318
#     4   9  17  32  52  75 101 131 173 217 259 312
#     4   9  19  37  59  83 109 135 170 218 270 324
#     4   9  18  33  52  74 101 132 170 217 261 307
#
# _framework density 17.411455
#
# number of rings (size 3 to 8) (size 9 to 14) (size 15 to 20)
#    0.000    2.500    1.250    1.875    0.000    4.000 
#    0.000    3.750    0.000    2.250    0.000    0.000 
#    0.000    0.000    0.000    0.000    0.000    0.000 
#
# Total GULP energy -356832.836158 kJ/mol
# GULP energy per Si atom -5575.513065 kJ/mol
# Density = 1.737183 g / cm^3
# Si number density = 17.411455 Si / 1000 Ang^3
#
#
#
# Elastic Constant Matrix: (Units=GPa)
#
#
# Indices 1 2 3 4 5 6 
#
# 1 24.9083 33.4472 42.9730 0.0000 0.0000 0.0000
# 2 33.4472 69.8051 61.8412 0.0000 0.0000 0.0000
# 3 42.9730 61.8412 159.9597 0.0000 0.0000 0.0000
# 4 0.0000 0.0000 0.0000 28.6788 0.0000 0.0000
# 5 0.0000 0.0000 0.0000 0.0000 35.5642 0.0000
# 6 0.0000 0.0000 0.0000 0.0000 0.0000 20.7903
#
#
#
# Elastic Compliance Matrix: (Units=1/GPa)
#
#
# Indices 1 2 3 4 5 6 
#
# 1 0.139090 -0.051014 -0.017644 0.000000 0.000000 0.000000
# 2 -0.051014 0.040498 -0.001952 0.000000 0.000000 0.000000
# 3 -0.017644 -0.001952 0.011746 0.000000 0.000000 0.000000
# 4 0.000000 0.000000 0.000000 0.034869 0.000000 0.000000
# 5 0.000000 0.000000 0.000000 0.000000 0.028118 0.000000
# 6 0.000000 0.000000 0.000000 0.000000 0.000000 0.048099
#
#
# Mechanical properties :
#
#
# Convention : Reuss Voigt Hill
#
# Bulk Modulus (GPa) = 19.95434 59.02176 39.48805
# Shear Modulus (GPa) = 10.86141 24.76745 17.81443
#
# Velocity S-wave (km/s) = 2.50033 3.77567 3.20213
# Velocity P-wave (km/s) = 4.45206 7.27870 6.03325
#
# Compressibility (1/GPa) = 0.05011441
#
# Stress axis : x y z
#
# Youngs Moduli (GPa) = 7.18961 24.69244 85.13328
#
# Poissons Ratio (x) = 1.25966 1.50210
# Poissons Ratio (y) = 0.36677 0.16618
# Poissons Ratio (z) = 0.12685 0.04820
#
# Static dielectric constant tensor:
#      x y z
#    x 1.586430 0.000000 0.000000 
#    y 0.000000 1.579710 0.000000 
#    z 0.000000 0.000000 1.595240 
# 
# From -- ./inp_files/26348.got.cif
#   From: 2010.05.17/outbox.cif.g08.bks.cpg/sg59_14_cif.got.tgz:26348.got - 2010.06.03 14:40:33.
