data_PCOD9450320
_publ_section_title
;
Structure prediction by ZEFSAII (Michael W. Deem and Ramdas Pophale) SiO2 
 PCOD9450320
Probable space group: P M M N
;
_chemical_formula_sum "Si O2"
_cell_formula_units_Z 64
_cell_length_a 8.820076
_cell_length_b 15.001695
_cell_length_c 26.772103
_cell_angle_alpha 90.000000
_cell_angle_beta 90.000000
_cell_angle_gamma 90.000000
_cell_volume 3542.379991
_symmetry_space_group_name_H-M "P M M N"
_symmetry_group_IT_number 59
_space_group.IT_coordinate_system_code '2'
_symmetry_cell_setting 'orthorhombic'
loop_
_space_group_symop_operation_xyz
x,y,z
1/2-x,1/2-y,z
1/2+x,-y,-z
-x,1/2+y,-z
-x,-y,-z
1/2+x,1/2+y,-z
1/2-x,y,z
x,1/2-y,z
loop_
_atom_site_type_symbol
_atom_site_label
_atom_site_fract_x
_atom_site_fract_y
_atom_site_fract_z
Si Si1 0.568039 0.495844 0.444927
Si Si2 0.933189 0.854145 0.630285
Si Si3 0.432867 0.502927 0.175775
Si Si4 0.571912 0.650430 0.899493
Si Si5 0.069797 0.598334 0.002370
Si Si6 0.423774 0.147913 0.893823
Si Si7 0.566950 0.495914 0.709657
Si Si8 0.932925 0.646111 0.365007
O O1 0.500000 0.500000 0.500000
O O2 0.750000 0.491198 0.446848
O O3 0.504587 0.409821 0.415345
O O4 0.526300 0.584904 0.413092
O O5 0.750000 0.855783 0.625522
O O6 0.979223 0.750000 0.632916
O O7 0.973288 0.914379 0.678776
O O8 0.250000 0.502988 0.176340
O O9 0.481550 0.419939 0.141416
O O10 0.491919 0.588637 0.146657
O O11 0.484237 0.498834 0.233003
O O12 0.750000 0.632073 0.910771
O O13 0.561282 0.750000 0.879197
O O14 0.482581 0.643846 0.951204
O O15 0.250000 0.595411 0.005576
O O16 0.003319 0.641234 0.052415
O O17 0.000000 0.500000 0.000000
O O18 0.250000 0.116981 0.899474
O O19 0.423702 0.250000 0.877757
O O20 0.750000 0.488885 0.708661
O O21 0.499672 0.410035 0.681304
O O22 0.750000 0.645930 0.361413
O O23 0.981870 0.750000 0.367517
#
# Coordination Sequence:
#
# PCOD9450320 Si02
#       8
#     8   8   8   8   8   8   8   8
#     4  10  20  34  53  80 114 148 184 228 275 325
#     4   9  18  34  56  80 109 147 188 228 272 324
#     4  10  21  37  57  81 111 145 178 221 275 326
#     4  10  21  37  57  82 111 143 179 218 264 322
#     4  12  23  37  59  83 109 142 178 219 270 325
#     4  11  24  40  58  81 109 143 182 223 269 325
#     4   9  19  35  55  81 109 139 181 229 274 319
#     4   9  19  36  56  77 104 143 186 224 270 326
#
# _framework density 18.066949999999999
#
# number of rings (size 3 to 8) (size 9 to 14) (size 15 to 20)
#    0.000    2.000    1.250    2.250    0.000    5.750 
#    0.000    6.250    0.000    0.000    0.000    3.500 
#    0.000    0.000    0.000    0.000    0.000    0.000 
#
# Total GULP energy -357149.360640 kJ/mol
# GULP energy per Si atom -5580.458760 kJ/mol
# Density = 1.802583 g / cm^3
# Si number density = 18.066950 Si / 1000 Ang^3
#
#
#
# Elastic Constant Matrix: (Units=GPa)
#
#
# Indices 1 2 3 4 5 6 
#
# 1 21.4803 23.0640 33.9208 0.0000 0.0000 0.0000
# 2 23.0640 145.1969 75.3969 0.0000 0.0000 0.0000
# 3 33.9208 75.3969 170.1792 0.0000 0.0000 0.0000
# 4 0.0000 0.0000 0.0000 32.6684 0.0000 0.0000
# 5 0.0000 0.0000 0.0000 0.0000 27.2396 0.0000
# 6 0.0000 0.0000 0.0000 0.0000 0.0000 24.6372
#
#
#
# Elastic Compliance Matrix: (Units=1/GPa)
#
#
# Indices 1 2 3 4 5 6 
#
# 1 0.070714 -0.005083 -0.011843 0.000000 0.000000 0.000000
# 2 -0.005083 0.009310 -0.003112 0.000000 0.000000 0.000000
# 3 -0.011843 -0.003112 0.009615 0.000000 0.000000 0.000000
# 4 0.000000 0.000000 0.000000 0.030611 0.000000 0.000000
# 5 0.000000 0.000000 0.000000 0.000000 0.036711 0.000000
# 6 0.000000 0.000000 0.000000 0.000000 0.000000 0.040589
#
#
# Mechanical properties :
#
#
# Convention : Reuss Voigt Hill
#
# Bulk Modulus (GPa) = 20.17576 66.84664 43.51120
# Shear Modulus (GPa) = 19.67359 30.54070 25.10714
#
# Velocity S-wave (km/s) = 3.30347 4.11593 3.73188
# Velocity P-wave (km/s) = 5.07366 7.72448 6.53489
#
# Compressibility (1/GPa) = 0.04956443
#
# Stress axis : x y z
#
# Youngs Moduli (GPa) = 14.14146 107.40586 103.99940
#
# Poissons Ratio (x) = 0.54593 1.23167
# Poissons Ratio (y) = 0.07188 0.32363
# Poissons Ratio (z) = 0.16748 0.33423
#
# Static dielectric constant tensor:
#      x y z
#    x 1.618020 0.000000 0.000000 
#    y 0.000000 1.332130 0.000000 
#    z 0.000000 0.000000 1.594680 
# 
# From -- ./inp_files/31595.got.cif
#   From: 2010.05.17/outbox.cif.g08.bks.cpg/sg59_16_cif.got.tgz:31595.got - 2010.06.03 14:40:33.
