data_PCOD9450930
_publ_section_title
;
Structure prediction by ZEFSAII (Michael W. Deem and Ramdas Pophale) SiO2 
 PCOD9450930
Probable space group: P M M N
;
_chemical_formula_sum "Si O2"
_cell_formula_units_Z 64
_cell_length_a 8.930931
_cell_length_b 29.262504
_cell_length_c 12.948520
_cell_angle_alpha 90.000000
_cell_angle_beta 90.000000
_cell_angle_gamma 90.000000
_cell_volume 3383.984398
_symmetry_space_group_name_H-M "P M M N"
_symmetry_group_IT_number 59
_space_group.IT_coordinate_system_code '2'
_symmetry_cell_setting 'orthorhombic'
loop_
_space_group_symop_operation_xyz
x,y,z
1/2-x,1/2-y,z
1/2+x,-y,-z
-x,1/2+y,-z
-x,-y,-z
1/2+x,1/2+y,-z
1/2-x,y,z
x,1/2-y,z
loop_
_atom_site_type_symbol
_atom_site_label
_atom_site_fract_x
_atom_site_fract_y
_atom_site_fract_z
Si Si1 0.428848 0.888486 0.353442
Si Si2 0.419372 0.305248 0.316554
Si Si3 0.571320 0.196917 0.099571
Si Si4 0.929506 0.607410 0.962055
Si Si5 0.068787 0.950638 0.780247
Si Si6 0.429896 0.697025 0.469489
Si Si7 0.570164 0.554917 0.168691
Si Si8 0.570566 0.046329 0.456545
O O1 0.250000 0.890997 0.337122
O O2 0.471458 0.836144 0.375734
O O3 0.508207 0.913577 0.259886
O O4 0.463668 0.914896 0.459991
O O5 0.250000 0.322809 0.304366
O O6 0.411765 0.250000 0.321476
O O7 0.518697 0.314695 0.216278
O O8 0.493714 0.319100 0.424222
O O9 0.750000 0.193639 0.092461
O O10 0.528439 0.250000 0.079005
O O11 0.494011 0.158645 0.029538
O O12 0.750000 0.609123 0.957795
O O13 0.993960 0.584241 0.858997
O O14 0.976350 0.575965 0.058958
O O15 0.250000 0.946480 0.786946
O O16 0.022929 0.943585 0.660871
O O17 0.025009 0.002351 0.812845
O O18 0.250000 0.693985 0.483718
O O19 0.468129 0.750000 0.451422
O O20 0.750000 0.555631 0.172647
O O21 0.750000 0.040639 0.453209
O O22 0.500000 0.000000 0.500000
#
# Coordination Sequence:
#
# PCOD9450930 Si02
#       8
#     8   8   8   8   8   8   8   8
#     4  10  21  35  56  84 113 149 193 240 287 341
#     4   9  17  30  50  78 111 145 182 228 281 334
#     4  10  21  38  59  82 111 149 190 233 287 346
#     4  11  24  39  59  88 116 148 196 243 288 342
#     4  10  21  38  60  85 118 154 189 234 287 346
#     4   9  18  33  52  77 112 153 194 236 284 339
#     4  10  22  41  60  81 113 154 194 238 292 344
#     4  10  20  35  56  84 116 149 185 231 285 345
#
# _framework density 18.912617000000001
#
# number of rings (size 3 to 8) (size 9 to 14) (size 15 to 20)
#    0.000    2.125    1.250    1.500    1.750    4.750 
#    0.000    0.625    0.000    2.250    0.000    0.000 
#    0.000    0.000    0.000    0.000    0.000    0.000 
#
# Total GULP energy -357271.984442 kJ/mol
# GULP energy per Si atom -5582.374757 kJ/mol
# Density = 1.886957 g / cm^3
# Si number density = 18.912617 Si / 1000 Ang^3
#
#
#
# Elastic Constant Matrix: (Units=GPa)
#
#
# Indices 1 2 3 4 5 6 
#
# 1 20.5606 24.0668 23.6274 0.0000 0.0000 0.0000
# 2 24.0668 76.9002 39.8476 0.0000 0.0000 0.0000
# 3 23.6274 39.8476 98.1218 0.0000 0.0000 0.0000
# 4 0.0000 0.0000 0.0000 20.2099 0.0000 0.0000
# 5 0.0000 0.0000 0.0000 0.0000 29.4211 0.0000
# 6 0.0000 0.0000 0.0000 0.0000 0.0000 26.4430
#
#
#
# Elastic Compliance Matrix: (Units=1/GPa)
#
#
# Indices 1 2 3 4 5 6 
#
# 1 0.087550 -0.020867 -0.012608 0.000000 0.000000 0.000000
# 2 -0.020867 0.021443 -0.003683 0.000000 0.000000 0.000000
# 3 -0.012608 -0.003683 0.014723 0.000000 0.000000 0.000000
# 4 0.000000 0.000000 0.000000 0.049481 0.000000 0.000000
# 5 0.000000 0.000000 0.000000 0.000000 0.033989 0.000000
# 6 0.000000 0.000000 0.000000 0.000000 0.000000 0.037817
#
#
# Mechanical properties :
#
#
# Convention : Reuss Voigt Hill
#
# Bulk Modulus (GPa) = 20.24276 41.18514 30.71395
# Shear Modulus (GPa) = 14.89043 22.41753 18.65398
#
# Velocity S-wave (km/s) = 2.80898 3.44658 3.14399
# Velocity P-wave (km/s) = 4.60945 6.13697 5.42722
#
# Compressibility (1/GPa) = 0.04940038
#
# Stress axis : x y z
#
# Youngs Moduli (GPa) = 11.42203 46.63509 67.92034
#
# Poissons Ratio (x) = 0.97313 0.85631
# Poissons Ratio (y) = 0.23834 0.25018
# Poissons Ratio (z) = 0.14400 0.17178
#
# Static dielectric constant tensor:
#      x y z
#    x 1.642540 0.000000 0.000000 
#    y 0.000000 1.680110 0.000000 
#    z 0.000000 0.000000 1.630880 
# 
# From -- ./inp_files/15086.got.cif
#   From: 2010.05.17/outbox.cif.g08.bks.cpg/sg59_8_cif.got.tgz:15086.got - 2010.06.03 14:40:33.
