data_PCOD9450606
_publ_section_title
;
Structure prediction by ZEFSAII (Michael W. Deem and Ramdas Pophale) SiO2 
 PCOD9450606
Probable space group: P M M N
;
_chemical_formula_sum "Si O2"
_cell_formula_units_Z 48
_cell_length_a 8.428317
_cell_length_b 15.914345
_cell_length_c 18.391319
_cell_angle_alpha 90.000000
_cell_angle_beta 90.000000
_cell_angle_gamma 90.000000
_cell_volume 2466.848666
_symmetry_space_group_name_H-M "P M M N"
_symmetry_group_IT_number 59
_space_group.IT_coordinate_system_code '2'
_symmetry_cell_setting 'orthorhombic'
loop_
_space_group_symop_operation_xyz
x,y,z
1/2-x,1/2-y,z
1/2+x,-y,-z
-x,1/2+y,-z
-x,-y,-z
1/2+x,1/2+y,-z
1/2-x,y,z
x,1/2-y,z
loop_
_atom_site_type_symbol
_atom_site_label
_atom_site_fract_x
_atom_site_fract_y
_atom_site_fract_z
Si Si1 0.056456 0.250000 0.709392
Si Si2 0.943871 0.750000 0.458245
Si Si3 0.056460 0.250000 0.207158
Si Si4 0.059529 0.250000 0.039375
Si Si5 0.561249 0.083056 0.959350
Si Si6 0.057738 0.418840 0.290061
Si Si7 0.558179 0.917934 0.541891
Si Si8 0.440414 0.082662 0.794420
O O1 0.250000 0.250000 0.708778
O O2 0.004059 0.250000 0.625588
O O3 0.005575 0.333728 0.751656
O O4 0.750000 0.750000 0.458165
O O5 0.995095 0.666248 0.500372
O O6 0.250000 0.250000 0.207281
O O7 0.004886 0.250000 0.123338
O O8 0.005837 0.334032 0.249038
O O9 0.250000 0.250000 0.038952
O O10 0.001520 0.333466 0.998899
O O11 0.750000 0.083169 0.961501
O O12 0.504928 0.082220 0.876073
O O13 0.500000 0.000000 0.000000
O O14 0.250000 0.420486 0.288840
O O15 0.006211 0.418320 0.374125
O O16 0.995731 0.500394 0.248558
O O17 0.750000 0.917771 0.541602
O O18 0.500000 0.000000 0.500000
O O19 0.250000 0.083865 0.797335
#
# Coordination Sequence:
#
# PCOD9450606 Si02
#       8
#     4   4   4   4   8   8   8   8
#     4   9  19  34  55  81 112 149 192 236 282 340
#     4   9  17  33  55  80 110 151 195 233 278 342
#     4   9  19  36  59  82 110 147 188 231 280 338
#     4  11  22  39  63  91 122 159 199 244 298 362
#     4  12  25  42  63  89 121 159 201 249 300 356
#     4  10  20  36  57  84 114 149 192 239 289 346
#     4  10  20  34  56  82 112 149 193 240 287 342
#     4  11  22  38  60  86 115 151 192 240 295 354
#
# _framework density 19.458024000000002
#
# number of rings (size 3 to 8) (size 9 to 14) (size 15 to 20)
#    0.000    1.667    0.000    5.250    0.000    6.000 
#    0.000    2.917    0.000    6.000    0.000    0.000 
#    0.000    0.000    0.000    0.000    0.000    0.000 
#
# Total GULP energy -268381.367641 kJ/mol
# GULP energy per Si atom -5591.278493 kJ/mol
# Density = 1.941374 g / cm^3
# Si number density = 19.458024 Si / 1000 Ang^3
#
#
#
# Elastic Constant Matrix: (Units=GPa)
#
#
# Indices 1 2 3 4 5 6 
#
# 1 44.5946 40.7086 44.7298 0.0000 0.0000 0.0000
# 2 40.7086 246.9007 153.2247 0.0000 0.0000 0.0000
# 3 44.7298 153.2247 248.5294 0.0000 0.0000 0.0000
# 4 0.0000 0.0000 0.0000 47.5070 0.0000 0.0000
# 5 0.0000 0.0000 0.0000 0.0000 24.9161 0.0000
# 6 0.0000 0.0000 0.0000 0.0000 0.0000 34.6001
#
#
#
# Elastic Compliance Matrix: (Units=1/GPa)
#
#
# Indices 1 2 3 4 5 6 
#
# 1 0.028238 -0.002433 -0.003582 0.000000 0.000000 0.000000
# 2 -0.002433 0.006770 -0.003736 0.000000 0.000000 0.000000
# 3 -0.003582 -0.003736 0.006972 0.000000 0.000000 0.000000
# 4 0.000000 0.000000 0.000000 0.021050 0.000000 0.000000
# 5 0.000000 0.000000 0.000000 0.000000 0.040135 0.000000
# 6 0.000000 0.000000 0.000000 0.000000 0.000000 0.028902
#
#
# Mechanical properties :
#
#
# Convention : Reuss Voigt Hill
#
# Bulk Modulus (GPa) = 44.48856 113.03898 78.76377
# Shear Modulus (GPa) = 31.43465 41.49543 36.46504
#
# Velocity S-wave (km/s) = 4.02370 4.62298 4.33371
# Velocity P-wave (km/s) = 6.67086 9.31213 8.09988
#
# Compressibility (1/GPa) = 0.02247769
#
# Stress axis : x y z
#
# Youngs Moduli (GPa) = 35.41300 147.71524 143.43644
#
# Poissons Ratio (x) = 0.35933 0.51386
# Poissons Ratio (y) = 0.08615 0.53587
# Poissons Ratio (z) = 0.12687 0.55185
#
# Static dielectric constant tensor:
#      x y z
#    x 1.678850 0.000000 0.000000 
#    y 0.000000 1.634450 0.000000 
#    z 0.000000 0.000000 1.654810 
# 
# From -- ./inp_files/25637.got.cif
#   From: 2010.05.17/outbox.cif.g08.bks.cpg/sg59_13_cif.got.tgz:25637.got - 2010.06.03 14:40:33.
