data_PCOD9450454
_publ_section_title
;
Structure prediction by ZEFSAII (Michael W. Deem and Ramdas Pophale) SiO2 
 PCOD9450454
Probable space group: P M M N
;
_chemical_formula_sum "Si O2"
_cell_formula_units_Z 64
_cell_length_a 26.705030
_cell_length_b 9.384688
_cell_length_c 13.542449
_cell_angle_alpha 90.000000
_cell_angle_beta 90.000000
_cell_angle_gamma 90.000000
_cell_volume 3393.986556
_symmetry_space_group_name_H-M "P M M N"
_symmetry_group_IT_number 59
_space_group.IT_coordinate_system_code '2'
_symmetry_cell_setting 'orthorhombic'
loop_
_space_group_symop_operation_xyz
x,y,z
1/2-x,1/2-y,z
1/2+x,-y,-z
-x,1/2+y,-z
-x,-y,-z
1/2+x,1/2+y,-z
1/2-x,y,z
x,1/2-y,z
loop_
_atom_site_type_symbol
_atom_site_label
_atom_site_fract_x
_atom_site_fract_y
_atom_site_fract_z
Si Si1 0.460652 0.408470 0.558139
Si Si2 0.021457 0.918144 0.907902
Si Si3 0.153071 0.420282 0.527371
Si Si4 0.190559 0.079069 0.099788
Si Si5 0.467699 0.912698 0.260632
Si Si6 0.359873 0.921216 0.913030
Si Si7 0.808336 0.086916 0.288996
Si Si8 0.366993 0.078839 0.305845
O O1 0.500000 0.500000 0.500000
O O2 0.458955 0.250000 0.514266
O O3 0.404347 0.462202 0.552969
O O4 0.485753 0.401388 0.664590
O O5 0.014298 0.750000 0.915323
O O6 0.080799 0.945728 0.903377
O O7 0.988763 0.981406 0.820310
O O8 0.000000 0.000000 0.000000
O O9 0.158549 0.250000 0.540467
O O10 0.184610 0.500377 0.610117
O O11 0.160600 0.450749 0.410719
O O12 0.250000 0.044764 0.102342
O O13 0.185865 0.250000 0.085044
O O14 0.164596 0.047162 0.206210
O O15 0.163593 0.998530 0.008800
O O16 0.456303 0.750000 0.227038
O O17 0.417720 0.985379 0.304401
O O18 0.351244 0.750000 0.922372
O O19 0.336052 0.969817 0.808745
O O20 0.750000 0.089896 0.264203
O O21 0.825898 0.250000 0.305307
O O22 0.377978 0.250000 0.305393
#
# Coordination Sequence:
#
# PCOD9450454 Si02
#       8
#     8   8   8   8   8   8   8   8
#     4  10  20  34  54  82 113 148 190 233 276 331
#     4  11  23  38  58  85 118 155 193 236 289 348
#     4  10  21  37  58  86 118 154 197 239 286 345
#     4  10  22  39  60  86 112 143 187 239 292 343
#     4  11  22  35  55  85 119 154 192 235 282 338
#     4  10  22  41  63  86 113 150 194 240 292 350
#     4  10  22  40  61  85 114 149 192 244 300 352
#     4  10  21  38  59  83 117 157 195 235 284 344
#
# _framework density 18.856881000000001
#
# number of rings (size 3 to 8) (size 9 to 14) (size 15 to 20)
#    0.000    1.750    1.250    2.625    0.000    7.000 
#    0.000    1.250    0.000    0.000    0.000    0.000 
#    0.000    0.000    0.000    0.000    0.000    0.000 
#
# Total GULP energy -356942.092575 kJ/mol
# GULP energy per Si atom -5577.220196 kJ/mol
# Density = 1.881396 g / cm^3
# Si number density = 18.856881 Si / 1000 Ang^3
#
#
#
# Elastic Constant Matrix: (Units=GPa)
#
#
# Indices 1 2 3 4 5 6 
#
# 1 49.2051 32.8573 36.5426 0.0000 0.0000 0.0000
# 2 32.8573 52.9572 48.9020 0.0000 0.0000 0.0000
# 3 36.5426 48.9020 138.9011 0.0000 0.0000 0.0000
# 4 0.0000 0.0000 0.0000 33.4019 0.0000 0.0000
# 5 0.0000 0.0000 0.0000 0.0000 36.2757 0.0000
# 6 0.0000 0.0000 0.0000 0.0000 0.0000 27.9133
#
#
#
# Elastic Compliance Matrix: (Units=1/GPa)
#
#
# Indices 1 2 3 4 5 6 
#
# 1 0.035201 -0.019690 -0.002329 0.000000 0.000000 0.000000
# 2 -0.019690 0.038993 -0.008548 0.000000 0.000000 0.000000
# 3 -0.002329 -0.008548 0.010821 0.000000 0.000000 0.000000
# 4 0.000000 0.000000 0.000000 0.029938 0.000000 0.000000
# 5 0.000000 0.000000 0.000000 0.000000 0.027567 0.000000
# 6 0.000000 0.000000 0.000000 0.000000 0.000000 0.035825
#
#
# Mechanical properties :
#
#
# Convention : Reuss Voigt Hill
#
# Bulk Modulus (GPa) = 41.87214 53.07412 47.47313
# Shear Modulus (GPa) = 20.20697 27.70227 23.95462
#
# Velocity S-wave (km/s) = 3.27708 3.83702 3.56805
# Velocity P-wave (km/s) = 6.04751 6.91644 6.49652
#
# Compressibility (1/GPa) = 0.02388223
#
# Stress axis : x y z
#
# Youngs Moduli (GPa) = 28.40855 25.64554 92.40938
#
# Poissons Ratio (x) = 0.50496 0.21519
# Poissons Ratio (y) = 0.55936 0.78991
# Poissons Ratio (z) = 0.06615 0.21922
#
# Static dielectric constant tensor:
#      x y z
#    x 1.907750 0.000000 0.000000 
#    y 0.000000 1.683790 0.000000 
#    z 0.000000 0.000000 1.610610 
# 
# From -- ./inp_files/19358.got.cif
#   From: 2010.05.17/outbox.cif.g08.bks.cpg/sg59_10_cif.got.tgz:19358.got - 2010.06.03 14:40:33.
