data_PCOD9450926
_publ_section_title
;
Structure prediction by ZEFSAII (Michael W. Deem and Ramdas Pophale) SiO2 
 PCOD9450926
Probable space group: P M M N
;
_chemical_formula_sum "Si O2"
_cell_formula_units_Z 56
_cell_length_a 8.680582
_cell_length_b 13.698423
_cell_length_c 23.654150
_cell_angle_alpha 90.000000
_cell_angle_beta 90.000000
_cell_angle_gamma 90.000000
_cell_volume 2812.721697
_symmetry_space_group_name_H-M "P M M N"
_symmetry_group_IT_number 59
_space_group.IT_coordinate_system_code '2'
_symmetry_cell_setting 'orthorhombic'
loop_
_space_group_symop_operation_xyz
x,y,z
1/2-x,1/2-y,z
1/2+x,-y,-z
-x,1/2+y,-z
-x,-y,-z
1/2+x,1/2+y,-z
1/2-x,y,z
x,1/2-y,z
loop_
_atom_site_type_symbol
_atom_site_label
_atom_site_fract_x
_atom_site_fract_y
_atom_site_fract_z
Si Si1 0.434249 0.939234 0.415060
Si Si2 0.935317 0.858129 0.530153
Si Si3 0.566184 0.105773 0.005214
Si Si4 0.580402 0.863014 0.874134
Si Si5 0.934760 0.931216 0.293821
Si Si6 0.934568 0.136276 0.242955
Si Si7 0.436079 0.750000 0.222092
Si Si8 0.063222 0.750000 0.092028
O O1 0.250000 0.932957 0.409400
O O2 0.488671 0.878225 0.469407
O O3 0.514040 0.907499 0.357490
O O4 0.478362 0.051770 0.429587
O O5 0.750000 0.862141 0.523390
O O6 0.977249 0.750000 0.551015
O O7 0.750000 0.111818 0.007489
O O8 0.515286 0.161065 0.948398
O O9 0.500931 0.138297 0.065486
O O10 0.500000 0.000000 0.000000
O O11 0.750000 0.911062 0.877665
O O12 0.601598 0.750000 0.860563
O O13 0.482685 0.897027 0.820549
O O14 0.750000 0.928451 0.288710
O O15 0.004614 0.848280 0.252919
O O16 0.987113 0.043607 0.280655
O O17 0.750000 0.140400 0.246031
O O18 0.987471 0.250000 0.254980
O O19 0.250000 0.750000 0.223540
O O20 0.489899 0.750000 0.156401
O O21 0.250000 0.750000 0.094661
#
# Coordination Sequence:
#
# PCOD9450926 Si02
#       8
#     8   8   8   8   8   8   4   4
#     4  10  21  37  59  90 123 160 206 252 302 361
#     4   9  19  37  61  89 124 163 201 251 305 354
#     4  11  22  38  59  86 115 151 191 238 302 366
#     4  10  20  35  56  84 114 147 189 238 294 359
#     4  11  24  42  63  90 123 164 211 259 310 367
#     4   9  20  39  62  87 118 158 201 251 311 375
#     4  11  25  45  65  87 119 167 216 261 308 361
#     4   9  22  43  63  85 119 157 196 247 306 365
#
# _framework density 19.909541000000001
#
# number of rings (size 3 to 8) (size 9 to 14) (size 15 to 20)
#    0.000    2.000    0.714    1.929    3.000    3.143 
#    0.000    2.143    0.000    0.000    0.000    0.000 
#    0.000    0.000    0.000    0.000    0.000    0.000 
#
# Total GULP energy -312111.762616 kJ/mol
# GULP energy per Si atom -5573.424332 kJ/mol
# Density = 1.986423 g / cm^3
# Si number density = 19.909541 Si / 1000 Ang^3
#
#
#
# Elastic Constant Matrix: (Units=GPa)
#
#
# Indices 1 2 3 4 5 6 
#
# 1 24.2071 13.6357 4.9010 0.0000 0.0000 0.0000
# 2 13.6357 89.6890 14.5900 0.0000 0.0000 0.0000
# 3 4.9010 14.5900 86.7518 0.0000 0.0000 0.0000
# 4 0.0000 0.0000 0.0000 15.6954 0.0000 0.0000
# 5 0.0000 0.0000 0.0000 0.0000 20.4714 0.0000
# 6 0.0000 0.0000 0.0000 0.0000 0.0000 21.1414
#
#
#
# Elastic Compliance Matrix: (Units=1/GPa)
#
#
# Indices 1 2 3 4 5 6 
#
# 1 0.045354 -0.006661 -0.001442 0.000000 0.000000 0.000000
# 2 -0.006661 0.012441 -0.001716 0.000000 0.000000 0.000000
# 3 -0.001442 -0.001716 0.011897 0.000000 0.000000 0.000000
# 4 0.000000 0.000000 0.000000 0.063713 0.000000 0.000000
# 5 0.000000 0.000000 0.000000 0.000000 0.048849 0.000000
# 6 0.000000 0.000000 0.000000 0.000000 0.000000 0.047301
#
#
# Mechanical properties :
#
#
# Convention : Reuss Voigt Hill
#
# Bulk Modulus (GPa) = 19.97803 29.65569 24.81686
# Shear Modulus (GPa) = 18.80563 22.62971 20.71767
#
# Velocity S-wave (km/s) = 3.07669 3.37505 3.22932
# Velocity P-wave (km/s) = 4.76210 5.48776 5.13775
#
# Compressibility (1/GPa) = 0.05005499
#
# Stress axis : x y z
#
# Youngs Moduli (GPa) = 22.04874 80.37650 84.05325
#
# Poissons Ratio (x) = 0.53536 0.12121
# Poissons Ratio (y) = 0.14686 0.14425
# Poissons Ratio (z) = 0.03179 0.13794
#
# Static dielectric constant tensor:
#      x y z
#    x 1.680410 0.000000 0.000000 
#    y 0.000000 1.736470 0.000000 
#    z 0.000000 0.000000 1.682120 
# 
# From -- ./inp_files/29202.got.cif
#   From: 2010.05.17/outbox.cif.g08.bks.cpg/sg59_15_cif.got.tgz:29202.got - 2010.06.03 14:40:33.
