data_PCOD9450836
_publ_section_title
;
Structure prediction by ZEFSAII (Michael W. Deem and Ramdas Pophale) SiO2 
 PCOD9450836
Probable space group: P M M N
;
_chemical_formula_sum "Si O2"
_cell_formula_units_Z 64
_cell_length_a 29.143974
_cell_length_b 9.070161
_cell_length_c 12.968531
_cell_angle_alpha 90.000000
_cell_angle_beta 90.000000
_cell_angle_gamma 90.000000
_cell_volume 3428.108440
_symmetry_space_group_name_H-M "P M M N"
_symmetry_group_IT_number 59
_space_group.IT_coordinate_system_code '2'
_symmetry_cell_setting 'orthorhombic'
loop_
_space_group_symop_operation_xyz
x,y,z
1/2-x,1/2-y,z
1/2+x,-y,-z
-x,1/2+y,-z
-x,-y,-z
1/2+x,1/2+y,-z
1/2-x,y,z
x,1/2-y,z
loop_
_atom_site_type_symbol
_atom_site_label
_atom_site_fract_x
_atom_site_fract_y
_atom_site_fract_z
Si Si1 0.883261 0.426138 0.863945
Si Si2 0.803352 0.573801 0.391584
Si Si3 0.552733 0.073199 0.669701
Si Si4 0.303930 0.424758 0.035909
Si Si5 0.046155 0.572629 0.956657
Si Si6 0.455699 0.572355 0.720253
Si Si7 0.390044 0.927236 0.533925
Si Si8 0.694583 0.416099 0.176392
O O1 0.875378 0.250000 0.864330
O O2 0.913206 0.463185 0.763906
O O3 0.835619 0.510526 0.874739
O O4 0.913497 0.465284 0.964278
O O5 0.750000 0.534553 0.413752
O O6 0.806565 0.750000 0.389222
O O7 0.840734 0.504785 0.467703
O O8 0.815369 0.507161 0.279111
O O9 0.545230 0.250000 0.671271
O O10 0.577806 0.035021 0.562967
O O11 0.504415 0.994051 0.686375
O O12 0.250000 0.455307 0.052612
O O13 0.309623 0.250000 0.025684
O O14 0.318291 0.503710 0.929075
O O15 0.040968 0.750000 0.958798
O O16 0.054603 0.527744 0.838237
O O17 0.000000 0.500000 0.000000
O O18 0.458777 0.750000 0.717655
O O19 0.417068 0.528960 0.637929
O O20 0.383624 0.750000 0.534518
O O21 0.750000 0.405439 0.173433
O O22 0.675172 0.250000 0.181713
#
# Coordination Sequence:
#
# PCOD9450836 Si02
#       8
#     8   8   8   8   8   8   8   8
#     4  10  21  36  56  81 112 150 191 233 281 340
#     4  10  21  37  56  82 115 148 187 236 287 337
#     4  10  21  39  59  81 111 149 191 238 286 338
#     4  10  21  36  54  81 115 149 190 237 283 336
#     4  10  20  35  55  82 114 146 182 226 277 338
#     4  10  21  36  57  85 115 146 184 233 284 341
#     4  10  22  38  58  84 112 147 194 238 283 340
#     4   9  17  31  53  78 107 145 182 221 275 333
#
# _framework density 18.669188999999999
#
# number of rings (size 3 to 8) (size 9 to 14) (size 15 to 20)
#    0.000    2.125    1.250    1.500    1.750    5.000 
#    0.000    0.625    0.000    3.750    0.000    0.000 
#    0.000    0.000    0.000    0.000    0.000    0.000 
#
# Total GULP energy -357356.368162 kJ/mol
# GULP energy per Si atom -5583.693253 kJ/mol
# Density = 1.862670 g / cm^3
# Si number density = 18.669189 Si / 1000 Ang^3
#
#
#
# Elastic Constant Matrix: (Units=GPa)
#
#
# Indices 1 2 3 4 5 6 
#
# 1 76.0149 33.2965 50.3353 0.0000 0.0000 0.0000
# 2 33.2965 30.2811 25.1832 0.0000 0.0000 0.0000
# 3 50.3353 25.1832 104.8495 0.0000 0.0000 0.0000
# 4 0.0000 0.0000 0.0000 22.3714 0.0000 0.0000
# 5 0.0000 0.0000 0.0000 0.0000 18.5570 0.0000
# 6 0.0000 0.0000 0.0000 0.0000 0.0000 32.5661
#
#
#
# Elastic Compliance Matrix: (Units=1/GPa)
#
#
# Indices 1 2 3 4 5 6 
#
# 1 0.030038 -0.026287 -0.008107 0.000000 0.000000 0.000000
# 2 -0.026287 0.064272 -0.002817 0.000000 0.000000 0.000000
# 3 -0.008107 -0.002817 0.014106 0.000000 0.000000 0.000000
# 4 0.000000 0.000000 0.000000 0.044700 0.000000 0.000000
# 5 0.000000 0.000000 0.000000 0.000000 0.053888 0.000000
# 6 0.000000 0.000000 0.000000 0.000000 0.000000 0.030707
#
#
# Mechanical properties :
#
#
# Convention : Reuss Voigt Hill
#
# Bulk Modulus (GPa) = 29.41754 47.64174 38.52964
# Shear Modulus (GPa) = 15.45772 21.52093 18.48932
#
# Velocity S-wave (km/s) = 2.88059 3.39890 3.15042
# Velocity P-wave (km/s) = 5.18220 6.40138 5.82378
#
# Compressibility (1/GPa) = 0.03399332
#
# Stress axis : x y z
#
# Youngs Moduli (GPa) = 33.29150 15.55895 70.89243
#
# Poissons Ratio (x) = 0.40900 0.57469
# Poissons Ratio (y) = 0.87514 0.19973
# Poissons Ratio (z) = 0.26988 0.04384
#
# Static dielectric constant tensor:
#      x y z
#    x 1.638460 0.000000 0.000000 
#    y 0.000000 1.627410 0.000000 
#    z 0.000000 0.000000 1.641450 
# 
# From -- ./inp_files/19222.got.cif
#   From: 2010.05.17/outbox.cif.g08.bks.cpg/sg59_10_cif.got.tgz:19222.got - 2010.06.03 14:40:33.
