data_PCOD9450633
_publ_section_title
;
Structure prediction by ZEFSAII (Michael W. Deem and Ramdas Pophale) SiO2 
 PCOD9450633
Probable space group: P M M N
;
_chemical_formula_sum "Si O2"
_cell_formula_units_Z 56
_cell_length_a 8.050641
_cell_length_b 23.147097
_cell_length_c 15.118202
_cell_angle_alpha 90.000000
_cell_angle_beta 90.000000
_cell_angle_gamma 90.000000
_cell_volume 2817.261343
_symmetry_space_group_name_H-M "P M M N"
_symmetry_group_IT_number 59
_space_group.IT_coordinate_system_code '2'
_symmetry_cell_setting 'orthorhombic'
loop_
_space_group_symop_operation_xyz
x,y,z
1/2-x,1/2-y,z
1/2+x,-y,-z
-x,1/2+y,-z
-x,-y,-z
1/2+x,1/2+y,-z
1/2-x,y,z
x,1/2-y,z
loop_
_atom_site_type_symbol
_atom_site_label
_atom_site_fract_x
_atom_site_fract_y
_atom_site_fract_z
Si Si1 0.945079 0.578893 0.804906
Si Si2 0.058485 0.028412 0.908342
Si Si3 0.446848 0.186942 0.082371
Si Si4 0.951434 0.075381 0.581709
Si Si5 0.057971 0.654869 0.110834
Si Si6 0.052803 0.946404 0.618236
Si Si7 0.546893 0.313983 0.694255
O O1 0.750000 0.571297 0.826013
O O2 0.012398 0.633130 0.860865
O O3 0.036251 0.520867 0.835484
O O4 0.968027 0.584968 0.700431
O O5 0.250000 0.045872 0.916561
O O6 0.955577 0.085500 0.887111
O O7 0.000000 0.000000 0.000000
O O8 0.250000 0.188509 0.100167
O O9 0.517616 0.250000 0.104775
O O10 0.471026 0.175686 0.978356
O O11 0.750000 0.073666 0.584292
O O12 0.002638 0.075219 0.478612
O O13 0.008045 0.131874 0.635020
O O14 0.013908 0.014904 0.621471
O O15 0.250000 0.672406 0.103671
O O16 0.991669 0.677953 0.204097
O O17 0.250000 0.938261 0.624877
O O18 0.750000 0.315991 0.695226
O O19 0.498352 0.250000 0.662562
#
# Coordination Sequence:
#
# PCOD9450633 Si02
#       7
#     8   8   8   8   8   8   8
#     4  11  22  37  57  80 110 148 186 228 279 334
#     4  12  23  36  55  82 114 146 182 229 279 331
#     4  10  22  39  56  74 103 147 194 235 277 328
#     4   9  18  35  58  82 110 144 181 225 281 341
#     4  11  21  34  56  84 113 147 186 229 280 337
#     4  10  20  34  56  85 112 141 182 231 284 338
#     4   9  18  33  54  81 111 144 184 228 275 330
#
# _framework density 19.877459999999999
#
# number of rings (size 3 to 8) (size 9 to 14) (size 15 to 20)
#    0.000    1.714    1.429    3.857    0.000    3.143 
#    0.000    1.429    0.000    3.000    0.000    0.000 
#    0.000    0.000    0.000    0.000    0.000    0.000 
#
# Total GULP energy -312861.901052 kJ/mol
# GULP energy per Si atom -5586.819662 kJ/mol
# Density = 1.983222 g / cm^3
# Si number density = 19.877460 Si / 1000 Ang^3
#
#
#
# Elastic Constant Matrix: (Units=GPa)
#
#
# Indices 1 2 3 4 5 6 
#
# 1 24.0757 -8.6422 -3.0211 0.0000 0.0000 0.0000
# 2 -8.6422 106.0537 41.4373 0.0000 0.0000 0.0000
# 3 -3.0211 41.4373 100.0624 0.0000 0.0000 0.0000
# 4 0.0000 0.0000 0.0000 16.7498 0.0000 0.0000
# 5 0.0000 0.0000 0.0000 0.0000 23.4591 0.0000
# 6 0.0000 0.0000 0.0000 0.0000 0.0000 13.6634
#
#
#
# Elastic Compliance Matrix: (Units=1/GPa)
#
#
# Indices 1 2 3 4 5 6 
#
# 1 0.042790 0.003558 -0.000181 0.000000 0.000000 0.000000
# 2 0.003558 0.011545 -0.004674 0.000000 0.000000 0.000000
# 3 -0.000181 -0.004674 0.011924 0.000000 0.000000 0.000000
# 4 0.000000 0.000000 0.000000 0.059702 0.000000 0.000000
# 5 0.000000 0.000000 0.000000 0.000000 0.042627 0.000000
# 6 0.000000 0.000000 0.000000 0.000000 0.000000 0.073188
#
#
# Mechanical properties :
#
#
# Convention : Reuss Voigt Hill
#
# Bulk Modulus (GPa) = 15.70739 32.19334 23.95036
# Shear Modulus (GPa) = 18.82583 24.13564 21.48074
#
# Velocity S-wave (km/s) = 3.08083 3.48835 3.29090
# Velocity P-wave (km/s) = 4.53592 5.69700 5.14929
#
# Compressibility (1/GPa) = 0.06366432
#
# Stress axis : x y z
#
# Youngs Moduli (GPa) = 23.36997 86.61622 83.86655
#
# Poissons Ratio (x) = -0.30816 0.01521
# Poissons Ratio (y) = -0.08314 0.39196
# Poissons Ratio (z) = 0.00424 0.40481
#
# Static dielectric constant tensor:
#      x y z
#    x 1.723930 0.000000 0.000000 
#    y 0.000000 1.703320 0.000000 
#    z 0.000000 0.000000 1.701040 
# 
# From -- ./inp_files/20938.got.cif
#   From: 2010.05.17/outbox.cif.g08.bks.cpg/sg59_11_cif.got.tgz:20938.got - 2010.06.03 14:40:33.
