data_PCOD9450854
_publ_section_title
;
Structure prediction by ZEFSAII (Michael W. Deem and Ramdas Pophale) SiO2 
 PCOD9450854
Probable space group: P M M N
;
_chemical_formula_sum "Si O2"
_cell_formula_units_Z 56
_cell_length_a 7.780533
_cell_length_b 18.899754
_cell_length_c 19.779768
_cell_angle_alpha 90.000000
_cell_angle_beta 90.000000
_cell_angle_gamma 90.000000
_cell_volume 2908.618043
_symmetry_space_group_name_H-M "P M M N"
_symmetry_group_IT_number 59
_space_group.IT_coordinate_system_code '2'
_symmetry_cell_setting 'orthorhombic'
loop_
_space_group_symop_operation_xyz
x,y,z
1/2-x,1/2-y,z
1/2+x,-y,-z
-x,1/2+y,-z
-x,-y,-z
1/2+x,1/2+y,-z
1/2-x,y,z
x,1/2-y,z
loop_
_atom_site_type_symbol
_atom_site_label
_atom_site_fract_x
_atom_site_fract_y
_atom_site_fract_z
Si Si1 0.958530 0.394229 0.273357
Si Si2 0.543039 0.423479 0.419623
Si Si3 0.039030 0.329997 0.699440
Si Si4 0.454217 0.327389 0.135095
Si Si5 0.954387 0.974321 0.925555
Si Si6 0.044386 0.414188 0.568603
Si Si7 0.454470 0.042609 0.789487
O O1 0.750000 0.392386 0.271592
O O2 0.014795 0.385206 0.350933
O O3 0.017739 0.472633 0.249753
O O4 0.020522 0.342000 0.214950
O O5 0.750000 0.426144 0.416757
O O6 0.479104 0.505287 0.420451
O O7 0.495249 0.391831 0.492083
O O8 0.250000 0.328671 0.699851
O O9 0.980467 0.250000 0.709245
O O10 0.983572 0.362268 0.627342
O O11 0.980453 0.385268 0.756625
O O12 0.250000 0.325439 0.122190
O O13 0.525781 0.250000 0.117210
O O14 0.524784 0.396513 0.095860
O O15 0.750000 0.969879 0.920893
O O16 0.012211 0.029275 0.868056
O O17 0.000000 0.000000 0.000000
O O18 0.250000 0.418036 0.575229
O O19 0.250000 0.042834 0.779097
#
# Coordination Sequence:
#
# PCOD9450854 Si02
#       7
#     8   8   8   8   8   8   8
#     4   9  16  28  48  71  96 126 162 201 241 289
#     4   9  16  27  43  65  92 123 160 206 251 291
#     4   9  16  28  48  71  95 127 168 210 249 289
#     4   9  19  35  53  75 102 128 157 197 242 285
#     4  10  20  35  56  80 103 129 160 194 233 279
#     4   9  16  27  43  65  92 123 164 209 248 288
#     4   9  16  30  51  73  97 125 160 201 240 283
#
# _framework density 19.253129999999999
#
# number of rings (size 3 to 8) (size 9 to 14) (size 15 to 20)
#    0.000    2.857    1.429    0.429    0.000    1.429 
#    0.000    2.143    0.000    8.571    0.000    0.000 
#    0.000    0.000    0.000    0.000    0.000    0.000 
#
# Total GULP energy -312109.315348 kJ/mol
# GULP energy per Si atom -5573.380631 kJ/mol
# Density = 1.920931 g / cm^3
# Si number density = 19.253130 Si / 1000 Ang^3
#
#
#
# Elastic Constant Matrix: (Units=GPa)
#
#
# Indices 1 2 3 4 5 6 
#
# 1 17.5469 4.6419 -12.8515 0.0000 0.0000 0.0000
# 2 4.6419 121.1637 66.8864 0.0000 0.0000 0.0000
# 3 -12.8515 66.8864 134.9947 0.0000 0.0000 0.0000
# 4 0.0000 0.0000 0.0000 18.1801 0.0000 0.0000
# 5 0.0000 0.0000 0.0000 0.0000 25.5034 0.0000
# 6 0.0000 0.0000 0.0000 0.0000 0.0000 11.0724
#
#
#
# Elastic Compliance Matrix: (Units=1/GPa)
#
#
# Indices 1 2 3 4 5 6 
#
# 1 0.066906 -0.008368 0.010516 0.000000 0.000000 0.000000
# 2 -0.008368 0.012407 -0.006944 0.000000 0.000000 0.000000
# 3 0.010516 -0.006944 0.011849 0.000000 0.000000 0.000000
# 4 0.000000 0.000000 0.000000 0.055005 0.000000 0.000000
# 5 0.000000 0.000000 0.000000 0.000000 0.039210 0.000000
# 6 0.000000 0.000000 0.000000 0.000000 0.000000 0.090314
#
#
# Mechanical properties :
#
#
# Convention : Reuss Voigt Hill
#
# Bulk Modulus (GPa) = 12.25955 43.45097 27.85526
# Shear Modulus (GPa) = 16.00126 25.28643 20.64385
#
# Velocity S-wave (km/s) = 2.88601 3.62797 3.27805
# Velocity P-wave (km/s) = 4.18172 6.33773 5.36906
#
# Compressibility (1/GPa) = 0.08156909
#
# Stress axis : x y z
#
# Youngs Moduli (GPa) = 14.94641 80.59786 84.39225
#
# Poissons Ratio (x) = 0.67446 -0.88744
# Poissons Ratio (y) = 0.12507 0.58603
# Poissons Ratio (z) = -0.15717 0.55968
#
# Static dielectric constant tensor:
#      x y z
#    x 1.714000 0.000000 0.000000 
#    y 0.000000 1.681450 0.000000 
#    z 0.000000 0.000000 1.654210 
# 
# From -- ./inp_files/29338.got.cif
#   From: 2010.05.17/outbox.cif.g08.bks.cpg/sg59_15_cif.got.tgz:29338.got - 2010.06.03 14:40:33.
