data_PCOD9450812
_publ_section_title
;
Structure prediction by ZEFSAII (Michael W. Deem and Ramdas Pophale) SiO2 
 PCOD9450812
Probable space group: P M M N
;
_chemical_formula_sum "Si O2"
_cell_formula_units_Z 64
_cell_length_a 8.743387
_cell_length_b 23.679212
_cell_length_c 16.120043
_cell_angle_alpha 90.000000
_cell_angle_beta 90.000000
_cell_angle_gamma 90.000000
_cell_volume 3337.437514
_symmetry_space_group_name_H-M "P M M N"
_symmetry_group_IT_number 59
_space_group.IT_coordinate_system_code '2'
_symmetry_cell_setting 'orthorhombic'
loop_
_space_group_symop_operation_xyz
x,y,z
1/2-x,1/2-y,z
1/2+x,-y,-z
-x,1/2+y,-z
-x,-y,-z
1/2+x,1/2+y,-z
1/2-x,y,z
x,1/2-y,z
loop_
_atom_site_type_symbol
_atom_site_label
_atom_site_fract_x
_atom_site_fract_y
_atom_site_fract_z
Si Si1 0.064562 0.817057 0.839350
Si Si2 0.432433 0.311715 0.672352
Si Si3 0.430394 0.427777 0.719193
Si Si4 0.574983 0.317185 0.497215
Si Si5 0.929967 0.993286 0.591554
Si Si6 0.572235 0.470009 0.880762
Si Si7 0.930193 0.907707 0.965571
Si Si8 0.434789 0.618849 0.668843
O O1 0.250000 0.818879 0.843615
O O2 0.021377 0.750000 0.839568
O O3 0.018292 0.849124 0.753410
O O4 0.996474 0.854662 0.914403
O O5 0.250000 0.307432 0.676769
O O6 0.500190 0.250000 0.689701
O O7 0.476991 0.362611 0.731611
O O8 0.476074 0.328156 0.578485
O O9 0.250000 0.431209 0.699951
O O10 0.526643 0.451635 0.643314
O O11 0.468249 0.461937 0.801038
O O12 0.750000 0.336022 0.512800
O O13 0.576523 0.250000 0.485089
O O14 0.521383 0.344963 0.412292
O O15 0.750000 0.985530 0.583762
O O16 0.998229 0.942297 0.647094
O O17 0.000000 0.000000 0.500000
O O18 0.750000 0.460811 0.860261
O O19 0.556241 0.534356 0.912289
O O20 0.519051 0.425627 0.951014
O O21 0.750000 0.898864 0.982875
O O22 0.250000 0.614721 0.671532
#
# Coordination Sequence:
#
# PCOD9450812 Si02
#       8
#     8   8   8   8   8   8   8   8
#     4  10  21  37  58  85 119 158 196 237 290 353
#     4   9  19  35  53  74 102 136 173 215 263 314
#     4  11  22  37  58  83 111 143 181 224 274 332
#     4   9  17  30  50  75 102 136 180 226 268 313
#     4  12  25  39  55  79 114 153 194 240 290 341
#     4  10  21  38  62  89 115 145 184 231 282 338
#     4  10  21  38  60  86 114 146 186 232 283 338
#     4  10  20  35  55  79 110 148 190 234 281 337
#
# _framework density 19.176389
#
# number of rings (size 3 to 8) (size 9 to 14) (size 15 to 20)
#    0.000    1.875    0.000    4.125    0.000    9.250 
#    0.000    0.625    0.000    4.500    0.000    0.000 
#    0.000    0.000    0.000    0.000    0.000    0.000 
#
# Total GULP energy -357093.058993 kJ/mol
# GULP energy per Si atom -5579.579047 kJ/mol
# Density = 1.913274 g / cm^3
# Si number density = 19.176389 Si / 1000 Ang^3
#
#
#
# Elastic Constant Matrix: (Units=GPa)
#
#
# Indices 1 2 3 4 5 6 
#
# 1 24.0853 22.5649 4.2740 0.0000 0.0000 0.0000
# 2 22.5649 89.7229 17.0592 0.0000 0.0000 0.0000
# 3 4.2740 17.0592 25.3016 0.0000 0.0000 0.0000
# 4 0.0000 0.0000 0.0000 31.9910 0.0000 0.0000
# 5 0.0000 0.0000 0.0000 0.0000 27.4752 0.0000
# 6 0.0000 0.0000 0.0000 0.0000 0.0000 24.0689
#
#
#
# Elastic Compliance Matrix: (Units=1/GPa)
#
#
# Indices 1 2 3 4 5 6 
#
# 1 0.054318 -0.013668 0.000040 0.000000 0.000000 0.000000
# 2 -0.013668 0.016224 -0.008630 0.000000 0.000000 0.000000
# 3 0.000040 -0.008630 0.045335 0.000000 0.000000 0.000000
# 4 0.000000 0.000000 0.000000 0.031259 0.000000 0.000000
# 5 0.000000 0.000000 0.000000 0.000000 0.036396 0.000000
# 6 0.000000 0.000000 0.000000 0.000000 0.000000 0.041547
#
#
# Mechanical properties :
#
#
# Convention : Reuss Voigt Hill
#
# Bulk Modulus (GPa) = 14.01337 25.21178 19.61257
# Shear Modulus (GPa) = 17.04267 23.05446 20.04856
#
# Velocity S-wave (km/s) = 2.98439 3.47108 3.23690
# Velocity P-wave (km/s) = 4.38166 5.40744 4.92135
#
# Compressibility (1/GPa) = 0.07136044
#
# Stress axis : x y z
#
# Youngs Moduli (GPa) = 18.41027 61.63821 22.05806
#
# Poissons Ratio (x) = 0.84249 -0.00088
# Poissons Ratio (y) = 0.25164 0.19035
# Poissons Ratio (z) = -0.00074 0.53192
#
# Static dielectric constant tensor:
#      x y z
#    x 1.653280 0.000000 0.000000 
#    y 0.000000 1.739750 0.000000 
#    z 0.000000 0.000000 1.648950 
# 
# From -- ./inp_files/21555.got.cif
#   From: 2010.05.17/outbox.cif.g08.bks.cpg/sg59_11_cif.got.tgz:21555.got - 2010.06.03 14:40:33.
