data_PCOD9450998
_publ_section_title
;
Structure prediction by ZEFSAII (Michael W. Deem and Ramdas Pophale) SiO2 
 PCOD9450998
Probable space group: P M M N
;
_chemical_formula_sum "Si O2"
_cell_formula_units_Z 56
_cell_length_a 14.480858
_cell_length_b 9.143824
_cell_length_c 22.539580
_cell_angle_alpha 90.000000
_cell_angle_beta 90.000000
_cell_angle_gamma 90.000000
_cell_volume 2984.475185
_symmetry_space_group_name_H-M "P M M N"
_symmetry_group_IT_number 59
_space_group.IT_coordinate_system_code '2'
_symmetry_cell_setting 'orthorhombic'
loop_
_space_group_symop_operation_xyz
x,y,z
1/2-x,1/2-y,z
1/2+x,-y,-z
-x,1/2+y,-z
-x,-y,-z
1/2+x,1/2+y,-z
1/2-x,y,z
x,1/2-y,z
loop_
_atom_site_type_symbol
_atom_site_label
_atom_site_fract_x
_atom_site_fract_y
_atom_site_fract_z
Si Si1 0.537423 0.076524 0.087512
Si Si2 0.593143 0.581624 0.631067
Si Si3 0.589122 0.577083 0.338132
Si Si4 0.352315 0.419726 0.233730
Si Si5 0.539474 0.923463 0.205056
Si Si6 0.250000 0.422692 0.464470
Si Si7 0.750000 0.076539 0.409622
Si Si8 0.141977 0.925079 0.035282
O O1 0.527252 0.250000 0.093925
O O2 0.576200 0.005819 0.147468
O O3 0.436383 0.006952 0.073716
O O4 0.605750 0.048838 0.032057
O O5 0.559159 0.750000 0.624915
O O6 0.510130 0.468773 0.636329
O O7 0.644651 0.576075 0.694503
O O8 0.661605 0.550064 0.577274
O O9 0.605113 0.750000 0.344041
O O10 0.587550 0.540374 0.267859
O O11 0.663018 0.486667 0.374351
O O12 0.250000 0.461265 0.213041
O O13 0.370045 0.250000 0.216823
O O14 0.433801 0.522603 0.212062
O O15 0.543224 0.750000 0.196928
O O16 0.250000 0.250000 0.479778
O O17 0.250000 0.515816 0.523646
O O18 0.750000 0.250000 0.409783
O O19 0.250000 0.968120 0.042981
O O20 0.135921 0.750000 0.046345
#
# Coordination Sequence:
#
# PCOD9450998 Si02
#       8
#     8   8   8   8   8   4   4   8
#     4  10  20  35  57  84 114 146 186 231 274 326
#     4   9  17  33  58  86 113 144 183 226 279 340
#     4  10  22  41  61  81 112 150 188 236 289 337
#     4   9  16  29  51  79 110 143 181 226 276 330
#     4  10  21  36  55  80 111 148 187 228 279 333
#     4  10  20  36  60  88 118 150 183 230 285 342
#     4  12  26  42  60  82 108 146 193 240 287 338
#     4   9  19  37  59  82 113 149 184 228 277 324
#
# _framework density 18.763767999999999
#
# number of rings (size 3 to 8) (size 9 to 14) (size 15 to 20)
#    0.000    2.286    0.714    1.929    0.000    4.571 
#    1.286    0.000    0.000    0.000    0.000    0.000 
#    0.000    0.000    0.000    0.000    0.000    0.000 
#
# Total GULP energy -312527.031604 kJ/mol
# GULP energy per Si atom -5580.839850 kJ/mol
# Density = 1.872106 g / cm^3
# Si number density = 18.763768 Si / 1000 Ang^3
#
#
#
# Elastic Constant Matrix: (Units=GPa)
#
#
# Indices 1 2 3 4 5 6 
#
# 1 36.4689 15.5642 11.8243 0.0000 0.0000 0.0000
# 2 15.5642 61.6224 58.5581 0.0000 0.0000 0.0000
# 3 11.8243 58.5581 111.1350 0.0000 0.0000 0.0000
# 4 0.0000 0.0000 0.0000 31.3493 0.0000 0.0000
# 5 0.0000 0.0000 0.0000 0.0000 4.5603 0.0000
# 6 0.0000 0.0000 0.0000 0.0000 0.0000 -45.4656
#
#
#
# Elastic Compliance Matrix: (Units=1/GPa)
#
#
# Indices 1 2 3 4 5 6 
#
# 1 0.030884 -0.009369 0.001651 0.000000 0.000000 0.000000
# 2 -0.009369 0.035344 -0.017626 0.000000 0.000000 0.000000
# 3 0.001651 -0.017626 0.018110 0.000000 0.000000 0.000000
# 4 0.000000 0.000000 0.000000 0.031899 0.000000 0.000000
# 5 0.000000 0.000000 0.000000 0.000000 0.219286 0.000000
# 6 0.000000 0.000000 0.000000 0.000000 0.000000 -0.021995
#
#
# Mechanical properties :
#
#
# Convention : Reuss Voigt Hill
#
# Bulk Modulus (GPa) = 29.71895 42.34661 36.03278
# Shear Modulus (GPa) = 13.31793 6.30743 9.81268
#
# Velocity S-wave (km/s) = 2.66704 1.83543 2.28931
# Velocity P-wave (km/s) = 5.03557 5.20663 5.12182
#
# Compressibility (1/GPa) = 0.03364857
#
# Stress axis : x y z
#
# Youngs Moduli (GPa) = 32.37925 28.29326 55.21840
#
# Poissons Ratio (x) = 0.26509 -0.09115
# Poissons Ratio (y) = 0.30337 0.97330
# Poissons Ratio (z) = -0.05345 0.49871
#
# Static dielectric constant tensor:
#      x y z
#    x 1.663190 0.000000 0.000000 
#    y 0.000000 1.623230 0.000000 
#    z 0.000000 0.000000 1.657890 
# 
# From -- ./inp_files/30499.got.cif
#   From: 2010.05.17/outbox.cif.g08.bks.cpg/sg59_16_cif.got.tgz:30499.got - 2010.06.03 14:40:33.
