data_PCOD9450276
_publ_section_title
;
Structure prediction by ZEFSAII (Michael W. Deem and Ramdas Pophale) SiO2 
 PCOD9450276
Probable space group: P M M N
;
_chemical_formula_sum "Si O2"
_cell_formula_units_Z 48
_cell_length_a 9.416286
_cell_length_b 7.773110
_cell_length_c 31.823128
_cell_angle_alpha 90.000000
_cell_angle_beta 90.000000
_cell_angle_gamma 90.000000
_cell_volume 2329.256521
_symmetry_space_group_name_H-M "P M M N"
_symmetry_group_IT_number 59
_space_group.IT_coordinate_system_code '2'
_symmetry_cell_setting 'orthorhombic'
loop_
_space_group_symop_operation_xyz
x,y,z
1/2-x,1/2-y,z
1/2+x,-y,-z
-x,1/2+y,-z
-x,-y,-z
1/2+x,1/2+y,-z
1/2-x,y,z
x,1/2-y,z
loop_
_atom_site_type_symbol
_atom_site_label
_atom_site_fract_x
_atom_site_fract_y
_atom_site_fract_z
Si Si1 0.587891 0.956923 0.879094
Si Si2 0.910390 0.454947 0.296024
Si Si3 0.413768 0.039082 0.376517
Si Si4 0.911935 0.454766 0.785168
Si Si5 0.410828 0.957377 0.958686
Si Si6 0.587727 0.042969 0.458333
O O1 0.750000 0.021919 0.883459
O O2 0.592853 0.750000 0.882248
O O3 0.489779 0.021606 0.916758
O O4 0.538220 0.999600 0.832106
O O5 0.750000 0.525120 0.296752
O O6 0.900198 0.250000 0.302351
O O7 0.007844 0.520385 0.334158
O O8 0.986741 0.482731 0.251671
O O9 0.250000 0.983564 0.378184
O O10 0.412479 0.250000 0.376499
O O11 0.502720 0.982514 0.417188
O O12 0.750000 0.523533 0.780317
O O13 0.905273 0.250000 0.782212
O O14 0.250000 0.022637 0.961894
O O15 0.404707 0.750000 0.955729
O O16 0.500000 0.000000 0.000000
O O17 0.750000 0.978114 0.460019
O O18 0.594834 0.250000 0.455390
O O19 0.500000 0.000000 0.500000
#
# Coordination Sequence:
#
# PCOD9450276 Si02
#       6
#     8   8   8   8   8   8
#     4   9  18  34  55  77 104 140 180 219 258 305
#     4  10  20  34  54  79 105 135 173 216 260 308
#     4   9  17  31  53  78 103 134 173 216 261 310
#     4  10  21  36  54  78 108 140 173 212 260 312
#     4  10  21  36  55  80 109 140 175 216 261 309
#     4  10  20  34  53  78 108 140 175 216 261 310
#
# _framework density 20.607434999999999
#
# number of rings (size 3 to 8) (size 9 to 14) (size 15 to 20)
#    0.000    2.333    0.000    2.500    0.000    7.333 
#    0.000    4.167    0.000    5.000    0.000    0.000 
#    0.000    0.000    0.000    0.000    0.000    0.000 
#
# Total GULP energy -268104.142217 kJ/mol
# GULP energy per Si atom -5585.502963 kJ/mol
# Density = 2.056053 g / cm^3
# Si number density = 20.607435 Si / 1000 Ang^3
#
#
#
# Elastic Constant Matrix: (Units=GPa)
#
#
# Indices 1 2 3 4 5 6 
#
# 1 201.8137 7.5825 146.2283 0.0000 0.0000 0.0000
# 2 7.5825 26.7518 -2.3911 0.0000 0.0000 0.0000
# 3 146.2283 -2.3911 212.6788 0.0000 0.0000 0.0000
# 4 0.0000 0.0000 0.0000 22.5935 0.0000 0.0000
# 5 0.0000 0.0000 0.0000 0.0000 42.0473 0.0000
# 6 0.0000 0.0000 0.0000 0.0000 0.0000 13.9247
#
#
#
# Elastic Compliance Matrix: (Units=1/GPa)
#
#
# Indices 1 2 3 4 5 6 
#
# 1 0.010195 -0.003520 -0.007049 0.000000 0.000000 0.000000
# 2 -0.003520 0.038633 0.002854 0.000000 0.000000 0.000000
# 3 -0.007049 0.002854 0.009581 0.000000 0.000000 0.000000
# 4 0.000000 0.000000 0.000000 0.044260 0.000000 0.000000
# 5 0.000000 0.000000 0.000000 0.000000 0.023783 0.000000
# 6 0.000000 0.000000 0.000000 0.000000 0.000000 0.071815
#
#
# Mechanical properties :
#
#
# Convention : Reuss Voigt Hill
#
# Bulk Modulus (GPa) = 23.26662 82.67598 52.97130
# Shear Modulus (GPa) = 21.92762 35.03473 28.48118
#
# Velocity S-wave (km/s) = 3.26554 4.12770 3.72167
# Velocity P-wave (km/s) = 5.05304 7.93245 6.65045
#
# Compressibility (1/GPa) = 0.04298003
#
# Stress axis : x y z
#
# Youngs Moduli (GPa) = 98.08836 25.88431 104.37683
#
# Poissons Ratio (x) = 0.09110 0.73576
# Poissons Ratio (y) = 0.34524 -0.29792
# Poissons Ratio (z) = 0.69144 -0.07388
#
# Static dielectric constant tensor:
#      x y z
#    x 1.731150 0.000000 0.000000 
#    y 0.000000 1.772270 0.000000 
#    z 0.000000 0.000000 1.690950 
# 
# From -- ./inp_files/32771.got.cif
#   From: 2010.05.17/outbox.cif.g08.bks.cpg/sg59_17_cif.got.tgz:32771.got - 2010.06.03 14:40:33.
