data_PCOD9450267
_publ_section_title
;
Structure prediction by ZEFSAII (Michael W. Deem and Ramdas Pophale) SiO2 
 PCOD9450267
Probable space group: P M M N
;
_chemical_formula_sum "Si O2"
_cell_formula_units_Z 40
_cell_length_a 9.286372
_cell_length_b 27.291273
_cell_length_c 7.934964
_cell_angle_alpha 90.000000
_cell_angle_beta 90.000000
_cell_angle_gamma 90.000000
_cell_volume 2011.012784
_symmetry_space_group_name_H-M "P M M N"
_symmetry_group_IT_number 59
_space_group.IT_coordinate_system_code '2'
_symmetry_cell_setting 'orthorhombic'
loop_
_space_group_symop_operation_xyz
x,y,z
1/2-x,1/2-y,z
1/2+x,-y,-z
-x,1/2+y,-z
-x,-y,-z
1/2+x,1/2+y,-z
1/2-x,y,z
x,1/2-y,z
loop_
_atom_site_type_symbol
_atom_site_label
_atom_site_fract_x
_atom_site_fract_y
_atom_site_fract_z
Si Si1 0.912166 0.344911 0.787508
Si Si2 0.923152 0.449979 0.823622
Si Si3 0.410062 0.250000 0.690213
Si Si4 0.912791 0.750000 0.711360
Si Si5 0.085593 0.652753 0.805439
Si Si6 0.579012 0.942824 0.815750
O O1 0.750000 0.334320 0.729047
O O2 0.954554 0.399447 0.725998
O O3 0.010684 0.299562 0.742839
O O4 0.909997 0.349392 0.990699
O O5 0.750000 0.448335 0.866582
O O6 0.947444 0.502947 0.739640
O O7 0.020327 0.448074 0.992023
O O8 0.250000 0.250000 0.762560
O O9 0.403903 0.250000 0.489454
O O10 0.750000 0.750000 0.780896
O O11 0.998175 0.701396 0.762544
O O12 0.250000 0.655227 0.744337
O O13 0.006479 0.603512 0.743332
O O14 0.750000 0.933271 0.815181
#
# Coordination Sequence:
#
# PCOD9450267 Si02
#       6
#     8   8   4   4   8   8
#     4   9  18  33  53  76 102 131 164 202 243 292
#     4   8  15  27  44  71 104 133 164 202 243 291
#     4  11  24  37  50  72 100 129 166 211 254 298
#     4  11  24  39  52  70  98 131 168 211 256 298
#     4  10  20  34  53  78 104 131 167 207 246 296
#     4   9  15  25  45  73 104 134 161 198 248 293
#
# _framework density 19.890476
#
# number of rings (size 3 to 8) (size 9 to 14) (size 15 to 20)
#    0.000    2.600    0.000    3.600    0.000    8.800 
#    0.000    0.000    0.000    1.200    0.000    0.000 
#    0.000    0.000    0.000    0.000    0.000    0.000 
#
# Total GULP energy -222932.661701 kJ/mol
# GULP energy per Si atom -5573.316543 kJ/mol
# Density = 1.984520 g / cm^3
# Si number density = 19.890476 Si / 1000 Ang^3
#
#
#
# Elastic Constant Matrix: (Units=GPa)
#
#
# Indices 1 2 3 4 5 6 
#
# 1 136.4183 123.4377 4.8178 0.0000 0.0000 0.0000
# 2 123.4377 248.8609 10.6533 0.0000 0.0000 0.0000
# 3 4.8178 10.6533 15.3508 0.0000 0.0000 0.0000
# 4 0.0000 0.0000 0.0000 -27.7648 0.0000 0.0000
# 5 0.0000 0.0000 0.0000 0.0000 1.6370 0.0000
# 6 0.0000 0.0000 0.0000 0.0000 0.0000 36.5289
#
#
#
# Elastic Compliance Matrix: (Units=1/GPa)
#
#
# Indices 1 2 3 4 5 6 
#
# 1 0.013302 -0.006616 0.000417 0.000000 0.000000 0.000000
# 2 -0.006616 0.007432 -0.003081 0.000000 0.000000 0.000000
# 3 0.000417 -0.003081 0.067151 0.000000 0.000000 0.000000
# 4 0.000000 0.000000 0.000000 -0.036017 0.000000 0.000000
# 5 0.000000 0.000000 0.000000 0.000000 0.610873 0.000000
# 6 0.000000 0.000000 0.000000 0.000000 0.000000 0.027376
#
#
# Mechanical properties :
#
#
# Convention : Reuss Voigt Hill
#
# Bulk Modulus (GPa) = 14.42513 75.38308 44.90411
# Shear Modulus (GPa) = 6.83261 19.52831 13.18046
#
# Velocity S-wave (km/s) = 1.85542 3.13675 2.57699
# Velocity P-wave (km/s) = 3.44356 7.14845 5.61064
#
# Compressibility (1/GPa) = 0.06932344
#
# Stress axis : x y z
#
# Youngs Moduli (GPa) = 75.17729 134.55914 14.89188
#
# Poissons Ratio (x) = 0.89020 -0.00620
# Poissons Ratio (y) = 0.49735 0.04589
# Poissons Ratio (z) = -0.03131 0.41461
#
# Static dielectric constant tensor:
#      x y z
#    x 1.827970 0.000000 0.000000 
#    y 0.000000 1.754820 0.000000 
#    z 0.000000 0.000000 1.687200 
# 
# From -- ./inp_files/5913.got.cif
#   From: 2010.05.17/outbox.cif.g08.bks.cpg/sg59_3_cif.got.tgz:5913.got - 2010.06.03 14:40:33.
