data_PCOD9450406
_publ_section_title
;
Structure prediction by ZEFSAII (Michael W. Deem and Ramdas Pophale) SiO2 
 PCOD9450406
Probable space group: P M M N
;
_chemical_formula_sum "Si O2"
_cell_formula_units_Z 64
_cell_length_a 14.075275
_cell_length_b 8.986370
_cell_length_c 27.826462
_cell_angle_alpha 90.000000
_cell_angle_beta 90.000000
_cell_angle_gamma 90.000000
_cell_volume 3519.647549
_symmetry_space_group_name_H-M "P M M N"
_symmetry_group_IT_number 59
_space_group.IT_coordinate_system_code '2'
_symmetry_cell_setting 'orthorhombic'
loop_
_space_group_symop_operation_xyz
x,y,z
1/2-x,1/2-y,z
1/2+x,-y,-z
-x,1/2+y,-z
-x,-y,-z
1/2+x,1/2+y,-z
1/2-x,y,z
x,1/2-y,z
loop_
_atom_site_type_symbol
_atom_site_label
_atom_site_fract_x
_atom_site_fract_y
_atom_site_fract_z
Si Si1 0.139275 0.918731 0.370850
Si Si2 0.359962 0.927796 0.915797
Si Si3 0.983276 0.578391 0.449662
Si Si4 0.859564 0.428496 0.787980
Si Si5 0.043680 0.927354 0.111424
Si Si6 0.138974 0.070056 0.640950
Si Si7 0.863239 0.578424 0.980999
Si Si8 0.981805 0.924825 0.705884
O O1 0.250000 0.937364 0.378086
O O2 0.122490 0.750000 0.351169
O O3 0.081162 0.927487 0.419891
O O4 0.097031 0.037431 0.334459
O O5 0.250000 0.963708 0.903884
O O6 0.370702 0.750000 0.915199
O O7 0.438419 0.004923 0.882577
O O8 0.378548 0.989960 0.969526
O O9 0.958422 0.750000 0.459217
O O10 0.906059 0.520916 0.410533
O O11 0.000000 0.500000 0.500000
O O12 0.750000 0.475831 0.778640
O O13 0.863045 0.250000 0.780874
O O14 0.889867 0.458975 0.842846
O O15 0.936703 0.504177 0.753543
O O16 0.037775 0.750000 0.105383
O O17 0.087173 0.001484 0.063929
O O18 0.250000 0.033329 0.644098
O O19 0.128463 0.250000 0.642834
O O20 0.076322 0.000542 0.683760
O O21 0.750000 0.578297 0.972581
O O22 0.894809 0.750000 0.986337
O O23 0.996292 0.750000 0.711661
#
# Coordination Sequence:
#
# PCOD9450406 Si02
#       8
#     8   8   8   8   8   8   8   8
#     4   9  18  34  54  73  99 139 181 216 254 309
#     4  10  21  37  56  77 105 143 184 224 266 314
#     4   9  18  31  48  75 109 143 179 219 265 315
#     4  10  22  40  60  81 108 144 180 213 259 324
#     4  11  22  36  56  81 109 140 178 223 268 319
#     4   9  19  38  61  80 104 145 192 230 266 316
#     4  10  20  34  54  80 110 144 181 221 266 318
#     4  11  22  35  55  84 112 135 168 220 275 320
#
# _framework density 18.183638999999999
#
# number of rings (size 3 to 8) (size 9 to 14) (size 15 to 20)
#    0.000    2.125    0.000    4.125    0.000    7.750 
#    0.000    0.625    0.000    0.750    0.000    0.000 
#    0.000    0.000    0.000    0.000    0.000    0.000 
#
# Total GULP energy -357135.307302 kJ/mol
# GULP energy per Si atom -5580.239177 kJ/mol
# Density = 1.814225 g / cm^3
# Si number density = 18.183639 Si / 1000 Ang^3
#
#
#
# Elastic Constant Matrix: (Units=GPa)
#
#
# Indices 1 2 3 4 5 6 
#
# 1 128.0639 36.6759 41.8204 0.0000 0.0000 0.0000
# 2 36.6759 55.7197 23.0079 0.0000 0.0000 0.0000
# 3 41.8204 23.0079 40.5475 0.0000 0.0000 0.0000
# 4 0.0000 0.0000 0.0000 28.7175 0.0000 0.0000
# 5 0.0000 0.0000 0.0000 0.0000 9.7727 0.0000
# 6 0.0000 0.0000 0.0000 0.0000 0.0000 24.1489
#
#
#
# Elastic Compliance Matrix: (Units=1/GPa)
#
#
# Indices 1 2 3 4 5 6 
#
# 1 0.012345 -0.003746 -0.010607 0.000000 0.000000 0.000000
# 2 -0.003746 0.024575 -0.010081 0.000000 0.000000 0.000000
# 3 -0.010607 -0.010081 0.041323 0.000000 0.000000 0.000000
# 4 0.000000 0.000000 0.000000 0.034822 0.000000 0.000000
# 5 0.000000 0.000000 0.000000 0.000000 0.102326 0.000000
# 6 0.000000 0.000000 0.000000 0.000000 0.000000 0.041410
#
#
# Mechanical properties :
#
#
# Convention : Reuss Voigt Hill
#
# Bulk Modulus (GPa) = 34.04277 47.48215 40.76246
# Shear Modulus (GPa) = 15.84976 20.71627 18.28302
#
# Velocity S-wave (km/s) = 2.95557 3.37899 3.17435
# Velocity P-wave (km/s) = 5.51448 6.43371 5.99175
#
# Compressibility (1/GPa) = 0.02937481
#
# Stress axis : x y z
#
# Youngs Moduli (GPa) = 81.00253 40.69102 24.19949
#
# Poissons Ratio (x) = 0.15243 0.25669
# Poissons Ratio (y) = 0.30343 0.24396
# Poissons Ratio (z) = 0.85922 0.41022
#
# Static dielectric constant tensor:
#      x y z
#    x 1.642150 0.000000 0.000000 
#    y 0.000000 1.623630 0.000000 
#    z 0.000000 0.000000 1.608380 
# 
# From -- ./inp_files/32184.got.cif
#   From: 2010.05.17/outbox.cif.g08.bks.cpg/sg59_17_cif.got.tgz:32184.got - 2010.06.03 14:40:33.
