data_PCOD9450571
_publ_section_title
;
Structure prediction by ZEFSAII (Michael W. Deem and Ramdas Pophale) SiO2 
 PCOD9450571
Probable space group: P M M N
;
_chemical_formula_sum "Si O2"
_cell_formula_units_Z 56
_cell_length_a 14.755748
_cell_length_b 8.670378
_cell_length_c 23.041279
_cell_angle_alpha 90.000000
_cell_angle_beta 90.000000
_cell_angle_gamma 90.000000
_cell_volume 2947.853144
_symmetry_space_group_name_H-M "P M M N"
_symmetry_group_IT_number 59
_space_group.IT_coordinate_system_code '2'
_symmetry_cell_setting 'orthorhombic'
loop_
_space_group_symop_operation_xyz
x,y,z
1/2-x,1/2-y,z
1/2+x,-y,-z
-x,1/2+y,-z
-x,-y,-z
1/2+x,1/2+y,-z
1/2-x,y,z
x,1/2-y,z
loop_
_atom_site_type_symbol
_atom_site_label
_atom_site_fract_x
_atom_site_fract_y
_atom_site_fract_z
Si Si1 0.146880 0.434066 0.898894
Si Si2 0.146505 0.937355 0.468124
Si Si3 0.144122 0.931794 0.026872
Si Si4 0.145005 0.063593 0.250158
Si Si5 0.467128 0.565242 0.357921
Si Si6 0.146029 0.563941 0.600769
Si Si7 0.036082 0.065631 0.135054
O O1 0.250000 0.482912 0.884335
O O2 0.141532 0.250000 0.894286
O O3 0.067509 0.510233 0.861766
O O4 0.130485 0.482918 0.965791
O O5 0.250000 0.982203 0.453932
O O6 0.144086 0.750000 0.468819
O O7 0.079262 0.990920 0.418126
O O8 0.127268 0.987501 0.534023
O O9 0.250000 0.953304 0.043242
O O10 0.127837 0.750000 0.018180
O O11 0.081177 0.995192 0.077507
O O12 0.250000 0.014090 0.250147
O O13 0.143316 0.250000 0.253063
O O14 0.094414 0.017358 0.190921
O O15 0.091185 0.997211 0.304705
O O16 0.465401 0.750000 0.357379
O O17 0.569935 0.506539 0.358432
O O18 0.250000 0.521524 0.614355
O O19 0.140439 0.750000 0.602252
O O20 0.038772 0.250000 0.130694
#
# Coordination Sequence:
#
# PCOD9450571 Si02
#       7
#     8   8   8   8   8   8   8
#     4  10  21  37  57  82 113 146 180 221 269 321
#     4   8  15  29  50  78 110 142 176 216 266 322
#     4  10  20  34  55  84 116 148 182 221 267 321
#     4  10  23  42  60  79 106 142 183 222 262 317
#     4  11  21  33  54  82 111 142 177 223 275 321
#     4   9  18  34  55  77 106 145 184 221 264 319
#     4  11  22  37  58  81 108 143 183 227 272 318
#
# _framework density 18.996877000000001
#
# number of rings (size 3 to 8) (size 9 to 14) (size 15 to 20)
#    0.000    2.143    0.000    4.286    0.000    4.571 
#    0.000    1.429    0.000    2.571    0.000    0.000 
#    0.000    0.000    0.000    0.000    0.000    0.000 
#
# Total GULP energy -312753.051432 kJ/mol
# GULP energy per Si atom -5584.875918 kJ/mol
# Density = 1.895364 g / cm^3
# Si number density = 18.996877 Si / 1000 Ang^3
#
#
#
# Elastic Constant Matrix: (Units=GPa)
#
#
# Indices 1 2 3 4 5 6 
#
# 1 147.6210 27.0153 72.2354 0.0000 0.0000 0.0000
# 2 27.0153 20.0495 12.5919 0.0000 0.0000 0.0000
# 3 72.2354 12.5919 51.0138 0.0000 0.0000 0.0000
# 4 0.0000 0.0000 0.0000 24.7228 0.0000 0.0000
# 5 0.0000 0.0000 0.0000 0.0000 33.6610 0.0000
# 6 0.0000 0.0000 0.0000 0.0000 0.0000 28.7695
#
#
#
# Elastic Compliance Matrix: (Units=1/GPa)
#
#
# Indices 1 2 3 4 5 6 
#
# 1 0.024779 -0.013435 -0.031771 0.000000 0.000000 0.000000
# 2 -0.013435 0.066311 0.002656 0.000000 0.000000 0.000000
# 3 -0.031771 0.002656 0.063935 0.000000 0.000000 0.000000
# 4 0.000000 0.000000 0.000000 0.040448 0.000000 0.000000
# 5 0.000000 0.000000 0.000000 0.000000 0.029708 0.000000
# 6 0.000000 0.000000 0.000000 0.000000 0.000000 0.034759
#
#
# Mechanical properties :
#
#
# Convention : Reuss Voigt Hill
#
# Bulk Modulus (GPa) = 14.30104 49.15215 31.72659
# Shear Modulus (GPa) = 13.57404 24.55346 19.06375
#
# Velocity S-wave (km/s) = 2.67599 3.59904 3.17128
# Velocity P-wave (km/s) = 4.13429 6.57273 5.49059
#
# Compressibility (1/GPa) = 0.06992501
#
# Stress axis : x y z
#
# Youngs Moduli (GPa) = 40.35600 15.08046 15.64082
#
# Poissons Ratio (x) = 0.20260 0.49693
# Poissons Ratio (y) = 0.54218 -0.04154
# Poissons Ratio (z) = 1.28217 -0.04005
#
# Static dielectric constant tensor:
#      x y z
#    x 1.670820 0.000000 0.000000 
#    y 0.000000 1.642670 0.000000 
#    z 0.000000 0.000000 1.634570 
# 
# From -- ./inp_files/30284.got.cif
#   From: 2010.05.17/outbox.cif.g08.bks.cpg/sg59_16_cif.got.tgz:30284.got - 2010.06.03 14:40:33.
