data_PCOD9450676
_publ_section_title
;
Structure prediction by ZEFSAII (Michael W. Deem and Ramdas Pophale) SiO2 
 PCOD9450676
Probable space group: P M M N
;
_chemical_formula_sum "Si O2"
_cell_formula_units_Z 48
_cell_length_a 9.335455
_cell_length_b 7.744135
_cell_length_c 35.527951
_cell_angle_alpha 90.000000
_cell_angle_beta 90.000000
_cell_angle_gamma 90.000000
_cell_volume 2568.494063
_symmetry_space_group_name_H-M "P M M N"
_symmetry_group_IT_number 59
_space_group.IT_coordinate_system_code '2'
_symmetry_cell_setting 'orthorhombic'
loop_
_space_group_symop_operation_xyz
x,y,z
1/2-x,1/2-y,z
1/2+x,-y,-z
-x,1/2+y,-z
-x,-y,-z
1/2+x,1/2+y,-z
1/2-x,y,z
x,1/2-y,z
loop_
_atom_site_type_symbol
_atom_site_label
_atom_site_fract_x
_atom_site_fract_y
_atom_site_fract_z
Si Si1 0.578338 0.250000 0.244282
Si Si2 0.418373 0.447343 0.813367
Si Si3 0.575412 0.051255 0.619288
Si Si4 0.088327 0.542698 0.463079
Si Si5 0.076769 0.250000 0.323886
Si Si6 0.084490 0.040316 0.111185
Si Si7 0.913025 0.457783 0.037567
O O1 0.750000 0.250000 0.250648
O O2 0.542228 0.416819 0.218897
O O3 0.495957 0.250000 0.283416
O O4 0.250000 0.476633 0.822581
O O5 0.434682 0.250000 0.800615
O O6 0.510309 0.477362 0.850730
O O7 0.750000 0.052683 0.617479
O O8 0.529754 0.250000 0.625734
O O9 0.528146 0.988231 0.577701
O O10 0.534811 0.918621 0.651797
O O11 0.250000 0.474426 0.467132
O O12 0.096110 0.750000 0.460258
O O13 0.000000 0.500000 0.500000
O O14 0.250000 0.250000 0.320227
O O15 0.250000 0.986481 0.108919
O O16 0.081261 0.250000 0.111706
O O17 0.996573 0.980217 0.074631
O O18 0.750000 0.523420 0.035897
O O19 0.906566 0.250000 0.040292
O O20 0.000000 0.500000 0.000000
#
# Coordination Sequence:
#
# PCOD9450676 Si02
#       7
#     4   8   8   8   4   8   8
#     4  10  22  40  58  82 118 146 174 230 286 332
#     4  10  21  38  61  85 110 147 188 222 271 337
#     4   8  16  32  51  74 105 138 179 227 269 320
#     4   9  18  31  48  73 104 138 178 225 273 321
#     4  10  20  34  58  82 100 140 188 220 270 334
#     4  10  20  35  57  83 112 146 184 231 285 333
#     4  10  21  36  55  79 110 150 193 235 279 327
#
# _framework density 18.687992999999999
#
# number of rings (size 3 to 8) (size 9 to 14) (size 15 to 20)
#    0.000    2.500    0.833    2.000    1.167    4.333 
#    0.000    0.833    0.000    1.000    0.000    0.000 
#    0.000    0.000    0.000    0.000    0.000    0.000 
#
# Total GULP energy -267850.007517 kJ/mol
# GULP energy per Si atom -5580.208490 kJ/mol
# Density = 1.864546 g / cm^3
# Si number density = 18.687993 Si / 1000 Ang^3
#
#
#
# Elastic Constant Matrix: (Units=GPa)
#
#
# Indices 1 2 3 4 5 6 
#
# 1 86.8515 41.8957 86.8839 0.0000 0.0000 0.0000
# 2 41.8957 78.1286 69.2628 0.0000 0.0000 0.0000
# 3 86.8839 69.2628 203.5137 0.0000 0.0000 0.0000
# 4 0.0000 0.0000 0.0000 22.9647 0.0000 0.0000
# 5 0.0000 0.0000 0.0000 0.0000 38.9470 0.0000
# 6 0.0000 0.0000 0.0000 0.0000 0.0000 17.2962
#
#
#
# Elastic Compliance Matrix: (Units=1/GPa)
#
#
# Indices 1 2 3 4 5 6 
#
# 1 0.021288 -0.004810 -0.007451 0.000000 0.000000 0.000000
# 2 -0.004810 0.019416 -0.004555 0.000000 0.000000 0.000000
# 3 -0.007451 -0.004555 0.009645 0.000000 0.000000 0.000000
# 4 0.000000 0.000000 0.000000 0.043545 0.000000 0.000000
# 5 0.000000 0.000000 0.000000 0.000000 0.025676 0.000000
# 6 0.000000 0.000000 0.000000 0.000000 0.000000 0.057816
#
#
# Mechanical properties :
#
#
# Convention : Reuss Voigt Hill
#
# Bulk Modulus (GPa) = 59.81625 84.95319 72.38472
# Shear Modulus (GPa) = 23.08493 27.20500 25.14496
#
# Velocity S-wave (km/s) = 3.51847 3.81956 3.67210
# Velocity P-wave (km/s) = 6.97019 8.06285 7.53635
#
# Compressibility (1/GPa) = 0.01671787
#
# Stress axis : x y z
#
# Youngs Moduli (GPa) = 46.97421 51.50266 103.68088
#
# Poissons Ratio (x) = 0.24771 0.77257
# Poissons Ratio (y) = 0.22593 0.47224
# Poissons Ratio (z) = 0.35003 0.23458
#
# Static dielectric constant tensor:
#      x y z
#    x 1.638570 0.000000 0.000000 
#    y 0.000000 1.672300 0.000000 
#    z 0.000000 0.000000 1.614390 
# 
# From -- ./inp_files/33077.got.cif
#   From: 2010.05.17/outbox.cif.g08.bks.cpg/sg59_17_cif.got.tgz:33077.got - 2010.06.03 14:40:33.
