data_PCOD9450106
_publ_section_title
;
Structure prediction by ZEFSAII (Michael W. Deem and Ramdas Pophale) SiO2 
 PCOD9450106
Probable space group: P M M N
;
_chemical_formula_sum "Si O2"
_cell_formula_units_Z 64
_cell_length_a 25.667592
_cell_length_b 7.984749
_cell_length_c 15.348581
_cell_angle_alpha 90.000000
_cell_angle_beta 90.000000
_cell_angle_gamma 90.000000
_cell_volume 3145.680618
_symmetry_space_group_name_H-M "P M M N"
_symmetry_group_IT_number 59
_space_group.IT_coordinate_system_code '2'
_symmetry_cell_setting 'orthorhombic'
loop_
_space_group_symop_operation_xyz
x,y,z
1/2-x,1/2-y,z
1/2+x,-y,-z
-x,1/2+y,-z
-x,-y,-z
1/2+x,1/2+y,-z
1/2-x,y,z
x,1/2-y,z
loop_
_atom_site_type_symbol
_atom_site_label
_atom_site_fract_x
_atom_site_fract_y
_atom_site_fract_z
Si Si1 0.461990 0.940287 0.925099
Si Si2 0.615036 0.949577 0.301865
Si Si3 0.607143 0.447014 0.792235
Si Si4 0.352730 0.557275 0.024039
Si Si5 0.006299 0.440419 0.745893
Si Si6 0.190846 0.549649 0.542945
Si Si7 0.307211 0.952749 0.851608
Si Si8 0.190374 0.448213 0.346164
O O1 0.473917 0.750000 0.897156
O O2 0.470248 0.058482 0.843331
O O3 0.405641 0.939370 0.968029
O O4 0.500000 0.000000 0.000000
O O5 0.610093 0.750000 0.300133
O O6 0.555582 0.019080 0.305031
O O7 0.649765 0.999956 0.384030
O O8 0.647376 0.999891 0.215504
O O9 0.596585 0.250000 0.811716
O O10 0.631475 0.518520 0.882372
O O11 0.551442 0.517171 0.758703
O O12 0.649675 0.464383 0.717192
O O13 0.335354 0.750000 0.041452
O O14 0.314454 0.482644 0.950964
O O15 0.998391 0.250000 0.713398
O O16 0.250000 0.493581 0.565503
O O17 0.191537 0.750000 0.536716
O O18 0.178134 0.478971 0.447555
O O19 0.250000 0.003324 0.818312
O O20 0.308437 0.750000 0.856625
O O21 0.250000 0.506907 0.331923
O O22 0.188458 0.250000 0.328880
#
# Coordination Sequence:
#
# PCOD9450106 Si02
#       8
#     8   8   8   8   8   8   8   8
#     4  11  19  31  52  76 106 144 190 239 283 325
#     4  11  22  35  55  83 117 150 183 229 286 338
#     4  10  20  37  59  83 113 148 192 235 275 330
#     4   9  18  32  51  76 106 144 189 235 276 318
#     4  10  21  36  53  81 116 151 190 233 278 328
#     4  10  21  39  64  89 110 141 188 233 276 334
#     4  10  20  34  51  75 110 150 194 239 281 333
#     4  10  22  41  63  88 116 141 175 229 287 338
#
# _framework density 20.345358000000001
#
# number of rings (size 3 to 8) (size 9 to 14) (size 15 to 20)
#    0.000    1.875    2.500    1.875    0.000    4.750 
#    0.000    2.500    0.000    0.000    0.000    0.000 
#    0.000    0.000    0.000    0.000    0.000    0.000 
#
# Total GULP energy -356817.103843 kJ/mol
# GULP energy per Si atom -5575.267248 kJ/mol
# Density = 2.029905 g / cm^3
# Si number density = 20.345358 Si / 1000 Ang^3
#
#
#
# Elastic Constant Matrix: (Units=GPa)
#
#
# Indices 1 2 3 4 5 6 
#
# 1 97.3406 1.9717 54.8206 0.0000 0.0000 0.0000
# 2 1.9717 33.2636 -5.0135 0.0000 0.0000 0.0000
# 3 54.8206 -5.0135 86.5637 0.0000 0.0000 0.0000
# 4 0.0000 0.0000 0.0000 9.7474 0.0000 0.0000
# 5 0.0000 0.0000 0.0000 0.0000 34.6922 0.0000
# 6 0.0000 0.0000 0.0000 0.0000 0.0000 11.6747
#
#
#
# Elastic Compliance Matrix: (Units=1/GPa)
#
#
# Indices 1 2 3 4 5 6 
#
# 1 0.016176 -0.002525 -0.010391 0.000000 0.000000 0.000000
# 2 -0.002525 0.030722 0.003378 0.000000 0.000000 0.000000
# 3 -0.010391 0.003378 0.018328 0.000000 0.000000 0.000000
# 4 0.000000 0.000000 0.000000 0.102591 0.000000 0.000000
# 5 0.000000 0.000000 0.000000 0.000000 0.028825 0.000000
# 6 0.000000 0.000000 0.000000 0.000000 0.000000 0.085655
#
#
# Mechanical properties :
#
#
# Convention : Reuss Voigt Hill
#
# Bulk Modulus (GPa) = 21.66763 35.63616 28.65190
# Shear Modulus (GPa) = 15.78504 22.24880 19.01692
#
# Velocity S-wave (km/s) = 2.78844 3.31048 3.06061
# Velocity P-wave (km/s) = 4.58696 5.67151 5.15782
#
# Compressibility (1/GPa) = 0.04615179
#
# Stress axis : x y z
#
# Youngs Moduli (GPa) = 61.81956 32.55023 54.56093
#
# Poissons Ratio (x) = 0.08219 0.56692
# Poissons Ratio (y) = 0.15609 -0.18432
# Poissons Ratio (z) = 0.64234 -0.10997
#
# Static dielectric constant tensor:
#      x y z
#    x 1.768360 0.000000 0.000000 
#    y 0.000000 1.756970 0.000000 
#    z 0.000000 0.000000 1.694630 
# 
# From -- ./inp_files/24700.got.cif
#   From: 2010.05.17/outbox.cif.g08.bks.cpg/sg59_13_cif.got.tgz:24700.got - 2010.06.03 14:40:33.
