data_PCOD9450248
_publ_section_title
;
Structure prediction by ZEFSAII (Michael W. Deem and Ramdas Pophale) SiO2 
 PCOD9450248
Probable space group: P M M N
;
_chemical_formula_sum "Si O2"
_cell_formula_units_Z 56
_cell_length_a 14.858650
_cell_length_b 9.036155
_cell_length_c 21.636392
_cell_angle_alpha 90.000000
_cell_angle_beta 90.000000
_cell_angle_gamma 90.000000
_cell_volume 2905.011567
_symmetry_space_group_name_H-M "P M M N"
_symmetry_group_IT_number 59
_space_group.IT_coordinate_system_code '2'
_symmetry_cell_setting 'orthorhombic'
loop_
_space_group_symop_operation_xyz
x,y,z
1/2-x,1/2-y,z
1/2+x,-y,-z
-x,1/2+y,-z
-x,-y,-z
1/2+x,1/2+y,-z
1/2-x,y,z
x,1/2-y,z
loop_
_atom_site_type_symbol
_atom_site_label
_atom_site_fract_x
_atom_site_fract_y
_atom_site_fract_z
Si Si1 0.528158 0.572533 0.778267
Si Si2 0.352134 0.413631 0.585128
Si Si3 0.465746 0.927034 0.091438
Si Si4 0.145256 0.071571 0.981153
Si Si5 0.142801 0.425444 0.343536
Si Si6 0.589185 0.073913 0.528496
Si Si7 0.354572 0.926466 0.706397
O O1 0.534826 0.750000 0.787435
O O2 0.552457 0.489342 0.840666
O O3 0.590647 0.534878 0.719351
O O4 0.425236 0.535827 0.759550
O O5 0.250000 0.393514 0.605282
O O6 0.392528 0.250000 0.575390
O O7 0.345712 0.507015 0.523019
O O8 0.391948 0.500279 0.643238
O O9 0.457696 0.750000 0.089674
O O10 0.568728 0.965600 0.070204
O O11 0.395973 0.998099 0.042804
O O12 0.250000 0.028070 0.969409
O O13 0.144369 0.250000 0.987895
O O14 0.250000 0.446588 0.336334
O O15 0.126547 0.250000 0.355162
O O16 0.109953 0.515022 0.403389
O O17 0.410953 0.750000 0.473114
O O18 0.500000 0.000000 0.500000
O O19 0.250000 0.964512 0.719916
O O20 0.357337 0.750000 0.696798
#
# Coordination Sequence:
#
# PCOD9450248 Si02
#       7
#     8   8   8   8   8   8   8
#     4  10  21  37  56  79 112 154 193 230 279 338
#     4  10  20  34  53  77 105 137 175 222 278 338
#     4  10  21  36  57  88 120 149 188 237 282 328
#     4   9  19  38  62  86 116 154 191 227 274 333
#     4  10  22  40  59  80 110 150 196 241 284 337
#     4  12  24  37  56  80 106 138 180 233 293 349
#     4   9  18  33  53  78 109 147 193 241 287 339
#
# _framework density 19.277032999999999
#
# number of rings (size 3 to 8) (size 9 to 14) (size 15 to 20)
#    0.000    2.000    0.000    3.429    0.000    7.143 
#    0.000    1.429    0.000    0.000    0.000    0.000 
#    0.000    0.000    0.000    0.000    0.000    0.000 
#
# Total GULP energy -312203.216832 kJ/mol
# GULP energy per Si atom -5575.057443 kJ/mol
# Density = 1.923316 g / cm^3
# Si number density = 19.277033 Si / 1000 Ang^3
#
#
#
# Elastic Constant Matrix: (Units=GPa)
#
#
# Indices 1 2 3 4 5 6 
#
# 1 77.3309 18.3824 8.0503 0.0000 0.0000 0.0000
# 2 18.3824 48.2458 33.2031 0.0000 0.0000 0.0000
# 3 8.0503 33.2031 94.6813 0.0000 0.0000 0.0000
# 4 0.0000 0.0000 0.0000 29.7547 0.0000 0.0000
# 5 0.0000 0.0000 0.0000 0.0000 16.9139 0.0000
# 6 0.0000 0.0000 0.0000 0.0000 0.0000 19.2480
#
#
#
# Elastic Compliance Matrix: (Units=1/GPa)
#
#
# Indices 1 2 3 4 5 6 
#
# 1 0.014279 -0.006070 0.000915 0.000000 0.000000 0.000000
# 2 -0.006070 0.029901 -0.009970 0.000000 0.000000 0.000000
# 3 0.000915 -0.009970 0.013980 0.000000 0.000000 0.000000
# 4 0.000000 0.000000 0.000000 0.033608 0.000000 0.000000
# 5 0.000000 0.000000 0.000000 0.000000 0.059123 0.000000
# 6 0.000000 0.000000 0.000000 0.000000 0.000000 0.051953
#
#
# Mechanical properties :
#
#
# Convention : Reuss Voigt Hill
#
# Bulk Modulus (GPa) = 35.82918 37.72551 36.77734
# Shear Modulus (GPa) = 20.62719 23.89147 22.25933
#
# Velocity S-wave (km/s) = 3.27469 3.52429 3.40178
# Velocity P-wave (km/s) = 5.73803 6.01444 5.87786
#
# Compressibility (1/GPa) = 0.02791021
#
# Stress axis : x y z
#
# Youngs Moduli (GPa) = 70.03236 33.44358 71.52979
#
# Poissons Ratio (x) = 0.20300 -0.06542
# Poissons Ratio (y) = 0.42509 0.71313
# Poissons Ratio (z) = -0.06405 0.33342
#
# Static dielectric constant tensor:
#      x y z
#    x 1.845110 0.000000 0.000000 
#    y 0.000000 1.651820 0.000000 
#    z 0.000000 0.000000 1.641370 
# 
# From -- ./inp_files/30296.got.cif
#   From: 2010.05.17/outbox.cif.g08.bks.cpg/sg59_16_cif.got.tgz:30296.got - 2010.06.03 14:40:33.
