data_PCOD9450285
_publ_section_title
;
Structure prediction by ZEFSAII (Michael W. Deem and Ramdas Pophale) SiO2 
 PCOD9450285
Probable space group: P M M N
;
_chemical_formula_sum "Si O2"
_cell_formula_units_Z 48
_cell_length_a 8.468695
_cell_length_b 9.197867
_cell_length_c 31.796586
_cell_angle_alpha 90.000000
_cell_angle_beta 90.000000
_cell_angle_gamma 90.000000
_cell_volume 2476.761053
_symmetry_space_group_name_H-M "P M M N"
_symmetry_group_IT_number 59
_space_group.IT_coordinate_system_code '2'
_symmetry_cell_setting 'orthorhombic'
loop_
_space_group_symop_operation_xyz
x,y,z
1/2-x,1/2-y,z
1/2+x,-y,-z
-x,1/2+y,-z
-x,-y,-z
1/2+x,1/2+y,-z
1/2-x,y,z
x,1/2-y,z
loop_
_atom_site_type_symbol
_atom_site_label
_atom_site_fract_x
_atom_site_fract_y
_atom_site_fract_z
Si Si1 0.941240 0.418506 0.210704
Si Si2 0.060574 0.918193 0.623944
Si Si3 0.058961 0.582127 0.958727
Si Si4 0.942761 0.582323 0.125859
Si Si5 0.439428 0.581858 0.458686
Si Si6 0.560638 0.418216 0.706583
O O1 0.750000 0.421342 0.211678
O O2 0.990793 0.250000 0.211015
O O3 0.992806 0.498169 0.167884
O O4 0.003094 0.502244 0.251380
O O5 0.250000 0.919550 0.623166
O O6 0.007495 0.750000 0.623904
O O7 0.998372 0.000639 0.582905
O O8 0.003069 0.998688 0.665799
O O9 0.250000 0.580767 0.958878
O O10 0.007112 0.750000 0.958626
O O11 0.006154 0.499881 0.916410
O O12 0.000000 0.500000 0.000000
O O13 0.750000 0.581969 0.125784
O O14 0.994077 0.750000 0.126183
O O15 0.500000 0.500000 0.500000
O O16 0.250000 0.580658 0.458958
O O17 0.492693 0.750000 0.458695
O O18 0.750000 0.420288 0.705349
O O19 0.507716 0.250000 0.706395
#
# Coordination Sequence:
#
# PCOD9450285 Si02
#       6
#     8   8   8   8   8   8
#     4  10  20  35  57  84 111 141 181 227 274 328
#     4  11  24  41  62  89 118 150 192 238 283 335
#     4  10  20  34  53  78 108 142 181 226 275 328
#     4   9  17  31  53  79 107 141 180 223 273 328
#     4  11  24  41  62  90 122 156 196 239 284 337
#     4  11  24  40  58  83 115 150 188 230 278 333
#
# _framework density 19.380147999999998
#
# number of rings (size 3 to 8) (size 9 to 14) (size 15 to 20)
#    0.000    1.667    0.000    4.500    0.000   14.000 
#    0.000    0.833    0.000    5.000    0.000    0.000 
#    0.000    0.000    0.000    0.000    0.000    0.000 
#
# Total GULP energy -268381.805977 kJ/mol
# GULP energy per Si atom -5591.287625 kJ/mol
# Density = 1.933604 g / cm^3
# Si number density = 19.380148 Si / 1000 Ang^3
#
#
#
# Elastic Constant Matrix: (Units=GPa)
#
#
# Indices 1 2 3 4 5 6 
#
# 1 22.1886 39.8557 32.6681 0.0000 0.0000 0.0000
# 2 39.8557 247.0220 149.6644 0.0000 0.0000 0.0000
# 3 32.6681 149.6644 241.7565 0.0000 0.0000 0.0000
# 4 0.0000 0.0000 0.0000 46.6264 0.0000 0.0000
# 5 0.0000 0.0000 0.0000 0.0000 34.6683 0.0000
# 6 0.0000 0.0000 0.0000 0.0000 0.0000 27.5455
#
#
#
# Elastic Compliance Matrix: (Units=1/GPa)
#
#
# Indices 1 2 3 4 5 6 
#
# 1 0.065455 -0.008324 -0.003692 0.000000 0.000000 0.000000
# 2 -0.008324 0.007537 -0.003541 0.000000 0.000000 0.000000
# 3 -0.003692 -0.003541 0.006827 0.000000 0.000000 0.000000
# 4 0.000000 0.000000 0.000000 0.021447 0.000000 0.000000
# 5 0.000000 0.000000 0.000000 0.000000 0.028845 0.000000
# 6 0.000000 0.000000 0.000000 0.000000 0.000000 0.036304
#
#
# Mechanical properties :
#
#
# Convention : Reuss Voigt Hill
#
# Bulk Modulus (GPa) = 20.53138 106.14929 63.34033
# Shear Modulus (GPa) = 23.39035 41.01997 32.20516
#
# Velocity S-wave (km/s) = 3.47785 4.60564 4.08089
# Velocity P-wave (km/s) = 5.17149 9.11996 7.41343
#
# Compressibility (1/GPa) = 0.04870593
#
# Stress axis : x y z
#
# Youngs Moduli (GPa) = 15.27758 132.68550 146.47155
#
# Poissons Ratio (x) = 1.10451 0.54071
# Poissons Ratio (y) = 0.12717 0.51863
# Poissons Ratio (z) = 0.05640 0.46982
#
# Static dielectric constant tensor:
#      x y z
#    x 1.672730 0.000000 0.000000 
#    y 0.000000 1.662410 0.000000 
#    z 0.000000 0.000000 1.622820 
# 
# From -- ./inp_files/32864.got.cif
#   From: 2010.05.17/outbox.cif.g08.bks.cpg/sg59_17_cif.got.tgz:32864.got - 2010.06.03 14:40:33.
