data_PCOD9450602
_publ_section_title
;
Structure prediction by ZEFSAII (Michael W. Deem and Ramdas Pophale) SiO2 
 PCOD9450602
Probable space group: P M M N
;
_chemical_formula_sum "Si O2"
_cell_formula_units_Z 48
_cell_length_a 7.794690
_cell_length_b 9.306245
_cell_length_c 35.613895
_cell_angle_alpha 90.000000
_cell_angle_beta 90.000000
_cell_angle_gamma 90.000000
_cell_volume 2583.406830
_symmetry_space_group_name_H-M "P M M N"
_symmetry_group_IT_number 59
_space_group.IT_coordinate_system_code '2'
_symmetry_cell_setting 'orthorhombic'
loop_
_space_group_symop_operation_xyz
x,y,z
1/2-x,1/2-y,z
1/2+x,-y,-z
-x,1/2+y,-z
-x,-y,-z
1/2+x,1/2+y,-z
1/2-x,y,z
x,1/2-y,z
loop_
_atom_site_type_symbol
_atom_site_label
_atom_site_fract_x
_atom_site_fract_y
_atom_site_fract_z
Si Si1 0.750000 0.421980 0.254756
Si Si2 0.956028 0.412170 0.963134
Si Si3 0.547874 0.578533 0.686711
Si Si4 0.544428 0.087399 0.611669
Si Si5 0.953913 0.412192 0.462770
Si Si6 0.552346 0.074819 0.880834
Si Si7 0.750000 0.576199 0.175152
O O1 0.750000 0.250000 0.248335
O O2 0.580646 0.456505 0.279392
O O3 0.750000 0.504918 0.215722
O O4 0.750000 0.404498 0.960608
O O5 0.024117 0.250000 0.966941
O O6 0.009026 0.472712 0.922405
O O7 0.000000 0.500000 0.000000
O O8 0.750000 0.546700 0.694399
O O9 0.535630 0.750000 0.679698
O O10 0.489807 0.494471 0.649412
O O11 0.750000 0.096150 0.614145
O O12 0.475886 0.250000 0.609359
O O13 0.505609 0.997523 0.574474
O O14 0.750000 0.400919 0.462152
O O15 0.026580 0.250000 0.463411
O O16 0.000000 0.500000 0.500000
O O17 0.750000 0.029296 0.874177
O O18 0.553975 0.250000 0.882565
O O19 0.418372 0.033708 0.848832
O O20 0.750000 0.750000 0.178416
#
# Coordination Sequence:
#
# PCOD9450602 Si02
#       7
#     4   8   8   8   8   8   4
#     4  10  22  38  56  82 114 142 178 228 278 334
#     4   9  18  31  48  73 103 136 176 223 272 321
#     4   9  19  37  59  81 110 148 183 219 271 332
#     4  10  21  37  58  85 114 143 179 226 278 327
#     4  11  24  39  56  80 111 148 190 232 274 324
#     4   8  16  32  51  73 103 137 178 223 265 320
#     4  10  20  34  56  80 100 138 184 220 272 328
#
# _framework density 18.580116
#
# number of rings (size 3 to 8) (size 9 to 14) (size 15 to 20)
#    0.000    2.500    0.000    2.500    2.333    6.000 
#    0.000    0.833    0.000    1.000    0.000    0.000 
#    0.000    0.000    0.000    0.000    0.000    0.000 
#
# Total GULP energy -267734.007719 kJ/mol
# GULP energy per Si atom -5577.791827 kJ/mol
# Density = 1.853783 g / cm^3
# Si number density = 18.580116 Si / 1000 Ang^3
#
#
#
# Elastic Constant Matrix: (Units=GPa)
#
#
# Indices 1 2 3 4 5 6 
#
# 1 73.1778 36.0805 70.4871 0.0000 0.0000 0.0000
# 2 36.0805 78.9600 86.7606 0.0000 0.0000 0.0000
# 3 70.4871 86.7606 213.4166 0.0000 0.0000 0.0000
# 4 0.0000 0.0000 0.0000 37.8131 0.0000 0.0000
# 5 0.0000 0.0000 0.0000 0.0000 35.8054 0.0000
# 6 0.0000 0.0000 0.0000 0.0000 0.0000 16.5684
#
#
#
# Elastic Compliance Matrix: (Units=1/GPa)
#
#
# Indices 1 2 3 4 5 6 
#
# 1 0.020561 -0.003495 -0.005370 0.000000 0.000000 0.000000
# 2 -0.003495 0.023483 -0.008392 0.000000 0.000000 0.000000
# 3 -0.005370 -0.008392 0.009871 0.000000 0.000000 0.000000
# 4 0.000000 0.000000 0.000000 0.026446 0.000000 0.000000
# 5 0.000000 0.000000 0.000000 0.000000 0.027929 0.000000
# 6 0.000000 0.000000 0.000000 0.000000 0.000000 0.060356
#
#
# Mechanical properties :
#
#
# Convention : Reuss Voigt Hill
#
# Bulk Modulus (GPa) = 51.54419 83.57900 67.56159
# Shear Modulus (GPa) = 23.85189 29.51913 26.68551
#
# Velocity S-wave (km/s) = 3.58681 3.99023 3.79389
# Velocity P-wave (km/s) = 6.70488 8.14309 7.45873
#
# Compressibility (1/GPa) = 0.01940083
#
# Stress axis : x y z
#
# Youngs Moduli (GPa) = 48.63540 42.58414 101.30533
#
# Poissons Ratio (x) = 0.14881 0.54404
# Poissons Ratio (y) = 0.16996 0.85019
# Poissons Ratio (z) = 0.26119 0.35738
#
# Static dielectric constant tensor:
#      x y z
#    x 1.645910 0.000000 0.000000 
#    y 0.000000 1.652420 0.000000 
#    z 0.000000 0.000000 1.424020 
# 
# From -- ./inp_files/33005.got.cif
#   From: 2010.05.17/outbox.cif.g08.bks.cpg/sg59_17_cif.got.tgz:33005.got - 2010.06.03 14:40:33.
