data_PCOD9450673
_publ_section_title
;
Structure prediction by ZEFSAII (Michael W. Deem and Ramdas Pophale) SiO2 
 PCOD9450673
Probable space group: P M M N
;
_chemical_formula_sum "Si O2"
_cell_formula_units_Z 40
_cell_length_a 9.024918
_cell_length_b 15.549785
_cell_length_c 14.641269
_cell_angle_alpha 90.000000
_cell_angle_beta 90.000000
_cell_angle_gamma 90.000000
_cell_volume 2054.690311
_symmetry_space_group_name_H-M "P M M N"
_symmetry_group_IT_number 59
_space_group.IT_coordinate_system_code '2'
_symmetry_cell_setting 'orthorhombic'
loop_
_space_group_symop_operation_xyz
x,y,z
1/2-x,1/2-y,z
1/2+x,-y,-z
-x,1/2+y,-z
-x,-y,-z
1/2+x,1/2+y,-z
1/2-x,y,z
x,1/2-y,z
loop_
_atom_site_type_symbol
_atom_site_label
_atom_site_fract_x
_atom_site_fract_y
_atom_site_fract_z
Si Si1 0.579658 0.645706 0.103053
Si Si2 0.074472 0.585635 0.286056
Si Si3 0.572864 0.409085 0.286217
Si Si4 0.074481 0.750000 0.413651
Si Si5 0.923944 0.353221 0.082953
Si Si6 0.926603 0.750000 0.609250
O O1 0.750000 0.618607 0.115612
O O2 0.573626 0.750000 0.105878
O O3 0.481188 0.610546 0.185123
O O4 0.519405 0.619152 0.003934
O O5 0.250000 0.569243 0.285197
O O6 0.045162 0.666138 0.352212
O O7 0.986960 0.501211 0.316700
O O8 0.750000 0.402189 0.296007
O O9 0.537390 0.397375 0.178465
O O10 0.494759 0.333250 0.341289
O O11 0.250000 0.750000 0.437421
O O12 0.978648 0.750000 0.504594
O O13 0.750000 0.368154 0.063862
O O14 0.942862 0.250000 0.095353
O O15 0.750000 0.750000 0.616831
#
# Coordination Sequence:
#
# PCOD9450673 Si02
#       6
#     8   8   8   4   8   4
#     4  10  20  34  57  90 126 165 208 255 307 364
#     4  11  23  41  65  94 125 164 210 258 310 370
#     4  11  23  42  66  94 128 166 206 256 311 368
#     4  10  24  46  69  90 121 162 205 256 316 372
#     4   9  18  35  59  86 120 165 210 249 299 362
#     4  12  26  44  69  96 123 158 203 256 314 376
#
# _framework density 19.467655000000001
#
# number of rings (size 3 to 8) (size 9 to 14) (size 15 to 20)
#    0.000    1.600    2.000    2.700    0.000    5.600 
#    0.000    0.000    0.000    0.000    0.000    0.000 
#    0.000    0.000    0.000    0.000    0.000    0.000 
#
# Total GULP energy -223702.639040 kJ/mol
# GULP energy per Si atom -5592.565976 kJ/mol
# Density = 1.942335 g / cm^3
# Si number density = 19.467655 Si / 1000 Ang^3
#
#
#
# Elastic Constant Matrix: (Units=GPa)
#
#
# Indices 1 2 3 4 5 6 
#
# 1 104.2012 66.2381 80.0557 0.0000 0.0000 0.0000
# 2 66.2381 109.3650 52.5025 0.0000 0.0000 0.0000
# 3 80.0557 52.5025 106.4732 0.0000 0.0000 0.0000
# 4 0.0000 0.0000 0.0000 -12.0931 0.0000 0.0000
# 5 0.0000 0.0000 0.0000 0.0000 28.2993 0.0000
# 6 0.0000 0.0000 0.0000 0.0000 0.0000 30.6900
#
#
#
# Elastic Compliance Matrix: (Units=1/GPa)
#
#
# Indices 1 2 3 4 5 6 
#
# 1 0.028226 -0.009049 -0.016760 0.000000 0.000000 0.000000
# 2 -0.009049 0.014881 -0.000534 0.000000 0.000000 0.000000
# 3 -0.016760 -0.000534 0.022257 0.000000 0.000000 0.000000
# 4 0.000000 0.000000 0.000000 -0.082692 0.000000 0.000000
# 5 0.000000 0.000000 0.000000 0.000000 0.035337 0.000000
# 6 0.000000 0.000000 0.000000 0.000000 0.000000 0.032584
#
#
# Mechanical properties :
#
#
# Convention : Reuss Voigt Hill
#
# Bulk Modulus (GPa) = 78.88350 79.73690 79.31020
# Shear Modulus (GPa) = 46.50934 17.46210 31.98572
#
# Velocity S-wave (km/s) = 4.89310 2.99821 4.05781
# Velocity P-wave (km/s) = 8.51654 7.28239 7.92353
#
# Compressibility (1/GPa) = 0.01267692
#
# Stress axis : x y z
#
# Youngs Moduli (GPa) = 35.42845 67.20124 44.92924
#
# Poissons Ratio (x) = 0.60812 0.75304
# Poissons Ratio (y) = 0.32060 0.02398
# Poissons Ratio (z) = 0.59380 0.03587
#
# Static dielectric constant tensor:
#      x y z
#    x 1.648930 0.000000 0.000000 
#    y 0.000000 1.692550 0.000000 
#    z 0.000000 0.000000 1.643180 
# 
# From -- ./inp_files/19904.got.cif
#   From: 2010.05.17/outbox.cif.g08.bks.cpg/sg59_10_cif.got.tgz:19904.got - 2010.06.03 14:40:33.
