data_PCOD9450356
_publ_section_title
;
Structure prediction by ZEFSAII (Michael W. Deem and Ramdas Pophale) SiO2 
 PCOD9450356
Probable space group: P M M N
;
_chemical_formula_sum "Si O2"
_cell_formula_units_Z 64
_cell_length_a 8.837440
_cell_length_b 16.644316
_cell_length_c 23.112718
_cell_angle_alpha 90.000000
_cell_angle_beta 90.000000
_cell_angle_gamma 90.000000
_cell_volume 3399.722357
_symmetry_space_group_name_H-M "P M M N"
_symmetry_group_IT_number 59
_space_group.IT_coordinate_system_code '2'
_symmetry_cell_setting 'orthorhombic'
loop_
_space_group_symop_operation_xyz
x,y,z
1/2-x,1/2-y,z
1/2+x,-y,-z
-x,1/2+y,-z
-x,-y,-z
1/2+x,1/2+y,-z
1/2-x,y,z
x,1/2-y,z
loop_
_atom_site_type_symbol
_atom_site_label
_atom_site_fract_x
_atom_site_fract_y
_atom_site_fract_z
Si Si1 0.925212 0.658262 0.625990
Si Si2 0.064942 0.509329 0.191884
Si Si3 0.927176 0.000799 0.680397
Si Si4 0.066316 0.157611 0.132110
Si Si5 0.068266 0.410241 0.005374
Si Si6 0.432670 0.841191 0.109789
Si Si7 0.417794 0.844582 0.508449
Si Si8 0.425551 0.458982 0.558051
O O1 0.750000 0.653565 0.605336
O O2 0.956689 0.750000 0.641661
O O3 0.939241 0.596275 0.677768
O O4 0.031179 0.631428 0.573165
O O5 0.250000 0.507326 0.192673
O O6 0.012947 0.526705 0.257460
O O7 0.016361 0.420329 0.170039
O O8 0.021199 0.583845 0.150774
O O9 0.750000 0.022024 0.676600
O O10 0.002208 0.028233 0.620726
O O11 0.250000 0.159526 0.136467
O O12 0.014858 0.250000 0.144906
O O13 0.028324 0.131991 0.066232
O O14 0.250000 0.416370 0.003103
O O15 0.006191 0.358406 0.952233
O O16 0.000000 0.500000 0.000000
O O17 0.250000 0.845123 0.104769
O O18 0.470706 0.750000 0.129589
O O19 0.250000 0.874572 0.493093
O O20 0.410872 0.750000 0.512103
O O21 0.539025 0.868389 0.460962
O O22 0.500000 0.500000 0.500000
O O23 0.250000 0.476240 0.560335
#
# Coordination Sequence:
#
# PCOD9450356 Si02
#       8
#     8   8   8   8   8   8   8   8
#     4   9  17  29  47  74 105 136 172 217 270 329
#     4   9  18  34  53  77 111 149 193 238 281 338
#     4  10  20  34  54  78 107 143 184 231 277 332
#     4   9  17  30  52  82 115 148 184 230 283 336
#     4  11  20  33  56  86 120 152 191 241 291 342
#     4  10  20  36  58  83 114 155 199 242 289 337
#     4  10  20  34  54  80 108 136 168 212 268 330
#     4  12  23  36  56  80 108 140 177 223 276 334
#
# _framework density 18.825066
#
# number of rings (size 3 to 8) (size 9 to 14) (size 15 to 20)
#    0.000    2.000    2.500    2.250    0.000    2.000 
#    0.000    3.750    0.000    2.250    0.000    0.000 
#    0.000    0.000    0.000    0.000    0.000    0.000 
#
# Total GULP energy -356408.301733 kJ/mol
# GULP energy per Si atom -5568.879715 kJ/mol
# Density = 1.878222 g / cm^3
# Si number density = 18.825066 Si / 1000 Ang^3
#
#
#
# Elastic Constant Matrix: (Units=GPa)
#
#
# Indices 1 2 3 4 5 6 
#
# 1 35.8597 14.5318 31.4839 0.0000 0.0000 0.0000
# 2 14.5318 88.8046 36.5040 0.0000 0.0000 0.0000
# 3 31.4839 36.5040 118.0973 0.0000 0.0000 0.0000
# 4 0.0000 0.0000 0.0000 16.0405 0.0000 0.0000
# 5 0.0000 0.0000 0.0000 0.0000 21.1766 0.0000
# 6 0.0000 0.0000 0.0000 0.0000 0.0000 20.3116
#
#
#
# Elastic Compliance Matrix: (Units=1/GPa)
#
#
# Indices 1 2 3 4 5 6 
#
# 1 0.036806 -0.002279 -0.009108 0.000000 0.000000 0.000000
# 2 -0.002279 0.013041 -0.003423 0.000000 0.000000 0.000000
# 3 -0.009108 -0.003423 0.011954 0.000000 0.000000 0.000000
# 4 0.000000 0.000000 0.000000 0.062342 0.000000 0.000000
# 5 0.000000 0.000000 0.000000 0.000000 0.047222 0.000000
# 6 0.000000 0.000000 0.000000 0.000000 0.000000 0.049233
#
#
# Mechanical properties :
#
#
# Convention : Reuss Voigt Hill
#
# Bulk Modulus (GPa) = 31.07465 45.31122 38.19294
# Shear Modulus (GPa) = 19.16107 22.18853 20.67480
#
# Velocity S-wave (km/s) = 3.19384 3.43690 3.31759
# Velocity P-wave (km/s) = 5.49033 6.31439 5.91672
#
# Compressibility (1/GPa) = 0.03218057
#
# Stress axis : x y z
#
# Youngs Moduli (GPa) = 27.16913 76.68226 83.65507
#
# Poissons Ratio (x) = 0.17476 0.76192
# Poissons Ratio (y) = 0.06192 0.28638
# Poissons Ratio (z) = 0.24745 0.26251
#
# Static dielectric constant tensor:
#      x y z
#    x 1.668530 0.000000 0.000000 
#    y 0.000000 1.775700 0.000000 
#    z 0.000000 0.000000 1.637020 
# 
# From -- ./inp_files/29448.got.cif
#   From: 2010.05.17/outbox.cif.g08.bks.cpg/sg59_15_cif.got.tgz:29448.got - 2010.06.03 14:40:33.
