data_PCOD9450940
_publ_section_title
;
Structure prediction by ZEFSAII (Michael W. Deem and Ramdas Pophale) SiO2 
 PCOD9450940
Probable space group: P M M N
;
_chemical_formula_sum "Si O2"
_cell_formula_units_Z 64
_cell_length_a 15.658842
_cell_length_b 16.408699
_cell_length_c 13.351961
_cell_angle_alpha 90.000000
_cell_angle_beta 90.000000
_cell_angle_gamma 90.000000
_cell_volume 3430.669216
_symmetry_space_group_name_H-M "P M M N"
_symmetry_group_IT_number 59
_space_group.IT_coordinate_system_code '2'
_symmetry_cell_setting 'orthorhombic'
loop_
_space_group_symop_operation_xyz
x,y,z
1/2-x,1/2-y,z
1/2+x,-y,-z
-x,1/2+y,-z
-x,-y,-z
1/2+x,1/2+y,-z
1/2-x,y,z
x,1/2-y,z
loop_
_atom_site_type_symbol
_atom_site_label
_atom_site_fract_x
_atom_site_fract_y
_atom_site_fract_z
Si Si1 0.343920 0.106626 0.437787
Si Si2 0.565803 0.342876 0.727631
Si Si3 0.153958 0.987872 0.833723
Si Si4 0.917533 0.659655 0.105049
Si Si5 0.655194 0.036184 0.399984
Si Si6 0.347227 0.488510 0.227501
Si Si7 0.989715 0.575569 0.924539
Si Si8 0.025059 0.659985 0.504230
O O1 0.250000 0.146885 0.438981
O O2 0.428043 0.158195 0.457722
O O3 0.345272 0.040291 0.526233
O O4 0.351860 0.058302 0.333317
O O5 0.601213 0.250000 0.730602
O O6 0.489675 0.345784 0.808614
O O7 0.628643 0.416901 0.754149
O O8 0.530855 0.357117 0.614956
O O9 0.250000 0.961437 0.858398
O O10 0.139299 0.079014 0.877566
O O11 0.144384 0.991895 0.713910
O O12 0.081713 0.925301 0.871609
O O13 0.877574 0.750000 0.112284
O O14 0.961863 0.648870 0.996368
O O15 0.750000 0.074847 0.408908
O O16 0.580688 0.095187 0.435775
O O17 0.250000 0.482026 0.189499
O O18 0.415909 0.448100 0.153566
O O19 0.000000 0.500000 0.000000
O O20 0.061329 0.750000 0.519916
#
# Coordination Sequence:
#
# PCOD9450940 Si02
#       8
#     8   8   8   8   8   8   8   8
#     4  10  21  35  56  84 116 155 195 236 280 336
#     4  10  20  35  56  86 116 145 183 233 291 341
#     4  10  20  35  59  87 112 148 192 234 281 339
#     4  10  21  39  59  83 115 145 181 238 298 344
#     4  10  20  35  57  85 116 152 194 233 278 338
#     4  11  21  36  58  84 113 150 193 238 284 336
#     4  10  20  36  56  82 110 146 184 236 282 342
#     4  11  22  34  57  85 118 158 192 234 286 338
#
# _framework density 18.655252000000001
#
# number of rings (size 3 to 8) (size 9 to 14) (size 15 to 20)
#    0.000    1.750    3.750    1.875    0.000    3.000 
#    0.000    3.750    0.000    6.375    0.000    0.000 
#    0.000    0.000    0.000    0.000    0.000    0.000 
#
# Total GULP energy -356861.345149 kJ/mol
# GULP energy per Si atom -5575.958518 kJ/mol
# Density = 1.861279 g / cm^3
# Si number density = 18.655252 Si / 1000 Ang^3
#
#
#
# Elastic Constant Matrix: (Units=GPa)
#
#
# Indices 1 2 3 4 5 6 
#
# 1 115.4990 32.0218 44.8049 0.0000 0.0000 0.0000
# 2 32.0218 57.7505 15.7145 0.0000 0.0000 0.0000
# 3 44.8049 15.7145 85.0753 0.0000 0.0000 0.0000
# 4 0.0000 0.0000 0.0000 21.6264 0.0000 0.0000
# 5 0.0000 0.0000 0.0000 0.0000 7.6800 0.0000
# 6 0.0000 0.0000 0.0000 0.0000 0.0000 -3.1156
#
#
#
# Elastic Compliance Matrix: (Units=1/GPa)
#
#
# Indices 1 2 3 4 5 6 
#
# 1 0.012252 -0.005304 -0.005473 0.000000 0.000000 0.000000
# 2 -0.005304 0.020529 -0.000998 0.000000 0.000000 0.000000
# 3 -0.005473 -0.000998 0.014821 0.000000 0.000000 0.000000
# 4 0.000000 0.000000 0.000000 0.046240 0.000000 0.000000
# 5 0.000000 0.000000 0.000000 0.000000 0.130208 0.000000
# 6 0.000000 0.000000 0.000000 0.000000 0.000000 -0.320967
#
#
# Mechanical properties :
#
#
# Convention : Reuss Voigt Hill
#
# Bulk Modulus (GPa) = 41.57886 49.26748 45.42317
# Shear Modulus (GPa) = -76.50930 16.29041 -30.10944
#
# Velocity S-wave (km/s) = -6.41102 2.95826 -4.02181
# Velocity P-wave (km/s) = 5.69783 6.17537 1.68374
#
# Compressibility (1/GPa) = 0.02405068
#
# Stress axis : x y z
#
# Youngs Moduli (GPa) = 81.62201 48.71246 67.47255
#
# Poissons Ratio (x) = 0.25838 0.36925
# Poissons Ratio (y) = 0.43294 0.06737
# Poissons Ratio (z) = 0.44668 0.04864
#
# Static dielectric constant tensor:
#      x y z
#    x 1.635300 0.000000 0.000000 
#    y 0.000000 1.626520 0.000000 
#    z 0.000000 0.000000 1.639980 
# 
# From -- ./inp_files/17238.got.cif
#   From: 2010.05.17/outbox.cif.g08.bks.cpg/sg59_9_cif.got.tgz:17238.got - 2010.06.03 14:40:33.
