data_PCOD9450481
_publ_section_title
;
Structure prediction by ZEFSAII (Michael W. Deem and Ramdas Pophale) SiO2 
 PCOD9450481
Probable space group: P M M N
;
_chemical_formula_sum "Si O2"
_cell_formula_units_Z 64
_cell_length_a 15.057979
_cell_length_b 24.106107
_cell_length_c 9.553287
_cell_angle_alpha 90.000000
_cell_angle_beta 90.000000
_cell_angle_gamma 90.000000
_cell_volume 3467.740512
_symmetry_space_group_name_H-M "P M M N"
_symmetry_group_IT_number 59
_space_group.IT_coordinate_system_code '2'
_symmetry_cell_setting 'orthorhombic'
loop_
_space_group_symop_operation_xyz
x,y,z
1/2-x,1/2-y,z
1/2+x,-y,-z
-x,1/2+y,-z
-x,-y,-z
1/2+x,1/2+y,-z
1/2-x,y,z
x,1/2-y,z
loop_
_atom_site_type_symbol
_atom_site_label
_atom_site_fract_x
_atom_site_fract_y
_atom_site_fract_z
Si Si1 0.993582 0.813847 0.649273
Si Si2 0.645558 0.908919 0.613368
Si Si3 0.853578 0.370286 0.518939
Si Si4 0.143046 0.507635 0.598537
Si Si5 0.526370 0.139646 0.045492
Si Si6 0.346872 0.420110 0.059754
Si Si7 0.647876 0.313720 0.809402
Si Si8 0.415044 0.518670 0.908710
O O1 0.970684 0.750000 0.628152
O O2 0.082185 0.830807 0.567669
O O3 0.011380 0.826637 0.812407
O O4 0.916070 0.855342 0.599395
O O5 0.750000 0.896368 0.593929
O O6 0.620942 0.957145 0.504812
O O7 0.634855 0.928835 0.774688
O O8 0.750000 0.360037 0.485957
O O9 0.873547 0.433769 0.477962
O O10 0.865816 0.356042 0.681762
O O11 0.250000 0.505207 0.628421
O O12 0.089296 0.505966 0.743703
O O13 0.428731 0.116453 0.003238
O O14 0.586332 0.084916 0.076340
O O15 0.576793 0.174163 0.928719
O O16 0.250000 0.392882 0.046809
O O17 0.344282 0.478865 0.981815
O O18 0.750000 0.320338 0.859996
O O19 0.639538 0.250000 0.759199
O O20 0.500000 0.500000 0.000000
#
# Coordination Sequence:
#
# PCOD9450481 Si02
#       8
#     8   8   8   8   8   8   8   8
#     4  11  22  38  60  85 116 158 198 245 294 345
#     4   9  21  39  60  89 119 154 198 245 297 358
#     4  10  22  39  59  85 115 154 198 243 298 357
#     4  10  20  37  59  86 120 156 194 243 302 358
#     4  10  21  37  55  85 117 153 201 243 289 358
#     4   9  19  36  57  82 118 155 192 241 298 357
#     4  10  22  39  58  82 115 155 198 248 301 353
#     4  10  20  34  54  84 118 152 187 234 294 352
#
# _framework density 18.455821
#
# number of rings (size 3 to 8) (size 9 to 14) (size 15 to 20)
#    0.000    2.125    1.250    1.125    1.750    5.000 
#    0.000    0.000    0.000    1.125    0.000    0.000 
#    0.000    4.000    0.000    0.000    0.000    0.000 
#
# Total GULP energy -356936.010959 kJ/mol
# GULP energy per Si atom -5577.125171 kJ/mol
# Density = 1.841381 g / cm^3
# Si number density = 18.455821 Si / 1000 Ang^3
#
#
#
# Elastic Constant Matrix: (Units=GPa)
#
#
# Indices 1 2 3 4 5 6 
#
# 1 81.8869 33.1806 52.6263 0.0000 0.0000 0.0000
# 2 33.1806 104.2877 53.6557 0.0000 0.0000 0.0000
# 3 52.6263 53.6557 78.9289 0.0000 0.0000 0.0000
# 4 0.0000 0.0000 0.0000 14.4097 0.0000 0.0000
# 5 0.0000 0.0000 0.0000 0.0000 27.0783 0.0000
# 6 0.0000 0.0000 0.0000 0.0000 0.0000 21.9038
#
#
#
# Elastic Compliance Matrix: (Units=1/GPa)
#
#
# Indices 1 2 3 4 5 6 
#
# 1 0.021414 0.000819 -0.014835 0.000000 0.000000 0.000000
# 2 0.000819 0.014778 -0.010592 0.000000 0.000000 0.000000
# 3 -0.014835 -0.010592 0.029761 0.000000 0.000000 0.000000
# 4 0.000000 0.000000 0.000000 0.069397 0.000000 0.000000
# 5 0.000000 0.000000 0.000000 0.000000 0.036930 0.000000
# 6 0.000000 0.000000 0.000000 0.000000 0.000000 0.045654
#
#
# Mechanical properties :
#
#
# Convention : Reuss Voigt Hill
#
# Bulk Modulus (GPa) = 59.74537 60.44763 60.09650
# Shear Modulus (GPa) = 18.33317 21.05442 19.69380
#
# Velocity S-wave (km/s) = 3.15517 3.38124 3.27016
# Velocity P-wave (km/s) = 6.76135 6.93307 6.84775
#
# Compressibility (1/GPa) = 0.01673770
#
# Stress axis : x y z
#
# Youngs Moduli (GPa) = 46.69862 67.66879 33.60049
#
# Poissons Ratio (x) = -0.05544 0.49846
# Poissons Ratio (y) = -0.03826 0.35591
# Poissons Ratio (z) = 0.69277 0.71677
#
# Static dielectric constant tensor:
#      x y z
#    x 1.730340 0.000000 0.000000 
#    y 0.000000 1.626030 0.000000 
#    z 0.000000 0.000000 1.622990 
# 
# From -- ./inp_files/9612.got.cif
#   From: 2010.05.17/outbox.cif.g08.bks.cpg/sg59_5_cif.got.tgz:9612.got - 2010.06.03 14:40:33.
