data_PCOD9450781
_publ_section_title
;
Structure prediction by ZEFSAII (Michael W. Deem and Ramdas Pophale) SiO2 
 PCOD9450781
Probable space group: P M M N
;
_chemical_formula_sum "Si O2"
_cell_formula_units_Z 56
_cell_length_a 15.017266
_cell_length_b 7.816712
_cell_length_c 22.610193
_cell_angle_alpha 90.000000
_cell_angle_beta 90.000000
_cell_angle_gamma 90.000000
_cell_volume 2654.112052
_symmetry_space_group_name_H-M "P M M N"
_symmetry_group_IT_number 59
_space_group.IT_coordinate_system_code '2'
_symmetry_cell_setting 'orthorhombic'
loop_
_space_group_symop_operation_xyz
x,y,z
1/2-x,1/2-y,z
1/2+x,-y,-z
-x,1/2+y,-z
-x,-y,-z
1/2+x,1/2+y,-z
1/2-x,y,z
x,1/2-y,z
loop_
_atom_site_type_symbol
_atom_site_label
_atom_site_fract_x
_atom_site_fract_y
_atom_site_fract_z
Si Si1 0.649612 0.951718 0.739128
Si Si2 0.045331 0.546253 0.143990
Si Si3 0.400228 0.544988 0.019436
Si Si4 0.845719 0.043055 0.106672
Si Si5 0.350913 0.543804 0.481555
Si Si6 0.847055 0.950116 0.382593
Si Si7 0.036699 0.547343 0.372611
O O1 0.750000 0.018717 0.748683
O O2 0.655011 0.750000 0.729185
O O3 0.587850 0.981331 0.795899
O O4 0.604037 0.027697 0.681139
O O5 0.053704 0.750000 0.143772
O O6 0.101496 0.479411 0.086781
O O7 0.939835 0.508782 0.135612
O O8 0.386746 0.750000 0.022082
O O9 0.500000 0.500000 0.000000
O O10 0.346838 0.483224 0.962174
O O11 0.750000 0.988289 0.133135
O O12 0.846925 0.250000 0.106381
O O13 0.250000 0.510800 0.459895
O O14 0.359738 0.750000 0.488106
O O15 0.358560 0.464030 0.546379
O O16 0.420640 0.478338 0.433237
O O17 0.750000 0.027366 0.368170
O O18 0.842512 0.750000 0.366018
O O19 0.938903 0.025129 0.357783
O O20 0.024710 0.750000 0.382831
#
# Coordination Sequence:
#
# PCOD9450781 Si02
#       7
#     8   8   8   8   8   8   8
#     4  11  25  42  58  77 101 132 174 223 272 323
#     4  10  20  35  56  80 108 143 181 222 266 315
#     4   8  15  28  48  75 105 138 175 213 256 305
#     4   9  17  31  53  81 114 148 179 216 263 314
#     4   9  17  29  48  76 107 138 174 215 259 309
#     4   9  18  32  51  78 110 140 171 209 255 308
#     4  10  20  35  55  77 104 140 178 217 262 309
#
# _framework density 21.099333999999999
#
# number of rings (size 3 to 8) (size 9 to 14) (size 15 to 20)
#    0.000    2.571    0.000    1.714    0.000    4.286 
#    0.000    3.571    0.000    2.571    0.000    0.000 
#    0.000    0.000    0.000    0.000    0.000    0.000 
#
# Total GULP energy -312073.155808 kJ/mol
# GULP energy per Si atom -5572.734925 kJ/mol
# Density = 2.105131 g / cm^3
# Si number density = 21.099334 Si / 1000 Ang^3
#
#
#
# Elastic Constant Matrix: (Units=GPa)
#
#
# Indices 1 2 3 4 5 6 
#
# 1 140.1950 3.9696 17.0865 0.0000 0.0000 0.0000
# 2 3.9696 26.4009 -14.6089 0.0000 0.0000 0.0000
# 3 17.0865 -14.6089 23.0009 0.0000 0.0000 0.0000
# 4 0.0000 0.0000 0.0000 17.3233 0.0000 0.0000
# 5 0.0000 0.0000 0.0000 0.0000 21.6648 0.0000
# 6 0.0000 0.0000 0.0000 0.0000 0.0000 13.8722
#
#
#
# Elastic Compliance Matrix: (Units=1/GPa)
#
#
# Indices 1 2 3 4 5 6 
#
# 1 0.008721 -0.007549 -0.011273 0.000000 0.000000 0.000000
# 2 -0.007549 0.064939 0.046854 0.000000 0.000000 0.000000
# 3 -0.011273 0.046854 0.081610 0.000000 0.000000 0.000000
# 4 0.000000 0.000000 0.000000 0.057726 0.000000 0.000000
# 5 0.000000 0.000000 0.000000 0.000000 0.046158 0.000000
# 6 0.000000 0.000000 0.000000 0.000000 0.000000 0.072087
#
#
# Mechanical properties :
#
#
# Convention : Reuss Voigt Hill
#
# Bulk Modulus (GPa) = 4.73188 22.49900 13.61544
# Shear Modulus (GPa) = 14.46673 22.78203 18.62438
#
# Velocity S-wave (km/s) = 2.62133 3.28952 2.97425
# Velocity P-wave (km/s) = 3.37778 5.01143 4.27340
#
# Compressibility (1/GPa) = 0.21133245
#
# Stress axis : x y z
#
# Youngs Moduli (GPa) = 114.67123 15.39909 12.25343
#
# Poissons Ratio (x) = 0.11625 0.13813
# Poissons Ratio (y) = 0.86566 -0.57412
# Poissons Ratio (z) = 1.29268 -0.72150
#
# Static dielectric constant tensor:
#      x y z
#    x 1.835370 0.000000 0.000000 
#    y 0.000000 1.766530 0.000000 
#    z 0.000000 0.000000 1.744440 
# 
# From -- ./inp_files/30318.got.cif
#   From: 2010.05.17/outbox.cif.g08.bks.cpg/sg59_16_cif.got.tgz:30318.got - 2010.06.03 14:40:33.
