data_PCOD9450929
_publ_section_title
;
Structure prediction by ZEFSAII (Michael W. Deem and Ramdas Pophale) SiO2 
 PCOD9450929
Probable space group: P M M N
;
_chemical_formula_sum "Si O2"
_cell_formula_units_Z 56
_cell_length_a 14.485445
_cell_length_b 17.394367
_cell_length_c 12.859372
_cell_angle_alpha 90.000000
_cell_angle_beta 90.000000
_cell_angle_gamma 90.000000
_cell_volume 3240.113550
_symmetry_space_group_name_H-M "P M M N"
_symmetry_group_IT_number 59
_space_group.IT_coordinate_system_code '2'
_symmetry_cell_setting 'orthorhombic'
loop_
_space_group_symop_operation_xyz
x,y,z
1/2-x,1/2-y,z
1/2+x,-y,-z
-x,1/2+y,-z
-x,-y,-z
1/2+x,1/2+y,-z
1/2-x,y,z
x,1/2-y,z
loop_
_atom_site_type_symbol
_atom_site_label
_atom_site_fract_x
_atom_site_fract_y
_atom_site_fract_z
Si Si1 0.974116 0.088974 0.507861
Si Si2 0.641856 0.079377 0.102484
Si Si3 0.356066 0.400722 0.840007
Si Si4 0.859808 0.159024 0.694564
Si Si5 0.644799 0.840054 0.389883
Si Si6 0.456986 0.661020 0.083970
Si Si7 0.358431 0.658349 0.679036
O O1 0.909232 0.109128 0.606371
O O2 0.921099 0.117196 0.405906
O O3 0.068637 0.135138 0.528085
O O4 0.000000 0.000000 0.500000
O O5 0.750000 0.092780 0.077341
O O6 0.619955 0.127994 0.205792
O O7 0.631033 0.989740 0.130207
O O8 0.581037 0.106906 0.006429
O O9 0.250000 0.378489 0.864032
O O10 0.368338 0.387683 0.716430
O O11 0.434685 0.352349 0.896803
O O12 0.750000 0.145988 0.697385
O O13 0.875010 0.250000 0.670463
O O14 0.905196 0.144322 0.806937
O O15 0.750000 0.852008 0.425872
O O16 0.633703 0.750000 0.363452
O O17 0.438258 0.750000 0.057639
O O18 0.250000 0.640734 0.659095
O O19 0.369920 0.750000 0.672641
#
# Coordination Sequence:
#
# PCOD9450929 Si02
#       7
#     8   8   8   8   8   8   8
#     4  12  23  35  55  81 114 148 187 230 286 338
#     4  10  21  37  57  84 117 150 187 231 282 338
#     4  10  20  35  56  84 116 148 184 232 283 333
#     4  10  21  37  58  85 115 147 186 236 290 337
#     4  10  20  36  58  82 110 145 190 238 280 329
#     4  11  21  35  59  87 116 151 191 233 281 337
#     4  10  21  37  58  82 111 149 190 229 274 337
#
# _framework density 17.283346000000002
#
# number of rings (size 3 to 8) (size 9 to 14) (size 15 to 20)
#    0.000    1.571    1.429    4.286    0.000    5.714 
#    0.000    0.000    0.000    0.857    0.000    0.000 
#    0.000    0.000    0.000    0.000    0.000    0.000 
#
# Total GULP energy -312823.632414 kJ/mol
# GULP energy per Si atom -5586.136293 kJ/mol
# Density = 1.724401 g / cm^3
# Si number density = 17.283346 Si / 1000 Ang^3
#
#
#
# Elastic Constant Matrix: (Units=GPa)
#
#
# Indices 1 2 3 4 5 6 
#
# 1 100.4562 40.0689 55.8981 0.0000 0.0000 0.0000
# 2 40.0689 62.0694 40.2291 0.0000 0.0000 0.0000
# 3 55.8981 40.2291 80.6622 0.0000 0.0000 0.0000
# 4 0.0000 0.0000 0.0000 30.2344 0.0000 0.0000
# 5 0.0000 0.0000 0.0000 0.0000 26.6438 0.0000
# 6 0.0000 0.0000 0.0000 0.0000 0.0000 29.2430
#
#
#
# Elastic Compliance Matrix: (Units=1/GPa)
#
#
# Indices 1 2 3 4 5 6 
#
# 1 0.017188 -0.004988 -0.009423 0.000000 0.000000 0.000000
# 2 -0.004988 0.025254 -0.009138 0.000000 0.000000 0.000000
# 3 -0.009423 -0.009138 0.023485 0.000000 0.000000 0.000000
# 4 0.000000 0.000000 0.000000 0.033075 0.000000 0.000000
# 5 0.000000 0.000000 0.000000 0.000000 0.037532 0.000000
# 6 0.000000 0.000000 0.000000 0.000000 0.000000 0.034196
#
#
# Mechanical properties :
#
#
# Convention : Reuss Voigt Hill
#
# Bulk Modulus (GPa) = 53.11352 57.28666 55.20009
# Shear Modulus (GPa) = 22.31099 24.35701 23.33400
#
# Velocity S-wave (km/s) = 3.59680 3.75811 3.67834
# Velocity P-wave (km/s) = 6.93160 7.21448 7.07445
#
# Compressibility (1/GPa) = 0.01882760
#
# Stress axis : x y z
#
# Youngs Moduli (GPa) = 58.18160 39.59784 42.58016
#
# Poissons Ratio (x) = 0.19752 0.40124
# Poissons Ratio (y) = 0.29021 0.38911
# Poissons Ratio (z) = 0.54825 0.36186
#
# Static dielectric constant tensor:
#      x y z
#    x 1.590650 0.000000 0.000000 
#    y 0.000000 1.595760 0.000000 
#    z 0.000000 0.000000 1.551440 
# 
# From -- ./inp_files/16916.got.cif
#   From: 2010.05.17/outbox.cif.g08.bks.cpg/sg59_9_cif.got.tgz:16916.got - 2010.06.03 14:40:33.
