data_PCOD9450941
_publ_section_title
;
Structure prediction by ZEFSAII (Michael W. Deem and Ramdas Pophale) SiO2 
 PCOD9450941
Probable space group: P M M N
;
_chemical_formula_sum "Si O2"
_cell_formula_units_Z 40
_cell_length_a 12.801485
_cell_length_b 18.619085
_cell_length_c 9.429824
_cell_angle_alpha 90.000000
_cell_angle_beta 90.000000
_cell_angle_gamma 90.000000
_cell_volume 2247.616819
_symmetry_space_group_name_H-M "P M M N"
_symmetry_group_IT_number 59
_space_group.IT_coordinate_system_code '2'
_symmetry_cell_setting 'orthorhombic'
loop_
_space_group_symop_operation_xyz
x,y,z
1/2-x,1/2-y,z
1/2+x,-y,-z
-x,1/2+y,-z
-x,-y,-z
1/2+x,1/2+y,-z
1/2-x,y,z
x,1/2-y,z
loop_
_atom_site_type_symbol
_atom_site_label
_atom_site_fract_x
_atom_site_fract_y
_atom_site_fract_z
Si Si1 0.052610 0.163481 0.922306
Si Si2 0.127157 0.572632 0.583899
Si Si3 0.935933 0.907234 0.384679
Si Si4 0.750000 0.837021 0.886770
Si Si5 0.250000 0.163801 0.439317
Si Si6 0.871727 0.334641 0.136070
O O1 0.057832 0.250000 0.902090
O O2 0.061082 0.125486 0.771749
O O3 0.147911 0.141706 0.025070
O O4 0.946708 0.146031 0.006420
O O5 0.250000 0.579999 0.548707
O O6 0.101273 0.489839 0.617836
O O7 0.105167 0.619937 0.723480
O O8 0.049068 0.595843 0.459119
O O9 0.851895 0.864944 0.479934
O O10 0.750000 0.750000 0.881063
O O11 0.750000 0.861936 0.724252
O O12 0.250000 0.250000 0.441176
O O13 0.750000 0.344875 0.100386
O O14 0.888689 0.250000 0.166784
#
# Coordination Sequence:
#
# PCOD9450941 Si02
#       6
#     8   8   8   4   4   8
#     4  10  20  35  56  86 117 144 188 242 289 338
#     4  10  22  40  58  80 117 156 197 237 285 353
#     4  11  22  36  59  85 118 156 190 242 296 340
#     4   9  19  33  53  81 115 149 184 231 282 342
#     4  11  21  37  61  89 118 155 198 237 293 354
#     4   9  19  37  59  79 107 150 194 238 286 343
#
# _framework density 17.796627000000001
#
# number of rings (size 3 to 8) (size 9 to 14) (size 15 to 20)
#    0.000    2.000    1.000    2.400    0.000    5.600 
#    0.000    0.000    0.000    0.000    0.000    0.000 
#    0.000    0.000    0.000    0.000    0.000    0.000 
#
# Total GULP energy -223342.556506 kJ/mol
# GULP energy per Si atom -5583.563913 kJ/mol
# Density = 1.775612 g / cm^3
# Si number density = 17.796627 Si / 1000 Ang^3
#
#
#
# Elastic Constant Matrix: (Units=GPa)
#
#
# Indices 1 2 3 4 5 6 
#
# 1 118.4455 48.0568 104.9596 0.0000 0.0000 0.0000
# 2 48.0568 51.2412 64.4064 0.0000 0.0000 0.0000
# 3 104.9596 64.4064 188.8366 0.0000 0.0000 0.0000
# 4 0.0000 0.0000 0.0000 31.3024 0.0000 0.0000
# 5 0.0000 0.0000 0.0000 0.0000 11.5528 0.0000
# 6 0.0000 0.0000 0.0000 0.0000 0.0000 14.0191
#
#
#
# Elastic Compliance Matrix: (Units=1/GPa)
#
#
# Indices 1 2 3 4 5 6 
#
# 1 0.018191 -0.007617 -0.007513 0.000000 0.000000 0.000000
# 2 -0.007617 0.037350 -0.008505 0.000000 0.000000 0.000000
# 3 -0.007513 -0.008505 0.012372 0.000000 0.000000 0.000000
# 4 0.000000 0.000000 0.000000 0.031946 0.000000 0.000000
# 5 0.000000 0.000000 0.000000 0.000000 0.086559 0.000000
# 6 0.000000 0.000000 0.000000 0.000000 0.000000 0.071331
#
#
# Mechanical properties :
#
#
# Convention : Reuss Voigt Hill
#
# Bulk Modulus (GPa) = 48.44391 88.15210 68.29800
# Shear Modulus (GPa) = 16.03081 20.78156 18.40619
#
# Velocity S-wave (km/s) = 3.00455 3.42091 3.21947
# Velocity P-wave (km/s) = 6.27028 8.07738 7.23051
#
# Compressibility (1/GPa) = 0.02064243
#
# Stress axis : x y z
#
# Youngs Moduli (GPa) = 54.97354 26.77411 80.82673
#
# Poissons Ratio (x) = 0.20394 0.60723
# Poissons Ratio (y) = 0.41874 0.68743
# Poissons Ratio (z) = 0.41300 0.22771
#
# Static dielectric constant tensor:
#      x y z
#    x 1.612390 0.000000 0.000000 
#    y 0.000000 1.593450 0.000000 
#    z 0.000000 0.000000 1.564270 
# 
# From -- ./inp_files/7404.got.cif
#   From: 2010.05.17/outbox.cif.g08.bks.cpg/sg59_4_cif.got.tgz:7404.got - 2010.06.03 14:40:33.
