data_PCOD9450292
_publ_section_title
;
Structure prediction by ZEFSAII (Michael W. Deem and Ramdas Pophale) SiO2 
 PCOD9450292
Probable space group: P M M N
;
_chemical_formula_sum "Si O2"
_cell_formula_units_Z 64
_cell_length_a 23.115874
_cell_length_b 9.283826
_cell_length_c 15.858820
_cell_angle_alpha 90.000000
_cell_angle_beta 90.000000
_cell_angle_gamma 90.000000
_cell_volume 3403.362275
_symmetry_space_group_name_H-M "P M M N"
_symmetry_group_IT_number 59
_space_group.IT_coordinate_system_code '2'
_symmetry_cell_setting 'orthorhombic'
loop_
_space_group_symop_operation_xyz
x,y,z
1/2-x,1/2-y,z
1/2+x,-y,-z
-x,1/2+y,-z
-x,-y,-z
1/2+x,1/2+y,-z
1/2-x,y,z
x,1/2-y,z
loop_
_atom_site_type_symbol
_atom_site_label
_atom_site_fract_x
_atom_site_fract_y
_atom_site_fract_z
Si Si1 0.681397 0.089934 0.009214
Si Si2 0.523620 0.919670 0.623171
Si Si3 0.181620 0.576490 0.654431
Si Si4 0.412370 0.079327 0.552881
Si Si5 0.819011 0.586745 0.847900
Si Si6 0.993966 0.583005 0.088474
Si Si7 0.413306 0.915235 0.229846
Si Si8 0.107838 0.582600 0.821495
O O1 0.750000 0.085097 0.023960
O O2 0.667676 0.250000 0.973630
O O3 0.649206 0.076020 0.097048
O O4 0.667016 0.967923 0.942067
O O5 0.511776 0.750000 0.631683
O O6 0.567219 0.939244 0.543926
O O7 0.464117 0.002962 0.604406
O O8 0.552794 0.986444 0.704654
O O9 0.250000 0.539540 0.660785
O O10 0.178169 0.750000 0.643919
O O11 0.147362 0.495970 0.579784
O O12 0.145366 0.540326 0.739676
O O13 0.410219 0.250000 0.570720
O O14 0.750000 0.581403 0.839099
O O15 0.839118 0.750000 0.835085
O O16 0.850187 0.479537 0.784526
O O17 0.979649 0.750000 0.072021
O O18 0.053391 0.577582 0.140678
O O19 0.946414 0.513258 0.150888
O O20 0.000000 0.500000 0.000000
O O21 0.413106 0.750000 0.258196
O O22 0.089645 0.750000 0.810171
#
# Coordination Sequence:
#
# PCOD9450292 Si02
#       8
#     8   8   8   8   8   8   8   8
#     4   9  17  31  51  73 100 137 181 226 268 311
#     4  10  21  38  62  88 113 145 183 227 281 337
#     4  10  21  37  58  85 118 157 198 237 283 344
#     4  10  21  38  60  87 116 145 182 228 279 336
#     4  10  21  36  54  77 105 137 175 220 269 321
#     4  11  24  38  53  78 112 149 188 232 282 334
#     4  11  23  38  57  82 110 140 180 226 271 324
#     4  10  20  34  53  78 109 146 188 232 277 328
#
# _framework density 18.804932999999998
#
# number of rings (size 3 to 8) (size 9 to 14) (size 15 to 20)
#    0.000    1.875    0.000    3.750    0.000   12.000 
#    0.000    0.625    0.000    3.000    0.000    0.000 
#    0.000    0.000    0.000    0.000    0.000    0.000 
#
# Total GULP energy -357398.397313 kJ/mol
# GULP energy per Si atom -5584.349958 kJ/mol
# Density = 1.876213 g / cm^3
# Si number density = 18.804933 Si / 1000 Ang^3
#
#
#
# Elastic Constant Matrix: (Units=GPa)
#
#
# Indices 1 2 3 4 5 6 
#
# 1 89.0565 52.9093 35.9620 0.0000 0.0000 0.0000
# 2 52.9093 86.2397 36.8797 0.0000 0.0000 0.0000
# 3 35.9620 36.8797 54.8290 0.0000 0.0000 0.0000
# 4 0.0000 0.0000 0.0000 29.2168 0.0000 0.0000
# 5 0.0000 0.0000 0.0000 0.0000 27.4079 0.0000
# 6 0.0000 0.0000 0.0000 0.0000 0.0000 31.4548
#
#
#
# Elastic Compliance Matrix: (Units=1/GPa)
#
#
# Indices 1 2 3 4 5 6 
#
# 1 0.019215 -0.008983 -0.006561 0.000000 0.000000 0.000000
# 2 -0.008983 0.020477 -0.007882 0.000000 0.000000 0.000000
# 3 -0.006561 -0.007882 0.027843 0.000000 0.000000 0.000000
# 4 0.000000 0.000000 0.000000 0.034227 0.000000 0.000000
# 5 0.000000 0.000000 0.000000 0.000000 0.036486 0.000000
# 6 0.000000 0.000000 0.000000 0.000000 0.000000 0.031792
#
#
# Mechanical properties :
#
#
# Convention : Reuss Voigt Hill
#
# Bulk Modulus (GPa) = 48.34547 53.51411 50.92979
# Shear Modulus (GPa) = 22.34275 24.57417 23.45846
#
# Velocity S-wave (km/s) = 3.45067 3.61888 3.53578
# Velocity P-wave (km/s) = 6.45298 6.78093 6.61898
#
# Compressibility (1/GPa) = 0.02068446
#
# Stress axis : x y z
#
# Youngs Moduli (GPa) = 52.04251 48.83422 35.91539
#
# Poissons Ratio (x) = 0.43868 0.23563
# Poissons Ratio (y) = 0.46750 0.28308
# Poissons Ratio (z) = 0.34144 0.38490
#
# Static dielectric constant tensor:
#      x y z
#    x 1.663870 0.000000 0.000000 
#    y 0.000000 1.650620 0.000000 
#    z 0.000000 0.000000 1.639280 
# 
# From -- ./inp_files/24771.got.cif
#   From: 2010.05.17/outbox.cif.g08.bks.cpg/sg59_13_cif.got.tgz:24771.got - 2010.06.03 14:40:33.
