data_PCOD9450965
_publ_section_title
;
Structure prediction by ZEFSAII (Michael W. Deem and Ramdas Pophale) SiO2 
 PCOD9450965
Probable space group: P M M N
;
_chemical_formula_sum "Si O2"
_cell_formula_units_Z 48
_cell_length_a 8.904217
_cell_length_b 37.961520
_cell_length_c 7.859030
_cell_angle_alpha 90.000000
_cell_angle_beta 90.000000
_cell_angle_gamma 90.000000
_cell_volume 2656.490551
_symmetry_space_group_name_H-M "P M M N"
_symmetry_group_IT_number 59
_space_group.IT_coordinate_system_code '2'
_symmetry_cell_setting 'orthorhombic'
loop_
_space_group_symop_operation_xyz
x,y,z
1/2-x,1/2-y,z
1/2+x,-y,-z
-x,1/2+y,-z
-x,-y,-z
1/2+x,1/2+y,-z
1/2-x,y,z
x,1/2-y,z
loop_
_atom_site_type_symbol
_atom_site_label
_atom_site_fract_x
_atom_site_fract_y
_atom_site_fract_z
Si Si1 0.068683 0.709160 0.018176
Si Si2 0.930259 0.582160 0.347420
Si Si3 0.069767 0.461364 0.988290
Si Si4 0.570058 0.333283 0.316781
Si Si5 0.570866 0.835739 0.321560
Si Si6 0.570936 0.415929 0.290150
O O1 0.250000 0.707399 0.028125
O O2 0.023863 0.750000 0.025331
O O3 0.000989 0.687138 0.172919
O O4 0.024267 0.691348 0.839482
O O5 0.750000 0.580506 0.373186
O O6 0.970852 0.557123 0.190761
O O7 0.968489 0.622764 0.302417
O O8 0.011516 0.573123 0.523729
O O9 0.250000 0.463196 0.997342
O O10 0.000000 0.500000 0.000000
O O11 0.008231 0.437692 0.142173
O O12 0.750000 0.330364 0.340439
O O13 0.490110 0.324579 0.493726
O O14 0.537004 0.374171 0.273381
O O15 0.750000 0.832690 0.316418
O O16 0.750000 0.420576 0.280396
#
# Coordination Sequence:
#
# PCOD9450965 Si02
#       6
#     8   8   8   8   8   8
#     4  10  21  36  54  77 108 146 182 217 262 317
#     4   9  20  38  58  80 107 142 180 218 265 320
#     4  11  23  38  56  79 110 145 180 220 268 323
#     4   9  19  36  57  81 108 141 183 225 265 316
#     4  10  20  35  57  83 109 138 176 223 271 317
#     4  10  20  35  58  84 108 138 179 227 272 315
#
# _framework density 18.068951999999999
#
# number of rings (size 3 to 8) (size 9 to 14) (size 15 to 20)
#    0.000    2.167    0.000    2.500    0.000    5.000 
#    0.000    1.667    0.000    0.000    0.000    0.000 
#    0.000    0.000    0.000    0.000    0.000    0.000 
#
# Total GULP energy -268097.280476 kJ/mol
# GULP energy per Si atom -5585.360010 kJ/mol
# Density = 1.802783 g / cm^3
# Si number density = 18.068952 Si / 1000 Ang^3
#
#
#
# Elastic Constant Matrix: (Units=GPa)
#
#
# Indices 1 2 3 4 5 6 
#
# 1 18.9621 1.5687 5.0519 0.0000 0.0000 0.0000
# 2 1.5687 -12.3474 -27.3072 0.0000 0.0000 0.0000
# 3 5.0519 -27.3072 17.1492 0.0000 0.0000 0.0000
# 4 0.0000 0.0000 0.0000 -12.0034 0.0000 0.0000
# 5 0.0000 0.0000 0.0000 0.0000 28.5735 0.0000
# 6 0.0000 0.0000 0.0000 0.0000 0.0000 26.6853
#
#
#
# Elastic Compliance Matrix: (Units=1/GPa)
#
#
# Indices 1 2 3 4 5 6 
#
# 1 0.052276 0.009001 -0.001067 0.000000 0.000000 0.000000
# 2 0.009001 -0.016362 -0.028705 0.000000 0.000000 0.000000
# 3 -0.001067 -0.028705 0.012918 0.000000 0.000000 0.000000
# 4 0.000000 0.000000 0.000000 -0.083309 0.000000 0.000000
# 5 0.000000 0.000000 0.000000 0.000000 0.034997 0.000000
# 6 0.000000 0.000000 0.000000 0.000000 0.000000 0.037474
#
#
# Mechanical properties :
#
#
# Convention : Reuss Voigt Hill
#
# Bulk Modulus (GPa) = 137.15348 -1.95658 67.59845
# Shear Modulus (GPa) = 61.00066 11.61445 36.30755
#
# Velocity S-wave (km/s) = 5.81663 2.53807 4.48748
# Velocity P-wave (km/s) = 11.00824 2.73932 8.02138
#
# Compressibility (1/GPa) = 0.00729110
#
# Stress axis : x y z
#
# Youngs Moduli (GPa) = 19.12911 -61.11782 77.41068
#
# Poissons Ratio (x) = 0.55013 0.08259
# Poissons Ratio (y) = -0.17218 2.22208
# Poissons Ratio (z) = 0.02041 -1.75439
#
# Static dielectric constant tensor:
#      x y z
#    x 1.604010 0.000000 0.000000 
#    y 0.000000 1.603040 0.000000 
#    z 0.000000 0.000000 1.583900 
# 
# From -- ./inp_files/6290.got.cif
#   From: 2010.05.17/outbox.cif.g08.bks.cpg/sg59_4_cif.got.tgz:6290.got - 2010.06.03 14:40:33.
