data_PCOD9450739
_publ_section_title
;
Structure prediction by ZEFSAII (Michael W. Deem and Ramdas Pophale) SiO2 
 PCOD9450739
Probable space group: P M M N
;
_chemical_formula_sum "Si O2"
_cell_formula_units_Z 48
_cell_length_a 24.044611
_cell_length_b 7.881549
_cell_length_c 11.044586
_cell_angle_alpha 90.000000
_cell_angle_beta 90.000000
_cell_angle_gamma 90.000000
_cell_volume 2093.046016
_symmetry_space_group_name_H-M "P M M N"
_symmetry_group_IT_number 59
_space_group.IT_coordinate_system_code '2'
_symmetry_cell_setting 'orthorhombic'
loop_
_space_group_symop_operation_xyz
x,y,z
1/2-x,1/2-y,z
1/2+x,-y,-z
-x,1/2+y,-z
-x,-y,-z
1/2+x,1/2+y,-z
1/2-x,y,z
x,1/2-y,z
loop_
_atom_site_type_symbol
_atom_site_label
_atom_site_fract_x
_atom_site_fract_y
_atom_site_fract_z
Si Si1 0.313790 0.458166 0.819129
Si Si2 0.513877 0.555581 0.819757
Si Si3 0.687994 0.045831 0.697438
Si Si4 0.077529 0.947952 0.414312
Si Si5 0.877370 0.546272 0.940677
Si Si6 0.915148 0.947005 0.326167
O O1 0.250000 0.513599 0.811556
O O2 0.313747 0.250000 0.819936
O O3 0.354710 0.513527 0.711802
O O4 0.344384 0.515247 0.942086
O O5 0.502054 0.750000 0.850930
O O6 0.545589 0.548510 0.689709
O O7 0.559883 0.482009 0.912450
O O8 0.456231 0.464956 0.788755
O O9 0.750000 0.977010 0.681276
O O10 0.691216 0.250000 0.697195
O O11 0.642226 0.999157 0.597485
O O12 0.660950 0.992684 0.824732
O O13 0.071211 0.750000 0.380482
O O14 0.061290 0.967991 0.553298
O O15 0.882724 0.750000 0.949818
O O16 0.911162 0.750000 0.355742
#
# Coordination Sequence:
#
# PCOD9450739 Si02
#       6
#     8   8   8   8   8   8
#     4   9  19  36  56  78 106 140 176 214 256 303
#     4  10  20  35  56  82 108 133 169 218 266 311
#     4   9  18  32  51  77 107 137 170 214 269 318
#     4  10  20  35  54  76 106 142 177 216 262 311
#     4   9  18  34  57  81 103 133 175 218 259 307
#     4  11  22  35  53  77 106 141 177 212 255 309
#
# _framework density 22.933081999999999
#
# number of rings (size 3 to 8) (size 9 to 14) (size 15 to 20)
#    0.000    2.333    0.000    2.500    0.000    3.667 
#    0.000    1.667    0.000    3.500    0.000    0.000 
#    0.000    0.000    0.000    0.000    0.000    0.000 
#
# Total GULP energy -268076.236811 kJ/mol
# GULP energy per Si atom -5584.921600 kJ/mol
# Density = 2.288089 g / cm^3
# Si number density = 22.933082 Si / 1000 Ang^3
#
#
#
# Elastic Constant Matrix: (Units=GPa)
#
#
# Indices 1 2 3 4 5 6 
#
# 1 120.8963 1.6137 20.9008 0.0000 0.0000 0.0000
# 2 1.6137 35.8042 -4.2239 0.0000 0.0000 0.0000
# 3 20.9008 -4.2239 65.8895 0.0000 0.0000 0.0000
# 4 0.0000 0.0000 0.0000 13.1877 0.0000 0.0000
# 5 0.0000 0.0000 0.0000 0.0000 29.9709 0.0000
# 6 0.0000 0.0000 0.0000 0.0000 0.0000 20.2192
#
#
#
# Elastic Compliance Matrix: (Units=1/GPa)
#
#
# Indices 1 2 3 4 5 6 
#
# 1 0.008770 -0.000729 -0.002829 0.000000 0.000000 0.000000
# 2 -0.000729 0.028203 0.002039 0.000000 0.000000 0.000000
# 3 -0.002829 0.002039 0.016205 0.000000 0.000000 0.000000
# 4 0.000000 0.000000 0.000000 0.075828 0.000000 0.000000
# 5 0.000000 0.000000 0.000000 0.000000 0.033366 0.000000
# 6 0.000000 0.000000 0.000000 0.000000 0.000000 0.049458
#
#
# Mechanical properties :
#
#
# Convention : Reuss Voigt Hill
#
# Bulk Modulus (GPa) = 19.94365 28.79680 24.37022
# Shear Modulus (GPa) = 21.59070 26.29553 23.94312
#
# Velocity S-wave (km/s) = 3.07166 3.38985 3.23467
# Velocity P-wave (km/s) = 4.61470 5.28258 4.95989
#
# Compressibility (1/GPa) = 0.05014128
#
# Stress axis : x y z
#
# Youngs Moduli (GPa) = 114.02083 35.45712 61.70951
#
# Poissons Ratio (x) = 0.02585 0.17456
# Poissons Ratio (y) = 0.08312 -0.12584
# Poissons Ratio (z) = 0.32254 -0.07230
#
# Static dielectric constant tensor:
#      x y z
#    x 1.899380 0.000000 0.000000 
#    y 0.000000 1.806830 0.000000 
#    z 0.000000 0.000000 1.842360 
# 
# From -- ./inp_files/14353.got.cif
#   From: 2010.05.17/outbox.cif.g08.bks.cpg/sg59_8_cif.got.tgz:14353.got - 2010.06.03 14:40:33.
