data_PCOD9450089
_publ_section_title
;
Structure prediction by ZEFSAII (Michael W. Deem and Ramdas Pophale) SiO2 
 PCOD9450089
Probable space group: P M M N
;
_chemical_formula_sum "Si O2"
_cell_formula_units_Z 56
_cell_length_a 15.377809
_cell_length_b 7.379978
_cell_length_c 21.107544
_cell_angle_alpha 90.000000
_cell_angle_beta 90.000000
_cell_angle_gamma 90.000000
_cell_volume 2395.450676
_symmetry_space_group_name_H-M "P M M N"
_symmetry_group_IT_number 59
_space_group.IT_coordinate_system_code '2'
_symmetry_cell_setting 'orthorhombic'
loop_
_space_group_symop_operation_xyz
x,y,z
1/2-x,1/2-y,z
1/2+x,-y,-z
-x,1/2+y,-z
-x,-y,-z
1/2+x,1/2+y,-z
1/2-x,y,z
x,1/2-y,z
loop_
_atom_site_type_symbol
_atom_site_label
_atom_site_fract_x
_atom_site_fract_y
_atom_site_fract_z
Si Si1 0.848351 0.531576 0.754033
Si Si2 0.152751 0.468643 0.476544
Si Si3 0.034016 0.472057 0.362872
Si Si4 0.153531 0.969448 0.019078
Si Si5 0.344893 0.959087 0.624541
Si Si6 0.344609 0.041239 0.870485
Si Si7 0.530927 0.463256 0.872326
O O1 0.750000 0.464444 0.754105
O O2 0.845477 0.750000 0.751230
O O3 0.902598 0.471126 0.693202
O O4 0.899545 0.480989 0.817006
O O5 0.250000 0.516110 0.452333
O O6 0.149238 0.250000 0.479953
O O7 0.077241 0.529494 0.429295
O O8 0.146170 0.538006 0.548027
O O9 0.031389 0.250000 0.364239
O O10 0.935830 0.537654 0.351941
O O11 0.250000 0.018277 0.044512
O O12 0.149878 0.750000 0.016877
O O13 0.076213 0.036384 0.063981
O O14 0.149448 0.036561 0.947211
O O15 0.250000 0.039993 0.639813
O O16 0.342099 0.750000 0.645258
O O17 0.250000 0.960398 0.853607
O O18 0.341919 0.250000 0.848854
O O19 0.437447 0.959389 0.851419
O O20 0.515792 0.250000 0.883996
#
# Coordination Sequence:
#
# PCOD9450089 Si02
#       7
#     8   8   8   8   8   8   8
#     4  10  21  36  53  72  93 121 162 206 240 279
#     4   9  16  27  46  70  94 121 152 187 230 279
#     4   9  17  31  49  67  91 124 158 192 233 278
#     4   9  17  29  47  72 100 128 158 195 241 289
#     4   9  17  29  46  69  96 123 151 187 232 281
#     4   9  18  32  50  73 100 129 162 198 235 280
#     4  10  20  34  51  71  99 133 162 194 242 290
#
# _framework density 23.377647
#
# number of rings (size 3 to 8) (size 9 to 14) (size 15 to 20)
#    0.000    2.714    0.000    1.714    0.000    3.714 
#    0.000    3.571    0.000    2.571    0.000    0.000 
#    0.000    0.000    0.000    0.000    0.000    0.000 
#
# Total GULP energy -312702.617638 kJ/mol
# GULP energy per Si atom -5583.975315 kJ/mol
# Density = 2.332444 g / cm^3
# Si number density = 23.377647 Si / 1000 Ang^3
#
#
#
# Elastic Constant Matrix: (Units=GPa)
#
#
# Indices 1 2 3 4 5 6 
#
# 1 230.4566 8.2875 27.0608 0.0000 0.0000 0.0000
# 2 8.2875 86.0660 -13.3221 0.0000 0.0000 0.0000
# 3 27.0608 -13.3221 15.8040 0.0000 0.0000 0.0000
# 4 0.0000 0.0000 0.0000 86.9025 0.0000 0.0000
# 5 0.0000 0.0000 0.0000 0.0000 34.3037 0.0000
# 6 0.0000 0.0000 0.0000 0.0000 0.0000 -5.8088
#
#
#
# Elastic Compliance Matrix: (Units=1/GPa)
#
#
# Indices 1 2 3 4 5 6 
#
# 1 0.005841 -0.002427 -0.012048 0.000000 0.000000 0.000000
# 2 -0.002427 0.014371 0.016271 0.000000 0.000000 0.000000
# 3 -0.012048 0.016271 0.097620 0.000000 0.000000 0.000000
# 4 0.000000 0.000000 0.000000 0.011507 0.000000 0.000000
# 5 0.000000 0.000000 0.000000 0.000000 0.029151 0.000000
# 6 0.000000 0.000000 0.000000 0.000000 0.000000 -0.172152
#
#
# Mechanical properties :
#
#
# Convention : Reuss Voigt Hill
#
# Bulk Modulus (GPa) = 8.23569 41.81989 25.02779
# Shear Modulus (GPa) = 215.30976 43.76615 129.53795
#
# Velocity S-wave (km/s) = 9.60732 4.33151 7.45193
# Velocity P-wave (km/s) = 11.25158 6.55314 9.20711
#
# Compressibility (1/GPa) = 0.12142269
#
# Stress axis : x y z
#
# Youngs Moduli (GPa) = 171.19802 69.58350 10.24385
#
# Poissons Ratio (x) = 0.16890 0.12342
# Poissons Ratio (y) = 0.41555 -0.16667
# Poissons Ratio (z) = 2.06257 -1.13216
#
# Static dielectric constant tensor:
#      x y z
#    x 1.937430 0.000000 0.000000 
#    y 0.000000 -1.111840 0.000000 
#    z 0.000000 0.000000 1.811170 
# 
# From -- ./inp_files/29115.got.cif
#   From: 2010.05.17/outbox.cif.g08.bks.cpg/sg59_15_cif.got.tgz:29115.got - 2010.06.03 14:40:33.
