data_PCOD9450516
_publ_section_title
;
Structure prediction by ZEFSAII (Michael W. Deem and Ramdas Pophale) SiO2 
 PCOD9450516
Probable space group: P M M N
;
_chemical_formula_sum "Si O2"
_cell_formula_units_Z 64
_cell_length_a 20.643687
_cell_length_b 16.898167
_cell_length_c 8.240307
_cell_angle_alpha 90.000000
_cell_angle_beta 90.000000
_cell_angle_gamma 90.000000
_cell_volume 2874.552570
_symmetry_space_group_name_H-M "P M M N"
_symmetry_group_IT_number 59
_space_group.IT_coordinate_system_code '2'
_symmetry_cell_setting 'orthorhombic'
loop_
_space_group_symop_operation_xyz
x,y,z
1/2-x,1/2-y,z
1/2+x,-y,-z
-x,1/2+y,-z
-x,-y,-z
1/2+x,1/2+y,-z
1/2-x,y,z
x,1/2-y,z
loop_
_atom_site_type_symbol
_atom_site_label
_atom_site_fract_x
_atom_site_fract_y
_atom_site_fract_z
Si Si1 0.597704 0.946552 0.578813
Si Si2 0.323819 0.844848 0.955125
Si Si3 0.948511 0.657171 0.028552
Si Si4 0.825444 0.654276 0.837610
Si Si5 0.365312 0.666992 0.503188
Si Si6 0.494100 0.662494 0.668283
Si Si7 0.431811 0.898235 0.211445
Si Si8 0.818578 0.470792 0.338914
O O1 0.647181 0.889215 0.676844
O O2 0.530162 0.901485 0.561139
O O3 0.583303 0.018313 0.703250
O O4 0.625006 0.972946 0.404355
O O5 0.250000 0.847244 0.025792
O O6 0.333644 0.750000 0.913891
O O7 0.322373 0.911943 0.813987
O O8 0.380825 0.874765 0.071528
O O9 0.948483 0.750000 0.076580
O O10 0.874829 0.632184 0.985048
O O11 0.983908 0.651661 0.852996
O O12 0.995118 0.609183 0.147528
O O13 0.750000 0.634863 0.865590
O O14 0.831107 0.750000 0.819136
O O15 0.330559 0.750000 0.513206
O O16 0.417721 0.659036 0.647482
O O17 0.412323 0.663543 0.350368
O O18 0.319335 0.592823 0.512936
O O19 0.515741 0.750000 0.619107
O O20 0.750000 0.513896 0.330070
#
# Coordination Sequence:
#
# PCOD9450516 Si02
#       8
#     8   8   8   8   8   8   8   8
#     4  10  21  36  56  83 116 144 178 234 285 329
#     4  10  21  38  57  77 110 157 199 229 266 329
#     4   9  17  32  54  79 108 142 183 229 275 333
#     4   9  18  34  57  82 107 142 187 231 279 335
#     4  10  20  34  55  81 109 142 182 232 280 326
#     4   9  19  37  59  81 106 142 185 226 277 337
#     4  11  22  33  53  84 116 147 184 231 284 329
#     4  10  21  35  54  80 109 145 184 224 275 331
#
# _framework density 22.264333000000001
#
# number of rings (size 3 to 8) (size 9 to 14) (size 15 to 20)
#    0.000    2.250    0.000    3.750    0.000    8.250 
#    0.000    2.500    0.000    0.000    0.000    5.250 
#    0.000   21.000    0.000    0.000    0.000    0.000 
#
# Total GULP energy -356751.398230 kJ/mol
# GULP energy per Si atom -5574.240597 kJ/mol
# Density = 2.221366 g / cm^3
# Si number density = 22.264333 Si / 1000 Ang^3
#
#
#
# Elastic Constant Matrix: (Units=GPa)
#
#
# Indices 1 2 3 4 5 6 
#
# 1 120.0914 20.7747 31.2513 0.0000 0.0000 0.0000
# 2 20.7747 55.1792 7.4391 0.0000 0.0000 0.0000
# 3 31.2513 7.4391 45.0734 0.0000 0.0000 0.0000
# 4 0.0000 0.0000 0.0000 5.5797 0.0000 0.0000
# 5 0.0000 0.0000 0.0000 0.0000 -4.8819 0.0000
# 6 0.0000 0.0000 0.0000 0.0000 0.0000 37.8214
#
#
#
# Elastic Compliance Matrix: (Units=1/GPa)
#
#
# Indices 1 2 3 4 5 6 
#
# 1 0.010649 -0.003083 -0.006875 0.000000 0.000000 0.000000
# 2 -0.003083 0.019427 -0.001069 0.000000 0.000000 0.000000
# 3 -0.006875 -0.001069 0.027129 0.000000 0.000000 0.000000
# 4 0.000000 0.000000 0.000000 0.179220 0.000000 0.000000
# 5 0.000000 0.000000 0.000000 0.000000 -0.204840 0.000000
# 6 0.000000 0.000000 0.000000 0.000000 0.000000 0.026440
#
#
# Mechanical properties :
#
#
# Convention : Reuss Voigt Hill
#
# Bulk Modulus (GPa) = 28.44722 37.69714 33.07218
# Shear Modulus (GPa) = 54.46837 18.42911 36.44874
#
# Velocity S-wave (km/s) = 4.95152 2.88017 4.05049
# Velocity P-wave (km/s) = 6.74498 5.29423 6.06315
#
# Compressibility (1/GPa) = 0.03515282
#
# Stress axis : x y z
#
# Youngs Moduli (GPa) = 93.90298 51.47350 36.86075
#
# Poissons Ratio (x) = 0.15867 0.25341
# Poissons Ratio (y) = 0.28946 0.03941
# Poissons Ratio (z) = 0.64557 0.05503
#
# Static dielectric constant tensor:
#      x y z
#    x 1.870820 0.000000 0.000000 
#    y 0.000000 1.852810 0.000000 
#    z 0.000000 0.000000 1.883550 
# 
# From -- ./inp_files/11622.got.cif
#   From: 2010.05.17/outbox.cif.g08.bks.cpg/sg59_6_cif.got.tgz:11622.got - 2010.06.03 14:40:33.
