data_PCOD9450874
_publ_section_title
;
Structure prediction by ZEFSAII (Michael W. Deem and Ramdas Pophale) SiO2 
 PCOD9450874
Probable space group: P M M N
;
_chemical_formula_sum "Si O2"
_cell_formula_units_Z 48
_cell_length_a 14.099116
_cell_length_b 8.856890
_cell_length_c 21.328562
_cell_angle_alpha 90.000000
_cell_angle_beta 90.000000
_cell_angle_gamma 90.000000
_cell_volume 2663.389666
_symmetry_space_group_name_H-M "P M M N"
_symmetry_group_IT_number 59
_space_group.IT_coordinate_system_code '2'
_symmetry_cell_setting 'orthorhombic'
loop_
_space_group_symop_operation_xyz
x,y,z
1/2-x,1/2-y,z
1/2+x,-y,-z
-x,1/2+y,-z
-x,-y,-z
1/2+x,1/2+y,-z
1/2-x,y,z
x,1/2-y,z
loop_
_atom_site_type_symbol
_atom_site_label
_atom_site_fract_x
_atom_site_fract_y
_atom_site_fract_z
Si Si1 0.638648 0.567713 0.724196
Si Si2 0.141614 0.432119 0.534595
Si Si3 0.038918 0.068244 0.405463
Si Si4 0.136016 0.074770 0.034125
Si Si5 0.639121 0.429990 0.100342
Si Si6 0.537575 0.429763 0.844975
O O1 0.750000 0.529365 0.721677
O O2 0.631825 0.750000 0.730226
O O3 0.586852 0.522871 0.659727
O O4 0.589161 0.492154 0.783557
O O5 0.250000 0.481507 0.544522
O O6 0.139276 0.250000 0.538303
O O7 0.064401 0.499163 0.582016
O O8 0.104966 0.474747 0.464822
O O9 0.031604 0.250000 0.405856
O O10 0.250000 0.071185 0.041245
O O11 0.106084 0.250000 0.030607
O O12 0.090289 0.995416 0.093784
O O13 0.113882 0.991378 0.969001
O O14 0.750000 0.464708 0.111079
O O15 0.626866 0.250000 0.102058
O O16 0.569468 0.508968 0.149126
O O17 0.539334 0.250000 0.846207
#
# Coordination Sequence:
#
# PCOD9450874 Si02
#       6
#     8   8   8   8   8   8
#     4  10  21  38  58  78 104 140 180 220 263 313
#     4   9  17  31  53  81 112 143 175 214 261 311
#     4   9  18  33  54  80 108 140 179 220 262 309
#     4  10  20  35  56  81 109 140 175 217 265 316
#     4  10  21  38  59  80 103 134 175 222 269 317
#     4  12  24  36  53  78 109 141 175 218 266 318
#
# _framework density 18.022145999999999
#
# number of rings (size 3 to 8) (size 9 to 14) (size 15 to 20)
#    0.000    2.000    0.000    4.000    0.000    7.333 
#    0.000    0.833    0.000    4.000    0.000    0.000 
#    0.000    0.000    0.000    0.000    0.000    0.000 
#
# Total GULP energy -268132.013664 kJ/mol
# GULP energy per Si atom -5586.083618 kJ/mol
# Density = 1.798113 g / cm^3
# Si number density = 18.022146 Si / 1000 Ang^3
#
#
#
# Elastic Constant Matrix: (Units=GPa)
#
#
# Indices 1 2 3 4 5 6 
#
# 1 151.1051 57.0093 91.3110 0.0000 0.0000 0.0000
# 2 57.0093 65.4012 53.0371 0.0000 0.0000 0.0000
# 3 91.3110 53.0371 114.1981 0.0000 0.0000 0.0000
# 4 0.0000 0.0000 0.0000 26.2164 0.0000 0.0000
# 5 0.0000 0.0000 0.0000 0.0000 27.1363 0.0000
# 6 0.0000 0.0000 0.0000 0.0000 0.0000 30.2322
#
#
#
# Elastic Compliance Matrix: (Units=1/GPa)
#
#
# Indices 1 2 3 4 5 6 
#
# 1 0.013724 -0.004915 -0.008691 0.000000 0.000000 0.000000
# 2 -0.004915 0.026289 -0.008279 0.000000 0.000000 0.000000
# 3 -0.008691 -0.008279 0.019551 0.000000 0.000000 0.000000
# 4 0.000000 0.000000 0.000000 0.038144 0.000000 0.000000
# 5 0.000000 0.000000 0.000000 0.000000 0.036851 0.000000
# 6 0.000000 0.000000 0.000000 0.000000 0.000000 0.033077
#
#
# Mechanical properties :
#
#
# Convention : Reuss Voigt Hill
#
# Bulk Modulus (GPa) = 63.31796 81.49102 72.40449
# Shear Modulus (GPa) = 23.07649 25.34012 24.20830
#
# Velocity S-wave (km/s) = 3.58222 3.75381 3.66902
# Velocity P-wave (km/s) = 7.23322 8.00646 7.62964
#
# Compressibility (1/GPa) = 0.01579331
#
# Stress axis : x y z
#
# Youngs Moduli (GPa) = 72.86465 38.03901 51.14901
#
# Poissons Ratio (x) = 0.18698 0.44452
# Poissons Ratio (y) = 0.35816 0.42347
# Poissons Ratio (z) = 0.63325 0.31493
#
# Static dielectric constant tensor:
#      x y z
#    x 1.631520 0.000000 0.000000 
#    y 0.000000 1.603760 0.000000 
#    z 0.000000 0.000000 1.583830 
# 
# From -- ./inp_files/27379.got.cif
#   From: 2010.05.17/outbox.cif.g08.bks.cpg/sg59_14_cif.got.tgz:27379.got - 2010.06.03 14:40:33.
