data_PCOD9450461
_publ_section_title
;
Structure prediction by ZEFSAII (Michael W. Deem and Ramdas Pophale) SiO2 
 PCOD9450461
Probable space group: P M M N
;
_chemical_formula_sum "Si O2"
_cell_formula_units_Z 40
_cell_length_a 15.381844
_cell_length_b 8.937976
_cell_length_c 14.702248
_cell_angle_alpha 90.000000
_cell_angle_beta 90.000000
_cell_angle_gamma 90.000000
_cell_volume 2021.302583
_symmetry_space_group_name_H-M "P M M N"
_symmetry_group_IT_number 59
_space_group.IT_coordinate_system_code '2'
_symmetry_cell_setting 'orthorhombic'
loop_
_space_group_symop_operation_xyz
x,y,z
1/2-x,1/2-y,z
1/2+x,-y,-z
-x,1/2+y,-z
-x,-y,-z
1/2+x,1/2+y,-z
1/2-x,y,z
x,1/2-y,z
loop_
_atom_site_type_symbol
_atom_site_label
_atom_site_fract_x
_atom_site_fract_y
_atom_site_fract_z
Si Si1 0.647448 0.427810 0.233613
Si Si2 0.993119 0.929297 0.901029
Si Si3 0.576307 0.073234 0.564161
Si Si4 0.646828 0.931031 0.749297
Si Si5 0.348579 0.083483 0.587912
O O1 0.750000 0.458864 0.214489
O O2 0.641785 0.250000 0.252302
O O3 0.582425 0.464700 0.152362
O O4 0.610263 0.513093 0.322233
O O5 0.987831 0.750000 0.909832
O O6 0.910446 0.974833 0.838013
O O7 0.000000 0.000000 0.000000
O O8 0.567150 0.250000 0.574062
O O9 0.500000 0.000000 0.500000
O O10 0.599571 0.999112 0.660373
O O11 0.652642 0.028088 0.495932
O O12 0.750000 0.972639 0.753577
O O13 0.643329 0.750000 0.741674
O O14 0.250000 0.100558 0.616928
O O15 0.380228 0.250000 0.563526
#
# Coordination Sequence:
#
# PCOD9450461 Si02
#       5
#     8   8   8   8   8
#     4   9  18  34  56  82 113 149 191 241 295 351
#     4  10  22  39  59  83 111 146 191 246 307 367
#     4  12  24  37  57  85 118 157 200 244 292 348
#     4  10  22  41  62  86 121 163 205 251 305 365
#     4  10  20  34  54  82 115 149 185 227 277 336
#
# _framework density 19.78922
#
# number of rings (size 3 to 8) (size 9 to 14) (size 15 to 20)
#    0.000    1.800    0.000    4.200    0.000    8.000 
#    0.000    0.000    0.000    0.000    0.000    0.000 
#    0.000    0.000    0.000    0.000    0.000    0.000 
#
# Total GULP energy -222830.402219 kJ/mol
# GULP energy per Si atom -5570.760055 kJ/mol
# Density = 1.974418 g / cm^3
# Si number density = 19.789220 Si / 1000 Ang^3
#
#
#
# Elastic Constant Matrix: (Units=GPa)
#
#
# Indices 1 2 3 4 5 6 
#
# 1 133.5360 34.9916 61.2180 0.0000 0.0000 0.0000
# 2 34.9916 39.4909 38.8192 0.0000 0.0000 0.0000
# 3 61.2180 38.8192 165.9611 0.0000 0.0000 0.0000
# 4 0.0000 0.0000 0.0000 41.2288 0.0000 0.0000
# 5 0.0000 0.0000 0.0000 0.0000 24.4303 0.0000
# 6 0.0000 0.0000 0.0000 0.0000 0.0000 16.4639
#
#
#
# Elastic Compliance Matrix: (Units=1/GPa)
#
#
# Indices 1 2 3 4 5 6 
#
# 1 0.010320 -0.007015 -0.002166 0.000000 0.000000 0.000000
# 2 -0.007015 0.037652 -0.006219 0.000000 0.000000 0.000000
# 3 -0.002166 -0.006219 0.008279 0.000000 0.000000 0.000000
# 4 0.000000 0.000000 0.000000 0.024255 0.000000 0.000000
# 5 0.000000 0.000000 0.000000 0.000000 0.040933 0.000000
# 6 0.000000 0.000000 0.000000 0.000000 0.000000 0.060739
#
#
# Mechanical properties :
#
#
# Convention : Reuss Voigt Hill
#
# Bulk Modulus (GPa) = 39.29239 67.67175 53.48207
# Shear Modulus (GPa) = 22.57740 30.02188 26.29964
#
# Velocity S-wave (km/s) = 3.38138 3.89920 3.64948
# Velocity P-wave (km/s) = 5.92820 7.38527 6.69648
#
# Compressibility (1/GPa) = 0.02545022
#
# Stress axis : x y z
#
# Youngs Moduli (GPa) = 96.90207 26.55936 120.78588
#
# Poissons Ratio (x) = 0.18631 0.26159
# Poissons Ratio (y) = 0.67977 0.75120
# Poissons Ratio (z) = 0.20987 0.16518
#
# Static dielectric constant tensor:
#      x y z
#    x 2.157110 0.000000 0.000000 
#    y 0.000000 1.712960 0.000000 
#    z 0.000000 0.000000 1.667910 
# 
# From -- ./inp_files/13859.got.cif
#   From: 2010.05.17/outbox.cif.g08.bks.cpg/sg59_7_cif.got.tgz:13859.got - 2010.06.03 14:40:33.
