data_PCOD9450075
_publ_section_title
;
Structure prediction by ZEFSAII (Michael W. Deem and Ramdas Pophale) SiO2 
 PCOD9450075
Probable space group: P M M N
;
_chemical_formula_sum "Si O2"
_cell_formula_units_Z 64
_cell_length_a 20.282462
_cell_length_b 19.170086
_cell_length_c 9.010462
_cell_angle_alpha 90.000000
_cell_angle_beta 90.000000
_cell_angle_gamma 90.000000
_cell_volume 3503.416666
_symmetry_space_group_name_H-M "P M M N"
_symmetry_group_IT_number 59
_space_group.IT_coordinate_system_code '2'
_symmetry_cell_setting 'orthorhombic'
loop_
_space_group_symop_operation_xyz
x,y,z
1/2-x,1/2-y,z
1/2+x,-y,-z
-x,1/2+y,-z
-x,-y,-z
1/2+x,1/2+y,-z
1/2-x,y,z
x,1/2-y,z
loop_
_atom_site_type_symbol
_atom_site_label
_atom_site_fract_x
_atom_site_fract_y
_atom_site_fract_z
Si Si1 0.576106 0.167283 0.267605
Si Si2 0.177005 0.085694 0.113723
Si Si3 0.323755 0.168146 0.810815
Si Si4 0.051634 0.562896 0.457699
Si Si5 0.570604 0.673370 0.731156
Si Si6 0.826910 0.332649 0.998844
Si Si7 0.173646 0.940879 0.247566
Si Si8 0.547567 0.671098 0.377989
O O1 0.585598 0.250000 0.314379
O O2 0.573992 0.111387 0.402007
O O3 0.502109 0.164670 0.201809
O O4 0.628416 0.149180 0.140797
O O5 0.250000 0.106702 0.167756
O O6 0.120830 0.116679 0.215715
O O7 0.173126 0.003003 0.126972
O O8 0.169540 0.118132 0.951551
O O9 0.250000 0.158312 0.746687
O O10 0.327997 0.250000 0.855999
O O11 0.383664 0.154714 0.700606
O O12 0.118571 0.542811 0.371433
O O13 0.000000 0.500000 0.500000
O O14 0.008574 0.614311 0.353147
O O15 0.596258 0.750000 0.771625
O O16 0.560310 0.670798 0.554694
O O17 0.750000 0.348177 0.030939
O O18 0.833867 0.250000 0.977114
O O19 0.843404 0.372277 0.846756
O O20 0.250000 0.935899 0.303553
O O21 0.527474 0.750000 0.336309
#
# Coordination Sequence:
#
# PCOD9450075 Si02
#       8
#     8   8   8   8   8   8   8   8
#     4   9  19  36  57  80 106 136 171 216 266 316
#     4  10  20  34  50  71 103 138 173 213 255 303
#     4   9  18  33  53  77 104 136 175 214 254 308
#     4  11  22  37  56  80 109 142 181 221 262 317
#     4   9  17  31  51  75 103 134 169 207 251 304
#     4   9  19  37  59  82 107 137 178 226 274 324
#     4  10  22  38  55  77 107 141 176 219 269 318
#     4   9  19  35  53  75 105 137 170 215 266 311
#
# _framework density 18.267880999999999
#
# number of rings (size 3 to 8) (size 9 to 14) (size 15 to 20)
#    0.000    2.500    0.000    3.000    0.000    4.750 
#    0.000    6.250    0.000    0.000    0.000    0.000 
#    0.000    0.000    0.000    0.000    0.000    0.000 
#
# Total GULP energy -356419.264791 kJ/mol
# GULP energy per Si atom -5569.051012 kJ/mol
# Density = 1.822630 g / cm^3
# Si number density = 18.267881 Si / 1000 Ang^3
#
#
#
# Elastic Constant Matrix: (Units=GPa)
#
#
# Indices 1 2 3 4 5 6 
#
# 1 104.7106 47.2257 48.0997 0.0000 0.0000 0.0000
# 2 47.2257 58.8409 24.1328 0.0000 0.0000 0.0000
# 3 48.0997 24.1328 37.4947 0.0000 0.0000 0.0000
# 4 0.0000 0.0000 0.0000 21.5440 0.0000 0.0000
# 5 0.0000 0.0000 0.0000 0.0000 36.0390 0.0000
# 6 0.0000 0.0000 0.0000 0.0000 0.0000 27.5838
#
#
#
# Elastic Compliance Matrix: (Units=1/GPa)
#
#
# Indices 1 2 3 4 5 6 
#
# 1 0.027103 -0.010180 -0.028217 0.000000 0.000000 0.000000
# 2 -0.010180 0.026914 -0.004263 0.000000 0.000000 0.000000
# 3 -0.028217 -0.004263 0.065612 0.000000 0.000000 0.000000
# 4 0.000000 0.000000 0.000000 0.046417 0.000000 0.000000
# 5 0.000000 0.000000 0.000000 0.000000 0.027748 0.000000
# 6 0.000000 0.000000 0.000000 0.000000 0.000000 0.036253
#
#
# Mechanical properties :
#
#
# Convention : Reuss Voigt Hill
#
# Bulk Modulus (GPa) = 29.14690 48.88476 39.01583
# Shear Modulus (GPa) = 15.29975 22.47257 18.88616
#
# Velocity S-wave (km/s) = 2.89714 3.51118 3.21883
# Velocity P-wave (km/s) = 5.21355 6.57692 5.93452
#
# Compressibility (1/GPa) = 0.03430896
#
# Stress axis : x y z
#
# Youngs Moduli (GPa) = 36.89613 37.15519 15.24118
#
# Poissons Ratio (x) = 0.37825 0.43005
# Poissons Ratio (y) = 0.37561 0.06497
# Poissons Ratio (z) = 1.04108 0.15840
#
# Static dielectric constant tensor:
#      x y z
#    x 1.640350 0.000000 0.000000 
#    y 0.000000 1.669970 0.000000 
#    z 0.000000 0.000000 1.607190 
# 
# From -- ./inp_files/11601.got.cif
#   From: 2010.05.17/outbox.cif.g08.bks.cpg/sg59_6_cif.got.tgz:11601.got - 2010.06.03 14:40:33.
