data_PCOD9450329
_publ_section_title
;
Structure prediction by ZEFSAII (Michael W. Deem and Ramdas Pophale) SiO2 
 PCOD9450329
Probable space group: P M M N
;
_chemical_formula_sum "Si O2"
_cell_formula_units_Z 64
_cell_length_a 9.036130
_cell_length_b 14.559640
_cell_length_c 27.081997
_cell_angle_alpha 90.000000
_cell_angle_beta 90.000000
_cell_angle_gamma 90.000000
_cell_volume 3562.983349
_symmetry_space_group_name_H-M "P M M N"
_symmetry_group_IT_number 59
_space_group.IT_coordinate_system_code '2'
_symmetry_cell_setting 'orthorhombic'
loop_
_space_group_symop_operation_xyz
x,y,z
1/2-x,1/2-y,z
1/2+x,-y,-z
-x,1/2+y,-z
-x,-y,-z
1/2+x,1/2+y,-z
1/2-x,y,z
x,1/2-y,z
loop_
_atom_site_type_symbol
_atom_site_label
_atom_site_fract_x
_atom_site_fract_y
_atom_site_fract_z
Si Si1 0.572158 0.643143 0.870980
Si Si2 0.572299 0.007057 0.790201
Si Si3 0.571452 0.357361 0.396581
Si Si4 0.427027 0.500939 0.323803
Si Si5 0.427317 0.506334 0.946529
Si Si6 0.579238 0.860254 0.393322
Si Si7 0.072074 0.144189 0.865121
Si Si8 0.080336 0.861860 0.493418
O O1 0.750000 0.637086 0.878340
O O2 0.532666 0.750000 0.866576
O O3 0.535976 0.584107 0.821987
O O4 0.490978 0.592600 0.916008
O O5 0.750000 0.017924 0.791472
O O6 0.526066 0.999797 0.733384
O O7 0.499280 0.092046 0.818788
O O8 0.750000 0.364552 0.394634
O O9 0.533233 0.250000 0.390894
O O10 0.497506 0.418240 0.354893
O O11 0.526884 0.388485 0.451989
O O12 0.250000 0.495243 0.325732
O O13 0.482929 0.592107 0.351337
O O14 0.250000 0.512259 0.950379
O O15 0.464994 0.416645 0.913340
O O16 0.500000 0.500000 0.000000
O O17 0.750000 0.888005 0.388039
O O18 0.569755 0.750000 0.390136
O O19 0.519492 0.888463 0.447252
O O20 0.250000 0.142101 0.860006
O O21 0.025006 0.250000 0.869202
O O22 0.250000 0.892948 0.486214
O O23 0.084122 0.750000 0.494267
#
# Coordination Sequence:
#
# PCOD9450329 Si02
#       8
#     8   8   8   8   8   8   8   8
#     4   9  18  35  58  79 103 140 181 220 265 312
#     4   9  20  37  54  76 104 134 174 222 266 309
#     4   9  19  36  56  78 105 136 170 211 260 314
#     4  11  23  36  53  78 107 139 174 215 264 317
#     4  10  20  34  53  81 117 149 179 218 259 304
#     4  10  21  36  54  76 102 134 173 216 262 316
#     4   9  19  36  57  79 104 139 180 219 263 312
#     4   8  15  31  54  76 100 131 166 208 259 313
#
# _framework density 17.962475000000001
#
# number of rings (size 3 to 8) (size 9 to 14) (size 15 to 20)
#    0.000    2.625    0.000    1.875    0.000    5.500 
#    0.000    6.250    0.000    0.000    0.000    0.000 
#    0.000    0.000    0.000    0.000    0.000    0.000 
#
# Total GULP energy -357135.674336 kJ/mol
# GULP energy per Si atom -5580.244912 kJ/mol
# Density = 1.792159 g / cm^3
# Si number density = 17.962475 Si / 1000 Ang^3
#
#
#
# Elastic Constant Matrix: (Units=GPa)
#
#
# Indices 1 2 3 4 5 6 
#
# 1 32.9418 32.2040 50.4501 0.0000 0.0000 0.0000
# 2 32.2040 119.4880 64.9306 0.0000 0.0000 0.0000
# 3 50.4501 64.9306 174.7254 0.0000 0.0000 0.0000
# 4 0.0000 0.0000 0.0000 11.2455 0.0000 0.0000
# 5 0.0000 0.0000 0.0000 0.0000 27.2407 0.0000
# 6 0.0000 0.0000 0.0000 0.0000 0.0000 27.8480
#
#
#
# Elastic Compliance Matrix: (Units=1/GPa)
#
#
# Indices 1 2 3 4 5 6 
#
# 1 0.060694 -0.008564 -0.014342 0.000000 0.000000 0.000000
# 2 -0.008564 0.011695 -0.001873 0.000000 0.000000 0.000000
# 3 -0.014342 -0.001873 0.010560 0.000000 0.000000 0.000000
# 4 0.000000 0.000000 0.000000 0.088924 0.000000 0.000000
# 5 0.000000 0.000000 0.000000 0.000000 0.036710 0.000000
# 6 0.000000 0.000000 0.000000 0.000000 0.000000 0.035909
#
#
# Mechanical properties :
#
#
# Convention : Reuss Voigt Hill
#
# Bulk Modulus (GPa) = 29.94890 69.14718 49.54804
# Shear Modulus (GPa) = 16.38365 25.23822 20.81094
#
# Velocity S-wave (km/s) = 3.02338 3.75247 3.40748
# Velocity P-wave (km/s) = 5.37560 7.57322 6.56699
#
# Compressibility (1/GPa) = 0.03339020
#
# Stress axis : x y z
#
# Youngs Moduli (GPa) = 16.47611 85.50496 94.69260
#
# Poissons Ratio (x) = 0.73231 1.35808
# Poissons Ratio (y) = 0.14111 0.17738
# Poissons Ratio (z) = 0.23630 0.16017
#
# Static dielectric constant tensor:
#      x y z
#    x 1.601100 0.000000 0.000000 
#    y 0.000000 1.623350 0.000000 
#    z 0.000000 0.000000 1.589820 
# 
# From -- ./inp_files/31567.got.cif
#   From: 2010.05.17/outbox.cif.g08.bks.cpg/sg59_16_cif.got.tgz:31567.got - 2010.06.03 14:40:33.
