data_PCOD9450647
_publ_section_title
;
Structure prediction by ZEFSAII (Michael W. Deem and Ramdas Pophale) SiO2 
 PCOD9450647
Probable space group: P M M N
;
_chemical_formula_sum "Si O2"
_cell_formula_units_Z 56
_cell_length_a 14.555113
_cell_length_b 8.726603
_cell_length_c 23.231517
_cell_angle_alpha 90.000000
_cell_angle_beta 90.000000
_cell_angle_gamma 90.000000
_cell_volume 2950.790457
_symmetry_space_group_name_H-M "P M M N"
_symmetry_group_IT_number 59
_space_group.IT_coordinate_system_code '2'
_symmetry_cell_setting 'orthorhombic'
loop_
_space_group_symop_operation_xyz
x,y,z
1/2-x,1/2-y,z
1/2+x,-y,-z
-x,1/2+y,-z
-x,-y,-z
1/2+x,1/2+y,-z
1/2-x,y,z
x,1/2-y,z
loop_
_atom_site_type_symbol
_atom_site_label
_atom_site_fract_x
_atom_site_fract_y
_atom_site_fract_z
Si Si1 0.148379 0.925538 0.400698
Si Si2 0.856967 0.433504 0.802809
Si Si3 0.032750 0.070461 0.303500
Si Si4 0.400705 0.065800 0.515694
Si Si5 0.643830 0.435218 0.028421
Si Si6 0.854348 0.565795 0.352150
Si Si7 0.454229 0.433916 0.084655
O O1 0.250000 0.926517 0.374081
O O2 0.113733 0.750000 0.400767
O O3 0.081923 0.030532 0.363768
O O4 0.155970 0.987379 0.465087
O O5 0.750000 0.484626 0.802512
O O6 0.857263 0.250000 0.806403
O O7 0.909839 0.484983 0.745515
O O8 0.911720 0.501157 0.857011
O O9 0.034358 0.250000 0.292222
O O10 0.929401 0.010984 0.311526
O O11 0.396955 0.250000 0.510977
O O12 0.372730 0.025124 0.580706
O O13 0.500000 0.000000 0.500000
O O14 0.750000 0.482411 0.040479
O O15 0.643937 0.250000 0.024335
O O16 0.561589 0.477300 0.072984
O O17 0.607145 0.502774 0.968138
O O18 0.750000 0.523872 0.337729
O O19 0.863732 0.750000 0.348348
O O20 0.449440 0.250000 0.084922
#
# Coordination Sequence:
#
# PCOD9450647 Si02
#       7
#     8   8   8   8   8   8   8
#     4  11  23  38  57  82 114 150 186 229 284 345
#     4  11  24  42  63  85 114 154 195 238 292 353
#     4  12  25  40  61  86 113 146 188 241 292 343
#     4  11  21  35  58  86 115 148 185 229 285 344
#     4   9  18  34  56  84 122 165 201 236 286 344
#     4  10  22  41  63  84 112 151 191 233 285 347
#     4  10  20  34  56  88 122 156 199 248 292 339
#
# _framework density 18.977965999999999
#
# number of rings (size 3 to 8) (size 9 to 14) (size 15 to 20)
#    0.000    1.429    1.429    4.286    0.000    8.000 
#    0.000    0.714    0.000    2.571    0.000    0.000 
#    0.000    0.000    0.000    0.000    0.000    0.000 
#
# Total GULP energy -312723.728020 kJ/mol
# GULP energy per Si atom -5584.352286 kJ/mol
# Density = 1.893477 g / cm^3
# Si number density = 18.977966 Si / 1000 Ang^3
#
#
#
# Elastic Constant Matrix: (Units=GPa)
#
#
# Indices 1 2 3 4 5 6 
#
# 1 170.7309 31.3717 53.1446 0.0000 0.0000 0.0000
# 2 31.3717 33.1228 12.8783 0.0000 0.0000 0.0000
# 3 53.1446 12.8783 84.0849 0.0000 0.0000 0.0000
# 4 0.0000 0.0000 0.0000 33.0235 0.0000 0.0000
# 5 0.0000 0.0000 0.0000 0.0000 24.1197 0.0000
# 6 0.0000 0.0000 0.0000 0.0000 0.0000 16.1029
#
#
#
# Elastic Compliance Matrix: (Units=1/GPa)
#
#
# Indices 1 2 3 4 5 6 
#
# 1 0.008346 -0.006225 -0.004322 0.000000 0.000000 0.000000
# 2 -0.006225 0.036745 -0.001694 0.000000 0.000000 0.000000
# 3 -0.004322 -0.001694 0.014884 0.000000 0.000000 0.000000
# 4 0.000000 0.000000 0.000000 0.030281 0.000000 0.000000
# 5 0.000000 0.000000 0.000000 0.000000 0.041460 0.000000
# 6 0.000000 0.000000 0.000000 0.000000 0.000000 0.062101
#
#
# Mechanical properties :
#
#
# Convention : Reuss Voigt Hill
#
# Bulk Modulus (GPa) = 28.17328 53.63643 40.90485
# Shear Modulus (GPa) = 21.72704 27.35215 24.53960
#
# Velocity S-wave (km/s) = 3.38724 3.80051 3.59981
# Velocity P-wave (km/s) = 5.49321 6.89799 6.23529
#
# Compressibility (1/GPa) = 0.03549462
#
# Stress axis : x y z
#
# Youngs Moduli (GPa) = 119.81500 27.21483 67.18795
#
# Poissons Ratio (x) = 0.16940 0.29037
# Poissons Ratio (y) = 0.74580 0.11379
# Poissons Ratio (z) = 0.51781 0.04609
#
# Static dielectric constant tensor:
#      x y z
#    x 1.709040 0.000000 0.000000 
#    y 0.000000 1.642300 0.000000 
#    z 0.000000 0.000000 1.633860 
# 
# From -- ./inp_files/30383.got.cif
#   From: 2010.05.17/outbox.cif.g08.bks.cpg/sg59_16_cif.got.tgz:30383.got - 2010.06.03 14:40:33.
