data_PCOD9450309
_publ_section_title
;
Structure prediction by ZEFSAII (Michael W. Deem and Ramdas Pophale) SiO2 
 PCOD9450309
Probable space group: P M M N
;
_chemical_formula_sum "Si O2"
_cell_formula_units_Z 56
_cell_length_a 21.134874
_cell_length_b 8.546572
_cell_length_c 15.559234
_cell_angle_alpha 90.000000
_cell_angle_beta 90.000000
_cell_angle_gamma 90.000000
_cell_volume 2810.475677
_symmetry_space_group_name_H-M "P M M N"
_symmetry_group_IT_number 59
_space_group.IT_coordinate_system_code '2'
_symmetry_cell_setting 'orthorhombic'
loop_
_space_group_symop_operation_xyz
x,y,z
1/2-x,1/2-y,z
1/2+x,-y,-z
-x,1/2+y,-z
-x,-y,-z
1/2+x,1/2+y,-z
1/2-x,y,z
x,1/2-y,z
loop_
_atom_site_type_symbol
_atom_site_label
_atom_site_fract_x
_atom_site_fract_y
_atom_site_fract_z
Si Si1 0.321481 0.937880 0.953418
Si Si2 0.541354 0.564338 0.081381
Si Si3 0.619233 0.428323 0.698133
Si Si4 0.442044 0.938230 0.558763
Si Si5 0.679996 0.563226 0.537403
Si Si6 0.176667 0.425855 0.144189
Si Si7 0.008538 0.567933 0.736575
O O1 0.250000 0.977470 0.918843
O O2 0.323771 0.750000 0.960021
O O3 0.325463 0.016873 0.046988
O O4 0.387155 0.995032 0.911689
O O5 0.545265 0.750000 0.070402
O O6 0.510374 0.522418 0.173337
O O7 0.500000 0.500000 0.000000
O O8 0.600603 0.250000 0.680681
O O9 0.670737 0.485063 0.630435
O O10 0.644158 0.451250 0.793959
O O11 0.559622 0.542439 0.693081
O O12 0.444903 0.750000 0.556911
O O13 0.446494 0.987418 0.659002
O O14 0.500000 0.000000 0.500000
O O15 0.376808 0.997960 0.519318
O O16 0.750000 0.526745 0.503608
O O17 0.674287 0.750000 0.545933
O O18 0.250000 0.417289 0.169175
O O19 0.149146 0.250000 0.152454
O O20 0.020154 0.750000 0.754910
#
# Coordination Sequence:
#
# PCOD9450309 Si02
#       7
#     8   8   8   8   8   8   8
#     4  10  21  39  62  87 119 161 209 261 319 382
#     4  12  25  42  65  94 130 168 213 269 322 381
#     4  12  23  35  56  86 121 160 204 256 314 380
#     4  11  23  41  68  95 125 164 209 260 312 376
#     4  11  24  41  62  90 127 168 210 261 319 377
#     4  10  20  34  53  79 115 158 202 250 309 377
#     4  11  24  42  64  91 123 163 210 259 315 381
#
# _framework density 19.925453999999998
#
# number of rings (size 3 to 8) (size 9 to 14) (size 15 to 20)
#    0.000    1.000    1.429    6.000    0.000    6.286 
#    0.000    0.714    0.000    0.857    0.000    0.000 
#    0.000    0.000    0.000    0.000    0.000    0.000 
#
# Total GULP energy -312711.061238 kJ/mol
# GULP energy per Si atom -5584.126094 kJ/mol
# Density = 1.988010 g / cm^3
# Si number density = 19.925454 Si / 1000 Ang^3
#
#
#
# Elastic Constant Matrix: (Units=GPa)
#
#
# Indices 1 2 3 4 5 6 
#
# 1 108.1832 22.7489 30.2619 0.0000 0.0000 0.0000
# 2 22.7489 79.9150 22.1374 0.0000 0.0000 0.0000
# 3 30.2619 22.1374 75.2576 0.0000 0.0000 0.0000
# 4 0.0000 0.0000 0.0000 29.1349 0.0000 0.0000
# 5 0.0000 0.0000 0.0000 0.0000 30.9943 0.0000
# 6 0.0000 0.0000 0.0000 0.0000 0.0000 30.3618
#
#
#
# Elastic Compliance Matrix: (Units=1/GPa)
#
#
# Indices 1 2 3 4 5 6 
#
# 1 0.010706 -0.002020 -0.003711 0.000000 0.000000 0.000000
# 2 -0.002020 0.014004 -0.003307 0.000000 0.000000 0.000000
# 3 -0.003711 -0.003307 0.015753 0.000000 0.000000 0.000000
# 4 0.000000 0.000000 0.000000 0.034323 0.000000 0.000000
# 5 0.000000 0.000000 0.000000 0.000000 0.032264 0.000000
# 6 0.000000 0.000000 0.000000 0.000000 0.000000 0.032936
#
#
# Mechanical properties :
#
#
# Convention : Reuss Voigt Hill
#
# Bulk Modulus (GPa) = 44.66791 45.96136 45.31463
# Shear Modulus (GPa) = 30.20685 30.64538 30.42612
#
# Velocity S-wave (km/s) = 3.89780 3.92599 3.91192
# Velocity P-wave (km/s) = 6.53631 6.60817 6.57234
#
# Compressibility (1/GPa) = 0.02238744
#
# Stress axis : x y z
#
# Youngs Moduli (GPa) = 93.40240 71.40613 63.48077
#
# Poissons Ratio (x) = 0.14422 0.23558
# Poissons Ratio (y) = 0.18865 0.20995
# Poissons Ratio (z) = 0.34662 0.23616
#
# Static dielectric constant tensor:
#      x y z
#    x 1.756030 0.000000 0.000000 
#    y 0.000000 1.675770 0.000000 
#    z 0.000000 0.000000 1.702820 
# 
# From -- ./inp_files/24184.got.cif
#   From: 2010.05.17/outbox.cif.g08.bks.cpg/sg59_13_cif.got.tgz:24184.got - 2010.06.03 14:40:33.
