data_PCOD9450175
_publ_section_title
;
Structure prediction by ZEFSAII (Michael W. Deem and Ramdas Pophale) SiO2 
 PCOD9450175
Probable space group: P M M N
;
_chemical_formula_sum "Si O2"
_cell_formula_units_Z 40
_cell_length_a 17.972257
_cell_length_b 22.437992
_cell_length_c 5.022099
_cell_angle_alpha 90.000000
_cell_angle_beta 90.000000
_cell_angle_gamma 90.000000
_cell_volume 2025.218467
_symmetry_space_group_name_H-M "P M M N"
_symmetry_group_IT_number 59
_space_group.IT_coordinate_system_code '2'
_symmetry_cell_setting 'orthorhombic'
loop_
_space_group_symop_operation_xyz
x,y,z
1/2-x,1/2-y,z
1/2+x,-y,-z
-x,1/2+y,-z
-x,-y,-z
1/2+x,1/2+y,-z
1/2-x,y,z
x,1/2-y,z
loop_
_atom_site_type_symbol
_atom_site_label
_atom_site_fract_x
_atom_site_fract_y
_atom_site_fract_z
Si Si1 0.335581 0.035564 0.553478
Si Si2 0.430192 0.814916 0.610130
Si Si3 0.007685 0.067091 0.625560
Si Si4 0.126702 0.962534 0.047960
Si Si5 0.168137 0.833712 0.120709
O O1 0.250000 0.054881 0.582759
O O2 0.403866 0.077405 0.645767
O O3 0.351075 0.015314 0.250330
O O4 0.350663 0.979627 0.750783
O O5 0.469708 0.750000 0.587286
O O6 0.474063 0.875608 0.528942
O O7 0.361969 0.813473 0.403460
O O8 0.393760 0.819228 0.900247
O O9 0.958870 0.056979 0.893261
O O10 0.000000 0.000000 0.500000
O O11 0.170921 0.904869 0.133777
O O12 0.250000 0.812236 0.052873
#
# Coordination Sequence:
#
# PCOD9450175 Si02
#       5
#     8   8   8   8   8
#     4  11  20  32  53  81 110 136 173 225 272 312
#     4  11  24  38  53  76 107 144 180 217 262 312
#     4   9  20  37  57  78 105 141 178 215 261 317
#     4  10  20  34  52  80 112 143 174 213 265 316
#     4  11  21  35  55  78 108 145 182 215 251 304
#
# _framework density 19.750957
#
# number of rings (size 3 to 8) (size 9 to 14) (size 15 to 20)
#    0.000    1.600    0.000    7.200    0.000    7.200 
#    0.000    0.000    0.000    0.600    0.000    0.000 
#    0.000   12.800    0.000    0.000    0.000    2.000 
#
# Total GULP energy -222887.521424 kJ/mol
# GULP energy per Si atom -5572.188036 kJ/mol
# Density = 1.970600 g / cm^3
# Si number density = 19.750957 Si / 1000 Ang^3
#
#
#
# Elastic Constant Matrix: (Units=GPa)
#
#
# Indices 1 2 3 4 5 6 
#
# 1 153.8206 31.4212 -1.5135 0.0000 0.0000 0.0000
# 2 31.4212 91.9106 -3.8869 0.0000 0.0000 0.0000
# 3 -1.5135 -3.8869 55.3662 0.0000 0.0000 0.0000
# 4 0.0000 0.0000 0.0000 92.6891 0.0000 0.0000
# 5 0.0000 0.0000 0.0000 0.0000 20.1851 0.0000
# 6 0.0000 0.0000 0.0000 0.0000 0.0000 46.0295
#
#
#
# Elastic Compliance Matrix: (Units=1/GPa)
#
#
# Indices 1 2 3 4 5 6 
#
# 1 0.006989 -0.002388 0.000023 0.000000 0.000000 0.000000
# 2 -0.002388 0.011729 0.000758 0.000000 0.000000 0.000000
# 3 0.000023 0.000758 0.018115 0.000000 0.000000 0.000000
# 4 0.000000 0.000000 0.000000 0.010789 0.000000 0.000000
# 5 0.000000 0.000000 0.000000 0.000000 0.049542 0.000000
# 6 0.000000 0.000000 0.000000 0.000000 0.000000 0.021725
#
#
# Mechanical properties :
#
#
# Convention : Reuss Voigt Hill
#
# Bulk Modulus (GPa) = 29.74461 39.23766 34.49113
# Shear Modulus (GPa) = 37.50681 50.11917 43.81299
#
# Velocity S-wave (km/s) = 4.36246 5.04288 4.71496
# Velocity P-wave (km/s) = 6.36139 7.33600 6.86601
#
# Compressibility (1/GPa) = 0.03361954
#
# Stress axis : x y z
#
# Youngs Moduli (GPa) = 143.07807 85.26083 55.20159
#
# Poissons Ratio (x) = 0.20364 -0.00129
# Poissons Ratio (y) = 0.34173 -0.04185
# Poissons Ratio (z) = -0.00335 -0.06464
#
# Static dielectric constant tensor:
#      x y z
#    x 1.763770 0.000000 0.000000 
#    y 0.000000 1.740740 0.000000 
#    z 0.000000 0.000000 1.713650 
# 
# From -- ./inp_files/2736.got.cif
#   From: 2010.05.17/outbox.cif.g08.bks.cpg/sg59_2_cif.got.tgz:2736.got - 2010.06.03 14:40:33.
