data_PCOD9450597
_publ_section_title
;
Structure prediction by ZEFSAII (Michael W. Deem and Ramdas Pophale) SiO2 
 PCOD9450597
Probable space group: P M M N
;
_chemical_formula_sum "Si O2"
_cell_formula_units_Z 56
_cell_length_a 20.933290
_cell_length_b 8.893153
_cell_length_c 16.312303
_cell_angle_alpha 90.000000
_cell_angle_beta 90.000000
_cell_angle_gamma 90.000000
_cell_volume 3036.746460
_symmetry_space_group_name_H-M "P M M N"
_symmetry_group_IT_number 59
_space_group.IT_coordinate_system_code '2'
_symmetry_cell_setting 'orthorhombic'
loop_
_space_group_symop_operation_xyz
x,y,z
1/2-x,1/2-y,z
1/2+x,-y,-z
-x,1/2+y,-z
-x,-y,-z
1/2+x,1/2+y,-z
1/2-x,y,z
x,1/2-y,z
loop_
_atom_site_type_symbol
_atom_site_label
_atom_site_fract_x
_atom_site_fract_y
_atom_site_fract_z
Si Si1 0.889534 0.932384 0.708067
Si Si2 0.750000 0.431354 0.463396
Si Si3 0.127091 0.928842 0.646271
Si Si4 0.250000 0.431281 0.355501
Si Si5 0.996507 0.070634 0.590301
Si Si6 0.921050 0.926563 0.062161
Si Si7 0.825753 0.079722 0.169026
Si Si8 0.452036 0.430851 0.120538
O O1 0.894049 0.750000 0.702981
O O2 0.816032 0.974785 0.689709
O O3 0.914079 0.979441 0.798465
O O4 0.937270 0.003037 0.641303
O O5 0.750000 0.250000 0.469043
O O6 0.814197 0.473090 0.413289
O O7 0.750000 0.501572 0.553264
O O8 0.114370 0.750000 0.633090
O O9 0.149545 0.948123 0.739419
O O10 0.063080 0.021492 0.631603
O O11 0.250000 0.250000 0.361232
O O12 0.990696 0.250000 0.585921
O O13 0.000000 0.000000 0.500000
O O14 0.934309 0.750000 0.062946
O O15 0.855260 0.965459 0.105075
O O16 0.922646 0.977757 0.967348
O O17 0.976144 0.007787 0.114671
O O18 0.750000 0.073337 0.170646
O O19 0.845470 0.250000 0.145822
O O20 0.453879 0.250000 0.122739
#
# Coordination Sequence:
#
# PCOD9450597 Si02
#       8
#     8   4   8   4   8   8   8   8
#     4  10  21  40  61  83 111 147 191 236 285 339
#     4  10  20  36  58  81 108 146 188 227 276 338
#     4  10  20  37  59  83 112 149 190 233 279 335
#     4  10  22  38  58  81 106 138 182 235 282 330
#     4  12  25  39  57  85 116 149 188 235 286 337
#     4  10  20  34  55  86 116 145 185 235 282 327
#     4  10  20  36  56  80 114 155 191 223 274 341
#     4   9  19  37  59  82 110 150 189 226 281 343
#
# _framework density 18.440788999999999
#
# number of rings (size 3 to 8) (size 9 to 14) (size 15 to 20)
#    0.000    1.857    0.714    3.429    0.000    8.857 
#    1.286    0.000    0.000    0.000    0.000    0.000 
#    0.000    0.000    0.000    0.000    0.000    0.000 
#
# Total GULP energy -312694.549385 kJ/mol
# GULP energy per Si atom -5583.831239 kJ/mol
# Density = 1.839882 g / cm^3
# Si number density = 18.440789 Si / 1000 Ang^3
#
#
#
# Elastic Constant Matrix: (Units=GPa)
#
#
# Indices 1 2 3 4 5 6 
#
# 1 130.8889 40.3125 66.1590 0.0000 0.0000 0.0000
# 2 40.3125 28.2156 34.3688 0.0000 0.0000 0.0000
# 3 66.1590 34.3688 102.5466 0.0000 0.0000 0.0000
# 4 0.0000 0.0000 0.0000 26.4377 0.0000 0.0000
# 5 0.0000 0.0000 0.0000 0.0000 32.1907 0.0000
# 6 0.0000 0.0000 0.0000 0.0000 0.0000 17.8772
#
#
#
# Elastic Compliance Matrix: (Units=1/GPa)
#
#
# Indices 1 2 3 4 5 6 
#
# 1 0.014599 -0.015860 -0.004103 0.000000 0.000000 0.000000
# 2 -0.015860 0.077121 -0.015615 0.000000 0.000000 0.000000
# 3 -0.004103 -0.015615 0.017632 0.000000 0.000000 0.000000
# 4 0.000000 0.000000 0.000000 0.037825 0.000000 0.000000
# 5 0.000000 0.000000 0.000000 0.000000 0.031065 0.000000
# 6 0.000000 0.000000 0.000000 0.000000 0.000000 0.055937
#
#
# Mechanical properties :
#
#
# Convention : Reuss Voigt Hill
#
# Bulk Modulus (GPa) = 26.18067 60.37019 43.27543
# Shear Modulus (GPa) = 15.71994 23.35518 19.53756
#
# Velocity S-wave (km/s) = 2.92285 3.56265 3.25849
# Velocity P-wave (km/s) = 5.06149 7.05207 6.13801
#
# Compressibility (1/GPa) = 0.03819612
#
# Stress axis : x y z
#
# Youngs Moduli (GPa) = 68.49974 12.96655 56.71399
#
# Poissons Ratio (x) = 0.20565 0.23270
# Poissons Ratio (y) = 1.08638 0.88561
# Poissons Ratio (z) = 0.28106 0.20248
#
# Static dielectric constant tensor:
#      x y z
#    x 1.626890 0.000000 0.000000 
#    y 0.000000 1.638230 0.000000 
#    z 0.000000 0.000000 1.620490 
# 
# From -- ./inp_files/24346.got.cif
#   From: 2010.05.17/outbox.cif.g08.bks.cpg/sg59_13_cif.got.tgz:24346.got - 2010.06.03 14:40:33.
