data_PCOD9450779
_publ_section_title
;
Structure prediction by ZEFSAII (Michael W. Deem and Ramdas Pophale) SiO2 
 PCOD9450779
Probable space group: P M M N
;
_chemical_formula_sum "Si O2"
_cell_formula_units_Z 64
_cell_length_a 19.458948
_cell_length_b 7.594319
_cell_length_c 21.459778
_cell_angle_alpha 90.000000
_cell_angle_beta 90.000000
_cell_angle_gamma 90.000000
_cell_volume 3171.271453
_symmetry_space_group_name_H-M "P M M N"
_symmetry_group_IT_number 59
_space_group.IT_coordinate_system_code '2'
_symmetry_cell_setting 'orthorhombic'
loop_
_space_group_symop_operation_xyz
x,y,z
1/2-x,1/2-y,z
1/2+x,-y,-z
-x,1/2+y,-z
-x,-y,-z
1/2+x,1/2+y,-z
1/2-x,y,z
x,1/2-y,z
loop_
_atom_site_type_symbol
_atom_site_label
_atom_site_fract_x
_atom_site_fract_y
_atom_site_fract_z
Si Si1 0.531087 0.540133 0.566990
Si Si2 0.827659 0.462735 0.111292
Si Si3 0.674646 0.959236 0.615860
Si Si4 0.580454 0.038706 0.998411
Si Si5 0.325965 0.455976 0.744991
Si Si6 0.611360 0.036715 0.748270
Si Si7 0.532424 0.543687 0.303315
Si Si8 0.329284 0.965481 0.118735
O O1 0.500000 0.500000 0.500000
O O2 0.533107 0.750000 0.574712
O O3 0.608814 0.471246 0.577913
O O4 0.485670 0.469616 0.623992
O O5 0.750000 0.507038 0.090807
O O6 0.831718 0.250000 0.115400
O O7 0.837458 0.533050 0.180764
O O8 0.881983 0.526868 0.060781
O O9 0.750000 0.033313 0.601618
O O10 0.677466 0.750000 0.604390
O O11 0.656990 0.985237 0.688750
O O12 0.588131 0.250000 0.998350
O O13 0.620903 0.975204 0.937056
O O14 0.500000 0.000000 0.000000
O O15 0.250000 0.533203 0.732327
O O16 0.322217 0.250000 0.727274
O O17 0.393400 0.534497 0.712752
O O18 0.609662 0.250000 0.749147
O O19 0.533879 0.971500 0.733833
O O20 0.642069 0.977499 0.813958
O O21 0.535841 0.750000 0.286223
O O22 0.250000 0.019290 0.109817
O O23 0.329627 0.750000 0.118863
#
# Coordination Sequence:
#
# PCOD9450779 Si02
#       8
#     8   8   8   8   8   8   8   8
#     4  10  20  35  55  77 103 136 171 204 241 288
#     4   9  18  33  51  70  94 128 169 211 255 303
#     4   9  18  33  52  75 103 133 163 197 242 293
#     4  10  21  34  49  69  95 128 166 209 254 301
#     4   9  18  32  52  77 102 131 168 210 255 301
#     4   9  17  29  49  76  99 125 162 204 245 289
#     4   9  18  32  51  75 104 133 163 203 247 292
#     4   9  17  30  49  71  95 126 164 203 245 296
#
# _framework density 20.181179
#
# number of rings (size 3 to 8) (size 9 to 14) (size 15 to 20)
#    0.000    2.750    0.000    1.125    1.750    3.750 
#    0.000    1.250    0.000    5.625    0.000    0.000 
#    0.000    0.000    0.000    0.000    0.000    0.000 
#
# Total GULP energy -357046.109027 kJ/mol
# GULP energy per Si atom -5578.845454 kJ/mol
# Density = 2.013525 g / cm^3
# Si number density = 20.181179 Si / 1000 Ang^3
#
#
#
# Elastic Constant Matrix: (Units=GPa)
#
#
# Indices 1 2 3 4 5 6 
#
# 1 208.0768 0.1800 96.8918 0.0000 0.0000 0.0000
# 2 0.1800 42.1778 -10.6802 0.0000 0.0000 0.0000
# 3 96.8918 -10.6802 83.8887 0.0000 0.0000 0.0000
# 4 0.0000 0.0000 0.0000 15.2532 0.0000 0.0000
# 5 0.0000 0.0000 0.0000 0.0000 25.3668 0.0000
# 6 0.0000 0.0000 0.0000 0.0000 0.0000 12.5756
#
#
#
# Elastic Compliance Matrix: (Units=1/GPa)
#
#
# Indices 1 2 3 4 5 6 
#
# 1 0.010831 -0.003321 -0.012933 0.000000 0.000000 0.000000
# 2 -0.003321 0.025517 0.007084 0.000000 0.000000 0.000000
# 3 -0.012933 0.007084 0.027760 0.000000 0.000000 0.000000
# 4 0.000000 0.000000 0.000000 0.065560 0.000000 0.000000
# 5 0.000000 0.000000 0.000000 0.000000 0.039422 0.000000
# 6 0.000000 0.000000 0.000000 0.000000 0.000000 0.079519
#
#
# Mechanical properties :
#
#
# Convention : Reuss Voigt Hill
#
# Bulk Modulus (GPa) = 21.84853 56.32517 39.08685
# Shear Modulus (GPa) = 17.71776 27.15590 22.43683
#
# Velocity S-wave (km/s) = 2.96621 3.67223 3.33794
# Velocity P-wave (km/s) = 4.75194 6.77869 5.85370
#
# Compressibility (1/GPa) = 0.04576967
#
# Stress axis : x y z
#
# Youngs Moduli (GPa) = 92.32866 39.18917 36.02354
#
# Poissons Ratio (x) = 0.13015 0.46588
# Poissons Ratio (y) = 0.30662 -0.25521
# Poissons Ratio (z) = 1.19404 -0.27763
#
# Static dielectric constant tensor:
#      x y z
#    x 1.746330 0.000000 0.000000 
#    y 0.000000 1.772380 0.000000 
#    z 0.000000 0.000000 1.676700 
# 
# From -- ./inp_files/30767.got.cif
#   From: 2010.05.17/outbox.cif.g08.bks.cpg/sg59_16_cif.got.tgz:30767.got - 2010.06.03 14:40:33.
