data_PCOD9450757
_publ_section_title
;
Structure prediction by ZEFSAII (Michael W. Deem and Ramdas Pophale) SiO2 
 PCOD9450757
Probable space group: P M M N
;
_chemical_formula_sum "Si O2"
_cell_formula_units_Z 32
_cell_length_a 8.853238
_cell_length_b 16.533332
_cell_length_c 11.574499
_cell_angle_alpha 90.000000
_cell_angle_beta 90.000000
_cell_angle_gamma 90.000000
_cell_volume 1694.200197
_symmetry_space_group_name_H-M "P M M N"
_symmetry_group_IT_number 59
_space_group.IT_coordinate_system_code '2'
_symmetry_cell_setting 'orthorhombic'
loop_
_space_group_symop_operation_xyz
x,y,z
1/2-x,1/2-y,z
1/2+x,-y,-z
-x,1/2+y,-z
-x,-y,-z
1/2+x,1/2+y,-z
1/2-x,y,z
x,1/2-y,z
loop_
_atom_site_type_symbol
_atom_site_label
_atom_site_fract_x
_atom_site_fract_y
_atom_site_fract_z
Si Si1 0.433965 0.250000 0.511262
Si Si2 0.431354 0.071944 0.420416
Si Si3 0.575832 0.061931 0.170267
Si Si4 0.565447 0.750000 0.225010
Si Si5 0.074169 0.114105 0.948064
O O1 0.250000 0.250000 0.507987
O O2 0.479865 0.163471 0.457022
O O3 0.486120 0.250000 0.644009
O O4 0.250000 0.067621 0.430908
O O5 0.482005 0.061293 0.287879
O O6 0.500000 0.000000 0.500000
O O7 0.750000 0.079885 0.196996
O O8 0.567757 0.974120 0.109671
O O9 0.512330 0.118913 0.068951
O O10 0.750000 0.750000 0.230122
O O11 0.516492 0.826327 0.150373
O O12 0.250000 0.132441 0.971424
#
# Coordination Sequence:
#
# PCOD9450757 Si02
#       5
#     4   8   8   4   8
#     4   9  20  37  57  82 112 149 190 229 274 339
#     4  11  22  38  60  84 113 150 191 233 279 331
#     4  10  20  35  54  78 110 144 180 223 275 333
#     4   9  16  31  55  78 100 131 178 227 270 323
#     4   9  18  33  55  79 103 136 178 225 274 327
#
# _framework density 18.887968999999998
#
# number of rings (size 3 to 8) (size 9 to 14) (size 15 to 20)
#    0.000    2.250    0.000    3.000    0.000    6.000 
#    0.000    8.125    0.000    3.000    0.000    0.000 
#    0.000    0.000    0.000    0.000    0.000    0.000 
#
# Total GULP energy -178400.564553 kJ/mol
# GULP energy per Si atom -5575.017642 kJ/mol
# Density = 1.884498 g / cm^3
# Si number density = 18.887969 Si / 1000 Ang^3
#
#
#
# Elastic Constant Matrix: (Units=GPa)
#
#
# Indices 1 2 3 4 5 6 
#
# 1 54.8206 36.4330 43.2374 0.0000 0.0000 0.0000
# 2 36.4330 62.6294 28.8037 0.0000 0.0000 0.0000
# 3 43.2374 28.8037 126.6656 0.0000 0.0000 0.0000
# 4 0.0000 0.0000 0.0000 12.1224 0.0000 0.0000
# 5 0.0000 0.0000 0.0000 0.0000 35.9232 0.0000
# 6 0.0000 0.0000 0.0000 0.0000 0.0000 17.1034
#
#
#
# Elastic Compliance Matrix: (Units=1/GPa)
#
#
# Indices 1 2 3 4 5 6 
#
# 1 0.036438 -0.017284 -0.008508 0.000000 0.000000 0.000000
# 2 -0.017284 0.026031 -0.000019 0.000000 0.000000 0.000000
# 3 -0.008508 -0.000019 0.010803 0.000000 0.000000 0.000000
# 4 0.000000 0.000000 0.000000 0.082492 0.000000 0.000000
# 5 0.000000 0.000000 0.000000 0.000000 0.027837 0.000000
# 6 0.000000 0.000000 0.000000 0.000000 0.000000 0.058468
#
#
# Mechanical properties :
#
#
# Convention : Reuss Voigt Hill
#
# Bulk Modulus (GPa) = 46.19068 51.22930 48.70999
# Shear Modulus (GPa) = 16.61635 22.07258 19.34446
#
# Velocity S-wave (km/s) = 2.96925 3.42220 3.20373
# Velocity P-wave (km/s) = 6.02191 6.54193 6.28730
#
# Compressibility (1/GPa) = 0.02164939
#
# Stress axis : x y z
#
# Youngs Moduli (GPa) = 27.44351 38.41644 92.56378
#
# Poissons Ratio (x) = 0.66400 0.78752
# Poissons Ratio (y) = 0.47434 0.00179
# Poissons Ratio (z) = 0.23349 0.00074
#
# Static dielectric constant tensor:
#      x y z
#    x 1.655050 0.000000 0.000000 
#    y 0.000000 1.700110 0.000000 
#    z 0.000000 0.000000 1.620380 
# 
# From -- ./inp_files/13676.got.cif
#   From: 2010.05.17/outbox.cif.g08.bks.cpg/sg59_7_cif.got.tgz:13676.got - 2010.06.03 14:40:33.
