data_PCOD9450737
_publ_section_title
;
Structure prediction by ZEFSAII (Michael W. Deem and Ramdas Pophale) SiO2 
 PCOD9450737
Probable space group: P M M N
;
_chemical_formula_sum "Si O2"
_cell_formula_units_Z 48
_cell_length_a 31.603658
_cell_length_b 7.655350
_cell_length_c 9.471085
_cell_angle_alpha 90.000000
_cell_angle_beta 90.000000
_cell_angle_gamma 90.000000
_cell_volume 2291.406491
_symmetry_space_group_name_H-M "P M M N"
_symmetry_group_IT_number 59
_space_group.IT_coordinate_system_code '2'
_symmetry_cell_setting 'orthorhombic'
loop_
_space_group_symop_operation_xyz
x,y,z
1/2-x,1/2-y,z
1/2+x,-y,-z
-x,1/2+y,-z
-x,-y,-z
1/2+x,1/2+y,-z
1/2-x,y,z
x,1/2-y,z
loop_
_atom_site_type_symbol
_atom_site_label
_atom_site_fract_x
_atom_site_fract_y
_atom_site_fract_z
Si Si1 0.297738 0.457892 0.422945
Si Si2 0.376655 0.535194 0.915919
Si Si3 0.380018 0.544265 0.595887
Si Si4 0.041527 0.540258 0.090181
Si Si5 0.797449 0.039989 0.903135
Si Si6 0.958056 0.039619 0.588704
O O1 0.250000 0.525617 0.451270
O O2 0.296767 0.250000 0.438508
O O3 0.334416 0.526308 0.523516
O O4 0.307897 0.499333 0.259693
O O5 0.376215 0.750000 0.915394
O O6 0.380117 0.473510 0.754809
O O7 0.416858 0.478146 0.007733
O O8 0.333561 0.476711 0.991593
O O9 0.389128 0.750000 0.609837
O O10 0.416819 0.471720 0.494740
O O11 0.044902 0.750000 0.097949
O O12 0.039120 0.473001 0.250673
O O13 0.000000 0.500000 0.000000
O O14 0.750000 0.972776 0.931666
O O15 0.796179 0.250000 0.915184
O O16 0.954380 0.250000 0.597928
O O17 0.000000 0.000000 0.500000
#
# Coordination Sequence:
#
# PCOD9450737 Si02
#       6
#     8   8   8   8   8   8
#     4  10  21  36  53  76 107 141 176 215 261 312
#     4   9  18  33  54  79 105 132 168 216 262 304
#     4  10  20  35  56  80 105 137 177 218 261 310
#     4  10  20  35  54  76 104 137 173 213 257 305
#     4   9  17  32  55  79 102 132 171 212 255 307
#     4  10  21  36  56  81 108 139 175 215 260 311
#
# _framework density 20.947834
#
# number of rings (size 3 to 8) (size 9 to 14) (size 15 to 20)
#    0.000    2.333    0.000    2.500    0.000    7.000 
#    0.000    5.833    0.000    2.000    0.000    0.000 
#    0.000    0.000    0.000    0.000    0.000    0.000 
#
# Total GULP energy -268119.693759 kJ/mol
# GULP energy per Si atom -5585.826953 kJ/mol
# Density = 2.090016 g / cm^3
# Si number density = 20.947834 Si / 1000 Ang^3
#
#
#
# Elastic Constant Matrix: (Units=GPa)
#
#
# Indices 1 2 3 4 5 6 
#
# 1 159.0833 -3.4038 137.3580 0.0000 0.0000 0.0000
# 2 -3.4038 35.3018 1.3104 0.0000 0.0000 0.0000
# 3 137.3580 1.3104 221.4995 0.0000 0.0000 0.0000
# 4 0.0000 0.0000 0.0000 5.1197 0.0000 0.0000
# 5 0.0000 0.0000 0.0000 0.0000 40.9308 0.0000
# 6 0.0000 0.0000 0.0000 0.0000 0.0000 22.2226
#
#
#
# Elastic Compliance Matrix: (Units=1/GPa)
#
#
# Indices 1 2 3 4 5 6 
#
# 1 0.013624 0.001628 -0.008458 0.000000 0.000000 0.000000
# 2 0.001628 0.028528 -0.001178 0.000000 0.000000 0.000000
# 3 -0.008458 -0.001178 0.009767 0.000000 0.000000 0.000000
# 4 0.000000 0.000000 0.000000 0.195326 0.000000 0.000000
# 5 0.000000 0.000000 0.000000 0.000000 0.024431 0.000000
# 6 0.000000 0.000000 0.000000 0.000000 0.000000 0.044999
#
#
# Mechanical properties :
#
#
# Convention : Reuss Voigt Hill
#
# Bulk Modulus (GPa) = 27.85426 76.26822 52.06124
# Shear Modulus (GPa) = 14.50707 32.36262 23.43485
#
# Velocity S-wave (km/s) = 2.63446 3.93480 3.34836
# Velocity P-wave (km/s) = 4.75181 7.55852 6.31312
#
# Compressibility (1/GPa) = 0.03590115
#
# Stress axis : x y z
#
# Youngs Moduli (GPa) = 73.40004 35.05352 102.38724
#
# Poissons Ratio (x) = -0.05705 0.86602
# Poissons Ratio (y) = -0.11946 0.12062
# Poissons Ratio (z) = 0.62083 0.04130
#
# Static dielectric constant tensor:
#      x y z
#    x 1.715400 0.000000 0.000000 
#    y 0.000000 1.797960 0.000000 
#    z 0.000000 0.000000 1.720830 
# 
# From -- ./inp_files/6217.got.cif
#   From: 2010.05.17/outbox.cif.g08.bks.cpg/sg59_4_cif.got.tgz:6217.got - 2010.06.03 14:40:33.
