data_PCOD9450304
_publ_section_title
;
Structure prediction by ZEFSAII (Michael W. Deem and Ramdas Pophale) SiO2 
 PCOD9450304
Probable space group: P M M N
;
_chemical_formula_sum "Si O2"
_cell_formula_units_Z 48
_cell_length_a 15.530278
_cell_length_b 9.135695
_cell_length_c 17.734251
_cell_angle_alpha 90.000000
_cell_angle_beta 90.000000
_cell_angle_gamma 90.000000
_cell_volume 2516.133458
_symmetry_space_group_name_H-M "P M M N"
_symmetry_group_IT_number 59
_space_group.IT_coordinate_system_code '2'
_symmetry_cell_setting 'orthorhombic'
loop_
_space_group_symop_operation_xyz
x,y,z
1/2-x,1/2-y,z
1/2+x,-y,-z
-x,1/2+y,-z
-x,-y,-z
1/2+x,1/2+y,-z
1/2-x,y,z
x,1/2-y,z
loop_
_atom_site_type_symbol
_atom_site_label
_atom_site_fract_x
_atom_site_fract_y
_atom_site_fract_z
Si Si1 0.750000 0.573205 0.082416
Si Si2 0.405554 0.425810 0.199506
Si Si3 0.607818 0.425121 0.184579
Si Si4 0.086391 0.914576 0.352015
Si Si5 0.380915 0.417176 0.662913
Si Si6 0.750000 0.927658 0.907199
Si Si7 0.349523 0.417326 0.494424
O O1 0.750000 0.750000 0.088730
O O2 0.666069 0.506733 0.123321
O O3 0.750000 0.530067 0.994483
O O4 0.401931 0.250000 0.206085
O O5 0.505330 0.461918 0.179506
O O6 0.381164 0.493827 0.280402
O O7 0.336041 0.474395 0.137413
O O8 0.616952 0.250000 0.178568
O O9 0.639847 0.481542 0.266362
O O10 0.121261 0.750000 0.350959
O O11 0.983984 0.909541 0.341040
O O12 0.103101 0.988300 0.432254
O O13 0.348896 0.250000 0.673677
O O14 0.353149 0.471280 0.580532
O O15 0.750000 0.750000 0.905879
O O16 0.250000 0.412945 0.471582
O O17 0.383524 0.250000 0.495495
#
# Coordination Sequence:
#
# PCOD9450304 Si02
#       7
#     4   8   8   8   8   4   8
#     4  11  23  39  61  86 115 150 189 231 280 345
#     4   9  19  38  62  85 114 151 192 234 279 340
#     4  10  21  37  59  88 118 149 187 235 289 338
#     4  10  20  34  53  79 111 144 184 233 284 332
#     4   9  19  36  56  78 106 146 191 232 277 333
#     4   9  20  39  63  88 111 148 193 229 276 343
#     4  10  21  34  50  75 106 145 191 230 272 328
#
# _framework density 19.076889999999999
#
# number of rings (size 3 to 8) (size 9 to 14) (size 15 to 20)
#    0.000    2.333    0.000    1.750    2.333    3.000 
#    0.000    1.667    0.000    0.000    0.000    0.000 
#    0.000    0.000    0.000    0.000    0.000    0.000 
#
# Total GULP energy -267816.467625 kJ/mol
# GULP energy per Si atom -5579.509742 kJ/mol
# Density = 1.903347 g / cm^3
# Si number density = 19.076890 Si / 1000 Ang^3
#
#
#
# Elastic Constant Matrix: (Units=GPa)
#
#
# Indices 1 2 3 4 5 6 
#
# 1 79.4821 41.2872 66.3867 0.0000 0.0000 0.0000
# 2 41.2872 59.3660 57.2382 0.0000 0.0000 0.0000
# 3 66.3867 57.2382 153.6627 0.0000 0.0000 0.0000
# 4 0.0000 0.0000 0.0000 21.0212 0.0000 0.0000
# 5 0.0000 0.0000 0.0000 0.0000 34.7214 0.0000
# 6 0.0000 0.0000 0.0000 0.0000 0.0000 14.0142
#
#
#
# Elastic Compliance Matrix: (Units=1/GPa)
#
#
# Indices 1 2 3 4 5 6 
#
# 1 0.022939 -0.009984 -0.006191 0.000000 0.000000 0.000000
# 2 -0.009984 0.030630 -0.007096 0.000000 0.000000 0.000000
# 3 -0.006191 -0.007096 0.011826 0.000000 0.000000 0.000000
# 4 0.000000 0.000000 0.000000 0.047571 0.000000 0.000000
# 5 0.000000 0.000000 0.000000 0.000000 0.028801 0.000000
# 6 0.000000 0.000000 0.000000 0.000000 0.000000 0.071356
#
#
# Mechanical properties :
#
#
# Convention : Reuss Voigt Hill
#
# Bulk Modulus (GPa) = 53.04468 69.14834 61.09651
# Shear Modulus (GPa) = 18.80060 22.45794 20.62927
#
# Velocity S-wave (km/s) = 3.14270 3.43480 3.29199
# Velocity P-wave (km/s) = 6.40584 7.21501 6.82243
#
# Compressibility (1/GPa) = 0.01885203
#
# Stress axis : x y z
#
# Youngs Moduli (GPa) = 43.59422 32.64791 84.56059
#
# Poissons Ratio (x) = 0.32595 0.52354
# Poissons Ratio (y) = 0.43524 0.60005
# Poissons Ratio (z) = 0.26991 0.23167
#
# Static dielectric constant tensor:
#      x y z
#    x 1.686360 0.000000 0.000000 
#    y 0.000000 1.660920 0.000000 
#    z 0.000000 0.000000 1.639370 
# 
# From -- ./inp_files/23753.got.cif
#   From: 2010.05.17/outbox.cif.g08.bks.cpg/sg59_12_cif.got.tgz:23753.got - 2010.06.03 14:40:33.
