data_PCOD9450390
_publ_section_title
;
Structure prediction by ZEFSAII (Michael W. Deem and Ramdas Pophale) SiO2 
 PCOD9450390
Probable space group: P M M N
;
_chemical_formula_sum "Si O2"
_cell_formula_units_Z 48
_cell_length_a 7.646812
_cell_length_b 18.499035
_cell_length_c 15.960668
_cell_angle_alpha 90.000000
_cell_angle_beta 90.000000
_cell_angle_gamma 90.000000
_cell_volume 2257.774434
_symmetry_space_group_name_H-M "P M M N"
_symmetry_group_IT_number 59
_space_group.IT_coordinate_system_code '2'
_symmetry_cell_setting 'orthorhombic'
loop_
_space_group_symop_operation_xyz
x,y,z
1/2-x,1/2-y,z
1/2+x,-y,-z
-x,1/2+y,-z
-x,-y,-z
1/2+x,1/2+y,-z
1/2-x,y,z
x,1/2-y,z
loop_
_atom_site_type_symbol
_atom_site_label
_atom_site_fract_x
_atom_site_fract_y
_atom_site_fract_z
Si Si1 0.464541 0.080803 0.665824
Si Si2 0.960184 0.584739 0.000293
Si Si3 0.039921 0.332237 0.164198
Si Si4 0.542038 0.831627 0.496033
Si Si5 0.957932 0.084289 0.334790
Si Si6 0.536151 0.833592 0.167623
O O1 0.250000 0.079935 0.665619
O O2 0.525219 0.121779 0.582184
O O3 0.518269 0.124125 0.748818
O O4 0.525624 0.997918 0.666941
O O5 0.750000 0.591792 0.000435
O O6 0.023308 0.624610 0.084303
O O7 0.026891 0.623725 0.916291
O O8 0.000000 0.500000 0.000000
O O9 0.250000 0.328399 0.156339
O O10 0.973212 0.250000 0.166090
O O11 0.002882 0.373586 0.250118
O O12 0.750000 0.825838 0.482896
O O13 0.470552 0.750000 0.498541
O O14 0.516967 0.872321 0.583476
O O15 0.750000 0.079749 0.339760
O O16 0.750000 0.833567 0.167168
O O17 0.480932 0.750000 0.167961
#
# Coordination Sequence:
#
# PCOD9450390 Si02
#       6
#     8   8   8   8   8   8
#     4   9  18  32  51  77 106 134 167 210 260 311
#     4  10  20  34  54  80 108 138 172 211 257 306
#     4  10  21  37  55  76 105 142 182 219 255 302
#     4  10  20  35  55  77 102 135 174 213 255 308
#     4  11  22  35  53  78 107 137 171 215 266 314
#     4   9  16  29  52  79 103 129 168 216 256 294
#
# _framework density 21.259872999999999
#
# number of rings (size 3 to 8) (size 9 to 14) (size 15 to 20)
#    0.000    2.167    0.000    3.500    0.000    8.667 
#    0.000    0.833    0.000    2.500    0.000    0.000 
#    0.000    0.000    0.000    0.000    0.000    0.000 
#
# Total GULP energy -268294.467582 kJ/mol
# GULP energy per Si atom -5589.468075 kJ/mol
# Density = 2.121148 g / cm^3
# Si number density = 21.259873 Si / 1000 Ang^3
#
#
#
# Elastic Constant Matrix: (Units=GPa)
#
#
# Indices 1 2 3 4 5 6 
#
# 1 37.6986 -1.6871 -8.5748 0.0000 0.0000 0.0000
# 2 -1.6871 250.8432 140.2582 0.0000 0.0000 0.0000
# 3 -8.5748 140.2582 223.7081 0.0000 0.0000 0.0000
# 4 0.0000 0.0000 0.0000 48.5790 0.0000 0.0000
# 5 0.0000 0.0000 0.0000 0.0000 -21.1875 0.0000
# 6 0.0000 0.0000 0.0000 0.0000 0.0000 21.7178
#
#
#
# Elastic Compliance Matrix: (Units=1/GPa)
#
#
# Indices 1 2 3 4 5 6 
#
# 1 0.026819 -0.000607 0.001409 0.000000 0.000000 0.000000
# 2 -0.000607 0.006152 -0.003881 0.000000 0.000000 0.000000
# 3 0.001409 -0.003881 0.006957 0.000000 0.000000 0.000000
# 4 0.000000 0.000000 0.000000 0.020585 0.000000 0.000000
# 5 0.000000 0.000000 0.000000 0.000000 -0.047198 0.000000
# 6 0.000000 0.000000 0.000000 0.000000 0.000000 0.046045
#
#
# Mechanical properties :
#
#
# Convention : Reuss Voigt Hill
#
# Bulk Modulus (GPa) = 29.61155 85.80471 57.70813
# Shear Modulus (GPa) = 65.12390 35.30541 50.21465
#
# Velocity S-wave (km/s) = 5.54065 4.07954 4.86526
# Velocity P-wave (km/s) = 7.40880 7.91440 7.66577
#
# Compressibility (1/GPa) = 0.03377061
#
# Stress axis : x y z
#
# Youngs Moduli (GPa) = 37.28634 162.54133 143.73780
#
# Poissons Ratio (x) = 0.09872 -0.20250
# Poissons Ratio (y) = 0.02265 0.55779
# Poissons Ratio (z) = -0.05253 0.63075
#
# Static dielectric constant tensor:
#      x y z
#    x 1.811820 0.000000 0.000000 
#    y 0.000000 1.736200 0.000000 
#    z 0.000000 0.000000 1.892350 
# 
# From -- ./inp_files/20286.got.cif
#   From: 2010.05.17/outbox.cif.g08.bks.cpg/sg59_11_cif.got.tgz:20286.got - 2010.06.03 14:40:33.
