data_PCOD9450654
_publ_section_title
;
Structure prediction by ZEFSAII (Michael W. Deem and Ramdas Pophale) SiO2 
 PCOD9450654
Probable space group: P M M N
;
_chemical_formula_sum "Si O2"
_cell_formula_units_Z 48
_cell_length_a 30.085398
_cell_length_b 7.887454
_cell_length_c 10.243183
_cell_angle_alpha 90.000000
_cell_angle_beta 90.000000
_cell_angle_gamma 90.000000
_cell_volume 2430.678571
_symmetry_space_group_name_H-M "P M M N"
_symmetry_group_IT_number 59
_space_group.IT_coordinate_system_code '2'
_symmetry_cell_setting 'orthorhombic'
loop_
_space_group_symop_operation_xyz
x,y,z
1/2-x,1/2-y,z
1/2+x,-y,-z
-x,1/2+y,-z
-x,-y,-z
1/2+x,1/2+y,-z
1/2-x,y,z
x,1/2-y,z
loop_
_atom_site_type_symbol
_atom_site_label
_atom_site_fract_x
_atom_site_fract_y
_atom_site_fract_z
Si Si1 0.300865 0.457032 0.781485
Si Si2 0.873240 0.545342 0.013468
Si Si3 0.620880 0.451486 0.710410
Si Si4 0.032542 0.454111 0.883054
Si Si5 0.699267 0.953971 0.513401
Si Si6 0.477565 0.545355 0.363875
O O1 0.250000 0.507734 0.803970
O O2 0.302060 0.250000 0.781562
O O3 0.313249 0.511052 0.633897
O O4 0.332857 0.516453 0.896520
O O5 0.873354 0.750000 0.020015
O O6 0.871710 0.501533 0.860991
O O7 0.918835 0.481766 0.078915
O O8 0.617931 0.250000 0.706944
O O9 0.662071 0.500933 0.618636
O O10 0.572940 0.518620 0.659147
O O11 0.035517 0.250000 0.873022
O O12 0.009871 0.518133 0.751122
O O13 0.000000 0.500000 0.000000
O O14 0.750000 0.013868 0.541907
O O15 0.701365 0.750000 0.509610
O O16 0.500000 0.500000 0.500000
O O17 0.475832 0.750000 0.355112
#
# Coordination Sequence:
#
# PCOD9450654 Si02
#       6
#     8   8   8   8   8   8
#     4   8  16  33  57  84 109 133 173 229 276 316
#     4  10  20  34  57  84 107 143 187 227 272 325
#     4  11  23  38  54  80 117 150 182 226 278 331
#     4  10  20  36  56  79 109 145 184 224 269 322
#     4   9  19  37  61  85 109 143 186 229 274 327
#     4  10  23  39  55  80 112 147 187 230 275 327
#
# _framework density 19.747572000000002
#
# number of rings (size 3 to 8) (size 9 to 14) (size 15 to 20)
#    0.000    2.333    1.667    1.500    2.333    3.000 
#    0.000    2.500    0.000    1.000    0.000    0.000 
#    0.000    0.000    0.000    0.000    0.000    0.000 
#
# Total GULP energy -267829.909394 kJ/mol
# GULP energy per Si atom -5579.789779 kJ/mol
# Density = 1.970263 g / cm^3
# Si number density = 19.747572 Si / 1000 Ang^3
#
#
#
# Elastic Constant Matrix: (Units=GPa)
#
#
# Indices 1 2 3 4 5 6 
#
# 1 185.7694 12.2882 147.4587 0.0000 0.0000 0.0000
# 2 12.2882 19.8868 6.3127 0.0000 0.0000 0.0000
# 3 147.4587 6.3127 217.2725 0.0000 0.0000 0.0000
# 4 0.0000 0.0000 0.0000 10.4670 0.0000 0.0000
# 5 0.0000 0.0000 0.0000 0.0000 43.3190 0.0000
# 6 0.0000 0.0000 0.0000 0.0000 0.0000 16.4854
#
#
#
# Elastic Compliance Matrix: (Units=1/GPa)
#
#
# Indices 1 2 3 4 5 6 
#
# 1 0.012130 -0.004927 -0.008089 0.000000 0.000000 0.000000
# 2 -0.004927 0.052754 0.001811 0.000000 0.000000 0.000000
# 3 -0.008089 0.001811 0.010040 0.000000 0.000000 0.000000
# 4 0.000000 0.000000 0.000000 0.095538 0.000000 0.000000
# 5 0.000000 0.000000 0.000000 0.000000 0.023085 0.000000
# 6 0.000000 0.000000 0.000000 0.000000 0.000000 0.060660
#
#
# Mechanical properties :
#
#
# Convention : Reuss Voigt Hill
#
# Bulk Modulus (GPa) = 19.04268 83.89423 51.46846
# Shear Modulus (GPa) = 16.99978 31.17890 24.08934
#
# Velocity S-wave (km/s) = 2.93721 3.97781 3.49644
# Velocity P-wave (km/s) = 4.60076 7.97953 6.51306
#
# Compressibility (1/GPa) = 0.05251360
#
# Stress axis : x y z
#
# Youngs Moduli (GPa) = 82.44060 18.95583 99.60282
#
# Poissons Ratio (x) = 0.09340 0.80571
# Poissons Ratio (y) = 0.40622 -0.18042
# Poissons Ratio (z) = 0.66688 -0.03434
#
# Static dielectric constant tensor:
#      x y z
#    x 1.704200 0.000000 0.000000 
#    y 0.000000 1.718350 0.000000 
#    z 0.000000 0.000000 1.681030 
# 
# From -- ./inp_files/6320.got.cif
#   From: 2010.05.17/outbox.cif.g08.bks.cpg/sg59_4_cif.got.tgz:6320.got - 2010.06.03 14:40:33.
