data_PCOD9450964
_publ_section_title
;
Structure prediction by ZEFSAII (Michael W. Deem and Ramdas Pophale) SiO2 
 PCOD9450964
Probable space group: P M M N
;
_chemical_formula_sum "Si O2"
_cell_formula_units_Z 48
_cell_length_a 9.321724
_cell_length_b 8.358300
_cell_length_c 32.412536
_cell_angle_alpha 90.000000
_cell_angle_beta 90.000000
_cell_angle_gamma 90.000000
_cell_volume 2525.382736
_symmetry_space_group_name_H-M "P M M N"
_symmetry_group_IT_number 59
_space_group.IT_coordinate_system_code '2'
_symmetry_cell_setting 'orthorhombic'
loop_
_space_group_symop_operation_xyz
x,y,z
1/2-x,1/2-y,z
1/2+x,-y,-z
-x,1/2+y,-z
-x,-y,-z
1/2+x,1/2+y,-z
1/2-x,y,z
x,1/2-y,z
loop_
_atom_site_type_symbol
_atom_site_label
_atom_site_fract_x
_atom_site_fract_y
_atom_site_fract_z
Si Si1 0.424220 0.437115 0.129422
Si Si2 0.915563 0.943472 0.960199
Si Si3 0.414411 0.558298 0.217500
Si Si4 0.084728 0.558267 0.540205
Si Si5 0.414868 0.054254 0.702326
Si Si6 0.415280 0.943610 0.379426
O O1 0.250000 0.449776 0.128049
O O2 0.460221 0.250000 0.132284
O O3 0.473603 0.499453 0.084632
O O4 0.470764 0.517928 0.171854
O O5 0.750000 0.995121 0.963858
O O6 0.917031 0.750000 0.958760
O O7 0.000000 0.000000 0.000000
O O8 0.250000 0.497399 0.221168
O O9 0.407924 0.750000 0.220735
O O10 0.511246 0.499758 0.255203
O O11 0.250000 0.501093 0.539695
O O12 0.086295 0.750000 0.539936
O O13 0.000000 0.500000 0.500000
O O14 0.003621 0.500083 0.581037
O O15 0.250000 0.002615 0.699180
O O16 0.415076 0.250000 0.702606
O O17 0.506873 0.003905 0.662663
O O18 0.250000 0.997878 0.381038
O O19 0.414297 0.750000 0.379496
#
# Coordination Sequence:
#
# PCOD9450964 Si02
#       6
#     8   8   8   8   8   8
#     4   8  15  29  47  66  91 123 157 195 242 295
#     4   9  18  32  49  70  96 126 162 204 249 299
#     4   9  16  27  46  71  94 119 159 206 243 283
#     4  11  24  40  58  82 111 142 177 216 258 306
#     4   9  17  30  49  73 102 135 167 202 249 300
#     4  10  20  35  57  83 108 137 176 218 258 302
#
# _framework density 19.007020000000001
#
# number of rings (size 3 to 8) (size 9 to 14) (size 15 to 20)
#    0.000    2.667    0.000    3.000    0.000    7.333 
#    0.000    3.333    0.000    6.500    0.000    0.000 
#    0.000    0.000    0.000    0.000    0.000    0.000 
#
# Total GULP energy -267680.677323 kJ/mol
# GULP energy per Si atom -5576.680778 kJ/mol
# Density = 1.896376 g / cm^3
# Si number density = 19.007020 Si / 1000 Ang^3
#
#
#
# Elastic Constant Matrix: (Units=GPa)
#
#
# Indices 1 2 3 4 5 6 
#
# 1 133.4621 17.2734 107.9695 0.0000 0.0000 0.0000
# 2 17.2734 5.6604 20.3865 0.0000 0.0000 0.0000
# 3 107.9695 20.3865 222.6675 0.0000 0.0000 0.0000
# 4 0.0000 0.0000 0.0000 29.1705 0.0000 0.0000
# 5 0.0000 0.0000 0.0000 0.0000 35.2248 0.0000
# 6 0.0000 0.0000 0.0000 0.0000 0.0000 17.2960
#
#
#
# Elastic Compliance Matrix: (Units=1/GPa)
#
#
# Indices 1 2 3 4 5 6 
#
# 1 0.014988 -0.029186 -0.004595 0.000000 0.000000 0.000000
# 2 -0.029186 0.320414 -0.015184 0.000000 0.000000 0.000000
# 3 -0.004595 -0.015184 0.008109 0.000000 0.000000 0.000000
# 4 0.000000 0.000000 0.000000 0.034281 0.000000 0.000000
# 5 0.000000 0.000000 0.000000 0.000000 0.028389 0.000000
# 6 0.000000 0.000000 0.000000 0.000000 0.000000 0.057817
#
#
# Mechanical properties :
#
#
# Convention : Reuss Voigt Hill
#
# Bulk Modulus (GPa) = 4.07198 72.56099 38.31649
# Shear Modulus (GPa) = 7.76652 30.74897 19.25775
#
# Velocity S-wave (km/s) = 2.02361 4.02651 3.18652
# Velocity P-wave (km/s) = 2.75808 7.73795 5.80874
#
# Compressibility (1/GPa) = 0.24558078
#
# Stress axis : x y z
#
# Youngs Moduli (GPa) = 66.72148 3.12096 123.31460
#
# Poissons Ratio (x) = 0.09109 0.56666
# Poissons Ratio (y) = 1.94734 1.87237
# Poissons Ratio (z) = 0.30660 0.04739
#
# Static dielectric constant tensor:
#      x y z
#    x 1.651600 0.000000 0.000000 
#    y 0.000000 1.667270 0.000000 
#    z 0.000000 0.000000 1.656250 
# 
# From -- ./inp_files/32881.got.cif
#   From: 2010.05.17/outbox.cif.g08.bks.cpg/sg59_17_cif.got.tgz:32881.got - 2010.06.03 14:40:33.
