data_PCOD9450420
_publ_section_title
;
Structure prediction by ZEFSAII (Michael W. Deem and Ramdas Pophale) SiO2 
 PCOD9450420
Probable space group: P M M N
;
_chemical_formula_sum "Si O2"
_cell_formula_units_Z 64
_cell_length_a 20.572489
_cell_length_b 8.787825
_cell_length_c 20.548995
_cell_angle_alpha 90.000000
_cell_angle_beta 90.000000
_cell_angle_gamma 90.000000
_cell_volume 3715.000060
_symmetry_space_group_name_H-M "P M M N"
_symmetry_group_IT_number 59
_space_group.IT_coordinate_system_code '2'
_symmetry_cell_setting 'orthorhombic'
loop_
_space_group_symop_operation_xyz
x,y,z
1/2-x,1/2-y,z
1/2+x,-y,-z
-x,1/2+y,-z
-x,-y,-z
1/2+x,1/2+y,-z
1/2-x,y,z
x,1/2-y,z
loop_
_atom_site_type_symbol
_atom_site_label
_atom_site_fract_x
_atom_site_fract_y
_atom_site_fract_z
Si Si1 0.916801 0.567335 0.835246
Si Si2 0.604413 0.567488 0.688452
Si Si3 0.324537 0.566566 0.055650
Si Si4 0.676121 0.435279 0.093451
Si Si5 0.961858 0.931957 0.329848
Si Si6 0.432097 0.431885 0.525291
Si Si7 0.824460 0.068261 0.569141
Si Si8 0.935100 0.434314 0.193238
O O1 0.914752 0.750000 0.840720
O O2 0.887698 0.526001 0.764375
O O3 0.875759 0.496911 0.893296
O O4 0.992990 0.522487 0.832918
O O5 0.604684 0.750000 0.683286
O O6 0.533499 0.506055 0.667959
O O7 0.656056 0.496600 0.639639
O O8 0.250000 0.520416 0.071065
O O9 0.326576 0.750000 0.057204
O O10 0.338203 0.518617 0.981030
O O11 0.750000 0.483134 0.109556
O O12 0.675861 0.250000 0.093932
O O13 0.621592 0.484658 0.144423
O O14 0.968693 0.750000 0.324625
O O15 0.926810 0.966983 0.397889
O O16 0.928459 0.997074 0.265210
O O17 0.500000 0.500000 0.500000
O O18 0.434037 0.250000 0.517505
O O19 0.373897 0.499011 0.483016
O O20 0.750000 0.030157 0.553878
O O21 0.831888 0.250000 0.570080
O O22 0.934203 0.250000 0.198152
#
# Coordination Sequence:
#
# PCOD9450420 Si02
#       8
#     8   8   8   8   8   8   8   8
#     4   9  19  32  47  74 107 136 169 211 260 314
#     4  10  20  35  55  76 103 141 179 217 265 321
#     4   9  18  32  50  72  98 133 177 219 260 311
#     4   8  15  31  54  76  99 132 176 220 262 313
#     4  10  20  34  54  81 108 134 171 218 264 315
#     4  11  22  36  59  84 108 142 183 224 269 324
#     4  11  24  39  55  80 113 145 182 228 272 320
#     4   9  18  33  53  77 105 136 172 216 262 314
#
# _framework density 17.227456
#
# number of rings (size 3 to 8) (size 9 to 14) (size 15 to 20)
#    0.000    2.375    1.250    3.000    0.000    6.250 
#    0.000    3.750    0.000    3.375    0.000    0.000 
#    0.000    0.000    0.000    0.000    0.000    0.000 
#
# Total GULP energy -357011.500340 kJ/mol
# GULP energy per Si atom -5578.304693 kJ/mol
# Density = 1.718825 g / cm^3
# Si number density = 17.227456 Si / 1000 Ang^3
#
#
#
# Elastic Constant Matrix: (Units=GPa)
#
#
# Indices 1 2 3 4 5 6 
#
# 1 128.8821 45.3006 110.8534 0.0000 0.0000 0.0000
# 2 45.3006 31.7591 46.6641 0.0000 0.0000 0.0000
# 3 110.8534 46.6641 152.6552 0.0000 0.0000 0.0000
# 4 0.0000 0.0000 0.0000 27.1885 0.0000 0.0000
# 5 0.0000 0.0000 0.0000 0.0000 31.6450 0.0000
# 6 0.0000 0.0000 0.0000 0.0000 0.0000 23.9060
#
#
#
# Elastic Compliance Matrix: (Units=1/GPa)
#
#
# Indices 1 2 3 4 5 6 
#
# 1 0.024428 -0.015938 -0.012867 0.000000 0.000000 0.000000
# 2 -0.015938 0.067559 -0.009078 0.000000 0.000000 0.000000
# 3 -0.012867 -0.009078 0.018669 0.000000 0.000000 0.000000
# 4 0.000000 0.000000 0.000000 0.036780 0.000000 0.000000
# 5 0.000000 0.000000 0.000000 0.000000 0.031601 0.000000
# 6 0.000000 0.000000 0.000000 0.000000 0.000000 0.041830
#
#
# Mechanical properties :
#
#
# Convention : Reuss Voigt Hill
#
# Bulk Modulus (GPa) = 28.66102 79.88138 54.27120
# Shear Modulus (GPa) = 16.21984 23.91311 20.06648
#
# Velocity S-wave (km/s) = 3.07173 3.72974 3.41661
# Velocity P-wave (km/s) = 5.40867 8.06333 6.86553
#
# Compressibility (1/GPa) = 0.03489059
#
# Stress axis : x y z
#
# Youngs Moduli (GPa) = 40.93634 14.80179 53.56428
#
# Poissons Ratio (x) = 0.23592 0.68920
# Poissons Ratio (y) = 0.65246 0.48625
# Poissons Ratio (z) = 0.52672 0.13437
#
# Static dielectric constant tensor:
#      x y z
#    x 1.566170 0.000000 0.000000 
#    y 0.000000 1.583770 0.000000 
#    z 0.000000 0.000000 1.582950 
# 
# From -- ./inp_files/30983.got.cif
#   From: 2010.05.17/outbox.cif.g08.bks.cpg/sg59_16_cif.got.tgz:30983.got - 2010.06.03 14:40:33.
