data_PCOD9450805
_publ_section_title
;
Structure prediction by ZEFSAII (Michael W. Deem and Ramdas Pophale) SiO2 
 PCOD9450805
Probable space group: P M M N
;
_chemical_formula_sum "Si O2"
_cell_formula_units_Z 40
_cell_length_a 7.762078
_cell_length_b 26.700477
_cell_length_c 9.324502
_cell_angle_alpha 90.000000
_cell_angle_beta 90.000000
_cell_angle_gamma 90.000000
_cell_volume 1932.514090
_symmetry_space_group_name_H-M "P M M N"
_symmetry_group_IT_number 59
_space_group.IT_coordinate_system_code '2'
_symmetry_cell_setting 'orthorhombic'
loop_
_space_group_symop_operation_xyz
x,y,z
1/2-x,1/2-y,z
1/2+x,-y,-z
-x,1/2+y,-z
-x,-y,-z
1/2+x,1/2+y,-z
1/2-x,y,z
x,1/2-y,z
loop_
_atom_site_type_symbol
_atom_site_label
_atom_site_fract_x
_atom_site_fract_y
_atom_site_fract_z
Si Si1 0.953689 0.848735 0.342307
Si Si2 0.038198 0.750000 0.834548
Si Si3 0.954980 0.446178 0.176247
Si Si4 0.959344 0.941896 0.154995
Si Si5 0.546885 0.348505 0.329663
Si Si6 0.543578 0.250000 0.835078
O O1 0.750000 0.855169 0.360547
O O2 0.020621 0.897520 0.257719
O O3 0.028896 0.843272 0.500588
O O4 0.985172 0.799495 0.248138
O O5 0.250000 0.750000 0.831396
O O6 0.977429 0.700129 0.752762
O O7 0.984048 0.750000 0.000121
O O8 0.750000 0.449264 0.201480
O O9 0.022049 0.502634 0.199775
O O10 0.026785 0.401187 0.272493
O O11 0.984611 0.433626 0.009104
O O12 0.750000 0.941889 0.155450
O O13 0.750000 0.349747 0.295048
O O14 0.750000 0.250000 0.836292
#
# Coordination Sequence:
#
# PCOD9450805 Si02
#       6
#     8   4   8   8   8   4
#     4  11  23  37  53  79 114 145 175 217 272 327
#     4   9  19  35  56  80 102 129 172 225 270 310
#     4   9  18  34  56  80 106 142 189 232 268 313
#     4   9  19  35  54  78 110 145 182 227 274 319
#     4  10  20  35  55  79 108 142 182 225 267 316
#     4  11  22  39  62  82 102 135 180 223 266 320
#
# _framework density 20.698425
#
# number of rings (size 3 to 8) (size 9 to 14) (size 15 to 20)
#    0.000    2.200    0.000    2.700    0.000    5.600 
#    0.000    2.000    0.000    0.000    0.000    0.000 
#    0.000    0.000    0.000    0.000    0.000    0.000 
#
# Total GULP energy -223404.141537 kJ/mol
# GULP energy per Si atom -5585.103538 kJ/mol
# Density = 2.065131 g / cm^3
# Si number density = 20.698425 Si / 1000 Ang^3
#
#
#
# Elastic Constant Matrix: (Units=GPa)
#
#
# Indices 1 2 3 4 5 6 
#
# 1 19.9540 -11.1290 -29.2188 0.0000 0.0000 0.0000
# 2 -11.1290 175.3802 104.3002 0.0000 0.0000 0.0000
# 3 -29.2188 104.3002 118.8600 0.0000 0.0000 0.0000
# 4 0.0000 0.0000 0.0000 -17.9701 0.0000 0.0000
# 5 0.0000 0.0000 0.0000 0.0000 17.9728 0.0000
# 6 0.0000 0.0000 0.0000 0.0000 0.0000 -2.2919
#
#
#
# Elastic Compliance Matrix: (Units=1/GPa)
#
#
# Indices 1 2 3 4 5 6 
#
# 1 0.097463 -0.016865 0.038758 0.000000 0.000000 0.000000
# 2 -0.016865 0.014844 -0.017171 0.000000 0.000000 0.000000
# 3 0.038758 -0.017171 0.033009 0.000000 0.000000 0.000000
# 4 0.000000 0.000000 0.000000 -0.055648 0.000000 0.000000
# 5 0.000000 0.000000 0.000000 0.000000 0.055640 0.000000
# 6 0.000000 0.000000 0.000000 0.000000 0.000000 -0.436313
#
#
# Mechanical properties :
#
#
# Convention : Reuss Voigt Hill
#
# Bulk Modulus (GPa) = 6.46165 49.12211 27.79188
# Shear Modulus (GPa) = -20.09137 16.22496 -1.93321
#
# Velocity S-wave (km/s) = -3.11894 2.80281 -0.96748
# Velocity P-wave (km/s) = 3.13716 5.85305 3.49402
#
# Compressibility (1/GPa) = 0.15475919
#
# Stress axis : x y z
#
# Youngs Moduli (GPa) = 10.26029 67.36933 30.29493
#
# Poissons Ratio (x) = 1.13620 -1.17418
# Poissons Ratio (y) = 0.17304 0.52020
# Poissons Ratio (z) = -0.39767 1.15681
#
# Static dielectric constant tensor:
#      x y z
#    x 1.757590 0.000000 0.000000 
#    y 0.000000 1.752200 0.000000 
#    z 0.000000 0.000000 1.678890 
# 
# From -- ./inp_files/5958.got.cif
#   From: 2010.05.17/outbox.cif.g08.bks.cpg/sg59_3_cif.got.tgz:5958.got - 2010.06.03 14:40:33.
