data_PCOD9450972
_publ_section_title
;
Structure prediction by ZEFSAII (Michael W. Deem and Ramdas Pophale) SiO2 
 PCOD9450972
Probable space group: P M M N
;
_chemical_formula_sum "Si O2"
_cell_formula_units_Z 40
_cell_length_a 8.032211
_cell_length_b 7.829390
_cell_length_c 30.379634
_cell_angle_alpha 90.000000
_cell_angle_beta 90.000000
_cell_angle_gamma 90.000000
_cell_volume 1910.493536
_symmetry_space_group_name_H-M "P M M N"
_symmetry_group_IT_number 59
_space_group.IT_coordinate_system_code '2'
_symmetry_cell_setting 'orthorhombic'
loop_
_space_group_symop_operation_xyz
x,y,z
1/2-x,1/2-y,z
1/2+x,-y,-z
-x,1/2+y,-z
-x,-y,-z
1/2+x,1/2+y,-z
1/2-x,y,z
x,1/2-y,z
loop_
_atom_site_type_symbol
_atom_site_label
_atom_site_fract_x
_atom_site_fract_y
_atom_site_fract_z
Si Si1 0.250000 0.544597 0.106659
Si Si2 0.933238 0.040868 0.264695
Si Si3 0.750000 0.955941 0.791156
Si Si4 0.435550 0.547107 0.452072
Si Si5 0.441438 0.045676 0.358800
Si Si6 0.439372 0.044044 0.950915
O O1 0.250000 0.750000 0.101812
O O2 0.250000 0.502870 0.157936
O O3 0.417914 0.480745 0.082521
O O4 0.750000 0.986170 0.250001
O O5 0.935040 0.250000 0.264451
O O6 0.084689 0.982813 0.234120
O O7 0.965710 0.985639 0.315098
O O8 0.750000 0.750000 0.787818
O O9 0.500000 0.500000 0.500000
O O10 0.250000 0.471161 0.449438
O O11 0.427974 0.750000 0.450784
O O12 0.520590 0.493449 0.406380
O O13 0.250000 0.978996 0.357739
O O14 0.432611 0.250000 0.355564
O O15 0.250000 0.980619 0.943644
O O16 0.433770 0.250000 0.947403
O O17 0.500000 0.000000 0.000000
#
# Coordination Sequence:
#
# PCOD9450972 Si02
#       6
#     4   8   4   8   8   8
#     4  10  22  38  54  80 116 152 182 224 285 332
#     4   9  17  31  54  81 106 135 177 227 274 320
#     4  10  20  36  56  80 110 144 186 232 271 320
#     4  10  21  35  51  74 105 140 176 216 265 322
#     4   9  16  30  52  74  98 133 173 216 270 325
#     4  10  20  35  57  83 112 147 189 233 277 331
#
# _framework density 20.936997999999999
#
# number of rings (size 3 to 8) (size 9 to 14) (size 15 to 20)
#    0.000    2.400    2.000    0.600    0.000    3.600 
#    0.000    3.000    0.000    1.200    0.000    0.000 
#    0.000    0.000    0.000    0.000    0.000    0.000 
#
# Total GULP energy -223133.180799 kJ/mol
# GULP energy per Si atom -5578.329520 kJ/mol
# Density = 2.088934 g / cm^3
# Si number density = 20.936998 Si / 1000 Ang^3
#
#
#
# Elastic Constant Matrix: (Units=GPa)
#
#
# Indices 1 2 3 4 5 6 
#
# 1 180.3881 8.7858 107.4905 0.0000 0.0000 0.0000
# 2 8.7858 23.9260 0.4580 0.0000 0.0000 0.0000
# 3 107.4905 0.4580 193.2579 0.0000 0.0000 0.0000
# 4 0.0000 0.0000 0.0000 28.5349 0.0000 0.0000
# 5 0.0000 0.0000 0.0000 0.0000 22.7841 0.0000
# 6 0.0000 0.0000 0.0000 0.0000 0.0000 7.1037
#
#
#
# Elastic Compliance Matrix: (Units=1/GPa)
#
#
# Indices 1 2 3 4 5 6 
#
# 1 0.008506 -0.003033 -0.004724 0.000000 0.000000 0.000000
# 2 -0.003033 0.042879 0.001585 0.000000 0.000000 0.000000
# 3 -0.004724 0.001585 0.007798 0.000000 0.000000 0.000000
# 4 0.000000 0.000000 0.000000 0.035045 0.000000 0.000000
# 5 0.000000 0.000000 0.000000 0.000000 0.043890 0.000000
# 6 0.000000 0.000000 0.000000 0.000000 0.000000 0.140772
#
#
# Mechanical properties :
#
#
# Convention : Reuss Voigt Hill
#
# Bulk Modulus (GPa) = 21.34927 70.11564 45.73245
# Shear Modulus (GPa) = 16.29476 30.40707 23.35092
#
# Velocity S-wave (km/s) = 2.79279 3.81506 3.34323
# Velocity P-wave (km/s) = 4.54077 7.27790 6.06574
#
# Compressibility (1/GPa) = 0.04684001
#
# Stress axis : x y z
#
# Youngs Moduli (GPa) = 117.55962 23.32142 128.23466
#
# Poissons Ratio (x) = 0.07074 0.60579
# Poissons Ratio (y) = 0.35658 -0.20331
# Poissons Ratio (z) = 0.55536 -0.03697
#
# Static dielectric constant tensor:
#      x y z
#    x 1.751690 0.000000 0.000000 
#    y 0.000000 1.756820 0.000000 
#    z 0.000000 0.000000 1.745040 
# 
# From -- ./inp_files/32389.got.cif
#   From: 2010.05.17/outbox.cif.g08.bks.cpg/sg59_17_cif.got.tgz:32389.got - 2010.06.03 14:40:33.
