data_PCOD9450860
_publ_section_title
;
Structure prediction by ZEFSAII (Michael W. Deem and Ramdas Pophale) SiO2 
 PCOD9450860
Probable space group: P M M N
;
_chemical_formula_sum "Si O2"
_cell_formula_units_Z 64
_cell_length_a 7.619602
_cell_length_b 14.673807
_cell_length_c 26.874859
_cell_angle_alpha 90.000000
_cell_angle_beta 90.000000
_cell_angle_gamma 90.000000
_cell_volume 3004.839531
_symmetry_space_group_name_H-M "P M M N"
_symmetry_group_IT_number 59
_space_group.IT_coordinate_system_code '2'
_symmetry_cell_setting 'orthorhombic'
loop_
_space_group_symop_operation_xyz
x,y,z
1/2-x,1/2-y,z
1/2+x,-y,-z
-x,1/2+y,-z
-x,-y,-z
1/2+x,1/2+y,-z
1/2-x,y,z
x,1/2-y,z
loop_
_atom_site_type_symbol
_atom_site_label
_atom_site_fract_x
_atom_site_fract_y
_atom_site_fract_z
Si Si1 0.041901 0.513477 0.942475
Si Si2 0.961807 0.351925 0.333060
Si Si3 0.039986 0.528316 0.577360
Si Si4 0.046924 0.849000 0.241117
Si Si5 0.958312 0.647800 0.860327
Si Si6 0.462045 0.149897 0.874242
Si Si7 0.040644 0.044412 0.235727
Si Si8 0.461786 0.145932 0.520197
O O1 0.250000 0.511480 0.938034
O O2 0.971410 0.429625 0.909544
O O3 0.982105 0.604728 0.914679
O O4 0.000000 0.500000 0.000000
O O5 0.750000 0.350958 0.336375
O O6 0.024322 0.250000 0.345033
O O7 0.029071 0.426716 0.372195
O O8 0.010244 0.380299 0.277457
O O9 0.250000 0.519372 0.582166
O O10 0.973083 0.428867 0.560403
O O11 0.005824 0.599886 0.532770
O O12 0.250000 0.846682 0.257493
O O13 0.968105 0.750000 0.255072
O O14 0.040103 0.853905 0.180932
O O15 0.967228 0.947049 0.254796
O O16 0.750000 0.653360 0.851329
O O17 0.030548 0.750000 0.856402
O O18 0.029561 0.580298 0.817317
O O19 0.250000 0.143027 0.868776
O O20 0.500619 0.250000 0.895384
O O21 0.250000 0.030526 0.230133
O O22 0.250000 0.149144 0.523692
O O23 0.526426 0.250000 0.524616
#
# Coordination Sequence:
#
# PCOD9450860 Si02
#       8
#     8   8   8   8   8   8   8   8
#     4  11  23  37  55  79 108 139 173 212 257 313
#     4  10  21  35  51  74 105 141 180 221 264 310
#     4   9  18  33  51  73 105 142 178 220 269 318
#     4   9  17  31  54  80 102 126 159 202 251 302
#     4  10  21  38  58  79 106 139 175 217 265 314
#     4   9  18  33  53  76 100 127 160 201 249 298
#     4  10  20  35  56  80 107 138 175 216 262 314
#     4   9  17  30  51  78 105 136 177 223 269 319
#
# _framework density 21.298974000000001
#
# number of rings (size 3 to 8) (size 9 to 14) (size 15 to 20)
#    0.000    2.375    1.250    1.125    0.000    4.250 
#    0.000    1.875    0.000    0.750    0.000    0.000 
#    0.000    0.000    0.000    0.000    0.000    0.000 
#
# Total GULP energy -357015.486071 kJ/mol
# GULP energy per Si atom -5578.366970 kJ/mol
# Density = 2.125050 g / cm^3
# Si number density = 21.298974 Si / 1000 Ang^3
#
#
#
# Elastic Constant Matrix: (Units=GPa)
#
#
# Indices 1 2 3 4 5 6 
#
# 1 44.2026 1.3790 -11.2042 0.0000 0.0000 0.0000
# 2 1.3790 133.8148 21.1061 0.0000 0.0000 0.0000
# 3 -11.2042 21.1061 66.2630 0.0000 0.0000 0.0000
# 4 0.0000 0.0000 0.0000 24.1201 0.0000 0.0000
# 5 0.0000 0.0000 0.0000 0.0000 18.8966 0.0000
# 6 0.0000 0.0000 0.0000 0.0000 0.0000 14.6441
#
#
#
# Elastic Compliance Matrix: (Units=1/GPa)
#
#
# Indices 1 2 3 4 5 6 
#
# 1 0.023744 -0.000924 0.004309 0.000000 0.000000 0.000000
# 2 -0.000924 0.007904 -0.002674 0.000000 0.000000 0.000000
# 3 0.004309 -0.002674 0.016672 0.000000 0.000000 0.000000
# 4 0.000000 0.000000 0.000000 0.041459 0.000000 0.000000
# 5 0.000000 0.000000 0.000000 0.000000 0.052920 0.000000
# 6 0.000000 0.000000 0.000000 0.000000 0.000000 0.068287
#
#
# Mechanical properties :
#
#
# Convention : Reuss Voigt Hill
#
# Bulk Modulus (GPa) = 20.10368 29.64911 24.87640
# Shear Modulus (GPa) = 22.10972 27.06547 24.58759
#
# Velocity S-wave (km/s) = 3.22540 3.56861 3.40134
# Velocity P-wave (km/s) = 4.83014 5.56153 5.20869
#
# Compressibility (1/GPa) = 0.04974214
#
# Stress axis : x y z
#
# Youngs Moduli (GPa) = 42.11549 126.51353 59.98177
#
# Poissons Ratio (x) = 0.11695 -0.25848
# Poissons Ratio (y) = 0.03893 0.16039
# Poissons Ratio (z) = -0.18149 0.33829
#
# Static dielectric constant tensor:
#      x y z
#    x 1.452380 0.000000 0.000000 
#    y 0.000000 1.835580 0.000000 
#    z 0.000000 0.000000 1.896300 
# 
# From -- ./inp_files/31601.got.cif
#   From: 2010.05.17/outbox.cif.g08.bks.cpg/sg59_16_cif.got.tgz:31601.got - 2010.06.03 14:40:33.
