data_PCOD9450671
_publ_section_title
;
Structure prediction by ZEFSAII (Michael W. Deem and Ramdas Pophale) SiO2 
 PCOD9450671
Probable space group: P M M N
;
_chemical_formula_sum "Si O2"
_cell_formula_units_Z 64
_cell_length_a 17.308097
_cell_length_b 14.413648
_cell_length_c 12.570308
_cell_angle_alpha 90.000000
_cell_angle_beta 90.000000
_cell_angle_gamma 90.000000
_cell_volume 3135.950156
_symmetry_space_group_name_H-M "P M M N"
_symmetry_group_IT_number 59
_space_group.IT_coordinate_system_code '2'
_symmetry_cell_setting 'orthorhombic'
loop_
_space_group_symop_operation_xyz
x,y,z
1/2-x,1/2-y,z
1/2+x,-y,-z
-x,1/2+y,-z
-x,-y,-z
1/2+x,1/2+y,-z
1/2-x,y,z
x,1/2-y,z
loop_
_atom_site_type_symbol
_atom_site_label
_atom_site_fract_x
_atom_site_fract_y
_atom_site_fract_z
Si Si1 0.106439 0.438659 0.752584
Si Si2 0.338391 0.884891 0.474998
Si Si3 0.164713 0.102851 0.525097
Si Si4 0.402999 0.648793 0.707215
Si Si5 0.062222 0.857234 0.263714
Si Si6 0.413693 0.349916 0.323133
Si Si7 0.343216 0.355471 0.976419
Si Si8 0.341988 0.007921 0.164598
O O1 0.149092 0.395334 0.650276
O O2 0.122413 0.549834 0.756491
O O3 0.131060 0.389991 0.860996
O O4 0.016463 0.416226 0.732009
O O5 0.250000 0.855521 0.454842
O O6 0.369601 0.849247 0.587641
O O7 0.393209 0.860803 0.376606
O O8 0.337212 0.995169 0.492480
O O9 0.250000 0.140058 0.500813
O O10 0.101142 0.147286 0.449285
O O11 0.383200 0.750000 0.756893
O O12 0.495840 0.642485 0.700122
O O13 0.046055 0.750000 0.237715
O O14 0.116281 0.909701 0.178583
O O15 0.385639 0.250000 0.282244
O O16 0.366525 0.430974 0.266664
O O17 0.250000 0.353960 0.980105
O O18 0.370617 0.250000 0.996794
O O19 0.368691 0.430211 0.064564
O O20 0.250000 0.996582 0.161873
#
# Coordination Sequence:
#
# PCOD9450671 Si02
#       8
#     8   8   8   8   8   8   8   8
#     4  11  22  41  62  88 125 163 203 253 305 362
#     4  10  20  36  57  84 125 172 212 249 293 359
#     4  10  20  34  57  89 124 161 200 251 307 358
#     4  10  21  37  59  89 124 166 209 248 301 363
#     4  12  24  38  60  91 122 161 205 252 306 362
#     4  11  21  36  59  91 125 158 196 249 312 367
#     4  10  23  44  69  93 119 159 206 249 301 368
#     4  11  23  42  64  88 119 156 201 255 307 363
#
# _framework density 20.408487000000001
#
# number of rings (size 3 to 8) (size 9 to 14) (size 15 to 20)
#    0.000    1.375    2.500    3.000    0.000    8.250 
#    0.000    0.625    0.000    0.750    0.000    0.000 
#    0.000    0.000    0.000    0.000    0.000    0.000 
#
# Total GULP energy -357440.930548 kJ/mol
# GULP energy per Si atom -5585.014540 kJ/mol
# Density = 2.036204 g / cm^3
# Si number density = 20.408487 Si / 1000 Ang^3
#
#
#
# Elastic Constant Matrix: (Units=GPa)
#
#
# Indices 1 2 3 4 5 6 
#
# 1 13.6286 -5.5991 -2.5664 0.0000 0.0000 0.0000
# 2 -5.5991 119.6238 20.8546 0.0000 0.0000 0.0000
# 3 -2.5664 20.8546 81.5943 0.0000 0.0000 0.0000
# 4 0.0000 0.0000 0.0000 20.5889 0.0000 0.0000
# 5 0.0000 0.0000 0.0000 0.0000 12.1570 0.0000
# 6 0.0000 0.0000 0.0000 0.0000 0.0000 19.3666
#
#
#
# Elastic Compliance Matrix: (Units=1/GPa)
#
#
# Indices 1 2 3 4 5 6 
#
# 1 0.074996 0.003244 0.001530 0.000000 0.000000 0.000000
# 2 0.003244 0.008890 -0.002170 0.000000 0.000000 0.000000
# 3 0.001530 -0.002170 0.012859 0.000000 0.000000 0.000000
# 4 0.000000 0.000000 0.000000 0.048570 0.000000 0.000000
# 5 0.000000 0.000000 0.000000 0.000000 0.082257 0.000000
# 6 0.000000 0.000000 0.000000 0.000000 0.000000 0.051635
#
#
# Mechanical properties :
#
#
# Convention : Reuss Voigt Hill
#
# Bulk Modulus (GPa) = 9.80866 26.69164 18.25015
# Shear Modulus (GPa) = 16.23467 23.89969 20.06718
#
# Velocity S-wave (km/s) = 2.82350 3.42580 3.13913
# Velocity P-wave (km/s) = 3.93015 5.36239 4.70113
#
# Compressibility (1/GPa) = 0.10195073
#
# Stress axis : x y z
#
# Youngs Moduli (GPa) = 13.33407 112.48996 77.76943
#
# Poissons Ratio (x) = -0.36487 -0.11898
# Poissons Ratio (y) = -0.04325 0.16877
# Poissons Ratio (z) = -0.02040 0.24411
#
# Static dielectric constant tensor:
#      x y z
#    x 1.715950 0.000000 0.000000 
#    y 0.000000 1.767320 0.000000 
#    z 0.000000 0.000000 1.700320 
# 
# From -- ./inp_files/17870.got.cif
#   From: 2010.05.17/outbox.cif.g08.bks.cpg/sg59_9_cif.got.tgz:17870.got - 2010.06.03 14:40:33.
