data_PCOD9450062
_publ_section_title
;
Structure prediction by ZEFSAII (Michael W. Deem and Ramdas Pophale) SiO2 
 PCOD9450062
Probable space group: P M M N
;
_chemical_formula_sum "Si O2"
_cell_formula_units_Z 48
_cell_length_a 8.565561
_cell_length_b 14.528410
_cell_length_c 20.752923
_cell_angle_alpha 90.000000
_cell_angle_beta 90.000000
_cell_angle_gamma 90.000000
_cell_volume 2582.576378
_symmetry_space_group_name_H-M "P M M N"
_symmetry_group_IT_number 59
_space_group.IT_coordinate_system_code '2'
_symmetry_cell_setting 'orthorhombic'
loop_
_space_group_symop_operation_xyz
x,y,z
1/2-x,1/2-y,z
1/2+x,-y,-z
-x,1/2+y,-z
-x,-y,-z
1/2+x,1/2+y,-z
1/2-x,y,z
x,1/2-y,z
loop_
_atom_site_type_symbol
_atom_site_label
_atom_site_fract_x
_atom_site_fract_y
_atom_site_fract_z
Si Si1 0.562598 0.548330 0.816874
Si Si2 0.561278 0.750000 0.359531
Si Si3 0.938150 0.056615 0.439808
Si Si4 0.561164 0.250000 0.493459
Si Si5 0.063580 0.750000 0.011182
Si Si6 0.563491 0.558969 0.059512
Si Si7 0.938847 0.750000 0.864077
Si Si8 0.939163 0.950957 0.311334
O O1 0.750000 0.546554 0.818372
O O2 0.496990 0.488752 0.875919
O O3 0.513602 0.655245 0.828283
O O4 0.504015 0.500733 0.751681
O O5 0.750000 0.750000 0.361953
O O6 0.502682 0.750000 0.433530
O O7 0.512518 0.655453 0.323835
O O8 0.750000 0.053938 0.439741
O O9 0.988377 0.160524 0.453643
O O10 0.990010 0.009766 0.373690
O O11 0.000000 0.000000 0.500000
O O12 0.750000 0.250000 0.498269
O O13 0.250000 0.750000 0.009689
O O14 0.001032 0.839268 0.048001
O O15 0.002849 0.750000 0.937201
O O16 0.750000 0.559893 0.058873
O O17 0.500000 0.500000 0.000000
O O18 0.750000 0.750000 0.868331
O O19 0.750000 0.951589 0.307904
#
# Coordination Sequence:
#
# PCOD9450062 Si02
#       8
#     8   4   8   4   4   8   4   8
#     4  11  24  42  64  91 125 164 209 258 313 375
#     4  10  20  37  60  85 116 159 202 245 305 370
#     4  10  20  35  57  85 117 153 198 249 301 362
#     4  10  20  33  56  90 120 151 197 253 304 355
#     4  12  24  39  66  99 128 167 213 256 312 373
#     4  12  24  41  65  95 129 165 209 260 310 367
#     4  10  22  41  64  88 122 163 206 260 317 368
#     4  10  22  39  59  86 122 161 203 251 309 372
#
# _framework density 18.586091
#
# number of rings (size 3 to 8) (size 9 to 14) (size 15 to 20)
#    0.000    1.333    3.333    2.750    0.000    3.333 
#    0.000    3.333    0.000    0.000    0.000    0.000 
#    0.000    0.000    0.000    0.000    0.000    0.000 
#
# Total GULP energy -268157.997643 kJ/mol
# GULP energy per Si atom -5586.624951 kJ/mol
# Density = 1.854379 g / cm^3
# Si number density = 18.586091 Si / 1000 Ang^3
#
#
#
# Elastic Constant Matrix: (Units=GPa)
#
#
# Indices 1 2 3 4 5 6 
#
# 1 44.4149 50.5229 43.0234 0.0000 0.0000 0.0000
# 2 50.5229 234.6047 118.0270 0.0000 0.0000 0.0000
# 3 43.0234 118.0270 183.5818 0.0000 0.0000 0.0000
# 4 0.0000 0.0000 0.0000 34.6132 0.0000 0.0000
# 5 0.0000 0.0000 0.0000 0.0000 35.8096 0.0000
# 6 0.0000 0.0000 0.0000 0.0000 0.0000 21.8320
#
#
#
# Elastic Compliance Matrix: (Units=1/GPa)
#
#
# Indices 1 2 3 4 5 6 
#
# 1 0.032218 -0.004641 -0.004567 0.000000 0.000000 0.000000
# 2 -0.004641 0.006969 -0.003393 0.000000 0.000000 0.000000
# 3 -0.004567 -0.003393 0.008699 0.000000 0.000000 0.000000
# 4 0.000000 0.000000 0.000000 0.028891 0.000000 0.000000
# 5 0.000000 0.000000 0.000000 0.000000 0.027925 0.000000
# 6 0.000000 0.000000 0.000000 0.000000 0.000000 0.045804
#
#
# Mechanical properties :
#
#
# Convention : Reuss Voigt Hill
#
# Bulk Modulus (GPa) = 44.08294 98.41646 71.24970
# Shear Modulus (GPa) = 27.28256 35.18616 31.23436
#
# Velocity S-wave (km/s) = 3.83548 4.35575 4.10387
# Velocity P-wave (km/s) = 6.58667 8.85231 7.80217
#
# Compressibility (1/GPa) = 0.02268451
#
# Stress axis : x y z
#
# Youngs Moduli (GPa) = 31.03901 143.49881 114.96046
#
# Poissons Ratio (x) = 0.66592 0.52501
# Poissons Ratio (y) = 0.14404 0.39003
# Poissons Ratio (z) = 0.14175 0.48685
#
# Static dielectric constant tensor:
#      x y z
#    x 1.630340 0.000000 0.000000 
#    y 0.000000 1.591220 0.000000 
#    z 0.000000 0.000000 1.600780 
# 
# From -- ./inp_files/25709.got.cif
#   From: 2010.05.17/outbox.cif.g08.bks.cpg/sg59_13_cif.got.tgz:25709.got - 2010.06.03 14:40:33.
