data_PCOD9450147
_publ_section_title
;
Structure prediction by ZEFSAII (Michael W. Deem and Ramdas Pophale) SiO2 
 PCOD9450147
Probable space group: P M M N
;
_chemical_formula_sum "Si O2"
_cell_formula_units_Z 56
_cell_length_a 14.940459
_cell_length_b 7.603193
_cell_length_c 23.348953
_cell_angle_alpha 90.000000
_cell_angle_beta 90.000000
_cell_angle_gamma 90.000000
_cell_volume 2652.328829
_symmetry_space_group_name_H-M "P M M N"
_symmetry_group_IT_number 59
_space_group.IT_coordinate_system_code '2'
_symmetry_cell_setting 'orthorhombic'
loop_
_space_group_symop_operation_xyz
x,y,z
1/2-x,1/2-y,z
1/2+x,-y,-z
-x,1/2+y,-z
-x,-y,-z
1/2+x,1/2+y,-z
1/2-x,y,z
x,1/2-y,z
loop_
_atom_site_type_symbol
_atom_site_label
_atom_site_fract_x
_atom_site_fract_y
_atom_site_fract_z
Si Si1 0.398750 0.039909 0.981559
Si Si2 0.850886 0.041886 0.254997
Si Si3 0.150877 0.456154 0.395227
Si Si4 0.548414 0.958254 0.139154
Si Si5 0.647550 0.038000 0.473430
Si Si6 0.153969 0.462456 0.103888
Si Si7 0.037251 0.966546 0.636554
O O1 0.382438 0.250000 0.978893
O O2 0.397104 0.970249 0.916588
O O3 0.347143 0.974203 0.037499
O O4 0.500000 0.000000 0.000000
O O5 0.750000 0.970135 0.248742
O O6 0.842374 0.250000 0.265160
O O7 0.904022 0.971785 0.310036
O O8 0.909201 0.021588 0.197913
O O9 0.250000 0.534240 0.386446
O O10 0.156772 0.250000 0.381000
O O11 0.129438 0.469002 0.462991
O O12 0.065385 0.528154 0.361931
O O13 0.559686 0.750000 0.137802
O O14 0.441596 0.990319 0.131891
O O15 0.750000 0.990308 0.458681
O O16 0.642887 0.250000 0.476552
O O17 0.582186 0.978503 0.423300
O O18 0.250000 0.518867 0.129800
O O19 0.153795 0.250000 0.102990
O O20 0.036521 0.750000 0.636522
#
# Coordination Sequence:
#
# PCOD9450147 Si02
#       7
#     8   8   8   8   8   8   8
#     4   8  15  28  47  71  99 131 164 199 242 290
#     4  10  21  37  55  72  92 125 172 219 255 294
#     4   9  17  29  46  70  98 124 151 189 240 296
#     4  10  20  34  52  75 106 139 167 204 256 308
#     4   9  16  27  46  71  96 123 156 193 236 287
#     4   9  17  31  53  79 105 135 172 210 246 292
#     4   9  17  31  50  69  92 125 164 203 241 285
#
# _framework density 21.113520999999999
#
# number of rings (size 3 to 8) (size 9 to 14) (size 15 to 20)
#    0.000    2.857    0.000    1.286    0.000    3.429 
#    0.000    3.571    0.000    4.286    0.000    0.000 
#    0.000    0.000    0.000    0.000    0.000    0.000 
#
# Total GULP energy -312063.439887 kJ/mol
# GULP energy per Si atom -5572.561427 kJ/mol
# Density = 2.106547 g / cm^3
# Si number density = 21.113521 Si / 1000 Ang^3
#
#
#
# Elastic Constant Matrix: (Units=GPa)
#
#
# Indices 1 2 3 4 5 6 
#
# 1 167.5476 3.5973 76.1774 0.0000 0.0000 0.0000
# 2 3.5973 44.5979 0.0787 0.0000 0.0000 0.0000
# 3 76.1774 0.0787 44.6443 0.0000 0.0000 0.0000
# 4 0.0000 0.0000 0.0000 -8.9427 0.0000 0.0000
# 5 0.0000 0.0000 0.0000 0.0000 19.0897 0.0000
# 6 0.0000 0.0000 0.0000 0.0000 0.0000 5.2376
#
#
#
# Elastic Compliance Matrix: (Units=1/GPa)
#
#
# Indices 1 2 3 4 5 6 
#
# 1 0.026813 -0.002082 -0.045747 0.000000 0.000000 0.000000
# 2 -0.002082 0.022584 0.003513 0.000000 0.000000 0.000000
# 3 -0.045747 0.003513 0.100453 0.000000 0.000000 0.000000
# 4 0.000000 0.000000 0.000000 -0.111823 0.000000 0.000000
# 5 0.000000 0.000000 0.000000 0.000000 0.052384 0.000000
# 6 0.000000 0.000000 0.000000 0.000000 0.000000 0.190928
#
#
# Mechanical properties :
#
#
# Convention : Reuss Voigt Hill
#
# Bulk Modulus (GPa) = 16.33548 46.27738 31.30643
# Shear Modulus (GPa) = 12.80811 14.87267 13.84039
#
# Velocity S-wave (km/s) = 2.46566 2.65696 2.56310
# Velocity P-wave (km/s) = 3.98243 5.60165 4.85995
#
# Compressibility (1/GPa) = 0.06121645
#
# Stress axis : x y z
#
# Youngs Moduli (GPa) = 37.29577 44.27848 9.95494
#
# Poissons Ratio (x) = 0.09219 0.45541
# Poissons Ratio (y) = 0.07765 -0.03497
# Poissons Ratio (z) = 1.70618 -0.15554
#
# Static dielectric constant tensor:
#      x y z
#    x 1.798350 0.000000 0.000000 
#    y 0.000000 1.788990 0.000000 
#    z 0.000000 0.000000 1.748050 
# 
# From -- ./inp_files/30324.got.cif
#   From: 2010.05.17/outbox.cif.g08.bks.cpg/sg59_16_cif.got.tgz:30324.got - 2010.06.03 14:40:33.
