data_PCOD9450053
_publ_section_title
;
Structure prediction by ZEFSAII (Michael W. Deem and Ramdas Pophale) SiO2 
 PCOD9450053
Probable space group: P M M N
;
_chemical_formula_sum "Si O2"
_cell_formula_units_Z 40
_cell_length_a 8.383529
_cell_length_b 13.839391
_cell_length_c 16.085831
_cell_angle_alpha 90.000000
_cell_angle_beta 90.000000
_cell_angle_gamma 90.000000
_cell_volume 1866.325337
_symmetry_space_group_name_H-M "P M M N"
_symmetry_group_IT_number 59
_space_group.IT_coordinate_system_code '2'
_symmetry_cell_setting 'orthorhombic'
loop_
_space_group_symop_operation_xyz
x,y,z
1/2-x,1/2-y,z
1/2+x,-y,-z
-x,1/2+y,-z
-x,-y,-z
1/2+x,1/2+y,-z
1/2-x,y,z
x,1/2-y,z
loop_
_atom_site_type_symbol
_atom_site_label
_atom_site_fract_x
_atom_site_fract_y
_atom_site_fract_z
Si Si1 0.934998 0.113186 0.604799
Si Si2 0.929771 0.750000 0.882692
Si Si3 0.439485 0.966485 0.910203
Si Si4 0.431601 0.250000 0.314196
Si Si5 0.438927 0.594616 0.573230
Si Si6 0.443524 0.858402 0.207854
O O1 0.750000 0.140692 0.609368
O O2 0.992357 0.145224 0.513233
O O3 0.002499 0.137648 0.695551
O O4 0.958034 0.999487 0.591168
O O5 0.750000 0.750000 0.918036
O O6 0.922038 0.750000 0.783405
O O7 0.008075 0.646027 0.902314
O O8 0.250000 0.969328 0.906070
O O9 0.501245 0.046971 0.843307
O O10 0.500000 0.000000 0.000000
O O11 0.250000 0.250000 0.347317
O O12 0.528878 0.160621 0.348752
O O13 0.250000 0.572087 0.566085
O O14 0.250000 0.862615 0.208651
O O15 0.487286 0.750000 0.175027
#
# Coordination Sequence:
#
# PCOD9450053 Si02
#       6
#     8   4   8   4   8   8
#     4   9  19  36  57  83 121 169 216 265 323 381
#     4  11  25  47  73 100 133 174 223 275 332 397
#     4  12  27  47  73 103 137 172 215 270 335 403
#     4  11  23  37  57  86 123 164 209 261 320 379
#     4  10  20  33  55  84 121 165 217 271 319 375
#     4  10  22  41  67  96 133 179 226 273 329 396
#
# _framework density 21.432492
#
# number of rings (size 3 to 8) (size 9 to 14) (size 15 to 20)
#    0.000    1.600    0.000    4.200    2.800    8.400 
#    0.000    0.000    0.000    0.000    0.000    0.000 
#    0.000    0.000    0.000    0.000    0.000    0.000 
#
# Total GULP energy -222938.377158 kJ/mol
# GULP energy per Si atom -5573.459429 kJ/mol
# Density = 2.138371 g / cm^3
# Si number density = 21.432492 Si / 1000 Ang^3
#
#
#
# Elastic Constant Matrix: (Units=GPa)
#
#
# Indices 1 2 3 4 5 6 
#
# 1 85.5969 48.6918 28.7187 0.0000 0.0000 0.0000
# 2 48.6918 193.8184 61.8002 0.0000 0.0000 0.0000
# 3 28.7187 61.8002 109.2333 0.0000 0.0000 0.0000
# 4 0.0000 0.0000 0.0000 -5.6409 0.0000 0.0000
# 5 0.0000 0.0000 0.0000 0.0000 29.5046 0.0000
# 6 0.0000 0.0000 0.0000 0.0000 0.0000 7.4829
#
#
#
# Elastic Compliance Matrix: (Units=1/GPa)
#
#
# Indices 1 2 3 4 5 6 
#
# 1 0.014002 -0.002860 -0.002063 0.000000 0.000000 0.000000
# 2 -0.002860 0.006879 -0.003140 0.000000 0.000000 0.000000
# 3 -0.002063 -0.003140 0.011474 0.000000 0.000000 0.000000
# 4 0.000000 0.000000 0.000000 -0.177277 0.000000 0.000000
# 5 0.000000 0.000000 0.000000 0.000000 0.033893 0.000000
# 6 0.000000 0.000000 0.000000 0.000000 0.000000 0.133638
#
#
# Mechanical properties :
#
#
# Convention : Reuss Voigt Hill
#
# Bulk Modulus (GPa) = 61.62053 74.11888 67.86970
# Shear Modulus (GPa) = 113.26501 22.89851 68.08176
#
# Velocity S-wave (km/s) = 7.27750 3.27219 5.64222
# Velocity P-wave (km/s) = 9.97143 6.99527 8.61288
#
# Compressibility (1/GPa) = 0.01622836
#
# Stress axis : x y z
#
# Youngs Moduli (GPa) = 71.42023 145.36734 87.15546
#
# Poissons Ratio (x) = 0.41570 0.17983
# Poissons Ratio (y) = 0.20424 0.27368
# Poissons Ratio (z) = 0.14736 0.45647
#
# Static dielectric constant tensor:
#      x y z
#    x 1.728180 0.000000 0.000000 
#    y 0.000000 1.794670 0.000000 
#    z 0.000000 0.000000 1.824530 
# 
# From -- ./inp_files/19974.got.cif
#   From: 2010.05.17/outbox.cif.g08.bks.cpg/sg59_10_cif.got.tgz:19974.got - 2010.06.03 14:40:33.
