data_PCOD9450213
_publ_section_title
;
Structure prediction by ZEFSAII (Michael W. Deem and Ramdas Pophale) SiO2 
 PCOD9450213
Probable space group: P M M N
;
_chemical_formula_sum "Si O2"
_cell_formula_units_Z 56
_cell_length_a 7.586417
_cell_length_b 22.248857
_cell_length_c 17.508129
_cell_angle_alpha 90.000000
_cell_angle_beta 90.000000
_cell_angle_gamma 90.000000
_cell_volume 2955.181459
_symmetry_space_group_name_H-M "P M M N"
_symmetry_group_IT_number 59
_space_group.IT_coordinate_system_code '2'
_symmetry_cell_setting 'orthorhombic'
loop_
_space_group_symop_operation_xyz
x,y,z
1/2-x,1/2-y,z
1/2+x,-y,-z
-x,1/2+y,-z
-x,-y,-z
1/2+x,1/2+y,-z
1/2-x,y,z
x,1/2-y,z
loop_
_atom_site_type_symbol
_atom_site_label
_atom_site_fract_x
_atom_site_fract_y
_atom_site_fract_z
Si Si1 0.965476 0.681941 0.858146
Si Si2 0.463076 0.411758 0.021980
Si Si3 0.535000 0.622996 0.700169
Si Si4 0.957297 0.023752 0.876214
Si Si5 0.965559 0.015582 0.704932
Si Si6 0.960489 0.817043 0.546052
Si Si7 0.459108 0.938281 0.453684
O O1 0.750000 0.681657 0.857012
O O2 0.025047 0.750000 0.854892
O O3 0.019502 0.648036 0.934855
O O4 0.022299 0.646544 0.782547
O O5 0.250000 0.414160 0.021128
O O6 0.529011 0.466632 0.076061
O O7 0.521922 0.421906 0.935467
O O8 0.750000 0.624328 0.699877
O O9 0.484709 0.553730 0.689810
O O10 0.472918 0.663909 0.630182
O O11 0.750000 0.011083 0.866669
O O12 0.026949 0.031759 0.790598
O O13 0.750000 0.018466 0.704828
O O14 0.028944 0.054063 0.632826
O O15 0.750000 0.811982 0.552001
O O16 0.026179 0.750000 0.523474
O O17 0.988996 0.875564 0.493131
O O18 0.250000 0.936460 0.449341
O O19 0.500000 0.000000 0.500000
#
# Coordination Sequence:
#
# PCOD9450213 Si02
#       7
#     8   8   8   8   8   8   8
#     4   9  15  23  40  67  96 125 156 188 226 278
#     4   9  16  26  42  66  93 117 145 186 232 275
#     4   9  14  25  45  71  99 126 158 194 235 287
#     4   9  16  28  46  65  87 118 153 190 230 274
#     4   9  16  28  48  70  95 125 159 200 240 285
#     4  10  20  34  53  76 103 135 171 209 251 304
#     4  11  21  34  53  76 103 134 170 212 256 301
#
# _framework density 18.949767000000001
#
# number of rings (size 3 to 8) (size 9 to 14) (size 15 to 20)
#    0.000    2.571    2.857    0.857    0.000    2.000 
#    0.000    1.429    0.000    2.143    0.000    4.000 
#    0.000    0.000    0.000    0.000    0.000    0.000 
#
# Total GULP energy -312155.583096 kJ/mol
# GULP energy per Si atom -5574.206841 kJ/mol
# Density = 1.890664 g / cm^3
# Si number density = 18.949767 Si / 1000 Ang^3
#
#
#
# Elastic Constant Matrix: (Units=GPa)
#
#
# Indices 1 2 3 4 5 6 
#
# 1 39.9501 -0.7861 3.2007 0.0000 0.0000 0.0000
# 2 -0.7861 114.4918 68.7842 0.0000 0.0000 0.0000
# 3 3.2007 68.7842 145.7825 0.0000 0.0000 0.0000
# 4 0.0000 0.0000 0.0000 23.3671 0.0000 0.0000
# 5 0.0000 0.0000 0.0000 0.0000 15.7216 0.0000
# 6 0.0000 0.0000 0.0000 0.0000 0.0000 13.9906
#
#
#
# Elastic Compliance Matrix: (Units=1/GPa)
#
#
# Indices 1 2 3 4 5 6 
#
# 1 0.025116 0.000703 -0.000883 0.000000 0.000000 0.000000
# 2 0.000703 0.012209 -0.005776 0.000000 0.000000 0.000000
# 3 -0.000883 -0.005776 0.009604 0.000000 0.000000 0.000000
# 4 0.000000 0.000000 0.000000 0.042795 0.000000 0.000000
# 5 0.000000 0.000000 0.000000 0.000000 0.063607 0.000000
# 6 0.000000 0.000000 0.000000 0.000000 0.000000 0.071477
#
#
# Mechanical properties :
#
#
# Convention : Reuss Voigt Hill
#
# Bulk Modulus (GPa) = 28.55763 49.18021 38.86892
# Shear Modulus (GPa) = 20.12942 25.88423 23.00682
#
# Velocity S-wave (km/s) = 3.26276 3.69987 3.48817
# Velocity P-wave (km/s) = 5.41267 6.65292 6.06458
#
# Compressibility (1/GPa) = 0.03501691
#
# Stress axis : x y z
#
# Youngs Moduli (GPa) = 39.81552 81.90529 104.12065
#
# Poissons Ratio (x) = -0.05758 0.09195
# Poissons Ratio (y) = -0.02799 0.60141
# Poissons Ratio (z) = 0.03516 0.47309
#
# Static dielectric constant tensor:
#      x y z
#    x 1.729250 0.000000 0.000000 
#    y 0.000000 1.615860 0.000000 
#    z 0.000000 0.000000 1.680860 
# 
# From -- ./inp_files/26097.got.cif
#   From: 2010.05.17/outbox.cif.g08.bks.cpg/sg59_14_cif.got.tgz:26097.got - 2010.06.03 14:40:33.
