data_PCOD9450444
_publ_section_title
;
Structure prediction by ZEFSAII (Michael W. Deem and Ramdas Pophale) SiO2 
 PCOD9450444
Probable space group: P M M N
;
_chemical_formula_sum "Si O2"
_cell_formula_units_Z 56
_cell_length_a 22.454238
_cell_length_b 9.211881
_cell_length_c 14.836043
_cell_angle_alpha 90.000000
_cell_angle_beta 90.000000
_cell_angle_gamma 90.000000
_cell_volume 3068.772714
_symmetry_space_group_name_H-M "P M M N"
_symmetry_group_IT_number 59
_space_group.IT_coordinate_system_code '2'
_symmetry_cell_setting 'orthorhombic'
loop_
_space_group_symop_operation_xyz
x,y,z
1/2-x,1/2-y,z
1/2+x,-y,-z
-x,1/2+y,-z
-x,-y,-z
1/2+x,1/2+y,-z
1/2-x,y,z
x,1/2-y,z
loop_
_atom_site_type_symbol
_atom_site_label
_atom_site_fract_x
_atom_site_fract_y
_atom_site_fract_z
Si Si1 0.182971 0.077040 0.978764
Si Si2 0.750000 0.074860 0.683252
Si Si3 0.657261 0.923263 0.814353
Si Si4 0.147171 0.416818 0.654305
Si Si5 0.250000 0.074702 0.513016
Si Si6 0.476796 0.422536 0.233241
Si Si7 0.107631 0.923330 0.830519
Si Si8 0.010860 0.084349 0.590929
O O1 0.250000 0.043966 0.947031
O O2 0.173094 0.250000 0.969623
O O3 0.135689 0.992085 0.919327
O O4 0.179064 0.043209 0.084880
O O5 0.750000 0.250000 0.680921
O O6 0.693367 0.013037 0.739644
O O7 0.750000 0.008404 0.582120
O O8 0.666973 0.750000 0.798057
O O9 0.586458 0.950928 0.812472
O O10 0.161747 0.250000 0.680484
O O11 0.193351 0.460563 0.576594
O O12 0.142883 0.514055 0.743634
O O13 0.080966 0.418343 0.613425
O O14 0.250000 0.250000 0.496359
O O15 0.480659 0.250000 0.250134
O O16 0.537573 0.463242 0.181065
O O17 0.478212 0.506282 0.327102
O O18 0.112100 0.750000 0.832130
O O19 0.991282 0.250000 0.582949
O O20 0.000000 0.000000 0.500000
#
# Coordination Sequence:
#
# PCOD9450444 Si02
#       8
#     8   4   8   8   4   8   8   8
#     4  10  21  38  61  86 112 153 202 238 276 340
#     4  12  26  40  57  88 123 150 187 244 302 344
#     4  10  21  42  66  84 111 156 204 239 278 344
#     4   9  20  38  58  82 111 150 196 235 271 335
#     4  10  22  40  61  82 109 152 199 236 280 340
#     4   9  20  38  60  84 113 151 193 237 288 345
#     4  10  21  37  58  89 124 151 181 237 303 346
#     4  10  20  34  54  81 113 149 191 234 285 339
#
# _framework density 18.248339000000001
#
# number of rings (size 3 to 8) (size 9 to 14) (size 15 to 20)
#    0.000    2.143    0.714    1.500    3.000    3.714 
#    0.000    0.000    0.000    0.000    0.000    0.000 
#    0.000    0.000    0.000    0.000    0.000    0.000 
#
# Total GULP energy -312520.641775 kJ/mol
# GULP energy per Si atom -5580.725746 kJ/mol
# Density = 1.820680 g / cm^3
# Si number density = 18.248339 Si / 1000 Ang^3
#
#
#
# Elastic Constant Matrix: (Units=GPa)
#
#
# Indices 1 2 3 4 5 6 
#
# 1 83.1521 52.6253 60.2957 0.0000 0.0000 0.0000
# 2 52.6253 48.7493 44.8276 0.0000 0.0000 0.0000
# 3 60.2957 44.8276 88.2117 0.0000 0.0000 0.0000
# 4 0.0000 0.0000 0.0000 29.4669 0.0000 0.0000
# 5 0.0000 0.0000 0.0000 0.0000 18.8769 0.0000
# 6 0.0000 0.0000 0.0000 0.0000 0.0000 24.8686
#
#
#
# Elastic Compliance Matrix: (Units=1/GPa)
#
#
# Indices 1 2 3 4 5 6 
#
# 1 0.042869 -0.036291 -0.010860 0.000000 0.000000 0.000000
# 2 -0.036291 0.069230 -0.010375 0.000000 0.000000 0.000000
# 3 -0.010860 -0.010375 0.024032 0.000000 0.000000 0.000000
# 4 0.000000 0.000000 0.000000 0.033936 0.000000 0.000000
# 5 0.000000 0.000000 0.000000 0.000000 0.052975 0.000000
# 6 0.000000 0.000000 0.000000 0.000000 0.000000 0.040211
#
#
# Mechanical properties :
#
#
# Convention : Reuss Voigt Hill
#
# Bulk Modulus (GPa) = 47.44154 59.51225 53.47689
# Shear Modulus (GPa) = 12.97580 18.80011 15.88795
#
# Velocity S-wave (km/s) = 2.66948 3.21321 2.95388
# Velocity P-wave (km/s) = 5.96286 6.81539 6.40333
#
# Compressibility (1/GPa) = 0.02107858
#
# Stress axis : x y z
#
# Youngs Moduli (GPa) = 23.32701 14.44451 41.61115
#
# Poissons Ratio (x) = 0.52421 0.45189
# Poissons Ratio (y) = 0.84656 0.43174
# Poissons Ratio (z) = 0.25333 0.14987
#
# Static dielectric constant tensor:
#      x y z
#    x 1.651590 0.000000 0.000000 
#    y 0.000000 1.614560 0.000000 
#    z 0.000000 0.000000 1.586060 
# 
# From -- ./inp_files/24399.got.cif
#   From: 2010.05.17/outbox.cif.g08.bks.cpg/sg59_13_cif.got.tgz:24399.got - 2010.06.03 14:40:33.
