data_PCOD9450136
_publ_section_title
;
Structure prediction by ZEFSAII (Michael W. Deem and Ramdas Pophale) SiO2 
 PCOD9450136
Probable space group: P M M N
;
_chemical_formula_sum "Si O2"
_cell_formula_units_Z 64
_cell_length_a 9.039773
_cell_length_b 19.118209
_cell_length_c 22.309175
_cell_angle_alpha 90.000000
_cell_angle_beta 90.000000
_cell_angle_gamma 90.000000
_cell_volume 3855.566873
_symmetry_space_group_name_H-M "P M M N"
_symmetry_group_IT_number 59
_space_group.IT_coordinate_system_code '2'
_symmetry_cell_setting 'orthorhombic'
loop_
_space_group_symop_operation_xyz
x,y,z
1/2-x,1/2-y,z
1/2+x,-y,-z
-x,1/2+y,-z
-x,-y,-z
1/2+x,1/2+y,-z
1/2-x,y,z
x,1/2-y,z
loop_
_atom_site_type_symbol
_atom_site_label
_atom_site_fract_x
_atom_site_fract_y
_atom_site_fract_z
Si Si1 0.573826 0.459426 0.555943
Si Si2 0.580557 0.957271 0.913052
Si Si3 0.425292 0.828951 0.624209
Si Si4 0.580636 0.108333 0.980040
Si Si5 0.428335 0.028811 0.804005
Si Si6 0.928087 0.828028 0.132645
Si Si7 0.922611 0.668030 0.495726
Si Si8 0.572787 0.024260 0.326681
O O1 0.500000 0.500000 0.500000
O O2 0.750000 0.465393 0.552865
O O3 0.519649 0.380086 0.547100
O O4 0.511204 0.490190 0.617547
O O5 0.750000 0.937034 0.902551
O O6 0.581493 0.031435 0.948820
O O7 0.496889 0.975083 0.851764
O O8 0.499316 0.902728 0.956568
O O9 0.250000 0.832106 0.608833
O O10 0.456274 0.750000 0.645969
O O11 0.517331 0.840836 0.563479
O O12 0.454639 0.892255 0.669457
O O13 0.750000 0.130653 0.987510
O O14 0.495556 0.156627 0.932737
O O15 0.250000 0.024919 0.808001
O O16 0.472962 0.107441 0.824339
O O17 0.471505 0.008839 0.736653
O O18 0.750000 0.830465 0.128233
O O19 0.970784 0.750000 0.153066
O O20 0.750000 0.647722 0.492788
O O21 0.934963 0.750000 0.481325
O O22 0.750000 0.013663 0.334307
#
# Coordination Sequence:
#
# PCOD9450136 Si02
#       8
#     8   8   8   8   8   8   8   8
#     4  12  23  35  53  76 104 136 171 216 269 320
#     4   9  16  27  45  69  96 124 157 200 248 295
#     4   9  17  30  50  74  98 126 160 203 257 314
#     4   9  16  26  44  70  96 122 156 200 249 295
#     4   9  18  32  49  70  98 134 175 215 257 308
#     4   9  17  30  48  70  98 133 173 215 257 302
#     4  10  20  34  53  77 103 130 163 206 259 318
#     4  10  20  34  52  75 103 135 174 219 264 316
#
# _framework density 16.599374000000001
#
# number of rings (size 3 to 8) (size 9 to 14) (size 15 to 20)
#    0.000    2.375    1.250    2.250    0.000    4.500 
#    0.000    0.625    0.000    3.000    0.000    1.750 
#    0.000    0.000    0.000    0.000    0.000    0.000 
#
# Total GULP energy -356743.257863 kJ/mol
# GULP energy per Si atom -5574.113404 kJ/mol
# Density = 1.656159 g / cm^3
# Si number density = 16.599374 Si / 1000 Ang^3
#
#
#
# Elastic Constant Matrix: (Units=GPa)
#
#
# Indices 1 2 3 4 5 6 
#
# 1 61.0338 39.8239 53.8905 0.0000 0.0000 0.0000
# 2 39.8239 90.4200 60.9052 0.0000 0.0000 0.0000
# 3 53.8905 60.9052 128.9987 0.0000 0.0000 0.0000
# 4 0.0000 0.0000 0.0000 17.8859 0.0000 0.0000
# 5 0.0000 0.0000 0.0000 0.0000 24.2949 0.0000
# 6 0.0000 0.0000 0.0000 0.0000 0.0000 18.7564
#
#
#
# Elastic Compliance Matrix: (Units=1/GPa)
#
#
# Indices 1 2 3 4 5 6 
#
# 1 0.028436 -0.006631 -0.008748 0.000000 0.000000 0.000000
# 2 -0.006631 0.017763 -0.005616 0.000000 0.000000 0.000000
# 3 -0.008748 -0.005616 0.014059 0.000000 0.000000 0.000000
# 4 0.000000 0.000000 0.000000 0.055910 0.000000 0.000000
# 5 0.000000 0.000000 0.000000 0.000000 0.041161 0.000000
# 6 0.000000 0.000000 0.000000 0.000000 0.000000 0.053315
#
#
# Mechanical properties :
#
#
# Convention : Reuss Voigt Hill
#
# Bulk Modulus (GPa) = 54.74885 65.52130 60.13507
# Shear Modulus (GPa) = 19.32562 20.57631 19.95096
#
# Velocity S-wave (km/s) = 3.41579 3.52459 3.47062
# Velocity P-wave (km/s) = 6.97216 7.49143 7.23645
#
# Compressibility (1/GPa) = 0.01826522
#
# Stress axis : x y z
#
# Youngs Moduli (GPa) = 35.16708 56.29608 71.13134
#
# Poissons Ratio (x) = 0.37331 0.62229
# Poissons Ratio (y) = 0.23320 0.39951
# Poissons Ratio (z) = 0.30766 0.31618
#
# Static dielectric constant tensor:
#      x y z
#    x 1.559650 0.000000 0.000000 
#    y 0.000000 1.587670 0.000000 
#    z 0.000000 0.000000 1.526370 
# 
# From -- ./inp_files/29450.got.cif
#   From: 2010.05.17/outbox.cif.g08.bks.cpg/sg59_15_cif.got.tgz:29450.got - 2010.06.03 14:40:33.
