data_PCOD9450079
_publ_section_title
;
Structure prediction by ZEFSAII (Michael W. Deem and Ramdas Pophale) SiO2 
 PCOD9450079
Probable space group: P M M N
;
_chemical_formula_sum "Si O2"
_cell_formula_units_Z 48
_cell_length_a 20.278591
_cell_length_b 27.055652
_cell_length_c 4.932337
_cell_angle_alpha 90.000000
_cell_angle_beta 90.000000
_cell_angle_gamma 90.000000
_cell_volume 2706.129167
_symmetry_space_group_name_H-M "P M M N"
_symmetry_group_IT_number 59
_space_group.IT_coordinate_system_code '2'
_symmetry_cell_setting 'orthorhombic'
loop_
_space_group_symop_operation_xyz
x,y,z
1/2-x,1/2-y,z
1/2+x,-y,-z
-x,1/2+y,-z
-x,-y,-z
1/2+x,1/2+y,-z
1/2-x,y,z
x,1/2-y,z
loop_
_atom_site_type_symbol
_atom_site_label
_atom_site_fract_x
_atom_site_fract_y
_atom_site_fract_z
Si Si1 0.478610 0.127514 0.949455
Si Si2 0.861837 0.305972 0.760047
Si Si3 0.676414 0.368922 0.281462
Si Si4 0.045804 0.032898 0.195262
Si Si5 0.492724 0.306813 0.485120
Si Si6 0.071500 0.563594 0.410069
O O1 0.431613 0.082373 0.043683
O O2 0.504806 0.053370 0.420096
O O3 0.452166 0.161263 0.704512
O O4 0.542946 0.098116 0.831019
O O5 0.845661 0.250000 0.839243
O O6 0.820551 0.327031 0.511777
O O7 0.935823 0.305221 0.633354
O O8 0.849473 0.341606 0.013632
O O9 0.750000 0.389102 0.232453
O O10 0.625685 0.408790 0.409326
O O11 0.093922 0.990937 0.312946
O O12 0.000000 0.000000 0.000000
O O13 0.472232 0.250000 0.442402
O O14 0.494866 0.336986 0.203975
#
# Coordination Sequence:
#
# PCOD9450079 Si02
#       6
#     8   8   8   8   8   8
#     4  11  18  33  49  71  99 118 155 202 244 300
#     4  11  23  38  51  64  86 124 175 217 250 289
#     4  12  25  38  51  67  93 126 159 211 262 296
#     4   9  18  31  55  73  92 116 153 208 252 284
#     4  11  21  32  50  71  94 126 160 202 250 292
#     4  10  20  34  50  75  92 119 157 207 250 303
#
# _framework density 17.737513
#
# number of rings (size 3 to 8) (size 9 to 14) (size 15 to 20)
#    0.000    1.333    3.333    3.500    2.333    4.667 
#    0.000    0.000    0.000    0.000    0.000    0.000 
#    0.000    0.000    0.000    0.000    0.000    5.000 
#
# Total GULP energy -267427.349303 kJ/mol
# GULP energy per Si atom -5571.403110 kJ/mol
# Density = 1.769714 g / cm^3
# Si number density = 17.737513 Si / 1000 Ang^3
#
#
#
# Elastic Constant Matrix: (Units=GPa)
#
#
# Indices 1 2 3 4 5 6 
#
# 1 16.5153 16.4210 9.0191 0.0000 0.0000 0.0000
# 2 16.4210 141.9493 54.4707 0.0000 0.0000 0.0000
# 3 9.0191 54.4707 130.4668 0.0000 0.0000 0.0000
# 4 0.0000 0.0000 0.0000 38.5815 0.0000 0.0000
# 5 0.0000 0.0000 0.0000 0.0000 29.4142 0.0000
# 6 0.0000 0.0000 0.0000 0.0000 0.0000 21.6889
#
#
#
# Elastic Compliance Matrix: (Units=1/GPa)
#
#
# Indices 1 2 3 4 5 6 
#
# 1 0.068737 -0.007297 -0.001705 0.000000 0.000000 0.000000
# 2 -0.007297 0.009163 -0.003321 0.000000 0.000000 0.000000
# 3 -0.001705 -0.003321 0.009169 0.000000 0.000000 0.000000
# 4 0.000000 0.000000 0.000000 0.025919 0.000000 0.000000
# 5 0.000000 0.000000 0.000000 0.000000 0.033997 0.000000
# 6 0.000000 0.000000 0.000000 0.000000 0.000000 0.046107
#
#
# Mechanical properties :
#
#
# Convention : Reuss Voigt Hill
#
# Bulk Modulus (GPa) = 16.01996 49.86143 32.94069
# Shear Modulus (GPa) = 20.96022 31.87164 26.41593
#
# Velocity S-wave (km/s) = 3.44130 4.24352 3.86329
# Velocity P-wave (km/s) = 4.98411 7.22369 6.20577
#
# Compressibility (1/GPa) = 0.06242214
#
# Stress axis : x y z
#
# Youngs Moduli (GPa) = 14.54825 109.12931 109.05922
#
# Poissons Ratio (x) = 0.79635 0.18595
# Poissons Ratio (y) = 0.10616 0.36222
# Poissons Ratio (z) = 0.02481 0.36245
#
# Static dielectric constant tensor:
#      x y z
#    x 1.602180 0.000000 0.000000 
#    y 0.000000 1.722980 0.000000 
#    z 0.000000 0.000000 1.715430 
# 
# From -- ./inp_files/3416.got.cif
#   From: 2010.05.17/outbox.cif.g08.bks.cpg/sg59_2_cif.got.tgz:3416.got - 2010.06.03 14:40:33.
