data_PCOD9450014
_publ_section_title
;
Structure prediction by ZEFSAII (Michael W. Deem and Ramdas Pophale) SiO2 
 PCOD9450014
Probable space group: P M M N
;
_chemical_formula_sum "Si O2"
_cell_formula_units_Z 48
_cell_length_a 14.071698
_cell_length_b 8.905814
_cell_length_c 21.389724
_cell_angle_alpha 90.000000
_cell_angle_beta 90.000000
_cell_angle_gamma 90.000000
_cell_volume 2680.558609
_symmetry_space_group_name_H-M "P M M N"
_symmetry_group_IT_number 59
_space_group.IT_coordinate_system_code '2'
_symmetry_cell_setting 'orthorhombic'
loop_
_space_group_symop_operation_xyz
x,y,z
1/2-x,1/2-y,z
1/2+x,-y,-z
-x,1/2+y,-z
-x,-y,-z
1/2+x,1/2+y,-z
1/2-x,y,z
x,1/2-y,z
loop_
_atom_site_type_symbol
_atom_site_label
_atom_site_fract_x
_atom_site_fract_y
_atom_site_fract_z
Si Si1 0.860739 0.068938 0.717512
Si Si2 0.357733 0.930636 0.527063
Si Si3 0.864250 0.576264 0.967115
Si Si4 0.537792 0.070228 0.847086
Si Si5 0.639085 0.429079 0.100236
Si Si6 0.548766 0.570317 0.594794
O O1 0.750000 0.023633 0.716681
O O2 0.864082 0.250000 0.712260
O O3 0.909148 0.027437 0.783243
O O4 0.915830 0.998139 0.659433
O O5 0.250000 0.971611 0.544625
O O6 0.361227 0.750000 0.518628
O O7 0.439859 0.970104 0.576783
O O8 0.387430 0.006777 0.461908
O O9 0.750000 0.572982 0.961078
O O10 0.894785 0.750000 0.971819
O O11 0.908571 0.499402 0.906617
O O12 0.887299 0.490128 0.031249
O O13 0.537554 0.250000 0.852139
O O14 0.431232 0.006953 0.851178
O O15 0.750000 0.465455 0.110783
O O16 0.628088 0.250000 0.101800
O O17 0.556315 0.750000 0.596513
#
# Coordination Sequence:
#
# PCOD9450014 Si02
#       6
#     8   8   8   8   8   8
#     4  10  22  39  56  75 104 142 176 207 255 317
#     4   9  18  34  55  78 108 144 176 209 255 309
#     4  10  20  34  54  80 108 137 172 217 267 317
#     4  11  22  36  55  77 104 138 177 220 263 313
#     4  10  21  37  56  77 103 136 174 217 266 319
#     4  10  20  33  53  82 110 137 175 220 259 298
#
# _framework density 17.906714999999998
#
# number of rings (size 3 to 8) (size 9 to 14) (size 15 to 20)
#    0.000    2.000    0.000    3.500    0.000    7.333 
#    0.000    0.833    0.000    3.000    0.000    0.000 
#    0.000    0.000    0.000    0.000    0.000    0.000 
#
# Total GULP energy -268100.748193 kJ/mol
# GULP energy per Si atom -5585.432254 kJ/mol
# Density = 1.786596 g / cm^3
# Si number density = 17.906715 Si / 1000 Ang^3
#
#
#
# Elastic Constant Matrix: (Units=GPa)
#
#
# Indices 1 2 3 4 5 6 
#
# 1 138.1015 44.7317 83.4778 0.0000 0.0000 0.0000
# 2 44.7317 49.6040 43.7382 0.0000 0.0000 0.0000
# 3 83.4778 43.7382 113.8842 0.0000 0.0000 0.0000
# 4 0.0000 0.0000 0.0000 31.3379 0.0000 0.0000
# 5 0.0000 0.0000 0.0000 0.0000 22.7207 0.0000
# 6 0.0000 0.0000 0.0000 0.0000 0.0000 30.0476
#
#
#
# Elastic Compliance Matrix: (Units=1/GPa)
#
#
# Indices 1 2 3 4 5 6 
#
# 1 0.013886 -0.005363 -0.008118 0.000000 0.000000 0.000000
# 2 -0.005363 0.032554 -0.008571 0.000000 0.000000 0.000000
# 3 -0.008118 -0.008571 0.018024 0.000000 0.000000 0.000000
# 4 0.000000 0.000000 0.000000 0.031910 0.000000 0.000000
# 5 0.000000 0.000000 0.000000 0.000000 0.044013 0.000000
# 6 0.000000 0.000000 0.000000 0.000000 0.000000 0.033280
#
#
# Mechanical properties :
#
#
# Convention : Reuss Voigt Hill
#
# Bulk Modulus (GPa) = 49.12297 71.72058 60.42177
# Shear Modulus (GPa) = 22.26599 25.46406 23.86502
#
# Velocity S-wave (km/s) = 3.53007 3.77508 3.65463
# Velocity P-wave (km/s) = 6.64135 7.69032 7.18500
#
# Compressibility (1/GPa) = 0.02035708
#
# Stress axis : x y z
#
# Youngs Moduli (GPa) = 72.01743 30.71835 55.48308
#
# Poissons Ratio (x) = 0.16475 0.45043
# Poissons Ratio (y) = 0.38625 0.47556
# Poissons Ratio (z) = 0.58466 0.26329
#
# Static dielectric constant tensor:
#      x y z
#    x 1.643860 0.000000 0.000000 
#    y 0.000000 1.595000 0.000000 
#    z 0.000000 0.000000 1.566160 
# 
# From -- ./inp_files/25462.got.cif
#   From: 2010.05.17/outbox.cif.g08.bks.cpg/sg59_13_cif.got.tgz:25462.got - 2010.06.03 14:40:33.
