data_PCOD9450318
_publ_section_title
;
Structure prediction by ZEFSAII (Michael W. Deem and Ramdas Pophale) SiO2 
 PCOD9450318
Probable space group: P M M N
;
_chemical_formula_sum "Si O2"
_cell_formula_units_Z 64
_cell_length_a 14.231802
_cell_length_b 25.156619
_cell_length_c 7.960007
_cell_angle_alpha 90.000000
_cell_angle_beta 90.000000
_cell_angle_gamma 90.000000
_cell_volume 2849.873710
_symmetry_space_group_name_H-M "P M M N"
_symmetry_group_IT_number 59
_space_group.IT_coordinate_system_code '2'
_symmetry_cell_setting 'orthorhombic'
loop_
_space_group_symop_operation_xyz
x,y,z
1/2-x,1/2-y,z
1/2+x,-y,-z
-x,1/2+y,-z
-x,-y,-z
1/2+x,1/2+y,-z
1/2-x,y,z
x,1/2-y,z
loop_
_atom_site_type_symbol
_atom_site_label
_atom_site_fract_x
_atom_site_fract_y
_atom_site_fract_z
Si Si1 0.143467 0.967188 0.779700
Si Si2 0.352212 0.689017 0.891812
Si Si3 0.638087 0.585771 0.339408
Si Si4 0.044824 0.191552 0.653532
Si Si5 0.547905 0.578148 0.706927
Si Si6 0.357619 0.973038 0.175181
Si Si7 0.052492 0.191968 0.260441
Si Si8 0.140816 0.641455 0.257909
O O1 0.250000 0.957769 0.717445
O O2 0.121753 0.029753 0.752467
O O3 0.064624 0.929548 0.700436
O O4 0.141553 0.958898 0.979130
O O5 0.250000 0.675161 0.817421
O O6 0.347593 0.750000 0.952151
O O7 0.440443 0.688321 0.769538
O O8 0.366577 0.655058 0.059380
O O9 0.750000 0.592910 0.354244
O O10 0.594291 0.640164 0.264870
O O11 0.591407 0.578540 0.521800
O O12 0.062855 0.250000 0.728347
O O13 0.934057 0.179057 0.654623
O O14 0.074961 0.193175 0.458484
O O15 0.582718 0.525167 0.796476
O O16 0.582031 0.632765 0.796287
O O17 0.250000 0.984979 0.223581
O O18 0.386760 0.920438 0.276229
O O19 0.082993 0.250000 0.190107
O O20 0.250000 0.648459 0.304996
#
# Coordination Sequence:
#
# PCOD9450318 Si02
#       8
#     8   8   8   8   8   8   8   8
#     4  10  21  36  56  83 114 145 179 222 274 333
#     4   9  17  31  51  74 104 143 181 215 256 314
#     4  10  22  39  57  79 107 140 183 233 278 321
#     4  10  21  37  56  79 108 143 184 226 271 321
#     4  11  20  35  58  80 107 143 181 226 275 327
#     4  10  21  36  55  81 111 145 183 222 270 328
#     4   9  20  35  50  73 103 136 176 221 267 316
#     4  10  20  34  53  80 114 146 177 214 261 322
#
# _framework density 22.457136999999999
#
# number of rings (size 3 to 8) (size 9 to 14) (size 15 to 20)
#    0.000    2.125    0.000    3.000    0.000    5.000 
#    0.000    5.625    0.000    1.125    0.000    1.750 
#    0.000    3.000    0.000    0.000    0.000    0.000 
#
# Total GULP energy -357173.737641 kJ/mol
# GULP energy per Si atom -5580.839651 kJ/mol
# Density = 2.240602 g / cm^3
# Si number density = 22.457137 Si / 1000 Ang^3
#
#
#
# Elastic Constant Matrix: (Units=GPa)
#
#
# Indices 1 2 3 4 5 6 
#
# 1 45.4317 41.6494 1.2315 0.0000 0.0000 0.0000
# 2 41.6494 171.7400 5.4385 0.0000 0.0000 0.0000
# 3 1.2315 5.4385 18.1993 0.0000 0.0000 0.0000
# 4 0.0000 0.0000 0.0000 19.7313 0.0000 0.0000
# 5 0.0000 0.0000 0.0000 0.0000 32.7456 0.0000
# 6 0.0000 0.0000 0.0000 0.0000 0.0000 21.7357
#
#
#
# Elastic Compliance Matrix: (Units=1/GPa)
#
#
# Indices 1 2 3 4 5 6 
#
# 1 0.028304 -0.006868 0.000137 0.000000 0.000000 0.000000
# 2 -0.006868 0.007545 -0.001790 0.000000 0.000000 0.000000
# 3 0.000137 -0.001790 0.055473 0.000000 0.000000 0.000000
# 4 0.000000 0.000000 0.000000 0.050681 0.000000 0.000000
# 5 0.000000 0.000000 0.000000 0.000000 0.030538 0.000000
# 6 0.000000 0.000000 0.000000 0.000000 0.000000 0.046007
#
#
# Mechanical properties :
#
#
# Convention : Reuss Voigt Hill
#
# Bulk Modulus (GPa) = 13.46268 36.88998 25.17633
# Shear Modulus (GPa) = 19.20486 27.31261 23.25874
#
# Velocity S-wave (km/s) = 2.92752 3.49120 3.22171
# Velocity P-wave (km/s) = 4.17552 5.71960 5.00744
#
# Compressibility (1/GPa) = 0.07427939
#
# Stress axis : x y z
#
# Youngs Moduli (GPa) = 35.33066 132.53559 18.02690
#
# Poissons Ratio (x) = 0.91032 -0.00247
# Poissons Ratio (y) = 0.24267 0.03227
# Poissons Ratio (z) = -0.00485 0.23723
#
# Static dielectric constant tensor:
#      x y z
#    x 1.866550 0.000000 0.000000 
#    y 0.000000 1.899640 0.000000 
#    z 0.000000 0.000000 1.798310 
# 
# From -- ./inp_files/9565.got.cif
#   From: 2010.05.17/outbox.cif.g08.bks.cpg/sg59_5_cif.got.tgz:9565.got - 2010.06.03 14:40:33.
