data_PCOD9450768
_publ_section_title
;
Structure prediction by ZEFSAII (Michael W. Deem and Ramdas Pophale) SiO2 
 PCOD9450768
Probable space group: P M M N
;
_chemical_formula_sum "Si O2"
_cell_formula_units_Z 64
_cell_length_a 21.950663
_cell_length_b 8.063344
_cell_length_c 17.384655
_cell_angle_alpha 90.000000
_cell_angle_beta 90.000000
_cell_angle_gamma 90.000000
_cell_volume 3077.009995
_symmetry_space_group_name_H-M "P M M N"
_symmetry_group_IT_number 59
_space_group.IT_coordinate_system_code '2'
_symmetry_cell_setting 'orthorhombic'
loop_
_space_group_symop_operation_xyz
x,y,z
1/2-x,1/2-y,z
1/2+x,-y,-z
-x,1/2+y,-z
-x,-y,-z
1/2+x,1/2+y,-z
1/2-x,y,z
x,1/2-y,z
loop_
_atom_site_type_symbol
_atom_site_label
_atom_site_fract_x
_atom_site_fract_y
_atom_site_fract_z
Si Si1 0.145694 0.547010 0.355934
Si Si2 0.437280 0.448056 0.090830
Si Si3 0.013999 0.946827 0.411725
Si Si4 0.685433 0.451358 0.481139
Si Si5 0.106499 0.950540 0.655914
Si Si6 0.179976 0.949514 0.805202
Si Si7 0.570421 0.947839 0.085308
Si Si8 0.681945 0.049495 0.813615
O O1 0.146900 0.750000 0.353115
O O2 0.077778 0.491117 0.377631
O O3 0.182349 0.494114 0.431322
O O4 0.170507 0.491375 0.274082
O O5 0.439620 0.250000 0.089013
O O6 0.503977 0.506173 0.120182
O O7 0.377122 0.498466 0.137510
O O8 0.430585 0.511517 0.002835
O O9 0.018509 0.750000 0.415590
O O10 0.000000 0.000000 0.500000
O O11 0.962812 0.996146 0.350218
O O12 0.750000 0.494256 0.445374
O O13 0.680871 0.250000 0.482948
O O14 0.633598 0.512163 0.425095
O O15 0.108448 0.750000 0.657098
O O16 0.147924 0.009985 0.726260
O O17 0.250000 0.010128 0.815722
O O18 0.183904 0.750000 0.800201
O O19 0.130205 0.989463 0.870553
O O20 0.574015 0.750000 0.084003
O O21 0.750000 0.994013 0.839378
O O22 0.683007 0.250000 0.813735
#
# Coordination Sequence:
#
# PCOD9450768 Si02
#       8
#     8   8   8   8   8   8   8   8
#     4   9  18  32  51  79 110 142 187 238 283 335
#     4  10  22  41  64  90 119 154 195 240 293 352
#     4  11  21  35  54  79 109 146 193 245 298 350
#     4   9  15  27  51  76 100 138 185 229 272 321
#     4  10  20  35  54  81 113 147 189 237 288 343
#     4  10  22  39  60  90 125 157 195 244 297 355
#     4  10  22  41  65  90 118 154 197 241 289 351
#     4  10  21  37  59  89 121 153 194 243 294 350
#
# _framework density 20.799410999999999
#
# number of rings (size 3 to 8) (size 9 to 14) (size 15 to 20)
#    0.000    2.125    1.250    1.875    1.750    6.000 
#    0.000    3.125    0.000    1.125    0.000    0.000 
#    0.000    0.000    0.000    0.000    0.000    0.000 
#
# Total GULP energy -356896.478228 kJ/mol
# GULP energy per Si atom -5576.507472 kJ/mol
# Density = 2.075207 g / cm^3
# Si number density = 20.799411 Si / 1000 Ang^3
#
#
#
# Elastic Constant Matrix: (Units=GPa)
#
#
# Indices 1 2 3 4 5 6 
#
# 1 182.6452 12.2362 53.6816 0.0000 0.0000 0.0000
# 2 12.2362 19.1826 5.9707 0.0000 0.0000 0.0000
# 3 53.6816 5.9707 71.2070 0.0000 0.0000 0.0000
# 4 0.0000 0.0000 0.0000 17.3737 0.0000 0.0000
# 5 0.0000 0.0000 0.0000 0.0000 28.4280 0.0000
# 6 0.0000 0.0000 0.0000 0.0000 0.0000 26.3653
#
#
#
# Elastic Compliance Matrix: (Units=1/GPa)
#
#
# Indices 1 2 3 4 5 6 
#
# 1 0.007196 -0.002979 -0.005175 0.000000 0.000000 0.000000
# 2 -0.002979 0.054761 -0.002346 0.000000 0.000000 0.000000
# 3 -0.005175 -0.002346 0.018141 0.000000 0.000000 0.000000
# 4 0.000000 0.000000 0.000000 0.057558 0.000000 0.000000
# 5 0.000000 0.000000 0.000000 0.000000 0.035177 0.000000
# 6 0.000000 0.000000 0.000000 0.000000 0.000000 0.037929
#
#
# Mechanical properties :
#
#
# Convention : Reuss Voigt Hill
#
# Bulk Modulus (GPa) = 16.92088 46.31243 31.61665
# Shear Modulus (GPa) = 19.88382 27.84316 23.86349
#
# Velocity S-wave (km/s) = 3.09525 3.66273 3.39088
# Velocity P-wave (km/s) = 4.57460 6.34050 5.52852
#
# Compressibility (1/GPa) = 0.05909858
#
# Stress axis : x y z
#
# Youngs Moduli (GPa) = 138.97318 18.26113 55.12238
#
# Poissons Ratio (x) = 0.05440 0.28525
# Poissons Ratio (y) = 0.41404 0.12930
# Poissons Ratio (z) = 0.71916 0.04284
#
# Static dielectric constant tensor:
#      x y z
#    x 1.758490 0.000000 0.000000 
#    y 0.000000 1.748420 0.000000 
#    z 0.000000 0.000000 1.755350 
# 
# From -- ./inp_files/28295.got.cif
#   From: 2010.05.17/outbox.cif.g08.bks.cpg/sg59_15_cif.got.tgz:28295.got - 2010.06.03 14:40:33.
