data_PCOD9450350
_publ_section_title
;
Structure prediction by ZEFSAII (Michael W. Deem and Ramdas Pophale) SiO2 
 PCOD9450350
Probable space group: P M M N
;
_chemical_formula_sum "Si O2"
_cell_formula_units_Z 64
_cell_length_a 8.737198
_cell_length_b 17.805840
_cell_length_c 22.101660
_cell_angle_alpha 90.000000
_cell_angle_beta 90.000000
_cell_angle_gamma 90.000000
_cell_volume 3438.424858
_symmetry_space_group_name_H-M "P M M N"
_symmetry_group_IT_number 59
_space_group.IT_coordinate_system_code '2'
_symmetry_cell_setting 'orthorhombic'
loop_
_space_group_symop_operation_xyz
x,y,z
1/2-x,1/2-y,z
1/2+x,-y,-z
-x,1/2+y,-z
-x,-y,-z
1/2+x,1/2+y,-z
1/2-x,y,z
x,1/2-y,z
loop_
_atom_site_type_symbol
_atom_site_label
_atom_site_fract_x
_atom_site_fract_y
_atom_site_fract_z
Si Si1 0.935464 0.832119 0.624449
Si Si2 0.067445 0.066911 0.910299
Si Si3 0.572402 0.593083 0.748162
Si Si4 0.570273 0.430574 0.685507
Si Si5 0.564348 0.337529 0.798794
Si Si6 0.436487 0.011403 0.433336
Si Si7 0.924400 0.167120 0.144594
Si Si8 0.428824 0.088851 0.044520
O O1 0.750000 0.831282 0.619954
O O2 0.992980 0.750000 0.606112
O O3 0.968958 0.850014 0.694356
O O4 0.986388 0.905237 0.587869
O O5 0.250000 0.068782 0.902263
O O6 0.993034 0.108966 0.853261
O O7 0.025378 0.104057 0.975264
O O8 0.014875 0.981677 0.924510
O O9 0.750000 0.605511 0.765536
O O10 0.561499 0.509935 0.720926
O O11 0.466969 0.607088 0.804891
O O12 0.750000 0.412408 0.676989
O O13 0.508816 0.369433 0.733261
O O14 0.510555 0.451185 0.618127
O O15 0.750000 0.341501 0.798567
O O16 0.520497 0.250000 0.807156
O O17 0.250000 0.009656 0.433343
O O18 0.500000 0.000000 0.500000
O O19 0.750000 0.158270 0.124443
O O20 0.943113 0.250000 0.171541
O O21 0.033778 0.157317 0.087762
O O22 0.250000 0.070055 0.044108
#
# Coordination Sequence:
#
# PCOD9450350 Si02
#       8
#     8   8   8   8   8   8   8   8
#     4   8  14  26  46  71  96 125 165 209 249 293
#     4  10  21  37  57  79 102 128 163 216 275 318
#     4   9  16  29  52  74  92 124 169 210 248 299
#     4   8  16  32  52  74  99 128 165 207 248 294
#     4  10  20  34  54  78 104 139 181 219 257 308
#     4   9  17  31  51  73 100 133 167 205 248 298
#     4  11  23  34  45  69 106 139 165 202 253 300
#     4  10  21  37  56  75  97 131 174 213 254 316
#
# _framework density 18.613173
#
# number of rings (size 3 to 8) (size 9 to 14) (size 15 to 20)
#    0.000    2.625    0.000    3.750    0.000    4.750 
#    0.000    6.250    0.000    1.875    0.000    0.000 
#    0.000    0.000    0.000    0.000    0.000    0.000 
#
# Total GULP energy -356473.244085 kJ/mol
# GULP energy per Si atom -5569.894439 kJ/mol
# Density = 1.857081 g / cm^3
# Si number density = 18.613173 Si / 1000 Ang^3
#
#
#
# Elastic Constant Matrix: (Units=GPa)
#
#
# Indices 1 2 3 4 5 6 
#
# 1 14.2694 12.6670 22.7237 0.0000 0.0000 0.0000
# 2 12.6670 54.3621 44.0854 0.0000 0.0000 0.0000
# 3 22.7237 44.0854 124.7221 0.0000 0.0000 0.0000
# 4 0.0000 0.0000 0.0000 14.4280 0.0000 0.0000
# 5 0.0000 0.0000 0.0000 0.0000 27.2079 0.0000
# 6 0.0000 0.0000 0.0000 0.0000 0.0000 14.2567
#
#
#
# Elastic Compliance Matrix: (Units=1/GPa)
#
#
# Indices 1 2 3 4 5 6 
#
# 1 0.104435 -0.012482 -0.014616 0.000000 0.000000 0.000000
# 2 -0.012482 0.027279 -0.007368 0.000000 0.000000 0.000000
# 3 -0.014616 -0.007368 0.013285 0.000000 0.000000 0.000000
# 4 0.000000 0.000000 0.000000 0.069310 0.000000 0.000000
# 5 0.000000 0.000000 0.000000 0.000000 0.036754 0.000000
# 6 0.000000 0.000000 0.000000 0.000000 0.000000 0.070142
#
#
# Mechanical properties :
#
#
# Convention : Reuss Voigt Hill
#
# Bulk Modulus (GPa) = 13.14613 39.14507 26.14560
# Shear Modulus (GPa) = 12.03392 18.77036 15.40214
#
# Velocity S-wave (km/s) = 2.54545 3.17905 2.87973
# Velocity P-wave (km/s) = 3.96449 5.87806 5.01342
#
# Compressibility (1/GPa) = 0.07606800
#
# Stress axis : x y z
#
# Youngs Moduli (GPa) = 9.57531 36.65850 75.27245
#
# Poissons Ratio (x) = 0.45757 1.10015
# Poissons Ratio (y) = 0.11952 0.55461
# Poissons Ratio (z) = 0.13995 0.27010
#
# Static dielectric constant tensor:
#      x y z
#    x 1.641720 0.000000 0.000000 
#    y 0.000000 1.683790 0.000000 
#    z 0.000000 0.000000 1.656690 
# 
# From -- ./inp_files/29617.got.cif
#   From: 2010.05.17/outbox.cif.g08.bks.cpg/sg59_15_cif.got.tgz:29617.got - 2010.06.03 14:40:33.
