data_PCOD9450880
_publ_section_title
;
Structure prediction by ZEFSAII (Michael W. Deem and Ramdas Pophale) SiO2 
 PCOD9450880
Probable space group: P M M N
;
_chemical_formula_sum "Si O2"
_cell_formula_units_Z 64
_cell_length_a 7.948126
_cell_length_b 25.505899
_cell_length_c 14.364334
_cell_angle_alpha 90.000000
_cell_angle_beta 90.000000
_cell_angle_gamma 90.000000
_cell_volume 2911.996668
_symmetry_space_group_name_H-M "P M M N"
_symmetry_group_IT_number 59
_space_group.IT_coordinate_system_code '2'
_symmetry_cell_setting 'orthorhombic'
loop_
_space_group_symop_operation_xyz
x,y,z
1/2-x,1/2-y,z
1/2+x,-y,-z
-x,1/2+y,-z
-x,-y,-z
1/2+x,1/2+y,-z
1/2-x,y,z
x,1/2-y,z
loop_
_atom_site_type_symbol
_atom_site_label
_atom_site_fract_x
_atom_site_fract_y
_atom_site_fract_z
Si Si1 0.044463 0.601406 0.889627
Si Si2 0.947840 0.192272 0.977221
Si Si3 0.445310 0.191028 0.484028
Si Si4 0.447276 0.013454 0.365653
Si Si5 0.553102 0.877114 0.174615
Si Si6 0.445689 0.874729 0.677639
Si Si7 0.552426 0.400927 0.617608
Si Si8 0.955251 0.509787 0.151915
O O1 0.250000 0.600722 0.892841
O O2 0.996767 0.616306 0.783579
O O3 0.990214 0.541117 0.906174
O O4 0.980088 0.645930 0.958637
O O5 0.750000 0.195322 0.999487
O O6 0.021531 0.250000 0.990555
O O7 0.964986 0.172153 0.871847
O O8 0.250000 0.191951 0.510737
O O9 0.513792 0.250000 0.494308
O O10 0.460781 0.170175 0.378804
O O11 0.529605 0.146081 0.545898
O O12 0.250000 0.021399 0.384820
O O13 0.511137 0.959218 0.412627
O O14 0.476448 0.000285 0.256113
O O15 0.536123 0.069418 0.375480
O O16 0.750000 0.871996 0.155420
O O17 0.528722 0.883945 0.284612
O O18 0.488538 0.931536 0.128124
O O19 0.250000 0.860833 0.680178
O O20 0.750000 0.408601 0.635230
O O21 0.750000 0.510365 0.156873
#
# Coordination Sequence:
#
# PCOD9450880 Si02
#       8
#     8   8   8   8   8   8   8   8
#     4   8  16  33  56  80 107 140 179 223 268 316
#     4  10  21  36  53  75 105 143 187 228 265 315
#     4  11  25  42  58  80 111 146 186 232 279 326
#     4   9  17  31  54  85 116 142 174 219 272 329
#     4  10  20  35  56  81 110 142 176 222 278 328
#     4  10  20  36  60  86 113 147 184 225 274 329
#     4  10  21  38  61  86 111 144 184 225 272 328
#     4   8  15  30  52  78 107 139 176 218 270 330
#
# _framework density 21.978048999999999
#
# number of rings (size 3 to 8) (size 9 to 14) (size 15 to 20)
#    0.000    2.500    0.000    2.625    0.000    5.250 
#    0.000    4.375    0.000    0.000    0.000    0.000 
#    0.000    0.000    0.000    0.000    0.000    0.000 
#
# Total GULP energy -357162.305851 kJ/mol
# GULP energy per Si atom -5580.661029 kJ/mol
# Density = 2.192803 g / cm^3
# Si number density = 21.978049 Si / 1000 Ang^3
#
#
#
# Elastic Constant Matrix: (Units=GPa)
#
#
# Indices 1 2 3 4 5 6 
#
# 1 32.4366 4.3627 -9.1852 0.0000 0.0000 0.0000
# 2 4.3627 144.6318 30.5610 0.0000 0.0000 0.0000
# 3 -9.1852 30.5610 51.5390 0.0000 0.0000 0.0000
# 4 0.0000 0.0000 0.0000 24.1381 0.0000 0.0000
# 5 0.0000 0.0000 0.0000 0.0000 16.5245 0.0000
# 6 0.0000 0.0000 0.0000 0.0000 0.0000 20.0611
#
#
#
# Elastic Compliance Matrix: (Units=1/GPa)
#
#
# Indices 1 2 3 4 5 6 
#
# 1 0.033290 -0.002581 0.007463 0.000000 0.000000 0.000000
# 2 -0.002581 0.008105 -0.005266 0.000000 0.000000 0.000000
# 3 0.007463 -0.005266 0.023855 0.000000 0.000000 0.000000
# 4 0.000000 0.000000 0.000000 0.041428 0.000000 0.000000
# 5 0.000000 0.000000 0.000000 0.000000 0.060516 0.000000
# 6 0.000000 0.000000 0.000000 0.000000 0.000000 0.049848
#
#
# Mechanical properties :
#
#
# Convention : Reuss Voigt Hill
#
# Bulk Modulus (GPa) = 15.50801 31.12051 23.31426
# Shear Modulus (GPa) = 20.89395 25.66933 23.28164
#
# Velocity S-wave (km/s) = 3.08664 3.42124 3.25824
# Velocity P-wave (km/s) = 4.44687 5.45867 4.97854
#
# Compressibility (1/GPa) = 0.06448282
#
# Stress axis : x y z
#
# Youngs Moduli (GPa) = 30.03909 123.38596 41.91927
#
# Poissons Ratio (x) = 0.31849 -0.31286
# Poissons Ratio (y) = 0.07754 0.22074
# Poissons Ratio (z) = -0.22420 0.64973
#
# Static dielectric constant tensor:
#      x y z
#    x 1.771570 0.000000 0.000000 
#    y 0.000000 1.838070 0.000000 
#    z 0.000000 0.000000 1.824510 
# 
# From -- ./inp_files/21539.got.cif
#   From: 2010.05.17/outbox.cif.g08.bks.cpg/sg59_11_cif.got.tgz:21539.got - 2010.06.03 14:40:33.
