data_PCOD9450990
_publ_section_title
;
Structure prediction by ZEFSAII (Michael W. Deem and Ramdas Pophale) SiO2 
 PCOD9450990
Probable space group: P M M N
;
_chemical_formula_sum "Si O2"
_cell_formula_units_Z 48
_cell_length_a 8.619863
_cell_length_b 9.303187
_cell_length_c 31.789864
_cell_angle_alpha 90.000000
_cell_angle_beta 90.000000
_cell_angle_gamma 90.000000
_cell_volume 2549.299049
_symmetry_space_group_name_H-M "P M M N"
_symmetry_group_IT_number 59
_space_group.IT_coordinate_system_code '2'
_symmetry_cell_setting 'orthorhombic'
loop_
_space_group_symop_operation_xyz
x,y,z
1/2-x,1/2-y,z
1/2+x,-y,-z
-x,1/2+y,-z
-x,-y,-z
1/2+x,1/2+y,-z
1/2-x,y,z
x,1/2-y,z
loop_
_atom_site_type_symbol
_atom_site_label
_atom_site_fract_x
_atom_site_fract_y
_atom_site_fract_z
Si Si1 0.435466 0.582054 0.120234
Si Si2 0.062074 0.417168 0.621734
Si Si3 0.062954 0.081950 0.789108
Si Si4 0.435839 0.915855 0.959802
Si Si5 0.563813 0.917299 0.540616
Si Si6 0.939275 0.084746 0.294282
O O1 0.250000 0.574160 0.118262
O O2 0.481476 0.750000 0.115131
O O3 0.492536 0.535645 0.166370
O O4 0.506859 0.489883 0.082876
O O5 0.250000 0.421760 0.619951
O O6 0.015412 0.250000 0.620447
O O7 0.012705 0.492351 0.665261
O O8 0.996644 0.504061 0.582306
O O9 0.250000 0.073019 0.791976
O O10 0.022769 0.250000 0.782288
O O11 0.011108 0.988482 0.749329
O O12 0.250000 0.919650 0.961046
O O13 0.486810 0.750000 0.961315
O O14 0.500000 0.000000 0.000000
O O15 0.750000 0.921534 0.539814
O O16 0.514737 0.750000 0.540152
O O17 0.500000 0.000000 0.500000
O O18 0.750000 0.084023 0.294045
O O19 0.989729 0.250000 0.297561
#
# Coordination Sequence:
#
# PCOD9450990 Si02
#       6
#     8   8   8   8   8   8
#     4  10  21  37  57  82 112 146 185 227 272 324
#     4  10  20  35  57  84 112 144 184 227 272 325
#     4   9  17  31  52  77 106 142 183 226 272 322
#     4  11  24  40  59  84 112 143 181 224 271 325
#     4  11  24  40  58  82 111 143 181 224 271 325
#     4   9  17  30  51  79 109 142 182 228 275 322
#
# _framework density 18.828707000000001
#
# number of rings (size 3 to 8) (size 9 to 14) (size 15 to 20)
#    0.000    2.000    0.000    3.500    0.000   11.333 
#    0.000    2.500    0.000    3.000    0.000    0.000 
#    0.000    0.000    0.000    0.000    0.000    0.000 
#
# Total GULP energy -268181.950235 kJ/mol
# GULP energy per Si atom -5587.123963 kJ/mol
# Density = 1.878585 g / cm^3
# Si number density = 18.828707 Si / 1000 Ang^3
#
#
#
# Elastic Constant Matrix: (Units=GPa)
#
#
# Indices 1 2 3 4 5 6 
#
# 1 20.9626 40.1749 39.7716 0.0000 0.0000 0.0000
# 2 40.1749 177.1045 134.2224 0.0000 0.0000 0.0000
# 3 39.7716 134.2224 213.9116 0.0000 0.0000 0.0000
# 4 0.0000 0.0000 0.0000 42.9235 0.0000 0.0000
# 5 0.0000 0.0000 0.0000 0.0000 31.7638 0.0000
# 6 0.0000 0.0000 0.0000 0.0000 0.0000 22.5521
#
#
#
# Elastic Compliance Matrix: (Units=1/GPa)
#
#
# Indices 1 2 3 4 5 6 
#
# 1 0.090300 -0.014796 -0.007505 0.000000 0.000000 0.000000
# 2 -0.014796 0.013190 -0.005526 0.000000 0.000000 0.000000
# 3 -0.007505 -0.005526 0.009537 0.000000 0.000000 0.000000
# 4 0.000000 0.000000 0.000000 0.023297 0.000000 0.000000
# 5 0.000000 0.000000 0.000000 0.000000 0.031482 0.000000
# 6 0.000000 0.000000 0.000000 0.000000 0.000000 0.044342
#
#
# Mechanical properties :
#
#
# Convention : Reuss Voigt Hill
#
# Bulk Modulus (GPa) = 17.42945 93.36850 55.39898
# Shear Modulus (GPa) = 17.42606 32.63521 25.03063
#
# Velocity S-wave (km/s) = 3.04551 4.16777 3.65003
# Velocity P-wave (km/s) = 4.65229 8.53560 6.87387
#
# Compressibility (1/GPa) = 0.05737414
#
# Stress axis : x y z
#
# Youngs Moduli (GPa) = 11.07426 75.81240 104.85107
#
# Poissons Ratio (x) = 1.12172 0.78690
# Poissons Ratio (y) = 0.16385 0.57937
# Poissons Ratio (z) = 0.08311 0.41891
#
# Static dielectric constant tensor:
#      x y z
#    x 1.643900 0.000000 0.000000 
#    y 0.000000 1.640930 0.000000 
#    z 0.000000 0.000000 1.611800 
# 
# From -- ./inp_files/32897.got.cif
#   From: 2010.05.17/outbox.cif.g08.bks.cpg/sg59_17_cif.got.tgz:32897.got - 2010.06.03 14:40:33.
