data_PCOD9450555
_publ_section_title
;
Structure prediction by ZEFSAII (Michael W. Deem and Ramdas Pophale) SiO2 
 PCOD9450555
Probable space group: P M M N
;
_chemical_formula_sum "Si O2"
_cell_formula_units_Z 40
_cell_length_a 15.818679
_cell_length_b 8.941022
_cell_length_c 14.920472
_cell_angle_alpha 90.000000
_cell_angle_beta 90.000000
_cell_angle_gamma 90.000000
_cell_volume 2110.279299
_symmetry_space_group_name_H-M "P M M N"
_symmetry_group_IT_number 59
_space_group.IT_coordinate_system_code '2'
_symmetry_cell_setting 'orthorhombic'
loop_
_space_group_symop_operation_xyz
x,y,z
1/2-x,1/2-y,z
1/2+x,-y,-z
-x,1/2+y,-z
-x,-y,-z
1/2+x,1/2+y,-z
1/2-x,y,z
x,1/2-y,z
loop_
_atom_site_type_symbol
_atom_site_label
_atom_site_fract_x
_atom_site_fract_y
_atom_site_fract_z
Si Si1 0.148668 0.072933 0.084218
Si Si2 0.352407 0.577014 0.898711
Si Si3 0.250000 0.067792 0.598578
Si Si4 0.913689 0.930605 0.720285
Si Si5 0.250000 0.432307 0.392888
Si Si6 0.410161 0.428851 0.716645
O O1 0.250000 0.052543 0.096402
O O2 0.134638 0.250000 0.070202
O O3 0.103903 0.026991 0.176167
O O4 0.121684 0.984566 0.995836
O O5 0.250000 0.566713 0.894714
O O6 0.377025 0.750000 0.888681
O O7 0.389293 0.483134 0.817000
O O8 0.250000 0.250000 0.598205
O O9 0.250000 0.017644 0.495763
O O10 0.166596 0.020826 0.652643
O O11 0.918593 0.750000 0.717404
O O12 0.833918 0.978290 0.660465
O O13 0.000935 0.001076 0.688794
O O14 0.250000 0.250000 0.392637
O O15 0.414495 0.250000 0.714382
#
# Coordination Sequence:
#
# PCOD9450555 Si02
#       6
#     8   8   4   8   4   8
#     4   9  17  32  55  82 112 148 187 225 275 338
#     4  10  20  34  55  83 113 148 190 234 278 326
#     4   9  20  38  60  83 110 148 191 231 282 343
#     4  10  20  36  60  88 114 146 188 233 280 335
#     4   9  18  38  64  85 110 146 187 233 286 341
#     4  11  22  37  57  83 116 154 190 230 279 334
#
# _framework density 18.954836
#
# number of rings (size 3 to 8) (size 9 to 14) (size 15 to 20)
#    0.000    2.200    2.000    1.200    0.000    3.200 
#    0.000    0.500    0.000    3.600    0.000    0.000 
#    0.000    0.000    0.000    0.000    0.000    0.000 
#
# Total GULP energy -223401.959343 kJ/mol
# GULP energy per Si atom -5585.048984 kJ/mol
# Density = 1.891169 g / cm^3
# Si number density = 18.954836 Si / 1000 Ang^3
#
#
#
# Elastic Constant Matrix: (Units=GPa)
#
#
# Indices 1 2 3 4 5 6 
#
# 1 138.5201 37.5663 84.9214 0.0000 0.0000 0.0000
# 2 37.5663 28.3835 31.6567 0.0000 0.0000 0.0000
# 3 84.9214 31.6567 141.5430 0.0000 0.0000 0.0000
# 4 0.0000 0.0000 0.0000 9.5372 0.0000 0.0000
# 5 0.0000 0.0000 0.0000 0.0000 -2.4827 0.0000
# 6 0.0000 0.0000 0.0000 0.0000 0.0000 27.6127
#
#
#
# Elastic Compliance Matrix: (Units=1/GPa)
#
#
# Indices 1 2 3 4 5 6 
#
# 1 0.014010 -0.012215 -0.005674 0.000000 0.000000 0.000000
# 2 -0.012215 0.057590 -0.005552 0.000000 0.000000 0.000000
# 3 -0.005674 -0.005552 0.011711 0.000000 0.000000 0.000000
# 4 0.000000 0.000000 0.000000 0.104852 0.000000 0.000000
# 5 0.000000 0.000000 0.000000 0.000000 -0.402790 0.000000
# 6 0.000000 0.000000 0.000000 0.000000 0.000000 0.036215
#
#
# Mechanical properties :
#
#
# Convention : Reuss Voigt Hill
#
# Bulk Modulus (GPa) = 27.44949 68.52617 47.98783
# Shear Modulus (GPa) = -41.88042 17.22027 -12.33007
#
# Velocity S-wave (km/s) = -4.70561 3.01739 -2.55325
# Velocity P-wave (km/s) = 3.87438 6.95488 4.08409
#
# Compressibility (1/GPa) = 0.03643055
#
# Stress axis : x y z
#
# Youngs Moduli (GPa) = 71.37683 17.36401 85.39141
#
# Poissons Ratio (x) = 0.21210 0.48449
# Poissons Ratio (y) = 0.87185 0.47408
# Poissons Ratio (z) = 0.40498 0.09640
#
# Static dielectric constant tensor:
#      x y z
#    x 1.667930 0.000000 0.000000 
#    y 0.000000 1.634090 0.000000 
#    z 0.000000 0.000000 1.631320 
# 
# From -- ./inp_files/19903.got.cif
#   From: 2010.05.17/outbox.cif.g08.bks.cpg/sg59_10_cif.got.tgz:19903.got - 2010.06.03 14:40:33.
