data_PCOD9450619
_publ_section_title
;
Structure prediction by ZEFSAII (Michael W. Deem and Ramdas Pophale) SiO2 
 PCOD9450619
Probable space group: P M M N
;
_chemical_formula_sum "Si O2"
_cell_formula_units_Z 40
_cell_length_a 8.652393
_cell_length_b 18.892897
_cell_length_c 13.071142
_cell_angle_alpha 90.000000
_cell_angle_beta 90.000000
_cell_angle_gamma 90.000000
_cell_volume 2136.723502
_symmetry_space_group_name_H-M "P M M N"
_symmetry_group_IT_number 59
_space_group.IT_coordinate_system_code '2'
_symmetry_cell_setting 'orthorhombic'
loop_
_space_group_symop_operation_xyz
x,y,z
1/2-x,1/2-y,z
1/2+x,-y,-z
-x,1/2+y,-z
-x,-y,-z
1/2+x,1/2+y,-z
1/2-x,y,z
x,1/2-y,z
loop_
_atom_site_type_symbol
_atom_site_label
_atom_site_fract_x
_atom_site_fract_y
_atom_site_fract_z
Si Si1 0.563015 0.331884 0.311204
Si Si2 0.563534 0.425100 0.118345
Si Si3 0.065156 0.919027 0.115564
Si Si4 0.436490 0.331065 0.699239
Si Si5 0.564367 0.579289 0.498715
O O1 0.750000 0.334140 0.317783
O O2 0.514571 0.250000 0.316165
O O3 0.518439 0.368522 0.203980
O O4 0.494206 0.376997 0.403774
O O5 0.750000 0.431778 0.120142
O O6 0.493152 0.501984 0.141470
O O7 0.518137 0.405052 0.002417
O O8 0.250000 0.917282 0.120881
O O9 0.996619 0.864154 0.195741
O O10 0.250000 0.331695 0.700871
O O11 0.487818 0.250000 0.685826
O O12 0.486483 0.379587 0.603983
O O13 0.500000 0.500000 0.500000
O O14 0.750000 0.576757 0.499655
#
# Coordination Sequence:
#
# PCOD9450619 Si02
#       5
#     8   8   8   8   8
#     4  10  21  37  57  81 110 144 181 222 271 326
#     4   9  19  36  56  79 111 148 181 218 269 324
#     4  10  20  34  56  84 110 140 183 230 267 309
#     4  10  22  39  56  76 108 147 180 216 270 329
#     4  11  23  39  59  82 109 142 182 226 272 323
#
# _framework density 18.720251999999999
#
# number of rings (size 3 to 8) (size 9 to 14) (size 15 to 20)
#    0.000    2.000    0.000    3.000    0.000   10.400 
#    0.000    2.000    0.000    0.000    0.000    0.000 
#    0.000    0.000    0.000    0.000    0.000    0.000 
#
# Total GULP energy -223458.772083 kJ/mol
# GULP energy per Si atom -5586.469302 kJ/mol
# Density = 1.867764 g / cm^3
# Si number density = 18.720252 Si / 1000 Ang^3
#
#
#
# Elastic Constant Matrix: (Units=GPa)
#
#
# Indices 1 2 3 4 5 6 
#
# 1 14.4461 35.9453 28.9798 0.0000 0.0000 0.0000
# 2 35.9453 182.8227 109.0315 0.0000 0.0000 0.0000
# 3 28.9798 109.0315 123.1578 0.0000 0.0000 0.0000
# 4 0.0000 0.0000 0.0000 -5.3911 0.0000 0.0000
# 5 0.0000 0.0000 0.0000 0.0000 33.4158 0.0000
# 6 0.0000 0.0000 0.0000 0.0000 0.0000 29.2157
#
#
#
# Elastic Compliance Matrix: (Units=1/GPa)
#
#
# Indices 1 2 3 4 5 6 
#
# 1 0.156248 -0.018630 -0.020273 0.000000 0.000000 0.000000
# 2 -0.018630 0.013809 -0.007842 0.000000 0.000000 0.000000
# 3 -0.020273 -0.007842 0.019832 0.000000 0.000000 0.000000
# 4 0.000000 0.000000 0.000000 -0.185491 0.000000 0.000000
# 5 0.000000 0.000000 0.000000 0.000000 0.029926 0.000000
# 6 0.000000 0.000000 0.000000 0.000000 0.000000 0.034228
#
#
# Mechanical properties :
#
#
# Convention : Reuss Voigt Hill
#
# Bulk Modulus (GPa) = 10.37339 74.25998 42.31669
# Shear Modulus (GPa) = 25.74989 21.21274 23.48132
#
# Velocity S-wave (km/s) = 3.71281 3.36987 3.54549
# Velocity P-wave (km/s) = 4.89216 7.40917 6.27810
#
# Compressibility (1/GPa) = 0.09640051
#
# Stress axis : x y z
#
# Youngs Moduli (GPa) = 6.40006 72.41554 50.42323
#
# Poissons Ratio (x) = 1.34910 1.02223
# Poissons Ratio (y) = 0.11923 0.39539
# Poissons Ratio (z) = 0.12975 0.56785
#
# Static dielectric constant tensor:
#      x y z
#    x 1.640150 0.000000 0.000000 
#    y 0.000000 1.614670 0.000000 
#    z 0.000000 0.000000 1.639310 
# 
# From -- ./inp_files/13845.got.cif
#   From: 2010.05.17/outbox.cif.g08.bks.cpg/sg59_7_cif.got.tgz:13845.got - 2010.06.03 14:40:33.
