data_PCOD9450200
_publ_section_title
;
Structure prediction by ZEFSAII (Michael W. Deem and Ramdas Pophale) SiO2 
 PCOD9450200
Probable space group: P M M N
;
_chemical_formula_sum "Si O2"
_cell_formula_units_Z 48
_cell_length_a 9.354325
_cell_length_b 8.424233
_cell_length_c 32.308423
_cell_angle_alpha 90.000000
_cell_angle_beta 90.000000
_cell_angle_gamma 90.000000
_cell_volume 2546.001089
_symmetry_space_group_name_H-M "P M M N"
_symmetry_group_IT_number 59
_space_group.IT_coordinate_system_code '2'
_symmetry_cell_setting 'orthorhombic'
loop_
_space_group_symop_operation_xyz
x,y,z
1/2-x,1/2-y,z
1/2+x,-y,-z
-x,1/2+y,-z
-x,-y,-z
1/2+x,1/2+y,-z
1/2-x,y,z
x,1/2-y,z
loop_
_atom_site_type_symbol
_atom_site_label
_atom_site_fract_x
_atom_site_fract_y
_atom_site_fract_z
Si Si1 0.085951 0.440163 0.460204
Si Si2 0.085972 0.559655 0.797960
Si Si3 0.914338 0.944168 0.878210
Si Si4 0.916149 0.557610 0.380757
Si Si5 0.414730 0.557991 0.960008
Si Si6 0.076333 0.434464 0.709920
O O1 0.250000 0.496158 0.461940
O O2 0.085691 0.250000 0.460766
O O3 0.000000 0.500000 0.500000
O O4 0.010263 0.498125 0.418431
O O5 0.250000 0.500264 0.802042
O O6 0.091642 0.750000 0.800803
O O7 0.030757 0.517242 0.752221
O O8 0.989032 0.501968 0.835742
O O9 0.750000 0.995480 0.881112
O O10 0.914555 0.750000 0.877908
O O11 0.005320 0.994157 0.918134
O O12 0.750000 0.509152 0.386422
O O13 0.917656 0.750000 0.380003
O O14 0.968375 0.502699 0.335213
O O15 0.250000 0.504279 0.960782
O O16 0.414540 0.750000 0.960076
O O17 0.500000 0.500000 0.000000
O O18 0.250000 0.442408 0.708878
O O19 0.035917 0.250000 0.712707
#
# Coordination Sequence:
#
# PCOD9450200 Si02
#       6
#     8   8   8   8   8   8
#     4  11  24  39  55  78 106 135 170 211 254 302
#     4   9  16  27  46  71  95 122 162 206 242 284
#     4   9  17  30  48  69  95 129 166 204 249 298
#     4   9  18  34  56  80 105 135 172 211 251 299
#     4  10  20  34  53  76 101 130 166 208 253 303
#     4   8  15  29  49  73 101 131 162 199 245 295
#
# _framework density 18.853093000000001
#
# number of rings (size 3 to 8) (size 9 to 14) (size 15 to 20)
#    0.000    2.667    0.000    3.000    0.000    7.333 
#    0.000    3.333    0.000    6.500    0.000    0.000 
#    0.000    0.000    0.000    0.000    0.000    0.000 
#
# Total GULP energy -267705.705365 kJ/mol
# GULP energy per Si atom -5577.202195 kJ/mol
# Density = 1.881018 g / cm^3
# Si number density = 18.853093 Si / 1000 Ang^3
#
#
#
# Elastic Constant Matrix: (Units=GPa)
#
#
# Indices 1 2 3 4 5 6 
#
# 1 138.5240 19.0937 113.4288 0.0000 0.0000 0.0000
# 2 19.0937 6.0820 22.1272 0.0000 0.0000 0.0000
# 3 113.4288 22.1272 222.4969 0.0000 0.0000 0.0000
# 4 0.0000 0.0000 0.0000 32.3986 0.0000 0.0000
# 5 0.0000 0.0000 0.0000 0.0000 33.8012 0.0000
# 6 0.0000 0.0000 0.0000 0.0000 0.0000 18.0126
#
#
#
# Elastic Compliance Matrix: (Units=1/GPa)
#
#
# Indices 1 2 3 4 5 6 
#
# 1 0.015392 -0.030983 -0.004765 0.000000 0.000000 0.000000
# 2 -0.030983 0.320006 -0.016029 0.000000 0.000000 0.000000
# 3 -0.004765 -0.016029 0.008518 0.000000 0.000000 0.000000
# 4 0.000000 0.000000 0.000000 0.030865 0.000000 0.000000
# 5 0.000000 0.000000 0.000000 0.000000 0.029585 0.000000
# 6 0.000000 0.000000 0.000000 0.000000 0.000000 0.055517
#
#
# Mechanical properties :
#
#
# Convention : Reuss Voigt Hill
#
# Bulk Modulus (GPa) = 4.16043 75.15580 39.65811
# Shear Modulus (GPa) = 7.76930 31.00604 19.38767
#
# Velocity S-wave (km/s) = 2.03222 4.05978 3.21028
# Velocity P-wave (km/s) = 2.77815 7.86932 5.90103
#
# Compressibility (1/GPa) = 0.24036002
#
# Stress axis : x y z
#
# Youngs Moduli (GPa) = 64.97022 3.12494 117.39905
#
# Poissons Ratio (x) = 0.09682 0.55945
# Poissons Ratio (y) = 2.01298 1.88183
# Poissons Ratio (z) = 0.30961 0.05009
#
# Static dielectric constant tensor:
#      x y z
#    x 1.643390 0.000000 0.000000 
#    y 0.000000 1.659540 0.000000 
#    z 0.000000 0.000000 1.646710 
# 
# From -- ./inp_files/32898.got.cif
#   From: 2010.05.17/outbox.cif.g08.bks.cpg/sg59_17_cif.got.tgz:32898.got - 2010.06.03 14:40:33.
