data_PCOD9450427
_publ_section_title
;
Structure prediction by ZEFSAII (Michael W. Deem and Ramdas Pophale) SiO2 
 PCOD9450427
Probable space group: P M M N
;
_chemical_formula_sum "Si O2"
_cell_formula_units_Z 64
_cell_length_a 17.515829
_cell_length_b 15.211021
_cell_length_c 11.855743
_cell_angle_alpha 90.000000
_cell_angle_beta 90.000000
_cell_angle_gamma 90.000000
_cell_volume 3158.768795
_symmetry_space_group_name_H-M "P M M N"
_symmetry_group_IT_number 59
_space_group.IT_coordinate_system_code '2'
_symmetry_cell_setting 'orthorhombic'
loop_
_space_group_symop_operation_xyz
x,y,z
1/2-x,1/2-y,z
1/2+x,-y,-z
-x,1/2+y,-z
-x,-y,-z
1/2+x,1/2+y,-z
1/2-x,y,z
x,1/2-y,z
loop_
_atom_site_type_symbol
_atom_site_label
_atom_site_fract_x
_atom_site_fract_y
_atom_site_fract_z
Si Si1 0.998529 0.656171 0.618809
Si Si2 0.836486 0.467456 0.655972
Si Si3 0.080891 0.351966 0.921474
Si Si4 0.835805 0.485358 0.163060
Si Si5 0.466973 0.850272 0.883574
Si Si6 0.601632 0.990508 0.412416
Si Si7 0.512970 0.146552 0.693530
Si Si8 0.836151 0.655408 0.684460
O O1 0.032834 0.750000 0.583601
O O2 0.908029 0.658914 0.601081
O O3 0.005489 0.650805 0.754500
O O4 0.042275 0.571632 0.577096
O O5 0.750000 0.432901 0.667269
O O6 0.849297 0.500931 0.526428
O O7 0.905192 0.401059 0.682332
O O8 0.843239 0.556527 0.732184
O O9 0.105326 0.250000 0.925348
O O10 0.146866 0.419899 0.891125
O O11 0.019050 0.361294 0.820536
O O12 0.036439 0.375000 0.035529
O O13 0.750000 0.456607 0.141811
O O14 0.897353 0.417625 0.113090
O O15 0.850222 0.492603 0.298145
O O16 0.444288 0.750000 0.913566
O O17 0.549947 0.905508 0.381304
O O18 0.516718 0.250000 0.666671
O O19 0.750000 0.655810 0.636163
O O20 0.841597 0.750000 0.749236
#
# Coordination Sequence:
#
# PCOD9450427 Si02
#       8
#     8   8   8   8   8   8   8   8
#     4   9  17  31  54  79 101 131 171 213 258 308
#     4  11  22  36  53  76 105 138 172 215 265 310
#     4   9  19  37  58  77 104 142 181 216 254 306
#     4  10  20  34  54  81 111 137 169 219 267 311
#     4   9  18  34  57  80 105 139 176 213 256 311
#     4  10  20  36  53  76 103 138 175 212 259 316
#     4  10  21  36  55  77 103 140 181 217 252 304
#     4   9  18  32  50  74 104 134 167 212 262 308
#
# _framework density 20.261058999999999
#
# number of rings (size 3 to 8) (size 9 to 14) (size 15 to 20)
#    0.000    2.375    1.250    1.125    0.000    1.750 
#    0.000    1.250    0.000    9.000    0.000    0.000 
#    0.000    0.000    0.000    0.000    0.000    0.000 
#
# Total GULP energy -356597.941686 kJ/mol
# GULP energy per Si atom -5571.842839 kJ/mol
# Density = 2.021494 g / cm^3
# Si number density = 20.261059 Si / 1000 Ang^3
#
#
#
# Elastic Constant Matrix: (Units=GPa)
#
#
# Indices 1 2 3 4 5 6 
#
# 1 79.7240 30.6765 -14.7517 0.0000 0.0000 0.0000
# 2 30.6765 99.7841 -2.7783 0.0000 0.0000 0.0000
# 3 -14.7517 -2.7783 44.5116 0.0000 0.0000 0.0000
# 4 0.0000 0.0000 0.0000 13.2746 0.0000 0.0000
# 5 0.0000 0.0000 0.0000 0.0000 15.0808 0.0000
# 6 0.0000 0.0000 0.0000 0.0000 0.0000 10.5834
#
#
#
# Elastic Compliance Matrix: (Units=1/GPa)
#
#
# Indices 1 2 3 4 5 6 
#
# 1 0.015164 -0.004530 0.004743 0.000000 0.000000 0.000000
# 2 -0.004530 0.011392 -0.000790 0.000000 0.000000 0.000000
# 3 0.004743 -0.000790 0.023989 0.000000 0.000000 0.000000
# 4 0.000000 0.000000 0.000000 0.075332 0.000000 0.000000
# 5 0.000000 0.000000 0.000000 0.000000 0.066309 0.000000
# 6 0.000000 0.000000 0.000000 0.000000 0.000000 0.094488
#
#
# Mechanical properties :
#
#
# Convention : Reuss Voigt Hill
#
# Bulk Modulus (GPa) = 20.24688 27.81252 24.02970
# Shear Modulus (GPa) = 16.43162 21.84597 19.13880
#
# Velocity S-wave (km/s) = 2.85089 3.28720 3.07678
# Velocity P-wave (km/s) = 4.56634 5.30702 4.95055
#
# Compressibility (1/GPa) = 0.04939033
#
# Stress axis : x y z
#
# Youngs Moduli (GPa) = 65.94645 87.77924 41.68651
#
# Poissons Ratio (x) = 0.39762 -0.19771
# Poissons Ratio (y) = 0.29872 0.03294
# Poissons Ratio (z) = -0.31277 0.06936
#
# Static dielectric constant tensor:
#      x y z
#    x 1.689330 0.000000 0.000000 
#    y 0.000000 1.779970 0.000000 
#    z 0.000000 0.000000 1.766230 
# 
# From -- ./inp_files/17813.got.cif
#   From: 2010.05.17/outbox.cif.g08.bks.cpg/sg59_9_cif.got.tgz:17813.got - 2010.06.03 14:40:33.
