data_PCOD9450991
_publ_section_title
;
Structure prediction by ZEFSAII (Michael W. Deem and Ramdas Pophale) SiO2 
 PCOD9450991
Probable space group: P M M N
;
_chemical_formula_sum "Si O2"
_cell_formula_units_Z 48
_cell_length_a 9.250232
_cell_length_b 8.613854
_cell_length_c 31.930162
_cell_angle_alpha 90.000000
_cell_angle_beta 90.000000
_cell_angle_gamma 90.000000
_cell_volume 2544.200031
_symmetry_space_group_name_H-M "P M M N"
_symmetry_group_IT_number 59
_space_group.IT_coordinate_system_code '2'
_symmetry_cell_setting 'orthorhombic'
loop_
_space_group_symop_operation_xyz
x,y,z
1/2-x,1/2-y,z
1/2+x,-y,-z
-x,1/2+y,-z
-x,-y,-z
1/2+x,1/2+y,-z
1/2-x,y,z
x,1/2-y,z
loop_
_atom_site_type_symbol
_atom_site_label
_atom_site_fract_x
_atom_site_fract_y
_atom_site_fract_z
Si Si1 0.918247 0.061975 0.703334
Si Si2 0.581310 0.564675 0.959785
Si Si3 0.418373 0.936273 0.622093
Si Si4 0.418443 0.936407 0.459287
Si Si5 0.083793 0.060558 0.787473
Si Si6 0.581482 0.437328 0.870856
O O1 0.750000 0.016261 0.701954
O O2 0.924006 0.250000 0.701340
O O3 0.992328 0.012827 0.746898
O O4 0.005115 0.995101 0.664170
O O5 0.750000 0.518558 0.962609
O O6 0.572335 0.750000 0.959466
O O7 0.526635 0.500503 0.915269
O O8 0.500000 0.500000 0.000000
O O9 0.250000 0.984422 0.621326
O O10 0.423757 0.750000 0.620581
O O11 0.502270 0.003045 0.582139
O O12 0.250000 0.984580 0.459486
O O13 0.423083 0.750000 0.459779
O O14 0.500000 0.000000 0.500000
O O15 0.250000 0.010183 0.784447
O O16 0.082996 0.250000 0.787813
O O17 0.009706 0.010137 0.830764
O O18 0.750000 0.483861 0.865893
O O19 0.577315 0.250000 0.872246
#
# Coordination Sequence:
#
# PCOD9450991 Si02
#       6
#     8   8   8   8   8   8
#     4  10  20  35  57  84 112 145 187 230 272 323
#     4  10  21  36  54  77 105 138 177 220 267 321
#     4  11  24  40  58  83 115 150 189 232 278 329
#     4  11  24  41  62  89 118 149 188 231 276 329
#     4   9  17  30  51  79 108 139 178 224 272 321
#     4   9  17  31  51  74 102 137 176 219 268 322
#
# _framework density 18.866440000000001
#
# number of rings (size 3 to 8) (size 9 to 14) (size 15 to 20)
#    0.000    2.000    0.000    3.500    0.000   11.333 
#    0.000    2.500    0.000    3.000    0.000    0.000 
#    0.000    0.000    0.000    0.000    0.000    0.000 
#
# Total GULP energy -268157.519050 kJ/mol
# GULP energy per Si atom -5586.614980 kJ/mol
# Density = 1.882350 g / cm^3
# Si number density = 18.866440 Si / 1000 Ang^3
#
#
#
# Elastic Constant Matrix: (Units=GPa)
#
#
# Indices 1 2 3 4 5 6 
#
# 1 169.8595 39.0994 122.1940 0.0000 0.0000 0.0000
# 2 39.0994 19.0029 38.7322 0.0000 0.0000 0.0000
# 3 122.1940 38.7322 225.0587 0.0000 0.0000 0.0000
# 4 0.0000 0.0000 0.0000 31.2947 0.0000 0.0000
# 5 0.0000 0.0000 0.0000 0.0000 43.2558 0.0000
# 6 0.0000 0.0000 0.0000 0.0000 0.0000 22.9089
#
#
#
# Elastic Compliance Matrix: (Units=1/GPa)
#
#
# Indices 1 2 3 4 5 6 
#
# 1 0.012979 -0.019010 -0.003775 0.000000 0.000000 0.000000
# 2 -0.019010 0.108900 -0.008420 0.000000 0.000000 0.000000
# 3 -0.003775 -0.008420 0.007942 0.000000 0.000000 0.000000
# 4 0.000000 0.000000 0.000000 0.031954 0.000000 0.000000
# 5 0.000000 0.000000 0.000000 0.000000 0.023118 0.000000
# 6 0.000000 0.000000 0.000000 0.000000 0.000000 0.043651
#
#
# Mechanical properties :
#
#
# Convention : Reuss Voigt Hill
#
# Bulk Modulus (GPa) = 14.83460 90.44138 52.63799
# Shear Modulus (GPa) = 15.95279 33.75159 24.85219
#
# Velocity S-wave (km/s) = 2.91101 4.23422 3.63336
# Velocity P-wave (km/s) = 4.37935 8.48213 6.75001
#
# Compressibility (1/GPa) = 0.06740997
#
# Stress axis : x y z
#
# Youngs Moduli (GPa) = 77.04821 9.18277 125.91143
#
# Poissons Ratio (x) = 0.17456 0.47534
# Poissons Ratio (y) = 1.46469 1.06019
# Poissons Ratio (z) = 0.29087 0.07732
#
# Static dielectric constant tensor:
#      x y z
#    x 1.642910 0.000000 0.000000 
#    y 0.000000 1.644610 0.000000 
#    z 0.000000 0.000000 1.617350 
# 
# From -- ./inp_files/32795.got.cif
#   From: 2010.05.17/outbox.cif.g08.bks.cpg/sg59_17_cif.got.tgz:32795.got - 2010.06.03 14:40:33.
