data_PCOD9450659
_publ_section_title
;
Structure prediction by ZEFSAII (Michael W. Deem and Ramdas Pophale) SiO2 
 PCOD9450659
Probable space group: P M M N
;
_chemical_formula_sum "Si O2"
_cell_formula_units_Z 56
_cell_length_a 8.720691
_cell_length_b 22.725281
_cell_length_c 15.084745
_cell_angle_alpha 90.000000
_cell_angle_beta 90.000000
_cell_angle_gamma 90.000000
_cell_volume 2989.497079
_symmetry_space_group_name_H-M "P M M N"
_symmetry_group_IT_number 59
_space_group.IT_coordinate_system_code '2'
_symmetry_cell_setting 'orthorhombic'
loop_
_space_group_symop_operation_xyz
x,y,z
1/2-x,1/2-y,z
1/2+x,-y,-z
-x,1/2+y,-z
-x,-y,-z
1/2+x,1/2+y,-z
1/2-x,y,z
x,1/2-y,z
loop_
_atom_site_type_symbol
_atom_site_label
_atom_site_fract_x
_atom_site_fract_y
_atom_site_fract_z
Si Si1 0.931615 0.978423 0.776837
Si Si2 0.066689 0.851570 0.816657
Si Si3 0.072345 0.148500 0.649211
Si Si4 0.935396 0.250000 0.319828
Si Si5 0.563082 0.750000 0.481241
Si Si6 0.427140 0.486754 0.593893
Si Si7 0.063617 0.102216 0.834009
Si Si8 0.433472 0.183690 0.996181
O O1 0.750000 0.980012 0.786822
O O2 0.996086 0.916387 0.809538
O O3 0.979636 0.984595 0.674043
O O4 0.002931 0.035848 0.824609
O O5 0.250000 0.855809 0.812969
O O6 0.017203 0.807564 0.737307
O O7 0.015704 0.824902 0.910421
O O8 0.250000 0.166594 0.661985
O O9 0.009893 0.194164 0.577666
O O10 0.069487 0.083225 0.609319
O O11 0.007467 0.139758 0.748254
O O12 0.750000 0.250000 0.323932
O O13 0.999848 0.250000 0.419175
O O14 0.750000 0.750000 0.488123
O O15 0.500000 0.500000 0.500000
O O16 0.250000 0.506127 0.598505
O O17 0.250000 0.099713 0.828982
O O18 0.019686 0.135406 0.923678
O O19 0.250000 0.177778 0.009781
O O20 0.461769 0.250000 0.962629
#
# Coordination Sequence:
#
# PCOD9450659 Si02
#       8
#     8   8   8   4   4   8   8   8
#     4  11  23  39  60  87 116 153 200 249 299 351
#     4  11  23  42  63  84 116 157 197 245 302 358
#     4   8  17  33  54  83 116 147 187 230 278 338
#     4  10  24  42  57  80 114 154 195 238 297 354
#     4  10  20  34  57  86 114 150 191 236 285 336
#     4  10  20  36  56  83 116 155 198 242 292 350
#     4   9  19  38  61  88 123 156 190 237 295 356
#     4  10  21  37  62  94 121 153 196 242 293 352
#
# _framework density 18.732247999999998
#
# number of rings (size 3 to 8) (size 9 to 14) (size 15 to 20)
#    0.000    2.143    0.714    3.000    3.000    2.286 
#    0.000    2.857    0.000    0.000    0.000    0.000 
#    0.000    0.000    0.000    0.000    0.000    0.000 
#
# Total GULP energy -312459.549051 kJ/mol
# GULP energy per Si atom -5579.634804 kJ/mol
# Density = 1.868961 g / cm^3
# Si number density = 18.732248 Si / 1000 Ang^3
#
#
#
# Elastic Constant Matrix: (Units=GPa)
#
#
# Indices 1 2 3 4 5 6 
#
# 1 42.8645 32.6751 25.0255 0.0000 0.0000 0.0000
# 2 32.6751 96.0934 60.7682 0.0000 0.0000 0.0000
# 3 25.0255 60.7682 84.4216 0.0000 0.0000 0.0000
# 4 0.0000 0.0000 0.0000 23.1624 0.0000 0.0000
# 5 0.0000 0.0000 0.0000 0.0000 24.0933 0.0000
# 6 0.0000 0.0000 0.0000 0.0000 0.0000 18.9715
#
#
#
# Elastic Compliance Matrix: (Units=1/GPa)
#
#
# Indices 1 2 3 4 5 6 
#
# 1 0.031908 -0.008936 -0.003026 0.000000 0.000000 0.000000
# 2 -0.008936 0.021604 -0.012902 0.000000 0.000000 0.000000
# 3 -0.003026 -0.012902 0.022030 0.000000 0.000000 0.000000
# 4 0.000000 0.000000 0.000000 0.043173 0.000000 0.000000
# 5 0.000000 0.000000 0.000000 0.000000 0.041505 0.000000
# 6 0.000000 0.000000 0.000000 0.000000 0.000000 0.052711
#
#
# Mechanical properties :
#
#
# Convention : Reuss Voigt Hill
#
# Bulk Modulus (GPa) = 38.74042 51.14634 44.94338
# Shear Modulus (GPa) = 18.43218 20.23949 19.33583
#
# Velocity S-wave (km/s) = 3.14025 3.29060 3.21631
# Velocity P-wave (km/s) = 5.82016 6.46534 6.15121
#
# Compressibility (1/GPa) = 0.02581283
#
# Stress axis : x y z
#
# Youngs Moduli (GPa) = 31.34009 46.28715 45.39328
#
# Poissons Ratio (x) = 0.41362 0.13738
# Poissons Ratio (y) = 0.28005 0.58567
# Poissons Ratio (z) = 0.09485 0.59721
#
# Static dielectric constant tensor:
#      x y z
#    x 1.640990 0.000000 0.000000 
#    y 0.000000 1.633160 0.000000 
#    z 0.000000 0.000000 1.603040 
# 
# From -- ./inp_files/21135.got.cif
#   From: 2010.05.17/outbox.cif.g08.bks.cpg/sg59_11_cif.got.tgz:21135.got - 2010.06.03 14:40:33.
