data_PCOD9450617
_publ_section_title
;
Structure prediction by ZEFSAII (Michael W. Deem and Ramdas Pophale) SiO2 
 PCOD9450617
Probable space group: P M M N
;
_chemical_formula_sum "Si O2"
_cell_formula_units_Z 56
_cell_length_a 23.435473
_cell_length_b 7.924054
_cell_length_c 15.184677
_cell_angle_alpha 90.000000
_cell_angle_beta 90.000000
_cell_angle_gamma 90.000000
_cell_volume 2819.854553
_symmetry_space_group_name_H-M "P M M N"
_symmetry_group_IT_number 59
_space_group.IT_coordinate_system_code '2'
_symmetry_cell_setting 'orthorhombic'
loop_
_space_group_symop_operation_xyz
x,y,z
1/2-x,1/2-y,z
1/2+x,-y,-z
-x,1/2+y,-z
-x,-y,-z
1/2+x,1/2+y,-z
1/2-x,y,z
x,1/2-y,z
loop_
_atom_site_type_symbol
_atom_site_label
_atom_site_fract_x
_atom_site_fract_y
_atom_site_fract_z
Si Si1 0.077266 0.047341 0.583273
Si Si2 0.412151 0.546961 0.205127
Si Si3 0.521321 0.952763 0.097429
Si Si4 0.650462 0.447062 0.120059
Si Si5 0.187069 0.050249 0.688925
Si Si6 0.813972 0.456454 0.926481
Si Si7 0.951024 0.549337 0.611699
O O1 0.082727 0.250000 0.580071
O O2 0.132372 0.980390 0.635554
O O3 0.070809 0.982704 0.482840
O O4 0.015900 0.011937 0.627155
O O5 0.411848 0.750000 0.199646
O O6 0.472031 0.488833 0.163699
O O7 0.360945 0.484604 0.143353
O O8 0.411419 0.498570 0.306816
O O9 0.527046 0.750000 0.103402
O O10 0.582266 0.032148 0.117839
O O11 0.500000 0.000000 0.000000
O O12 0.665610 0.250000 0.124906
O O13 0.675325 0.530541 0.207206
O O14 0.672500 0.513583 0.025965
O O15 0.250000 0.979076 0.667743
O O16 0.189111 0.250000 0.670053
O O17 0.750000 0.505022 0.901794
O O18 0.816731 0.250000 0.928286
O O19 0.953543 0.750000 0.605150
#
# Coordination Sequence:
#
# PCOD9450617 Si02
#       7
#     8   8   8   8   8   8   8
#     4   9  19  37  57  78 107 140 173 215 271 330
#     4  10  20  35  53  76 106 140 176 214 264 319
#     4  11  21  34  52  78 109 142 179 222 271 321
#     4  11  21  35  54  80 110 143 182 223 271 322
#     4  10  21  37  56  79 108 145 185 223 269 328
#     4   9  18  34  53  71  98 140 183 215 251 308
#     4  10  20  34  56  84 107 134 175 222 272 322
#
# _framework density 19.859179999999999
#
# number of rings (size 3 to 8) (size 9 to 14) (size 15 to 20)
#    0.000    2.000    1.429    2.571    0.000    6.571 
#    0.000    0.714    0.000    3.000    0.000    0.000 
#    0.000    0.000    0.000    0.000    0.000    0.000 
#
# Total GULP energy -312698.347109 kJ/mol
# GULP energy per Si atom -5583.899056 kJ/mol
# Density = 1.981398 g / cm^3
# Si number density = 19.859180 Si / 1000 Ang^3
#
#
#
# Elastic Constant Matrix: (Units=GPa)
#
#
# Indices 1 2 3 4 5 6 
#
# 1 130.2351 -0.1264 67.4269 0.0000 0.0000 0.0000
# 2 -0.1264 17.5088 -1.0968 0.0000 0.0000 0.0000
# 3 67.4269 -1.0968 116.7706 0.0000 0.0000 0.0000
# 4 0.0000 0.0000 0.0000 25.3654 0.0000 0.0000
# 5 0.0000 0.0000 0.0000 0.0000 13.7098 0.0000
# 6 0.0000 0.0000 0.0000 0.0000 0.0000 14.7367
#
#
#
# Elastic Compliance Matrix: (Units=1/GPa)
#
#
# Indices 1 2 3 4 5 6 
#
# 1 0.010955 -0.000317 -0.006328 0.000000 0.000000 0.000000
# 2 -0.000317 0.057157 0.000720 0.000000 0.000000 0.000000
# 3 -0.006328 0.000720 0.012225 0.000000 0.000000 0.000000
# 4 0.000000 0.000000 0.000000 0.039424 0.000000 0.000000
# 5 0.000000 0.000000 0.000000 0.000000 0.072941 0.000000
# 6 0.000000 0.000000 0.000000 0.000000 0.000000 0.067858
#
#
# Mechanical properties :
#
#
# Convention : Reuss Voigt Hill
#
# Bulk Modulus (GPa) = 14.60177 44.10242 29.35209
# Shear Modulus (GPa) = 16.93547 23.98310 20.45929
#
# Velocity S-wave (km/s) = 2.92340 3.47891 3.21318
# Velocity P-wave (km/s) = 4.33171 6.19620 5.34586
#
# Compressibility (1/GPa) = 0.06848486
#
# Stress axis : x y z
#
# Youngs Moduli (GPa) = 91.28604 17.49571 81.80073
#
# Poissons Ratio (x) = 0.00555 0.51768
# Poissons Ratio (y) = 0.02897 -0.05891
# Poissons Ratio (z) = 0.57770 -0.01260
#
# Static dielectric constant tensor:
#      x y z
#    x 1.694740 0.000000 0.000000 
#    y 0.000000 1.723570 0.000000 
#    z 0.000000 0.000000 1.706180 
# 
# From -- ./inp_files/20963.got.cif
#   From: 2010.05.17/outbox.cif.g08.bks.cpg/sg59_11_cif.got.tgz:20963.got - 2010.06.03 14:40:33.
