data_PCOD9450190
_publ_section_title
;
Structure prediction by ZEFSAII (Michael W. Deem and Ramdas Pophale) SiO2 
 PCOD9450190
Probable space group: P M M N
;
_chemical_formula_sum "Si O2"
_cell_formula_units_Z 56
_cell_length_a 8.293969
_cell_length_b 14.873396
_cell_length_c 24.385020
_cell_angle_alpha 90.000000
_cell_angle_beta 90.000000
_cell_angle_gamma 90.000000
_cell_volume 3008.123517
_symmetry_space_group_name_H-M "P M M N"
_symmetry_group_IT_number 59
_space_group.IT_coordinate_system_code '2'
_symmetry_cell_setting 'orthorhombic'
loop_
_space_group_symop_operation_xyz
x,y,z
1/2-x,1/2-y,z
1/2+x,-y,-z
-x,1/2+y,-z
-x,-y,-z
1/2+x,1/2+y,-z
1/2-x,y,z
x,1/2-y,z
loop_
_atom_site_type_symbol
_atom_site_label
_atom_site_fract_x
_atom_site_fract_y
_atom_site_fract_z
Si Si1 0.943454 0.750000 0.030417
Si Si2 0.442021 0.145857 0.479078
Si Si3 0.942118 0.349896 0.601971
Si Si4 0.944749 0.930712 0.845478
Si Si5 0.557102 0.053076 0.944994
Si Si6 0.553893 0.750000 0.904940
Si Si7 0.945567 0.542236 0.628640
Si Si8 0.942246 0.353236 0.264894
O O1 0.750000 0.750000 0.031376
O O2 0.003880 0.843615 0.054646
O O3 0.999802 0.750000 0.967285
O O4 0.250000 0.132488 0.487194
O O5 0.466028 0.250000 0.462404
O O6 0.526749 0.133401 0.537394
O O7 0.498477 0.082265 0.430062
O O8 0.750000 0.346040 0.610574
O O9 0.009009 0.250000 0.615060
O O10 0.002435 0.438668 0.633140
O O11 0.750000 0.933519 0.844251
O O12 0.999516 0.838349 0.873975
O O13 0.002186 0.920301 0.783406
O O14 0.999705 0.006793 0.888252
O O15 0.750000 0.047483 0.946050
O O16 0.500000 0.000000 0.000000
O O17 0.750000 0.750000 0.905309
O O18 0.750000 0.542743 0.628532
O O19 0.002403 0.605732 0.677475
O O20 0.750000 0.348910 0.263822
O O21 0.004618 0.250000 0.257071
#
# Coordination Sequence:
#
# PCOD9450190 Si02
#       8
#     4   8   8   8   8   4   8   8
#     4  11  21  37  57  85 121 153 187 230 277 328
#     4   9  17  29  47  74 105 136 173 213 259 318
#     4   9  18  32  51  76 104 135 175 219 262 309
#     4  10  20  37  59  80 109 147 185 220 263 327
#     4  11  22  36  57  87 118 151 189 229 277 332
#     4   9  16  31  55  83 111 145 183 216 259 322
#     4  10  20  34  53  75 103 142 180 214 260 320
#     4  11  24  38  54  81 110 135 172 224 275 321
#
# _framework density 18.616257000000001
#
# number of rings (size 3 to 8) (size 9 to 14) (size 15 to 20)
#    0.000    2.000    2.143    1.929    0.000    3.714 
#    0.000    1.429    1.571    0.000    0.000    0.000 
#    0.000    0.000    0.000    0.000    0.000    0.000 
#
# Total GULP energy -312361.572540 kJ/mol
# GULP energy per Si atom -5577.885224 kJ/mol
# Density = 1.857389 g / cm^3
# Si number density = 18.616257 Si / 1000 Ang^3
#
#
#
# Elastic Constant Matrix: (Units=GPa)
#
#
# Indices 1 2 3 4 5 6 
#
# 1 16.4384 12.9117 0.2473 0.0000 0.0000 0.0000
# 2 12.9117 107.3300 31.7837 0.0000 0.0000 0.0000
# 3 0.2473 31.7837 46.2263 0.0000 0.0000 0.0000
# 4 0.0000 0.0000 0.0000 34.0333 0.0000 0.0000
# 5 0.0000 0.0000 0.0000 0.0000 26.2318 0.0000
# 6 0.0000 0.0000 0.0000 0.0000 0.0000 16.3612
#
#
#
# Elastic Compliance Matrix: (Units=1/GPa)
#
#
# Indices 1 2 3 4 5 6 
#
# 1 0.068786 -0.010254 0.006682 0.000000 0.000000 0.000000
# 2 -0.010254 0.013228 -0.009040 0.000000 0.000000 0.000000
# 3 0.006682 -0.009040 0.027813 0.000000 0.000000 0.000000
# 4 0.000000 0.000000 0.000000 0.029383 0.000000 0.000000
# 5 0.000000 0.000000 0.000000 0.000000 0.038122 0.000000
# 6 0.000000 0.000000 0.000000 0.000000 0.000000 0.061120
#
#
# Mechanical properties :
#
#
# Convention : Reuss Voigt Hill
#
# Bulk Modulus (GPa) = 11.81986 28.87557 20.34771
# Shear Modulus (GPa) = 17.13059 23.66207 20.39633
#
# Velocity S-wave (km/s) = 3.03676 3.56904 3.31361
# Velocity P-wave (km/s) = 4.31960 5.70339 5.05903
#
# Compressibility (1/GPa) = 0.08460337
#
# Stress axis : x y z
#
# Youngs Moduli (GPa) = 14.53776 75.59962 35.95501
#
# Poissons Ratio (x) = 0.77518 -0.24026
# Poissons Ratio (y) = 0.14907 0.32503
# Poissons Ratio (z) = -0.09714 0.68342
#
# Static dielectric constant tensor:
#      x y z
#    x 1.649940 0.000000 0.000000 
#    y 0.000000 1.714560 0.000000 
#    z 0.000000 0.000000 1.629800 
# 
# From -- ./inp_files/29191.got.cif
#   From: 2010.05.17/outbox.cif.g08.bks.cpg/sg59_15_cif.got.tgz:29191.got - 2010.06.03 14:40:33.
