data_PCOD9450414
_publ_section_title
;
Structure prediction by ZEFSAII (Michael W. Deem and Ramdas Pophale) SiO2 
 PCOD9450414
Probable space group: P M M N
;
_chemical_formula_sum "Si O2"
_cell_formula_units_Z 64
_cell_length_a 8.807076
_cell_length_b 19.877122
_cell_length_c 21.126148
_cell_angle_alpha 90.000000
_cell_angle_beta 90.000000
_cell_angle_gamma 90.000000
_cell_volume 3698.329190
_symmetry_space_group_name_H-M "P M M N"
_symmetry_group_IT_number 59
_space_group.IT_coordinate_system_code '2'
_symmetry_cell_setting 'orthorhombic'
loop_
_space_group_symop_operation_xyz
x,y,z
1/2-x,1/2-y,z
1/2+x,-y,-z
-x,1/2+y,-z
-x,-y,-z
1/2+x,1/2+y,-z
1/2-x,y,z
x,1/2-y,z
loop_
_atom_site_type_symbol
_atom_site_label
_atom_site_fract_x
_atom_site_fract_y
_atom_site_fract_z
Si Si1 0.069208 0.673010 0.990262
Si Si2 0.069225 0.673222 0.365204
Si Si3 0.070040 0.174174 0.496351
Si Si4 0.431397 0.464455 0.437928
Si Si5 0.068605 0.540692 0.185467
Si Si6 0.430310 0.461639 0.682931
Si Si7 0.432041 0.041418 0.058982
Si Si8 0.431810 0.326434 0.868907
O O1 0.250000 0.662512 0.996650
O O2 0.043114 0.750000 0.969235
O O3 0.993640 0.665798 0.059497
O O4 0.998273 0.616341 0.945910
O O5 0.250000 0.665162 0.358362
O O6 0.028123 0.750000 0.347353
O O7 0.022952 0.664741 0.438910
O O8 0.984389 0.615291 0.327330
O O9 0.250000 0.168974 0.512509
O O10 0.041969 0.250000 0.472945
O O11 0.036783 0.114818 0.447500
O O12 0.500000 0.500000 0.500000
O O13 0.250000 0.474659 0.436763
O O14 0.503024 0.496053 0.375438
O O15 0.250000 0.542053 0.191300
O O16 0.028178 0.495940 0.124251
O O17 0.995588 0.514653 0.250042
O O18 0.007852 0.615715 0.172182
O O19 0.250000 0.464712 0.682157
O O20 0.250000 0.042717 0.053255
O O21 0.500000 0.000000 0.000000
O O22 0.250000 0.334201 0.868752
O O23 0.468582 0.250000 0.848431
#
# Coordination Sequence:
#
# PCOD9450414 Si02
#       8
#     8   8   8   8   8   8   8   8
#     4  10  20  34  55  84 116 149 186 230 279 330
#     4  10  20  34  54  80 111 147 186 229 275 327
#     4   9  18  33  55  83 112 143 181 226 276 328
#     4  11  21  35  58  85 114 147 186 232 279 332
#     4  11  24  40  57  80 111 149 189 234 284 337
#     4  12  25  39  56  79 111 152 191 233 280 333
#     4  11  22  36  59  86 113 146 187 235 287 337
#     4  10  20  34  54  81 113 150 190 229 273 330
#
# _framework density 17.305112000000001
#
# number of rings (size 3 to 8) (size 9 to 14) (size 15 to 20)
#    0.000    1.500    2.500    3.375    0.000    4.750 
#    0.000    0.000    0.000    0.750    0.000    1.750 
#    0.000    0.000    0.000    0.000    0.000    0.000 
#
# Total GULP energy -357557.394247 kJ/mol
# GULP energy per Si atom -5586.834285 kJ/mol
# Density = 1.726572 g / cm^3
# Si number density = 17.305112 Si / 1000 Ang^3
#
#
#
# Elastic Constant Matrix: (Units=GPa)
#
#
# Indices 1 2 3 4 5 6 
#
# 1 77.9617 49.1903 55.5126 0.0000 0.0000 0.0000
# 2 49.1903 98.7064 62.4419 0.0000 0.0000 0.0000
# 3 55.5126 62.4419 120.1577 0.0000 0.0000 0.0000
# 4 0.0000 0.0000 0.0000 21.7868 0.0000 0.0000
# 5 0.0000 0.0000 0.0000 0.0000 28.5842 0.0000
# 6 0.0000 0.0000 0.0000 0.0000 0.0000 29.6055
#
#
#
# Elastic Compliance Matrix: (Units=1/GPa)
#
#
# Indices 1 2 3 4 5 6 
#
# 1 0.021706 -0.006664 -0.006565 0.000000 0.000000 0.000000
# 2 -0.006664 0.017139 -0.005828 0.000000 0.000000 0.000000
# 3 -0.006565 -0.005828 0.014384 0.000000 0.000000 0.000000
# 4 0.000000 0.000000 0.000000 0.045899 0.000000 0.000000
# 5 0.000000 0.000000 0.000000 0.000000 0.034984 0.000000
# 6 0.000000 0.000000 0.000000 0.000000 0.000000 0.033778
#
#
# Mechanical properties :
#
#
# Convention : Reuss Voigt Hill
#
# Bulk Modulus (GPa) = 66.15897 70.12391 68.14144
# Shear Modulus (GPa) = 23.69195 24.64070 24.16633
#
# Velocity S-wave (km/s) = 3.70411 3.77755 3.74101
# Velocity P-wave (km/s) = 7.52382 7.72247 7.62379
#
# Compressibility (1/GPa) = 0.01511511
#
# Stress axis : x y z
#
# Youngs Moduli (GPa) = 46.06957 58.34753 69.52256
#
# Poissons Ratio (x) = 0.38884 0.45642
# Poissons Ratio (y) = 0.30702 0.40515
# Poissons Ratio (z) = 0.30245 0.34002
#
# Static dielectric constant tensor:
#      x y z
#    x 1.576160 0.000000 0.000000 
#    y 0.000000 1.606990 0.000000 
#    z 0.000000 0.000000 1.565060 
# 
# From -- ./inp_files/26245.got.cif
#   From: 2010.05.17/outbox.cif.g08.bks.cpg/sg59_14_cif.got.tgz:26245.got - 2010.06.03 14:40:33.
