data_PCOD9450760
_publ_section_title
;
Structure prediction by ZEFSAII (Michael W. Deem and Ramdas Pophale) SiO2 
 PCOD9450760
Probable space group: P M M N
;
_chemical_formula_sum "Si O2"
_cell_formula_units_Z 40
_cell_length_a 14.736408
_cell_length_b 7.583011
_cell_length_c 17.785105
_cell_angle_alpha 90.000000
_cell_angle_beta 90.000000
_cell_angle_gamma 90.000000
_cell_volume 1987.420461
_symmetry_space_group_name_H-M "P M M N"
_symmetry_group_IT_number 59
_space_group.IT_coordinate_system_code '2'
_symmetry_cell_setting 'orthorhombic'
loop_
_space_group_symop_operation_xyz
x,y,z
1/2-x,1/2-y,z
1/2+x,-y,-z
-x,1/2+y,-z
-x,-y,-z
1/2+x,1/2+y,-z
1/2-x,y,z
x,1/2-y,z
loop_
_atom_site_type_symbol
_atom_site_label
_atom_site_fract_x
_atom_site_fract_y
_atom_site_fract_z
Si Si1 0.000396 0.958967 0.121893
Si Si2 0.250000 0.533308 0.348001
Si Si3 0.750000 0.034285 0.477133
Si Si4 0.938306 0.043798 0.719148
Si Si5 0.055727 0.960007 0.575722
Si Si6 0.645913 0.963760 0.003509
O O1 0.983311 0.750000 0.129456
O O2 0.019235 0.033026 0.204722
O O3 0.914946 0.028832 0.073904
O O4 0.089515 0.983901 0.070475
O O5 0.250000 0.750000 0.348769
O O6 0.250000 0.480012 0.435453
O O7 0.158861 0.470864 0.307023
O O8 0.750000 0.250000 0.477226
O O9 0.658054 0.975191 0.437075
O O10 0.921331 0.250000 0.735121
O O11 0.005367 0.032801 0.648499
O O12 0.058541 0.750000 0.584511
O O13 0.000000 0.000000 0.500000
O O14 0.750000 0.024544 0.003942
O O15 0.646963 0.750000 0.005396
#
# Coordination Sequence:
#
# PCOD9450760 Si02
#       6
#     8   4   4   8   8   8
#     4   9  19  34  54  79 106 136 175 215 258 316
#     4   9  16  30  52  74 103 136 165 207 266 314
#     4   9  18  34  54  72  99 140 175 207 260 314
#     4  10  20  35  54  79 106 136 173 217 263 310
#     4  11  21  36  56  76 104 141 178 216 261 311
#     4   9  18  34  54  76 107 142 171 211 265 310
#
# _framework density 20.126591000000001
#
# number of rings (size 3 to 8) (size 9 to 14) (size 15 to 20)
#    0.000    2.400    2.000    0.600    1.400    1.200 
#    1.800    3.500    0.000    0.000    0.000    0.000 
#    0.000    0.000    0.000    0.000    0.000    0.000 
#
# Total GULP energy -223254.618523 kJ/mol
# GULP energy per Si atom -5581.365463 kJ/mol
# Density = 2.008078 g / cm^3
# Si number density = 20.126591 Si / 1000 Ang^3
#
#
#
# Elastic Constant Matrix: (Units=GPa)
#
#
# Indices 1 2 3 4 5 6 
#
# 1 137.4486 -24.5975 61.1577 0.0000 0.0000 0.0000
# 2 -24.5975 38.2063 -19.8423 0.0000 0.0000 0.0000
# 3 61.1577 -19.8423 158.3650 0.0000 0.0000 0.0000
# 4 0.0000 0.0000 0.0000 12.8257 0.0000 0.0000
# 5 0.0000 0.0000 0.0000 0.0000 9.1319 0.0000
# 6 0.0000 0.0000 0.0000 0.0000 0.0000 14.5744
#
#
#
# Elastic Compliance Matrix: (Units=1/GPa)
#
#
# Indices 1 2 3 4 5 6 
#
# 1 0.009452 0.004481 -0.003089 0.000000 0.000000 0.000000
# 2 0.004481 0.030120 0.002043 0.000000 0.000000 0.000000
# 3 -0.003089 0.002043 0.007763 0.000000 0.000000 0.000000
# 4 0.000000 0.000000 0.000000 0.077969 0.000000 0.000000
# 5 0.000000 0.000000 0.000000 0.000000 0.109506 0.000000
# 6 0.000000 0.000000 0.000000 0.000000 0.000000 0.068613
#
#
# Mechanical properties :
#
#
# Convention : Reuss Voigt Hill
#
# Bulk Modulus (GPa) = 18.44809 40.82843 29.63826
# Shear Modulus (GPa) = 15.89219 28.45987 22.17603
#
# Velocity S-wave (km/s) = 2.81305 3.76446 3.32298
# Velocity P-wave (km/s) = 4.44263 6.26296 5.42962
#
# Compressibility (1/GPa) = 0.05420616
#
# Stress axis : x y z
#
# Youngs Moduli (GPa) = 105.80197 33.20080 128.81088
#
# Poissons Ratio (x) = -0.14877 0.39785
# Poissons Ratio (y) = -0.47409 -0.26321
# Poissons Ratio (z) = 0.32678 -0.06784
#
# Static dielectric constant tensor:
#      x y z
#    x 1.698800 0.000000 0.000000 
#    y 0.000000 1.755250 0.000000 
#    z 0.000000 0.000000 1.669640 
# 
# From -- ./inp_files/19953.got.cif
#   From: 2010.05.17/outbox.cif.g08.bks.cpg/sg59_10_cif.got.tgz:19953.got - 2010.06.03 14:40:33.
