data_PCOD9450189
_publ_section_title
;
Structure prediction by ZEFSAII (Michael W. Deem and Ramdas Pophale) SiO2 
 PCOD9450189
Probable space group: P M M N
;
_chemical_formula_sum "Si O2"
_cell_formula_units_Z 64
_cell_length_a 15.533234
_cell_length_b 23.587196
_cell_length_c 7.522888
_cell_angle_alpha 90.000000
_cell_angle_beta 90.000000
_cell_angle_gamma 90.000000
_cell_volume 2756.276591
_symmetry_space_group_name_H-M "P M M N"
_symmetry_group_IT_number 59
_space_group.IT_coordinate_system_code '2'
_symmetry_cell_setting 'orthorhombic'
loop_
_space_group_symop_operation_xyz
x,y,z
1/2-x,1/2-y,z
1/2+x,-y,-z
-x,1/2+y,-z
-x,-y,-z
1/2+x,1/2+y,-z
1/2-x,y,z
x,1/2-y,z
loop_
_atom_site_type_symbol
_atom_site_label
_atom_site_fract_x
_atom_site_fract_y
_atom_site_fract_z
Si Si1 0.531427 0.187622 0.730834
Si Si2 0.603455 0.073612 0.696065
Si Si3 0.655933 0.840536 0.705405
Si Si4 0.152386 0.584748 0.705368
Si Si5 0.915440 0.540616 0.229882
Si Si6 0.842169 0.842353 0.293616
Si Si7 0.345531 0.041001 0.128288
Si Si8 0.532500 0.312136 0.295027
O O1 0.561638 0.250000 0.782084
O O2 0.588877 0.134351 0.789191
O O3 0.431621 0.179435 0.787115
O O4 0.530001 0.184482 0.512964
O O5 0.648944 0.084249 0.509594
O O6 0.505243 0.051177 0.672204
O O7 0.647426 0.021984 0.796852
O O8 0.750000 0.824676 0.781877
O O9 0.658796 0.823982 0.498741
O O10 0.648289 0.908829 0.728537
O O11 0.565597 0.816893 0.773147
O O12 0.250000 0.592068 0.767573
O O13 0.117560 0.522808 0.753403
O O14 0.090147 0.635366 0.765160
O O15 0.851950 0.589535 0.296640
O O16 0.918895 0.550756 0.017854
O O17 0.750000 0.826469 0.212705
O O18 0.250000 0.047056 0.045747
O O19 0.567171 0.250000 0.249309
#
# Coordination Sequence:
#
# PCOD9450189 Si02
#       8
#     8   8   8   8   8   8   8   8
#     4   8  16  30  48  71  97 127 166 212 255 298
#     4  10  20  34  53  75 103 138 174 217 264 318
#     4   9  18  32  53  80 109 140 173 213 262 319
#     4  11  21  34  54  78 106 141 180 221 267 318
#     4  11  21  34  52  76 105 137 172 215 268 322
#     4   9  16  28  48  74 102 131 163 203 256 314
#     4  11  21  33  51  77 107 135 170 216 267 323
#     4   9  18  33  52  76 105 135 174 221 263 305
#
# _framework density 23.219733000000002
#
# number of rings (size 3 to 8) (size 9 to 14) (size 15 to 20)
#    0.000    2.250    0.000    4.500    0.000    1.750 
#    0.000    2.500    0.000    7.875    0.000    3.500 
#    0.000    0.000    0.000    0.000    0.000    0.000 
#
# Total GULP energy -357344.844454 kJ/mol
# GULP energy per Si atom -5583.513195 kJ/mol
# Density = 2.316688 g / cm^3
# Si number density = 23.219733 Si / 1000 Ang^3
#
#
#
# Elastic Constant Matrix: (Units=GPa)
#
#
# Indices 1 2 3 4 5 6 
#
# 1 74.4926 28.4233 -3.5968 0.0000 0.0000 0.0000
# 2 28.4233 150.6149 -1.6748 0.0000 0.0000 0.0000
# 3 -3.5968 -1.6748 49.7927 0.0000 0.0000 0.0000
# 4 0.0000 0.0000 0.0000 -23.1344 0.0000 0.0000
# 5 0.0000 0.0000 0.0000 0.0000 -1.0405 0.0000
# 6 0.0000 0.0000 0.0000 0.0000 0.0000 7.0238
#
#
#
# Elastic Compliance Matrix: (Units=1/GPa)
#
#
# Indices 1 2 3 4 5 6 
#
# 1 0.014511 -0.002728 0.000956 0.000000 0.000000 0.000000
# 2 -0.002728 0.007155 0.000044 0.000000 0.000000 0.000000
# 3 0.000956 0.000044 0.020154 0.000000 0.000000 0.000000
# 4 0.000000 0.000000 0.000000 -0.043226 0.000000 0.000000
# 5 0.000000 0.000000 0.000000 0.000000 -0.961122 0.000000
# 6 0.000000 0.000000 0.000000 0.000000 0.000000 0.142372
#
#
# Mechanical properties :
#
#
# Convention : Reuss Voigt Hill
#
# Bulk Modulus (GPa) = 26.06598 35.68930 30.87764
# Shear Modulus (GPa) = -6.21958 13.35303 3.56672
#
# Velocity S-wave (km/s) = -1.63841 2.40067 1.24073
# Velocity P-wave (km/s) = 2.76965 4.80499 3.92166
#
# Compressibility (1/GPa) = 0.03836418
#
# Stress axis : x y z
#
# Youngs Moduli (GPa) = 68.91249 139.76793 49.61838
#
# Poissons Ratio (x) = 0.38126 -0.04746
# Poissons Ratio (y) = 0.18798 -0.00216
# Poissons Ratio (z) = -0.06591 -0.00609
#
# Static dielectric constant tensor:
#      x y z
#    x 1.870380 0.000000 0.000000 
#    y 0.000000 1.868120 0.000000 
#    z 0.000000 0.000000 1.914860 
# 
# From -- ./inp_files/9619.got.cif
#   From: 2010.05.17/outbox.cif.g08.bks.cpg/sg59_5_cif.got.tgz:9619.got - 2010.06.03 14:40:33.
