data_PCOD9450809
_publ_section_title
;
Structure prediction by ZEFSAII (Michael W. Deem and Ramdas Pophale) SiO2 
 PCOD9450809
Probable space group: P M M N
;
_chemical_formula_sum "Si O2"
_cell_formula_units_Z 64
_cell_length_a 17.516428
_cell_length_b 20.336190
_cell_length_c 9.230315
_cell_angle_alpha 90.000000
_cell_angle_beta 90.000000
_cell_angle_gamma 90.000000
_cell_volume 3287.998884
_symmetry_space_group_name_H-M "P M M N"
_symmetry_group_IT_number 59
_space_group.IT_coordinate_system_code '2'
_symmetry_cell_setting 'orthorhombic'
loop_
_space_group_symop_operation_xyz
x,y,z
1/2-x,1/2-y,z
1/2+x,-y,-z
-x,1/2+y,-z
-x,-y,-z
1/2+x,1/2+y,-z
1/2-x,y,z
x,1/2-y,z
loop_
_atom_site_type_symbol
_atom_site_label
_atom_site_fract_x
_atom_site_fract_y
_atom_site_fract_z
Si Si1 0.434119 0.551550 0.551228
Si Si2 0.867982 0.819936 0.891708
Si Si3 0.842377 0.551710 0.263560
Si Si4 0.962411 0.326133 0.238374
Si Si5 0.591516 0.327842 0.922750
Si Si6 0.425956 0.323464 0.785002
Si Si7 0.664079 0.963188 0.933253
Si Si8 0.338326 0.572203 0.272983
O O1 0.500000 0.500000 0.500000
O O2 0.374098 0.507458 0.641671
O O3 0.458298 0.615187 0.645866
O O4 0.389955 0.579688 0.412729
O O5 0.833261 0.750000 0.847095
O O6 0.832311 0.890582 0.866057
O O7 0.951466 0.822324 0.821632
O O8 0.877540 0.818081 0.065985
O O9 0.750000 0.558420 0.269233
O O10 0.885154 0.619697 0.306026
O O11 0.867508 0.539493 0.095679
O O12 0.942441 0.250000 0.283690
O O13 0.914508 0.344480 0.093157
O O14 0.601920 0.250000 0.915212
O O15 0.510502 0.341828 0.841790
O O16 0.654614 0.366778 0.835143
O O17 0.428590 0.250000 0.719214
O O18 0.750000 0.988862 0.951700
O O19 0.626519 0.011793 0.819976
O O20 0.250000 0.559723 0.313162
#
# Coordination Sequence:
#
# PCOD9450809 Si02
#       8
#     8   8   8   8   8   8   8   8
#     4  12  24  37  55  81 111 150 192 228 273 330
#     4   8  14  27  49  78 107 131 165 218 269 312
#     4  10  20  35  55  79 110 146 184 227 272 325
#     4   9  19  37  60  81 104 138 182 230 273 320
#     4   9  18  36  61  84 105 135 179 229 277 327
#     4   8  15  29  52  82 109 134 171 219 268 316
#     4   9  18  32  52  77 105 141 180 220 272 330
#     4  11  23  37  53  77 111 144 176 225 285 338
#
# _framework density 19.464725000000001
#
# number of rings (size 3 to 8) (size 9 to 14) (size 15 to 20)
#    0.000    2.500    0.000    4.125    0.000    1.250 
#    0.000    8.750    0.000    3.375    0.000    1.750 
#    0.000    0.000    0.000    0.000    0.000    0.000 
#
# Total GULP energy -356398.654729 kJ/mol
# GULP energy per Si atom -5568.728980 kJ/mol
# Density = 1.942042 g / cm^3
# Si number density = 19.464725 Si / 1000 Ang^3
#
#
#
# Elastic Constant Matrix: (Units=GPa)
#
#
# Indices 1 2 3 4 5 6 
#
# 1 33.6553 23.8538 21.6358 0.0000 0.0000 0.0000
# 2 23.8538 90.9616 53.0490 0.0000 0.0000 0.0000
# 3 21.6358 53.0490 74.7216 0.0000 0.0000 0.0000
# 4 0.0000 0.0000 0.0000 11.1579 0.0000 0.0000
# 5 0.0000 0.0000 0.0000 0.0000 15.1085 0.0000
# 6 0.0000 0.0000 0.0000 0.0000 0.0000 11.7615
#
#
#
# Elastic Compliance Matrix: (Units=1/GPa)
#
#
# Indices 1 2 3 4 5 6 
#
# 1 0.038407 -0.006120 -0.006776 0.000000 0.000000 0.000000
# 2 -0.006120 0.019737 -0.012241 0.000000 0.000000 0.000000
# 3 -0.006776 -0.012241 0.024035 0.000000 0.000000 0.000000
# 4 0.000000 0.000000 0.000000 0.089623 0.000000 0.000000
# 5 0.000000 0.000000 0.000000 0.000000 0.066188 0.000000
# 6 0.000000 0.000000 0.000000 0.000000 0.000000 0.085023
#
#
# Mechanical properties :
#
#
# Convention : Reuss Voigt Hill
#
# Bulk Modulus (GPa) = 31.34166 44.04618 37.69392
# Shear Modulus (GPa) = 13.02351 14.32557 13.67454
#
# Velocity S-wave (km/s) = 2.58947 2.71583 2.65340
# Velocity P-wave (km/s) = 5.00771 5.70194 5.36607
#
# Compressibility (1/GPa) = 0.03190641
#
# Stress axis : x y z
#
# Youngs Moduli (GPa) = 26.03714 50.66551 41.60575
#
# Poissons Ratio (x) = 0.31008 0.28191
# Poissons Ratio (y) = 0.15935 0.50928
# Poissons Ratio (z) = 0.17642 0.62017
#
# Static dielectric constant tensor:
#      x y z
#    x 1.707280 0.000000 0.000000 
#    y 0.000000 1.738150 0.000000 
#    z 0.000000 0.000000 1.695260 
# 
# From -- ./inp_files/10689.got.cif
#   From: 2010.05.17/outbox.cif.g08.bks.cpg/sg59_6_cif.got.tgz:10689.got - 2010.06.03 14:40:33.
