data_PCOD9450969
_publ_section_title
;
Structure prediction by ZEFSAII (Michael W. Deem and Ramdas Pophale) SiO2 
 PCOD9450969
Probable space group: P M M N
;
_chemical_formula_sum "Si O2"
_cell_formula_units_Z 64
_cell_length_a 18.054802
_cell_length_b 8.480587
_cell_length_c 22.165531
_cell_angle_alpha 90.000000
_cell_angle_beta 90.000000
_cell_angle_gamma 90.000000
_cell_volume 3393.882353
_symmetry_space_group_name_H-M "P M M N"
_symmetry_group_IT_number 59
_space_group.IT_coordinate_system_code '2'
_symmetry_cell_setting 'orthorhombic'
loop_
_space_group_symop_operation_xyz
x,y,z
1/2-x,1/2-y,z
1/2+x,-y,-z
-x,1/2+y,-z
-x,-y,-z
1/2+x,1/2+y,-z
1/2-x,y,z
x,1/2-y,z
loop_
_atom_site_type_symbol
_atom_site_label
_atom_site_fract_x
_atom_site_fract_y
_atom_site_fract_z
Si Si1 0.600470 0.062820 0.618151
Si Si2 0.664071 0.941073 0.284764
Si Si3 0.330476 0.439777 0.125592
Si Si4 0.334890 0.063272 0.502443
Si Si5 0.896348 0.440085 0.754635
Si Si6 0.551809 0.560543 0.184436
Si Si7 0.936414 0.434989 0.393844
Si Si8 0.517819 0.561582 0.933896
O O1 0.613906 0.250000 0.613361
O O2 0.618822 0.010371 0.686303
O O3 0.645811 0.975041 0.566540
O O4 0.513315 0.029086 0.608724
O O5 0.750000 0.987069 0.287454
O O6 0.660059 0.750000 0.289920
O O7 0.624311 0.985982 0.221946
O O8 0.616568 0.013003 0.339031
O O9 0.250000 0.496094 0.104507
O O10 0.331313 0.250000 0.122481
O O11 0.343536 0.489492 0.194637
O O12 0.401340 0.498323 0.088204
O O13 0.250000 0.018051 0.515980
O O14 0.342503 0.250000 0.513592
O O15 0.392176 0.973234 0.545106
O O16 0.892043 0.250000 0.756658
O O17 0.979934 0.484452 0.775180
O O18 0.551503 0.750000 0.179079
O O19 0.539217 0.490914 0.118246
O O20 0.953060 0.250000 0.390086
O O21 0.519551 0.750000 0.935208
O O22 0.500000 0.500000 0.000000
#
# Coordination Sequence:
#
# PCOD9450969 Si02
#       8
#     8   8   8   8   8   8   8   8
#     4  11  22  39  61  84 112 146 188 234 282 341
#     4  10  20  36  59  85 114 149 187 230 284 341
#     4   9  19  35  55  81 113 146 183 228 274 325
#     4  11  25  43  59  78 109 148 189 235 289 346
#     4   9  18  33  55  81 109 142 178 220 270 327
#     4   9  17  34  56  80 111 144 181 223 268 326
#     4  12  24  38  59  84 112 146 189 237 286 340
#     4  10  20  35  57  83 110 148 191 230 274 324
#
# _framework density 18.85746
#
# number of rings (size 3 to 8) (size 9 to 14) (size 15 to 20)
#    0.000    1.875    1.250    3.000    0.000    5.500 
#    0.000    3.125    0.000    3.750    0.000    0.000 
#    0.000    0.000    0.000    0.000    0.000    0.000 
#
# Total GULP energy -357451.503267 kJ/mol
# GULP energy per Si atom -5585.179739 kJ/mol
# Density = 1.881454 g / cm^3
# Si number density = 18.857460 Si / 1000 Ang^3
#
#
#
# Elastic Constant Matrix: (Units=GPa)
#
#
# Indices 1 2 3 4 5 6 
#
# 1 41.1170 -4.4195 1.1532 0.0000 0.0000 0.0000
# 2 -4.4195 9.5930 1.3920 0.0000 0.0000 0.0000
# 3 1.1532 1.3920 101.0123 0.0000 0.0000 0.0000
# 4 0.0000 0.0000 0.0000 31.9910 0.0000 0.0000
# 5 0.0000 0.0000 0.0000 0.0000 13.2266 0.0000
# 6 0.0000 0.0000 0.0000 0.0000 0.0000 21.1229
#
#
#
# Elastic Compliance Matrix: (Units=1/GPa)
#
#
# Indices 1 2 3 4 5 6 
#
# 1 0.025609 0.011864 -0.000456 0.000000 0.000000 0.000000
# 2 0.011864 0.109948 -0.001651 0.000000 0.000000 0.000000
# 3 -0.000456 -0.001651 0.009928 0.000000 0.000000 0.000000
# 4 0.000000 0.000000 0.000000 0.031259 0.000000 0.000000
# 5 0.000000 0.000000 0.000000 0.000000 0.075605 0.000000
# 6 0.000000 0.000000 0.000000 0.000000 0.000000 0.047342
#
#
# Mechanical properties :
#
#
# Convention : Reuss Voigt Hill
#
# Bulk Modulus (GPa) = 6.06059 16.44150 11.25105
# Shear Modulus (GPa) = 14.91756 23.50787 19.21271
#
# Velocity S-wave (km/s) = 2.81565 3.53456 3.19539
# Velocity P-wave (km/s) = 3.71367 5.03937 4.42643
#
# Compressibility (1/GPa) = 0.16500053
#
# Stress axis : x y z
#
# Youngs Moduli (GPa) = 39.04891 9.09519 100.72789
#
# Poissons Ratio (x) = -0.10791 0.04592
# Poissons Ratio (y) = -0.46329 0.16626
# Poissons Ratio (z) = 0.01780 0.01501
#
# Static dielectric constant tensor:
#      x y z
#    x 1.656930 0.000000 0.000000 
#    y 0.000000 1.642090 0.000000 
#    z 0.000000 0.000000 1.634960 
# 
# From -- ./inp_files/30728.got.cif
#   From: 2010.05.17/outbox.cif.g08.bks.cpg/sg59_16_cif.got.tgz:30728.got - 2010.06.03 14:40:33.
