data_PCOD9450046
_publ_section_title
;
Structure prediction by ZEFSAII (Michael W. Deem and Ramdas Pophale) SiO2 
 PCOD9450046
Probable space group: P M M N
;
_chemical_formula_sum "Si O2"
_cell_formula_units_Z 64
_cell_length_a 15.174164
_cell_length_b 17.838103
_cell_length_c 11.992956
_cell_angle_alpha 90.000000
_cell_angle_beta 90.000000
_cell_angle_gamma 90.000000
_cell_volume 3246.232947
_symmetry_space_group_name_H-M "P M M N"
_symmetry_group_IT_number 59
_space_group.IT_coordinate_system_code '2'
_symmetry_cell_setting 'orthorhombic'
loop_
_space_group_symop_operation_xyz
x,y,z
1/2-x,1/2-y,z
1/2+x,-y,-z
-x,1/2+y,-z
-x,-y,-z
1/2+x,1/2+y,-z
1/2-x,y,z
x,1/2-y,z
loop_
_atom_site_type_symbol
_atom_site_label
_atom_site_fract_x
_atom_site_fract_y
_atom_site_fract_z
Si Si1 0.989011 0.338056 0.744952
Si Si2 0.352777 0.065150 0.200589
Si Si3 0.930011 0.442503 0.946343
Si Si4 0.848424 0.929639 0.324465
Si Si5 0.650138 0.097966 0.301226
Si Si6 0.925303 0.337692 0.503073
Si Si7 0.478299 0.836637 0.864603
Si Si8 0.926646 0.557592 0.552202
O O1 0.984795 0.250000 0.770688
O O2 0.964631 0.390920 0.846377
O O3 0.929625 0.352844 0.635164
O O4 0.086399 0.364425 0.710372
O O5 0.250000 0.089300 0.209045
O O6 0.425583 0.125408 0.155715
O O7 0.390239 0.043075 0.324254
O O8 0.358801 0.995929 0.113155
O O9 0.919623 0.383162 0.046036
O O10 0.000000 0.500000 0.000000
O O11 0.750000 0.916631 0.285286
O O12 0.852603 0.937383 0.458068
O O13 0.878060 0.011728 0.280238
O O14 0.750000 0.107616 0.262678
O O15 0.644478 0.115123 0.432800
O O16 0.580885 0.152998 0.245163
O O17 0.910753 0.250000 0.487961
O O18 0.019584 0.364420 0.454138
O O19 0.488251 0.750000 0.895078
O O20 0.000000 0.500000 0.500000
#
# Coordination Sequence:
#
# PCOD9450046 Si02
#       8
#     8   8   8   8   8   8   8   8
#     4  10  21  38  61  87 120 163 204 255 317 381
#     4  11  23  38  62  95 128 165 210 268 324 380
#     4  10  22  41  64  86 115 158 215 262 313 371
#     4  10  20  33  54  88 123 158 201 247 302 373
#     4  11  22  37  61  92 122 162 213 266 317 380
#     4  10  20  34  56  86 122 159 194 250 320 380
#     4  11  23  42  65  88 123 167 212 264 322 384
#     4  11  18  34  58  84 124 167 207 247 302 380
#
# _framework density 19.715160999999998
#
# number of rings (size 3 to 8) (size 9 to 14) (size 15 to 20)
#    0.000    1.500    2.500    4.125    0.000    2.000 
#    0.000    3.750    0.000    7.125    0.000    0.000 
#    0.000    0.000    0.000    0.000    0.000    0.000 
#
# Total GULP energy -356626.199411 kJ/mol
# GULP energy per Si atom -5572.284366 kJ/mol
# Density = 1.967029 g / cm^3
# Si number density = 19.715161 Si / 1000 Ang^3
#
#
#
# Elastic Constant Matrix: (Units=GPa)
#
#
# Indices 1 2 3 4 5 6 
#
# 1 67.6253 15.6880 9.5042 0.0000 0.0000 0.0000
# 2 15.6880 92.0382 22.0835 0.0000 0.0000 0.0000
# 3 9.5042 22.0835 74.5124 0.0000 0.0000 0.0000
# 4 0.0000 0.0000 0.0000 31.7431 0.0000 0.0000
# 5 0.0000 0.0000 0.0000 0.0000 12.6164 0.0000
# 6 0.0000 0.0000 0.0000 0.0000 0.0000 13.7679
#
#
#
# Elastic Compliance Matrix: (Units=1/GPa)
#
#
# Indices 1 2 3 4 5 6 
#
# 1 0.015510 -0.002335 -0.001286 0.000000 0.000000 0.000000
# 2 -0.002335 0.012048 -0.003273 0.000000 0.000000 0.000000
# 3 -0.001286 -0.003273 0.014555 0.000000 0.000000 0.000000
# 4 0.000000 0.000000 0.000000 0.031503 0.000000 0.000000
# 5 0.000000 0.000000 0.000000 0.000000 0.079262 0.000000
# 6 0.000000 0.000000 0.000000 0.000000 0.000000 0.072633
#
#
# Mechanical properties :
#
#
# Convention : Reuss Voigt Hill
#
# Bulk Modulus (GPa) = 35.30538 36.52527 35.91532
# Shear Modulus (GPa) = 20.10128 24.08550 22.09339
#
# Velocity S-wave (km/s) = 3.19656 3.49904 3.35121
# Velocity P-wave (km/s) = 5.61877 5.90686 5.76462
#
# Compressibility (1/GPa) = 0.02832430
#
# Stress axis : x y z
#
# Youngs Moduli (GPa) = 64.47526 82.99878 68.70650
#
# Poissons Ratio (x) = 0.19381 0.08838
# Poissons Ratio (y) = 0.15055 0.22487
# Poissons Ratio (z) = 0.08293 0.27165
#
# Static dielectric constant tensor:
#      x y z
#    x 1.688500 0.000000 0.000000 
#    y 0.000000 1.704800 0.000000 
#    z 0.000000 0.000000 1.776170 
# 
# From -- ./inp_files/17225.got.cif
#   From: 2010.05.17/outbox.cif.g08.bks.cpg/sg59_9_cif.got.tgz:17225.got - 2010.06.03 14:40:33.
