data_PCOD9450820
_publ_section_title
;
Structure prediction by ZEFSAII (Michael W. Deem and Ramdas Pophale) SiO2 
 PCOD9450820
Probable space group: P M M N
;
_chemical_formula_sum "Si O2"
_cell_formula_units_Z 48
_cell_length_a 15.027037
_cell_length_b 8.876895
_cell_length_c 20.155992
_cell_angle_alpha 90.000000
_cell_angle_beta 90.000000
_cell_angle_gamma 90.000000
_cell_volume 2688.676900
_symmetry_space_group_name_H-M "P M M N"
_symmetry_group_IT_number 59
_space_group.IT_coordinate_system_code '2'
_symmetry_cell_setting 'orthorhombic'
loop_
_space_group_symop_operation_xyz
x,y,z
1/2-x,1/2-y,z
1/2+x,-y,-z
-x,1/2+y,-z
-x,-y,-z
1/2+x,1/2+y,-z
1/2-x,y,z
x,1/2-y,z
loop_
_atom_site_type_symbol
_atom_site_label
_atom_site_fract_x
_atom_site_fract_y
_atom_site_fract_z
Si Si1 0.933259 0.071011 0.051872
Si Si2 0.561746 0.430867 0.207256
Si Si3 0.750000 0.932606 0.478987
Si Si4 0.750000 0.568213 0.635740
Si Si5 0.750000 0.577788 0.215166
Si Si6 0.944328 0.931421 0.439695
Si Si7 0.434706 0.568901 0.313317
Si Si8 0.750000 0.578615 0.054343
O O1 0.936511 0.250000 0.048092
O O2 0.948469 0.029533 0.129222
O O3 0.836750 0.009627 0.033362
O O4 0.000000 0.000000 0.000000
O O5 0.562929 0.250000 0.213259
O O6 0.657228 0.495844 0.232271
O O7 0.480994 0.501826 0.248186
O O8 0.750000 0.750000 0.476263
O O9 0.750000 0.973287 0.557164
O O10 0.841856 0.983773 0.445118
O O11 0.750000 0.750000 0.640209
O O12 0.839210 0.502071 0.668907
O O13 0.750000 0.750000 0.240353
O O14 0.750000 0.581890 0.134766
O O15 0.944341 0.750000 0.445950
O O16 0.996218 0.969200 0.372584
O O17 0.000000 0.000000 0.500000
O O18 0.426914 0.750000 0.309040
O O19 0.750000 0.750000 0.030561
#
# Coordination Sequence:
#
# PCOD9450820 Si02
#       8
#     8   8   4   4   4   8   8   4
#     4  10  20  35  57  84 114 149 189 235 281 333
#     4  10  21  37  57  83 116 152 190 229 278 340
#     4   9  18  34  56  80 107 143 182 223 275 332
#     4  11  21  37  61  79 105 151 191 228 281 345
#     4   9  17  32  56  82 111 146 182 225 279 329
#     4  10  20  35  55  80 108 140 182 228 275 328
#     4  11  23  37  57  84 114 146 187 238 285 333
#     4   9  17  31  53  81 111 146 185 224 273 336
#
# _framework density 17.852646
#
# number of rings (size 3 to 8) (size 9 to 14) (size 15 to 20)
#    0.000    2.000    1.667    2.250    0.000    5.333 
#    0.000    2.917    0.000    5.000    0.000    0.000 
#    0.000    0.000    0.000    0.000    0.000    0.000 
#
# Total GULP energy -267876.339922 kJ/mol
# GULP energy per Si atom -5580.757082 kJ/mol
# Density = 1.781201 g / cm^3
# Si number density = 17.852646 Si / 1000 Ang^3
#
#
#
# Elastic Constant Matrix: (Units=GPa)
#
#
# Indices 1 2 3 4 5 6 
#
# 1 198.5709 59.2704 80.9827 0.0000 0.0000 0.0000
# 2 59.2704 61.9601 51.2112 0.0000 0.0000 0.0000
# 3 80.9827 51.2112 82.3510 0.0000 0.0000 0.0000
# 4 0.0000 0.0000 0.0000 24.5870 0.0000 0.0000
# 5 0.0000 0.0000 0.0000 0.0000 48.9281 0.0000
# 6 0.0000 0.0000 0.0000 0.0000 0.0000 34.6207
#
#
#
# Elastic Compliance Matrix: (Units=1/GPa)
#
#
# Indices 1 2 3 4 5 6 
#
# 1 0.008599 -0.002544 -0.006874 0.000000 0.000000 0.000000
# 2 -0.002544 0.033960 -0.018617 0.000000 0.000000 0.000000
# 3 -0.006874 -0.018617 0.030480 0.000000 0.000000 0.000000
# 4 0.000000 0.000000 0.000000 0.040672 0.000000 0.000000
# 5 0.000000 0.000000 0.000000 0.000000 0.020438 0.000000
# 6 0.000000 0.000000 0.000000 0.000000 0.000000 0.028884
#
#
# Mechanical properties :
#
#
# Convention : Reuss Voigt Hill
#
# Bulk Modulus (GPa) = 58.92959 80.64561 69.78760
# Shear Modulus (GPa) = 22.24610 31.72168 26.98389
#
# Velocity S-wave (km/s) = 3.53384 4.21986 3.89199
# Velocity P-wave (km/s) = 7.05204 8.30746 7.70536
#
# Compressibility (1/GPa) = 0.01696940
#
# Stress axis : x y z
#
# Youngs Moduli (GPa) = 116.29753 29.44620 32.80882
#
# Poissons Ratio (x) = 0.07492 0.22551
# Poissons Ratio (y) = 0.29588 0.61079
# Poissons Ratio (z) = 0.79938 0.54819
#
# Static dielectric constant tensor:
#      x y z
#    x 1.592500 0.000000 0.000000 
#    y 0.000000 1.596330 0.000000 
#    z 0.000000 0.000000 1.606160 
# 
# From -- ./inp_files/27519.got.cif
#   From: 2010.05.17/outbox.cif.g08.bks.cpg/sg59_14_cif.got.tgz:27519.got - 2010.06.03 14:40:33.
