data_PCOD9450337
_publ_section_title
;
Structure prediction by ZEFSAII (Michael W. Deem and Ramdas Pophale) SiO2 
 PCOD9450337
Probable space group: P M M N
;
_chemical_formula_sum "Si O2"
_cell_formula_units_Z 64
_cell_length_a 22.397833
_cell_length_b 9.979692
_cell_length_c 16.721596
_cell_angle_alpha 90.000000
_cell_angle_beta 90.000000
_cell_angle_gamma 90.000000
_cell_volume 3737.669242
_symmetry_space_group_name_H-M "P M M N"
_symmetry_group_IT_number 59
_space_group.IT_coordinate_system_code '2'
_symmetry_cell_setting 'orthorhombic'
loop_
_space_group_symop_operation_xyz
x,y,z
1/2-x,1/2-y,z
1/2+x,-y,-z
-x,1/2+y,-z
-x,-y,-z
1/2+x,1/2+y,-z
1/2-x,y,z
x,1/2-y,z
loop_
_atom_site_type_symbol
_atom_site_label
_atom_site_fract_x
_atom_site_fract_y
_atom_site_fract_z
Si Si1 0.819722 0.399304 0.305317
Si Si2 0.915334 0.906725 0.032889
Si Si3 0.349111 0.099930 0.560860
Si Si4 0.178349 0.095411 0.832800
Si Si5 0.582435 0.089898 0.711229
Si Si6 0.455945 0.908215 0.107849
Si Si7 0.179179 0.407523 0.373349
Si Si8 0.989314 0.900891 0.427446
O O1 0.750000 0.385031 0.285928
O O2 0.846219 0.250000 0.310120
O O3 0.822224 0.481239 0.387424
O O4 0.844200 0.494268 0.235299
O O5 0.916138 0.750000 0.009046
O O6 0.856723 0.931459 0.085535
O O7 0.973734 0.928822 0.088867
O O8 0.921589 0.001775 0.956663
O O9 0.324694 0.250000 0.578319
O O10 0.340170 0.076548 0.466416
O O11 0.418549 0.100785 0.584955
O O12 0.250000 0.084492 0.842321
O O13 0.165517 0.250000 0.809245
O O14 0.595175 0.250000 0.707172
O O15 0.562352 0.058735 0.801592
O O16 0.527730 0.062587 0.650206
O O17 0.638339 0.003007 0.680736
O O18 0.443969 0.750000 0.095240
O O19 0.250000 0.435536 0.366699
O O20 0.169725 0.250000 0.353665
O O21 0.007692 0.750000 0.450783
O O22 0.000000 0.000000 0.500000
#
# Coordination Sequence:
#
# PCOD9450337 Si02
#       8
#     8   8   8   8   8   8   8   8
#     4  10  21  34  48  73 108 141 176 217 257 303
#     4   9  18  34  57  81 106 135 171 213 259 313
#     4  10  20  34  54  76 102 140 181 218 262 314
#     4   9  18  33  54  78 105 139 174 209 257 319
#     4  10  21  36  55  80 109 141 176 216 265 317
#     4   9  19  35  55  78 106 137 171 214 262 315
#     4  10  21  37  56  77 103 139 183 228 269 310
#     4  10  20  34  54  78 106 138 173 214 261 312
#
# _framework density 17.122969999999999
#
# number of rings (size 3 to 8) (size 9 to 14) (size 15 to 20)
#    0.000    2.375    1.250    0.750    1.750    3.500 
#    0.000    0.625    0.000    2.250    0.000    0.000 
#    0.000    0.000    0.000    0.000    0.000    0.000 
#
# Total GULP energy -356720.019392 kJ/mol
# GULP energy per Si atom -5573.750303 kJ/mol
# Density = 1.708400 g / cm^3
# Si number density = 17.122970 Si / 1000 Ang^3
#
#
#
# Elastic Constant Matrix: (Units=GPa)
#
#
# Indices 1 2 3 4 5 6 
#
# 1 65.3779 43.2261 47.5423 0.0000 0.0000 0.0000
# 2 43.2261 98.4754 87.4888 0.0000 0.0000 0.0000
# 3 47.5423 87.4888 132.6714 0.0000 0.0000 0.0000
# 4 0.0000 0.0000 0.0000 29.9318 0.0000 0.0000
# 5 0.0000 0.0000 0.0000 0.0000 21.5323 0.0000
# 6 0.0000 0.0000 0.0000 0.0000 0.0000 21.1545
#
#
#
# Elastic Compliance Matrix: (Units=1/GPa)
#
#
# Indices 1 2 3 4 5 6 
#
# 1 0.022280 -0.006487 -0.003706 0.000000 0.000000 0.000000
# 2 -0.006487 0.026410 -0.015091 0.000000 0.000000 0.000000
# 3 -0.003706 -0.015091 0.018817 0.000000 0.000000 0.000000
# 4 0.000000 0.000000 0.000000 0.033409 0.000000 0.000000
# 5 0.000000 0.000000 0.000000 0.000000 0.046442 0.000000
# 6 0.000000 0.000000 0.000000 0.000000 0.000000 0.047271
#
#
# Mechanical properties :
#
#
# Convention : Reuss Voigt Hill
#
# Bulk Modulus (GPa) = 59.03811 72.55991 65.79901
# Shear Modulus (GPa) = 19.93278 22.40824 21.17051
#
# Velocity S-wave (km/s) = 3.41559 3.62147 3.52004
# Velocity P-wave (km/s) = 7.07875 7.74303 7.41833
#
# Compressibility (1/GPa) = 0.01693821
#
# Stress axis : x y z
#
# Youngs Moduli (GPa) = 44.88364 37.86483 53.14363
#
# Poissons Ratio (x) = 0.24564 0.19694
# Poissons Ratio (y) = 0.29118 0.80198
# Poissons Ratio (z) = 0.16633 0.57141
#
# Static dielectric constant tensor:
#      x y z
#    x 1.618850 0.000000 0.000000 
#    y 0.000000 1.600740 0.000000 
#    z 0.000000 0.000000 1.551110 
# 
# From -- ./inp_files/24709.got.cif
#   From: 2010.05.17/outbox.cif.g08.bks.cpg/sg59_13_cif.got.tgz:24709.got - 2010.06.03 14:40:33.
