data_PCOD9450236
_publ_section_title
;
Structure prediction by ZEFSAII (Michael W. Deem and Ramdas Pophale) SiO2 
 PCOD9450236
Probable space group: P M M N
;
_chemical_formula_sum "Si O2"
_cell_formula_units_Z 48
_cell_length_a 9.353905
_cell_length_b 7.823999
_cell_length_c 32.416475
_cell_angle_alpha 90.000000
_cell_angle_beta 90.000000
_cell_angle_gamma 90.000000
_cell_volume 2372.397887
_symmetry_space_group_name_H-M "P M M N"
_symmetry_group_IT_number 59
_space_group.IT_coordinate_system_code '2'
_symmetry_cell_setting 'orthorhombic'
loop_
_space_group_symop_operation_xyz
x,y,z
1/2-x,1/2-y,z
1/2+x,-y,-z
-x,1/2+y,-z
-x,-y,-z
1/2+x,1/2+y,-z
1/2-x,y,z
x,1/2-y,z
loop_
_atom_site_type_symbol
_atom_site_label
_atom_site_fract_x
_atom_site_fract_y
_atom_site_fract_z
Si Si1 0.412368 0.543789 0.459134
Si Si2 0.085419 0.959535 0.121679
Si Si3 0.413685 0.045362 0.619879
Si Si4 0.412997 0.044130 0.959008
Si Si5 0.413609 0.953385 0.709039
Si Si6 0.086129 0.045435 0.798301
O O1 0.500000 0.500000 0.500000
O O2 0.250000 0.479711 0.461645
O O3 0.406778 0.750000 0.456361
O O4 0.493386 0.479766 0.418214
O O5 0.250000 0.013966 0.119539
O O6 0.085133 0.750000 0.121720
O O7 0.996447 0.016163 0.081707
O O8 0.008280 0.017226 0.163652
O O9 0.250000 0.977929 0.618187
O O10 0.405465 0.250000 0.615913
O O11 0.476607 0.008439 0.665219
O O12 0.250000 0.979826 0.960692
O O13 0.406692 0.250000 0.956322
O O14 0.500000 0.000000 0.000000
O O15 0.250000 0.023861 0.709046
O O16 0.407456 0.750000 0.708960
O O17 0.476226 0.007926 0.752935
O O18 0.250000 0.978225 0.800231
O O19 0.094565 0.250000 0.802224
#
# Coordination Sequence:
#
# PCOD9450236 Si02
#       6
#     8   8   8   8   8   8
#     4  10  21  36  54  77 104 134 169 209 253 301
#     4   9  17  30  49  72  97 127 165 207 248 292
#     4   9  17  31  51  73  98 130 167 205 245 292
#     4  10  20  34  53  77 104 134 169 209 253 302
#     4   9  17  29  47  72  99 126 159 200 245 293
#     4   9  16  28  48  71  93 121 160 202 242 288
#
# _framework density 20.232693000000001
#
# number of rings (size 3 to 8) (size 9 to 14) (size 15 to 20)
#    0.000    2.667    0.000    2.000    0.000    6.667 
#    0.000    3.333    0.000    8.500    0.000    0.000 
#    0.000    0.000    0.000    0.000    0.000    0.000 
#
# Total GULP energy -267788.874988 kJ/mol
# GULP energy per Si atom -5578.934896 kJ/mol
# Density = 2.018664 g / cm^3
# Si number density = 20.232693 Si / 1000 Ang^3
#
#
#
# Elastic Constant Matrix: (Units=GPa)
#
#
# Indices 1 2 3 4 5 6 
#
# 1 141.5626 8.1636 116.1306 0.0000 0.0000 0.0000
# 2 8.1636 22.9271 3.2167 0.0000 0.0000 0.0000
# 3 116.1306 3.2167 244.9329 0.0000 0.0000 0.0000
# 4 0.0000 0.0000 0.0000 24.3622 0.0000 0.0000
# 5 0.0000 0.0000 0.0000 0.0000 31.7360 0.0000
# 6 0.0000 0.0000 0.0000 0.0000 0.0000 10.6003
#
#
#
# Elastic Compliance Matrix: (Units=1/GPa)
#
#
# Indices 1 2 3 4 5 6 
#
# 1 0.011824 -0.003430 -0.005561 0.000000 0.000000 0.000000
# 2 -0.003430 0.044692 0.001039 0.000000 0.000000 0.000000
# 3 -0.005561 0.001039 0.006706 0.000000 0.000000 0.000000
# 4 0.000000 0.000000 0.000000 0.041047 0.000000 0.000000
# 5 0.000000 0.000000 0.000000 0.000000 0.031510 0.000000
# 6 0.000000 0.000000 0.000000 0.000000 0.000000 0.094337
#
#
# Mechanical properties :
#
#
# Convention : Reuss Voigt Hill
#
# Bulk Modulus (GPa) = 21.13346 73.82714 47.48030
# Shear Modulus (GPa) = 19.09914 32.13379 25.61647
#
# Velocity S-wave (km/s) = 3.07575 3.98956 3.56208
# Velocity P-wave (km/s) = 4.80432 7.60200 6.35893
#
# Compressibility (1/GPa) = 0.04731834
#
# Stress axis : x y z
#
# Youngs Moduli (GPa) = 84.57564 22.37538 149.12602
#
# Poissons Ratio (x) = 0.07674 0.82929
# Poissons Ratio (y) = 0.29008 -0.15498
# Poissons Ratio (z) = 0.47032 -0.02325
#
# Static dielectric constant tensor:
#      x y z
#    x 1.710690 0.000000 0.000000 
#    y 0.000000 1.744610 0.000000 
#    z 0.000000 0.000000 1.711500 
# 
# From -- ./inp_files/32863.got.cif
#   From: 2010.05.17/outbox.cif.g08.bks.cpg/sg59_17_cif.got.tgz:32863.got - 2010.06.03 14:40:33.
