data_PCOD9450856
_publ_section_title
;
Structure prediction by ZEFSAII (Michael W. Deem and Ramdas Pophale) SiO2 
 PCOD9450856
Probable space group: P M M N
;
_chemical_formula_sum "Si O2"
_cell_formula_units_Z 64
_cell_length_a 18.909088
_cell_length_b 9.552453
_cell_length_c 20.425400
_cell_angle_alpha 90.000000
_cell_angle_beta 90.000000
_cell_angle_gamma 90.000000
_cell_volume 3689.402713
_symmetry_space_group_name_H-M "P M M N"
_symmetry_group_IT_number 59
_space_group.IT_coordinate_system_code '2'
_symmetry_cell_setting 'orthorhombic'
loop_
_space_group_symop_operation_xyz
x,y,z
1/2-x,1/2-y,z
1/2+x,-y,-z
-x,1/2+y,-z
-x,-y,-z
1/2+x,1/2+y,-z
1/2-x,y,z
x,1/2-y,z
loop_
_atom_site_type_symbol
_atom_site_label
_atom_site_fract_x
_atom_site_fract_y
_atom_site_fract_z
Si Si1 0.419757 0.917039 0.590234
Si Si2 0.832253 0.082795 0.539918
Si Si3 0.541976 0.913203 0.786292
Si Si4 0.669477 0.588466 0.305926
Si Si5 0.917724 0.414447 0.051254
Si Si6 0.942472 0.084531 0.910268
Si Si7 0.127675 0.590331 0.810872
Si Si8 0.075220 0.417304 0.363824
O O1 0.411835 0.750000 0.600628
O O2 0.381756 0.953134 0.522164
O O3 0.502789 0.948829 0.596517
O O4 0.380223 0.998796 0.647455
O O5 0.750000 0.050256 0.526478
O O6 0.837838 0.250000 0.550101
O O7 0.861837 0.000529 0.602231
O O8 0.560212 0.750000 0.795595
O O9 0.456642 0.922417 0.795108
O O10 0.562249 0.953786 0.712391
O O11 0.576513 0.005628 0.843480
O O12 0.750000 0.580440 0.330091
O O13 0.647447 0.750000 0.304420
O O14 0.665548 0.520991 0.234243
O O15 0.941825 0.250000 0.055383
O O16 0.863956 0.431227 0.111326
O O17 0.982197 0.517998 0.068155
O O18 0.895704 0.437046 0.976013
O O19 0.948654 0.250000 0.898580
O O20 0.148552 0.750000 0.794453
O O21 0.086768 0.250000 0.367245
#
# Coordination Sequence:
#
# PCOD9450856 Si02
#       8
#     8   8   8   8   8   8   8   8
#     4  10  20  38  59  77 100 135 174 209 252 308
#     4  10  22  38  56  80 107 134 168 210 255 306
#     4   9  17  30  46  69 101 130 162 205 249 297
#     4  11  23  34  46  71 104 134 170 217 263 308
#     4   8  15  26  39  59  91 127 162 202 245 293
#     4   9  15  23  39  65  94 126 162 199 246 297
#     4   9  16  30  48  64  91 132 171 208 249 298
#     4  10  20  35  56  80 105 136 173 211 254 305
#
# _framework density 17.346982000000001
#
# number of rings (size 3 to 8) (size 9 to 14) (size 15 to 20)
#    0.000    2.500    1.250    2.250    0.000    5.750 
#    0.000    0.000    0.000    0.000    0.000    0.875 
#    0.000    1.000    0.000    0.000    0.000    0.000 
#
# Total GULP energy -356580.184137 kJ/mol
# GULP energy per Si atom -5571.565377 kJ/mol
# Density = 1.730750 g / cm^3
# Si number density = 17.346982 Si / 1000 Ang^3
#
#
#
# Elastic Constant Matrix: (Units=GPa)
#
#
# Indices 1 2 3 4 5 6 
#
# 1 28.1293 18.8423 33.1322 0.0000 0.0000 0.0000
# 2 18.8423 35.5165 42.6135 0.0000 0.0000 0.0000
# 3 33.1322 42.6135 121.2368 0.0000 0.0000 0.0000
# 4 0.0000 0.0000 0.0000 31.7953 0.0000 0.0000
# 5 0.0000 0.0000 0.0000 0.0000 6.1668 0.0000
# 6 0.0000 0.0000 0.0000 0.0000 0.0000 18.6448
#
#
#
# Elastic Compliance Matrix: (Units=1/GPa)
#
#
# Indices 1 2 3 4 5 6 
#
# 1 0.060412 -0.021168 -0.009069 0.000000 0.000000 0.000000
# 2 -0.021168 0.056107 -0.013936 0.000000 0.000000 0.000000
# 3 -0.009069 -0.013936 0.015625 0.000000 0.000000 0.000000
# 4 0.000000 0.000000 0.000000 0.031451 0.000000 0.000000
# 5 0.000000 0.000000 0.000000 0.000000 0.162160 0.000000
# 6 0.000000 0.000000 0.000000 0.000000 0.000000 0.053634
#
#
# Mechanical properties :
#
#
# Convention : Reuss Voigt Hill
#
# Bulk Modulus (GPa) = 22.83271 41.56206 32.19738
# Shear Modulus (GPa) = 10.36624 17.34101 13.85363
#
# Velocity S-wave (km/s) = 2.44720 3.16516 2.82905
# Velocity P-wave (km/s) = 4.60174 6.11301 5.41040
#
# Compressibility (1/GPa) = 0.04379682
#
# Stress axis : x y z
#
# Youngs Moduli (GPa) = 16.55307 17.82311 63.99925
#
# Poissons Ratio (x) = 0.37728 0.58042
# Poissons Ratio (y) = 0.35040 0.89190
# Poissons Ratio (z) = 0.15012 0.24838
#
# Static dielectric constant tensor:
#      x y z
#    x 1.571930 0.000000 0.000000 
#    y 0.000000 1.577370 0.000000 
#    z 0.000000 0.000000 1.629060 
# 
# From -- ./inp_files/30796.got.cif
#   From: 2010.05.17/outbox.cif.g08.bks.cpg/sg59_16_cif.got.tgz:30796.got - 2010.06.03 14:40:33.
