data_PCOD9450609
_publ_section_title
;
Structure prediction by ZEFSAII (Michael W. Deem and Ramdas Pophale) SiO2 
 PCOD9450609
Probable space group: P M M N
;
_chemical_formula_sum "Si O2"
_cell_formula_units_Z 64
_cell_length_a 18.731124
_cell_length_b 20.952746
_cell_length_c 9.248603
_cell_angle_alpha 90.000000
_cell_angle_beta 90.000000
_cell_angle_gamma 90.000000
_cell_volume 3629.785194
_symmetry_space_group_name_H-M "P M M N"
_symmetry_group_IT_number 59
_space_group.IT_coordinate_system_code '2'
_symmetry_cell_setting 'orthorhombic'
loop_
_space_group_symop_operation_xyz
x,y,z
1/2-x,1/2-y,z
1/2+x,-y,-z
-x,1/2+y,-z
-x,-y,-z
1/2+x,1/2+y,-z
1/2-x,y,z
x,1/2-y,z
loop_
_atom_site_type_symbol
_atom_site_label
_atom_site_fract_x
_atom_site_fract_y
_atom_site_fract_z
Si Si1 0.458269 0.482572 0.141582
Si Si2 0.830568 0.673221 0.500970
Si Si3 0.329618 0.079458 0.244759
Si Si4 0.985217 0.674830 0.423211
Si Si5 0.164330 0.673037 0.910877
Si Si6 0.432635 0.900791 0.672957
Si Si7 0.100674 0.878551 0.214140
Si Si8 0.171513 0.546033 0.445874
O O1 0.389633 0.436633 0.128626
O O2 0.511459 0.445096 0.245033
O O3 0.431554 0.551013 0.194131
O O4 0.500000 0.500000 0.000000
O O5 0.750000 0.652896 0.452222
O O6 0.829699 0.750000 0.506923
O O7 0.840294 0.642616 0.660168
O O8 0.901959 0.653161 0.413392
O O9 0.250000 0.079250 0.183438
O O10 0.334143 0.020776 0.360042
O O11 0.983462 0.750000 0.445214
O O12 0.022805 0.643531 0.562795
O O13 0.036343 0.660701 0.286839
O O14 0.250000 0.658863 0.901424
O O15 0.156293 0.750000 0.900291
O O16 0.117898 0.638172 0.785056
O O17 0.133219 0.649388 0.066578
O O18 0.385498 0.945676 0.570379
O O19 0.160401 0.894653 0.334942
O O20 0.250000 0.549475 0.509584
#
# Coordination Sequence:
#
# PCOD9450609 Si02
#       8
#     8   8   8   8   8   8   8   8
#     4  11  21  36  53  78 109 146 180 224 264 321
#     4   9  17  30  50  77 107 136 169 216 268 318
#     4   9  18  33  54  78 107 139 178 219 267 319
#     4  10  20  34  56  83 109 139 180 223 269 321
#     4  11  23  39  57  78 107 145 185 226 273 327
#     4  11  21  35  55  79 111 141 181 224 271 316
#     4  10  21  35  57  77 110 142 182 221 268 324
#     4   9  19  33  53  80 108 140 175 220 269 315
#
# _framework density 17.631896999999999
#
# number of rings (size 3 to 8) (size 9 to 14) (size 15 to 20)
#    0.000    2.000    2.500    1.500    1.750    2.000 
#    0.000    0.000    0.000    6.750    0.000    0.000 
#    0.000    5.000    0.000    0.000    0.000    0.000 
#
# Total GULP energy -356349.156374 kJ/mol
# GULP energy per Si atom -5567.955568 kJ/mol
# Density = 1.759177 g / cm^3
# Si number density = 17.631897 Si / 1000 Ang^3
#
#
#
# Elastic Constant Matrix: (Units=GPa)
#
#
# Indices 1 2 3 4 5 6 
#
# 1 123.0513 15.5021 25.8071 0.0000 0.0000 0.0000
# 2 15.5021 27.6680 -6.8796 0.0000 0.0000 0.0000
# 3 25.8071 -6.8796 39.8305 0.0000 0.0000 0.0000
# 4 0.0000 0.0000 0.0000 10.3547 0.0000 0.0000
# 5 0.0000 0.0000 0.0000 0.0000 23.5843 0.0000
# 6 0.0000 0.0000 0.0000 0.0000 0.0000 26.3248
#
#
#
# Elastic Compliance Matrix: (Units=1/GPa)
#
#
# Indices 1 2 3 4 5 6 
#
# 1 0.010955 -0.008257 -0.008524 0.000000 0.000000 0.000000
# 2 -0.008257 0.043989 0.012948 0.000000 0.000000 0.000000
# 3 -0.008524 0.012948 0.032866 0.000000 0.000000 0.000000
# 4 0.000000 0.000000 0.000000 0.096574 0.000000 0.000000
# 5 0.000000 0.000000 0.000000 0.000000 0.042401 0.000000
# 6 0.000000 0.000000 0.000000 0.000000 0.000000 0.037987
#
#
# Mechanical properties :
#
#
# Convention : Reuss Voigt Hill
#
# Bulk Modulus (GPa) = 12.47777 28.82322 20.65050
# Shear Modulus (GPa) = 16.71389 22.46077 19.58733
#
# Velocity S-wave (km/s) = 3.08220 3.57301 3.33664
# Velocity P-wave (km/s) = 4.44508 5.77966 5.15574
#
# Compressibility (1/GPa) = 0.08014254
#
# Stress axis : x y z
#
# Youngs Moduli (GPa) = 91.28533 22.73307 30.42682
#
# Poissons Ratio (x) = 0.18771 0.25936
# Poissons Ratio (y) = 0.75377 -0.39397
# Poissons Ratio (z) = 0.77812 -0.29435
#
# Static dielectric constant tensor:
#      x y z
#    x 1.633180 0.000000 0.000000 
#    y 0.000000 1.574950 0.000000 
#    z 0.000000 0.000000 1.562430 
# 
# From -- ./inp_files/10695.got.cif
#   From: 2010.05.17/outbox.cif.g08.bks.cpg/sg59_6_cif.got.tgz:10695.got - 2010.06.03 14:40:33.
