data_PCOD9450917
_publ_section_title
;
Structure prediction by ZEFSAII (Michael W. Deem and Ramdas Pophale) SiO2 
 PCOD9450917
Probable space group: P M M N
;
_chemical_formula_sum "Si O2"
_cell_formula_units_Z 56
_cell_length_a 16.149251
_cell_length_b 8.388210
_cell_length_c 21.633777
_cell_angle_alpha 90.000000
_cell_angle_beta 90.000000
_cell_angle_gamma 90.000000
_cell_volume 2930.583013
_symmetry_space_group_name_H-M "P M M N"
_symmetry_group_IT_number 59
_space_group.IT_coordinate_system_code '2'
_symmetry_cell_setting 'orthorhombic'
loop_
_space_group_symop_operation_xyz
x,y,z
1/2-x,1/2-y,z
1/2+x,-y,-z
-x,1/2+y,-z
-x,-y,-z
1/2+x,1/2+y,-z
1/2-x,y,z
x,1/2-y,z
loop_
_atom_site_type_symbol
_atom_site_label
_atom_site_fract_x
_atom_site_fract_y
_atom_site_fract_z
Si Si1 0.409080 0.060060 0.811234
Si Si2 0.658054 0.559588 0.863244
Si Si3 0.750000 0.443264 0.406725
Si Si4 0.567301 0.940063 0.740651
Si Si5 0.905902 0.435595 0.489894
Si Si6 0.654640 0.560425 0.617472
Si Si7 0.997957 0.562674 0.069306
Si Si8 0.750000 0.555440 0.264820
O O1 0.398809 0.250000 0.817810
O O2 0.432399 0.995439 0.879770
O O3 0.329305 0.000139 0.774750
O O4 0.487715 0.025858 0.767986
O O5 0.750000 0.507762 0.879697
O O6 0.650765 0.750000 0.874475
O O7 0.639832 0.534859 0.790720
O O8 0.586939 0.472386 0.900671
O O9 0.750000 0.250000 0.411122
O O10 0.836055 0.499165 0.440750
O O11 0.750000 0.493733 0.335069
O O12 0.550975 0.750000 0.739011
O O13 0.595353 0.990786 0.673080
O O14 0.915994 0.250000 0.475141
O O15 0.862819 0.464467 0.555748
O O16 0.000000 0.500000 0.500000
O O17 0.750000 0.542622 0.636657
O O18 0.641038 0.750000 0.605512
O O19 0.983249 0.750000 0.065707
O O20 0.000000 0.500000 0.000000
O O21 0.750000 0.750000 0.267722
#
# Coordination Sequence:
#
# PCOD9450917 Si02
#       8
#     8   8   4   8   8   8   8   4
#     4   9  20  38  57  82 112 146 188 235 280 335
#     4   9  17  32  54  80 109 143 182 219 267 328
#     4  10  24  44  62  84 118 153 194 247 304 353
#     4   9  18  32  54  82 112 144 179 224 275 333
#     4  11  24  42  60  82 113 150 193 243 296 355
#     4  10  20  35  56  83 114 147 185 229 282 340
#     4  10  20  36  57  81 115 150 186 228 277 330
#     4  10  22  40  62  84 110 147 196 241 286 341
#
# _framework density 19.108826000000001
#
# number of rings (size 3 to 8) (size 9 to 14) (size 15 to 20)
#    0.000    2.286    0.714    1.286    2.000    4.857 
#    1.286    0.000    0.000    2.571    0.000    0.000 
#    0.000    0.000    0.000    0.000    0.000    0.000 
#
# Total GULP energy -312117.369573 kJ/mol
# GULP energy per Si atom -5573.524457 kJ/mol
# Density = 1.906533 g / cm^3
# Si number density = 19.108826 Si / 1000 Ang^3
#
#
#
# Elastic Constant Matrix: (Units=GPa)
#
#
# Indices 1 2 3 4 5 6 
#
# 1 115.4601 16.6516 63.0985 0.0000 0.0000 0.0000
# 2 16.6516 6.0885 13.7351 0.0000 0.0000 0.0000
# 3 63.0985 13.7351 146.7878 0.0000 0.0000 0.0000
# 4 0.0000 0.0000 0.0000 24.8149 0.0000 0.0000
# 5 0.0000 0.0000 0.0000 0.0000 15.4763 0.0000
# 6 0.0000 0.0000 0.0000 0.0000 0.0000 24.9712
#
#
#
# Elastic Compliance Matrix: (Units=1/GPa)
#
#
# Indices 1 2 3 4 5 6 
#
# 1 0.015555 -0.034803 -0.003430 0.000000 0.000000 0.000000
# 2 -0.034803 0.286060 -0.011806 0.000000 0.000000 0.000000
# 3 -0.003430 -0.011806 0.009392 0.000000 0.000000 0.000000
# 4 0.000000 0.000000 0.000000 0.040298 0.000000 0.000000
# 5 0.000000 0.000000 0.000000 0.000000 0.064615 0.000000
# 6 0.000000 0.000000 0.000000 0.000000 0.000000 0.040046
#
#
# Mechanical properties :
#
#
# Convention : Reuss Voigt Hill
#
# Bulk Modulus (GPa) = 4.74097 50.58964 27.66530
# Shear Modulus (GPa) = 7.98272 24.70925 16.34598
#
# Velocity S-wave (km/s) = 2.04611 3.59984 2.92792
# Velocity P-wave (km/s) = 2.84051 6.61895 5.09308
#
# Compressibility (1/GPa) = 0.21092738
#
# Stress axis : x y z
#
# Youngs Moduli (GPa) = 64.28942 3.49577 106.47788
#
# Poissons Ratio (x) = 0.12166 0.36520
# Poissons Ratio (y) = 2.23748 1.25711
# Poissons Ratio (z) = 0.22050 0.04127
#
# Static dielectric constant tensor:
#      x y z
#    x 1.679180 0.000000 0.000000 
#    y 0.000000 1.681630 0.000000 
#    z 0.000000 0.000000 1.654870 
# 
# From -- ./inp_files/30454.got.cif
#   From: 2010.05.17/outbox.cif.g08.bks.cpg/sg59_16_cif.got.tgz:30454.got - 2010.06.03 14:40:33.
