data_PCOD9450970
_publ_section_title
;
Structure prediction by ZEFSAII (Michael W. Deem and Ramdas Pophale) SiO2 
 PCOD9450970
Probable space group: P M M N
;
_chemical_formula_sum "Si O2"
_cell_formula_units_Z 64
_cell_length_a 29.292466
_cell_length_b 7.976418
_cell_length_c 12.910931
_cell_angle_alpha 90.000000
_cell_angle_beta 90.000000
_cell_angle_gamma 90.000000
_cell_volume 3016.625511
_symmetry_space_group_name_H-M "P M M N"
_symmetry_group_IT_number 59
_space_group.IT_coordinate_system_code '2'
_symmetry_cell_setting 'orthorhombic'
loop_
_space_group_symop_operation_xyz
x,y,z
1/2-x,1/2-y,z
1/2+x,-y,-z
-x,1/2+y,-z
-x,-y,-z
1/2+x,1/2+y,-z
1/2-x,y,z
x,1/2-y,z
loop_
_atom_site_type_symbol
_atom_site_label
_atom_site_fract_x
_atom_site_fract_y
_atom_site_fract_z
Si Si1 0.626700 0.447563 0.868991
Si Si2 0.803106 0.545512 0.046363
Si Si3 0.695179 0.557684 0.273834
Si Si4 0.426503 0.552051 0.496274
Si Si5 0.826669 0.557449 0.496038
Si Si6 0.002032 0.953481 0.667871
Si Si7 0.977363 0.946098 0.892333
Si Si8 0.799076 0.052050 0.715251
O O1 0.618623 0.250000 0.853779
O O2 0.577063 0.524001 0.888013
O O3 0.655963 0.517511 0.771740
O O4 0.661407 0.476907 0.963734
O O5 0.750000 0.497455 0.026609
O O6 0.804314 0.750000 0.045767
O O7 0.817124 0.485841 0.161850
O O8 0.750000 0.564747 0.272962
O O9 0.677540 0.750000 0.275538
O O10 0.681248 0.478899 0.382688
O O11 0.415830 0.750000 0.500796
O O12 0.380386 0.451101 0.484592
O O13 0.453296 0.501747 0.601044
O O14 0.459845 0.520421 0.399742
O O15 0.810204 0.750000 0.493728
O O16 0.803226 0.469725 0.592704
O O17 0.999478 0.750000 0.666470
O O18 0.998900 0.017418 0.785529
O O19 0.985619 0.750000 0.886383
O O20 0.000000 0.000000 0.000000
O O21 0.750000 0.980329 0.750436
O O22 0.798518 0.250000 0.739339
#
# Coordination Sequence:
#
# PCOD9450970 Si02
#       8
#     8   8   8   8   8   8   8   8
#     4  11  23  39  59  84 115 150 190 236 287 343
#     4   9  18  35  59  84 111 146 190 238 287 341
#     4   8  16  32  52  75 105 140 177 220 269 318
#     4  10  20  35  57  83 111 143 179 224 277 328
#     4  11  21  33  53  82 114 147 185 225 268 324
#     4   9  20  39  60  82 108 139 180 228 275 328
#     4  11  24  42  62  85 115 149 188 236 289 344
#     4  10  22  39  58  83 118 157 193 233 283 336
#
# _framework density 21.215758000000001
#
# number of rings (size 3 to 8) (size 9 to 14) (size 15 to 20)
#    0.000    2.125    0.000    3.750    0.000    7.000 
#    0.000    3.750    0.000    1.500    0.000    0.000 
#    0.000    0.000    0.000    0.000    0.000    0.000 
#
# Total GULP energy -357225.240444 kJ/mol
# GULP energy per Si atom -5581.644382 kJ/mol
# Density = 2.116747 g / cm^3
# Si number density = 21.215758 Si / 1000 Ang^3
#
#
#
# Elastic Constant Matrix: (Units=GPa)
#
#
# Indices 1 2 3 4 5 6 
#
# 1 75.9819 1.6333 42.8543 0.0000 0.0000 0.0000
# 2 1.6333 20.1759 2.9431 0.0000 0.0000 0.0000
# 3 42.8543 2.9431 150.3019 0.0000 0.0000 0.0000
# 4 0.0000 0.0000 0.0000 19.5175 0.0000 0.0000
# 5 0.0000 0.0000 0.0000 0.0000 -487.5176 0.0000
# 6 0.0000 0.0000 0.0000 0.0000 0.0000 -1.2801
#
#
#
# Elastic Compliance Matrix: (Units=1/GPa)
#
#
# Indices 1 2 3 4 5 6 
#
# 1 0.015691 -0.000619 -0.004462 0.000000 0.000000 0.000000
# 2 -0.000619 0.049731 -0.000797 0.000000 0.000000 0.000000
# 3 -0.004462 -0.000797 0.007941 0.000000 0.000000 0.000000
# 4 0.000000 0.000000 0.000000 0.051236 0.000000 0.000000
# 5 0.000000 0.000000 0.000000 0.000000 -0.002051 0.000000
# 6 0.000000 0.000000 0.000000 0.000000 0.000000 -0.781210
#
#
# Mechanical properties :
#
#
# Convention : Reuss Voigt Hill
#
# Bulk Modulus (GPa) = 16.23222 37.92455 27.07838
# Shear Modulus (GPa) = -7.98249 -80.58744 -44.28496
#
# Velocity S-wave (km/s) = -1.94183 -6.16986 -4.57372
# Velocity P-wave (km/s) = 1.62482 5.73077 3.88598
#
# Compressibility (1/GPa) = 0.06160589
#
# Stress axis : x y z
#
# Youngs Moduli (GPa) = 63.73186 20.10835 125.92879
#
# Poissons Ratio (x) = 0.01245 0.56185
# Poissons Ratio (y) = 0.03947 0.10039
# Poissons Ratio (z) = 0.28435 0.01603
#
# Static dielectric constant tensor:
#      x y z
#    x 1.718410 0.000000 0.000000 
#    y 0.000000 1.733450 0.000000 
#    z 0.000000 0.000000 1.829020 
# 
# From -- ./inp_files/19338.got.cif
#   From: 2010.05.17/outbox.cif.g08.bks.cpg/sg59_10_cif.got.tgz:19338.got - 2010.06.03 14:40:33.
