data_PCOD9450395
_publ_section_title
;
Structure prediction by ZEFSAII (Michael W. Deem and Ramdas Pophale) SiO2 
 PCOD9450395
Probable space group: P M M N
;
_chemical_formula_sum "Si O2"
_cell_formula_units_Z 64
_cell_length_a 18.727524
_cell_length_b 8.964484
_cell_length_c 21.314333
_cell_angle_alpha 90.000000
_cell_angle_beta 90.000000
_cell_angle_gamma 90.000000
_cell_volume 3578.305412
_symmetry_space_group_name_H-M "P M M N"
_symmetry_group_IT_number 59
_space_group.IT_coordinate_system_code '2'
_symmetry_cell_setting 'orthorhombic'
loop_
_space_group_symop_operation_xyz
x,y,z
1/2-x,1/2-y,z
1/2+x,-y,-z
-x,1/2+y,-z
-x,-y,-z
1/2+x,1/2+y,-z
1/2-x,y,z
x,1/2-y,z
loop_
_atom_site_type_symbol
_atom_site_label
_atom_site_fract_x
_atom_site_fract_y
_atom_site_fract_z
Si Si1 0.664405 0.074639 0.249014
Si Si2 0.834960 0.572276 0.382244
Si Si3 0.087442 0.072300 0.869167
Si Si4 0.583193 0.073057 0.864144
Si Si5 0.666960 0.428891 0.620351
Si Si6 0.420994 0.929169 0.996957
Si Si7 0.421827 0.929566 0.503654
Si Si8 0.833365 0.927682 0.750687
O O1 0.750000 0.060926 0.241697
O O2 0.646648 0.250000 0.251874
O O3 0.645259 0.995057 0.314467
O O4 0.626345 0.997901 0.190361
O O5 0.750000 0.545343 0.391558
O O6 0.846867 0.750000 0.382724
O O7 0.879274 0.494071 0.436985
O O8 0.097948 0.250000 0.871855
O O9 0.002094 0.044534 0.863139
O O10 0.112882 0.997874 0.934458
O O11 0.593194 0.250000 0.854664
O O12 0.622194 0.985973 0.809381
O O13 0.610984 0.036149 0.934417
O O14 0.750000 0.471998 0.610587
O O15 0.664358 0.250000 0.627419
O O16 0.621015 0.469499 0.559795
O O17 0.641422 0.502695 0.684866
O O18 0.426046 0.750000 0.991609
O O19 0.500000 0.000000 0.000000
O O20 0.425630 0.750000 0.507759
O O21 0.500000 0.000000 0.500000
O O22 0.750000 0.971308 0.758228
O O23 0.837379 0.750000 0.746915
#
# Coordination Sequence:
#
# PCOD9450395 Si02
#       8
#     8   8   8   8   8   8   8   8
#     4  10  21  37  57  81 109 142 181 223 267 319
#     4  10  21  38  60  83 108 142 182 222 268 324
#     4  10  20  34  54  80 108 139 178 223 271 322
#     4   9  19  34  53  77 104 138 177 216 261 316
#     4   9  19  37  59  78 100 137 179 215 257 313
#     4   9  17  31  51  76 105 138 179 222 266 319
#     4  11  23  38  57  83 114 144 178 222 270 318
#     4  10  21  35  53  79 107 135 172 218 264 311
#
# _framework density 17.885560999999999
#
# number of rings (size 3 to 8) (size 9 to 14) (size 15 to 20)
#    0.000    2.250    0.000    3.375    0.000    7.750 
#    0.000    3.125    0.000    0.750    0.000    0.000 
#    0.000    0.000    0.000    0.000    0.000    0.000 
#
# Total GULP energy -357175.455920 kJ/mol
# GULP energy per Si atom -5580.866499 kJ/mol
# Density = 1.784485 g / cm^3
# Si number density = 17.885561 Si / 1000 Ang^3
#
#
#
# Elastic Constant Matrix: (Units=GPa)
#
#
# Indices 1 2 3 4 5 6 
#
# 1 46.7332 49.0339 75.5603 0.0000 0.0000 0.0000
# 2 49.0339 79.9711 90.9694 0.0000 0.0000 0.0000
# 3 75.5603 90.9694 213.7075 0.0000 0.0000 0.0000
# 4 0.0000 0.0000 0.0000 36.6622 0.0000 0.0000
# 5 0.0000 0.0000 0.0000 0.0000 34.3551 0.0000
# 6 0.0000 0.0000 0.0000 0.0000 0.0000 27.8644
#
#
#
# Elastic Compliance Matrix: (Units=1/GPa)
#
#
# Indices 1 2 3 4 5 6 
#
# 1 0.076232 -0.031178 -0.013682 0.000000 0.000000 0.000000
# 2 -0.031178 0.036995 -0.004724 0.000000 0.000000 0.000000
# 3 -0.013682 -0.004724 0.011528 0.000000 0.000000 0.000000
# 4 0.000000 0.000000 0.000000 0.027276 0.000000 0.000000
# 5 0.000000 0.000000 0.000000 0.000000 0.029108 0.000000
# 6 0.000000 0.000000 0.000000 0.000000 0.000000 0.035888
#
#
# Mechanical properties :
#
#
# Convention : Reuss Voigt Hill
#
# Bulk Modulus (GPa) = 39.08224 85.72654 62.40439
# Shear Modulus (GPa) = 15.39766 28.09955 21.74860
#
# Velocity S-wave (km/s) = 2.93729 3.96798 3.49088
# Velocity P-wave (km/s) = 5.77947 8.30830 7.15647
#
# Compressibility (1/GPa) = 0.02558707
#
# Stress axis : x y z
#
# Youngs Moduli (GPa) = 13.11777 27.03047 86.74785
#
# Poissons Ratio (x) = 0.84276 1.18685
# Poissons Ratio (y) = 0.40899 0.40982
# Poissons Ratio (z) = 0.17947 0.12770
#
# Static dielectric constant tensor:
#      x y z
#    x 1.603220 0.000000 0.000000 
#    y 0.000000 1.595330 0.000000 
#    z 0.000000 0.000000 1.603090 
# 
# From -- ./inp_files/28319.got.cif
#   From: 2010.05.17/outbox.cif.g08.bks.cpg/sg59_15_cif.got.tgz:28319.got - 2010.06.03 14:40:33.
