data_PCOD9450418
_publ_section_title
;
Structure prediction by ZEFSAII (Michael W. Deem and Ramdas Pophale) SiO2 
 PCOD9450418
Probable space group: P M M N
;
_chemical_formula_sum "Si O2"
_cell_formula_units_Z 56
_cell_length_a 21.949930
_cell_length_b 9.369278
_cell_length_c 14.631832
_cell_angle_alpha 90.000000
_cell_angle_beta 90.000000
_cell_angle_gamma 90.000000
_cell_volume 3009.109355
_symmetry_space_group_name_H-M "P M M N"
_symmetry_group_IT_number 59
_space_group.IT_coordinate_system_code '2'
_symmetry_cell_setting 'orthorhombic'
loop_
_space_group_symop_operation_xyz
x,y,z
1/2-x,1/2-y,z
1/2+x,-y,-z
-x,1/2+y,-z
-x,-y,-z
1/2+x,1/2+y,-z
1/2-x,y,z
x,1/2-y,z
loop_
_atom_site_type_symbol
_atom_site_label
_atom_site_fract_x
_atom_site_fract_y
_atom_site_fract_z
Si Si1 0.987035 0.088807 0.590953
Si Si2 0.678959 0.592494 0.758882
Si Si3 0.937491 0.078573 0.263576
Si Si4 0.321763 0.578813 0.063168
Si Si5 0.682779 0.423165 0.372918
Si Si6 0.443005 0.921247 0.951850
Si Si7 0.157267 0.588284 0.418296
O O1 0.012248 0.250000 0.585750
O O2 0.914766 0.098295 0.593794
O O3 0.012982 0.005217 0.677468
O O4 0.000000 0.000000 0.500000
O O5 0.750000 0.609239 0.779612
O O6 0.649829 0.750000 0.757649
O O7 0.657370 0.492940 0.841519
O O8 0.677014 0.516782 0.661267
O O9 0.944028 0.250000 0.276960
O O10 0.872286 0.034532 0.307105
O O11 0.942509 0.048585 0.156447
O O12 0.250000 0.540500 0.041116
O O13 0.321687 0.750000 0.073326
O O14 0.375688 0.541265 0.991965
O O15 0.750000 0.472022 0.344217
O O16 0.682763 0.250000 0.372494
O O17 0.671700 0.462788 0.478958
O O18 0.450381 0.750000 0.964106
O O19 0.500000 0.000000 0.000000
O O20 0.181841 0.750000 0.407522
#
# Coordination Sequence:
#
# PCOD9450418 Si02
#       7
#     8   8   8   8   8   8   8
#     4  11  22  37  58  83 113 149 187 228 274 332
#     4  10  21  35  53  82 116 149 186 231 284 337
#     4  10  21  39  58  84 116 147 187 235 288 343
#     4   9  19  38  61  84 113 151 196 244 295 354
#     4   9  17  32  56  83 111 144 184 228 274 330
#     4  10  23  40  61  87 117 150 191 245 301 352
#     4  10  20  34  54  80 112 151 190 227 272 331
#
# _framework density 18.610157000000001
#
# number of rings (size 3 to 8) (size 9 to 14) (size 15 to 20)
#    0.000    2.143    1.429    1.286    2.000    4.286 
#    0.000    2.857    0.000    0.429    0.000    2.000 
#    0.000    0.000    0.000    0.000    0.000    0.000 
#
# Total GULP energy -312103.694598 kJ/mol
# GULP energy per Si atom -5573.280261 kJ/mol
# Density = 1.856780 g / cm^3
# Si number density = 18.610157 Si / 1000 Ang^3
#
#
#
# Elastic Constant Matrix: (Units=GPa)
#
#
# Indices 1 2 3 4 5 6 
#
# 1 108.6668 32.3517 50.9571 0.0000 0.0000 0.0000
# 2 32.3517 56.6358 53.7256 0.0000 0.0000 0.0000
# 3 50.9571 53.7256 129.6750 0.0000 0.0000 0.0000
# 4 0.0000 0.0000 0.0000 18.6014 0.0000 0.0000
# 5 0.0000 0.0000 0.0000 0.0000 29.5131 0.0000
# 6 0.0000 0.0000 0.0000 0.0000 0.0000 21.0401
#
#
#
# Elastic Compliance Matrix: (Units=1/GPa)
#
#
# Indices 1 2 3 4 5 6 
#
# 1 0.011769 -0.003848 -0.003031 0.000000 0.000000 0.000000
# 2 -0.003848 0.030348 -0.011061 0.000000 0.000000 0.000000
# 3 -0.003031 -0.011061 0.013485 0.000000 0.000000 0.000000
# 4 0.000000 0.000000 0.000000 0.053759 0.000000 0.000000
# 5 0.000000 0.000000 0.000000 0.000000 0.033883 0.000000
# 6 0.000000 0.000000 0.000000 0.000000 0.000000 0.047528
#
#
# Mechanical properties :
#
#
# Convention : Reuss Voigt Hill
#
# Bulk Modulus (GPa) = 50.70353 63.22738 56.96545
# Shear Modulus (GPa) = 21.43837 24.36045 22.89941
#
# Velocity S-wave (km/s) = 3.39775 3.62192 3.51162
# Velocity P-wave (km/s) = 6.53431 7.17910 6.86428
#
# Compressibility (1/GPa) = 0.01972249
#
# Stress axis : x y z
#
# Youngs Moduli (GPa) = 84.96778 32.95157 74.15530
#
# Poissons Ratio (x) = 0.12680 0.22473
# Poissons Ratio (y) = 0.32696 0.82024
# Poissons Ratio (z) = 0.25750 0.36448
#
# Static dielectric constant tensor:
#      x y z
#    x 1.532810 0.000000 0.000000 
#    y 0.000000 1.666450 0.000000 
#    z 0.000000 0.000000 1.636310 
# 
# From -- ./inp_files/24287.got.cif
#   From: 2010.05.17/outbox.cif.g08.bks.cpg/sg59_13_cif.got.tgz:24287.got - 2010.06.03 14:40:33.
