data_PCOD9450459
_publ_section_title
;
Structure prediction by ZEFSAII (Michael W. Deem and Ramdas Pophale) SiO2 
 PCOD9450459
Probable space group: P M M N
;
_chemical_formula_sum "Si O2"
_cell_formula_units_Z 56
_cell_length_a 8.854753
_cell_length_b 23.624709
_cell_length_c 15.663173
_cell_angle_alpha 90.000000
_cell_angle_beta 90.000000
_cell_angle_gamma 90.000000
_cell_volume 3276.594242
_symmetry_space_group_name_H-M "P M M N"
_symmetry_group_IT_number 59
_space_group.IT_coordinate_system_code '2'
_symmetry_cell_setting 'orthorhombic'
loop_
_space_group_symop_operation_xyz
x,y,z
1/2-x,1/2-y,z
1/2+x,-y,-z
-x,1/2+y,-z
-x,-y,-z
1/2+x,1/2+y,-z
1/2-x,y,z
x,1/2-y,z
loop_
_atom_site_type_symbol
_atom_site_label
_atom_site_fract_x
_atom_site_fract_y
_atom_site_fract_z
Si Si1 0.570870 0.683066 0.308111
Si Si2 0.571568 0.110889 0.842662
Si Si3 0.572005 0.683409 0.009024
Si Si4 0.069748 0.503428 0.904840
Si Si5 0.570767 0.618113 0.834159
Si Si6 0.932731 0.183690 0.324223
Si Si7 0.576496 0.318587 0.514745
O O1 0.750000 0.677252 0.296127
O O2 0.533013 0.750000 0.297054
O O3 0.484103 0.645550 0.239458
O O4 0.523638 0.666020 0.404086
O O5 0.750000 0.101469 0.839829
O O6 0.527067 0.148274 0.924970
O O7 0.486265 0.051538 0.853794
O O8 0.750000 0.674120 0.029689
O O9 0.541536 0.750000 0.015134
O O10 0.547062 0.660871 0.913574
O O11 0.250000 0.503823 0.911611
O O12 0.010563 0.559988 0.859462
O O13 0.000000 0.500000 0.000000
O O14 0.750000 0.608505 0.826206
O O15 0.505541 0.646131 0.749023
O O16 0.750000 0.181086 0.319756
O O17 0.975476 0.250000 0.313504
O O18 0.975805 0.164235 0.420142
O O19 0.750000 0.337283 0.527899
O O20 0.579209 0.250000 0.511542
#
# Coordination Sequence:
#
# PCOD9450459 Si02
#       7
#     8   8   8   8   8   8   8
#     4  10  20  34  54  82 115 148 182 225 276 328
#     4  12  24  37  56  80 107 144 185 227 272 325
#     4  10  21  36  53  76 110 147 179 220 272 321
#     4  12  24  41  61  80 104 140 186 232 275 324
#     4  11  22  36  56  81 110 146 185 228 273 322
#     4   9  18  33  54  82 116 151 186 226 273 325
#     4   8  15  30  52  78 110 147 185 225 269 322
#
# _framework density 17.090917999999999
#
# number of rings (size 3 to 8) (size 9 to 14) (size 15 to 20)
#    0.000    1.714    1.429    5.143    0.000    4.857 
#    0.000    1.429    0.000    0.857    0.000    0.000 
#    0.000    0.000    0.000    0.000    0.000    0.000 
#
# Total GULP energy -312745.463776 kJ/mol
# GULP energy per Si atom -5584.740425 kJ/mol
# Density = 1.705202 g / cm^3
# Si number density = 17.090918 Si / 1000 Ang^3
#
#
#
# Elastic Constant Matrix: (Units=GPa)
#
#
# Indices 1 2 3 4 5 6 
#
# 1 72.3433 29.0099 37.3400 0.0000 0.0000 0.0000
# 2 29.0099 59.7829 20.6325 0.0000 0.0000 0.0000
# 3 37.3400 20.6325 96.1361 0.0000 0.0000 0.0000
# 4 0.0000 0.0000 0.0000 -2.1290 0.0000 0.0000
# 5 0.0000 0.0000 0.0000 0.0000 28.4427 0.0000
# 6 0.0000 0.0000 0.0000 0.0000 0.0000 25.5536
#
#
#
# Elastic Compliance Matrix: (Units=1/GPa)
#
#
# Indices 1 2 3 4 5 6 
#
# 1 0.020050 -0.007605 -0.006155 0.000000 0.000000 0.000000
# 2 -0.007605 0.020950 -0.001542 0.000000 0.000000 0.000000
# 3 -0.006155 -0.001542 0.013124 0.000000 0.000000 0.000000
# 4 0.000000 0.000000 0.000000 -0.469705 0.000000 0.000000
# 5 0.000000 0.000000 0.000000 0.000000 0.035158 0.000000
# 6 0.000000 0.000000 0.000000 0.000000 0.000000 0.039133
#
#
# Mechanical properties :
#
#
# Convention : Reuss Voigt Hill
#
# Bulk Modulus (GPa) = 42.52056 44.69190 43.60623
# Shear Modulus (GPa) = -16.51009 19.79211 1.64101
#
# Velocity S-wave (km/s) = -3.11145 3.40670 0.98094
# Velocity P-wave (km/s) = 3.46769 6.45604 5.18196
#
# Compressibility (1/GPa) = 0.02351803
#
# Stress axis : x y z
#
# Youngs Moduli (GPa) = 49.87633 47.73319 76.19795
#
# Poissons Ratio (x) = 0.36300 0.46902
# Poissons Ratio (y) = 0.37930 0.11753
# Poissons Ratio (z) = 0.30700 0.07363
#
# Static dielectric constant tensor:
#      x y z
#    x 1.570850 0.000000 0.000000 
#    y 0.000000 1.561290 0.000000 
#    z 0.000000 0.000000 1.571760 
# 
# From -- ./inp_files/21082.got.cif
#   From: 2010.05.17/outbox.cif.g08.bks.cpg/sg59_11_cif.got.tgz:21082.got - 2010.06.03 14:40:33.
