data_PCOD9450153
_publ_section_title
;
Structure prediction by ZEFSAII (Michael W. Deem and Ramdas Pophale) SiO2 
 PCOD9450153
Probable space group: P M M N
;
_chemical_formula_sum "Si O2"
_cell_formula_units_Z 64
_cell_length_a 9.381566
_cell_length_b 22.563871
_cell_length_c 16.935440
_cell_angle_alpha 90.000000
_cell_angle_beta 90.000000
_cell_angle_gamma 90.000000
_cell_volume 3584.969217
_symmetry_space_group_name_H-M "P M M N"
_symmetry_group_IT_number 59
_space_group.IT_coordinate_system_code '2'
_symmetry_cell_setting 'orthorhombic'
loop_
_space_group_symop_operation_xyz
x,y,z
1/2-x,1/2-y,z
1/2+x,-y,-z
-x,1/2+y,-z
-x,-y,-z
1/2+x,1/2+y,-z
1/2-x,y,z
x,1/2-y,z
loop_
_atom_site_type_symbol
_atom_site_label
_atom_site_fract_x
_atom_site_fract_y
_atom_site_fract_z
Si Si1 0.092287 0.819125 0.787234
Si Si2 0.422504 0.316815 0.882639
Si Si3 0.915494 0.821568 0.637744
Si Si4 0.418453 0.464795 0.612277
Si Si5 0.578450 0.563664 0.205341
Si Si6 0.418814 0.590365 0.532591
Si Si7 0.587547 0.653855 0.936175
Si Si8 0.086715 0.013308 0.079124
O O1 0.250000 0.846999 0.785238
O O2 0.107765 0.750000 0.767736
O O3 0.986771 0.842564 0.720028
O O4 0.021338 0.821374 0.872666
O O5 0.250000 0.315078 0.879090
O O6 0.474382 0.250000 0.864799
O O7 0.465144 0.370531 0.824992
O O8 0.456646 0.333599 0.973555
O O9 0.750000 0.838604 0.635382
O O10 0.922348 0.750000 0.632154
O O11 0.002902 0.853182 0.568973
O O12 0.250000 0.453084 0.598166
O O13 0.449838 0.448446 0.702687
O O14 0.442309 0.533938 0.590959
O O15 0.512688 0.428049 0.550665
O O16 0.750000 0.557878 0.192589
O O17 0.495425 0.516737 0.151400
O O18 0.250000 0.599807 0.526040
O O19 0.750000 0.676952 0.926085
O O20 0.591396 0.584173 0.917923
O O21 0.250000 0.991499 0.074609
O O22 0.000000 0.000000 0.000000
#
# Coordination Sequence:
#
# PCOD9450153 Si02
#       8
#     8   8   8   8   8   8   8   8
#     4  10  21  35  51  76 110 145 183 225 271 323
#     4   9  17  32  55  78 103 140 184 228 271 318
#     4  10  21  37  57  81 112 149 187 229 277 333
#     4   9  20  37  58  83 112 146 180 226 282 338
#     4  10  20  37  57  81 112 143 184 231 277 327
#     4  10  20  36  58  85 113 144 183 226 278 336
#     4  10  20  34  52  76 105 142 186 225 268 324
#     4  11  22  36  54  79 109 143 181 223 275 328
#
# _framework density 17.852314
#
# number of rings (size 3 to 8) (size 9 to 14) (size 15 to 20)
#    0.000    2.125    1.250    1.875    1.750    4.000 
#    0.000    0.625    0.000    2.625    0.000    0.000 
#    0.000    0.000    0.000    0.000    0.000    0.000 
#
# Total GULP energy -356939.084794 kJ/mol
# GULP energy per Si atom -5577.173200 kJ/mol
# Density = 1.781168 g / cm^3
# Si number density = 17.852314 Si / 1000 Ang^3
#
#
#
# Elastic Constant Matrix: (Units=GPa)
#
#
# Indices 1 2 3 4 5 6 
#
# 1 98.6008 35.0458 68.5054 0.0000 0.0000 0.0000
# 2 35.0458 62.9147 42.0014 0.0000 0.0000 0.0000
# 3 68.5054 42.0014 121.1664 0.0000 0.0000 0.0000
# 4 0.0000 0.0000 0.0000 25.3503 0.0000 0.0000
# 5 0.0000 0.0000 0.0000 0.0000 24.5189 0.0000
# 6 0.0000 0.0000 0.0000 0.0000 0.0000 21.6581
#
#
#
# Elastic Compliance Matrix: (Units=1/GPa)
#
#
# Indices 1 2 3 4 5 6 
#
# 1 0.017474 -0.004083 -0.008464 0.000000 0.000000 0.000000
# 2 -0.004083 0.021634 -0.005191 0.000000 0.000000 0.000000
# 3 -0.008464 -0.005191 0.014838 0.000000 0.000000 0.000000
# 4 0.000000 0.000000 0.000000 0.039447 0.000000 0.000000
# 5 0.000000 0.000000 0.000000 0.000000 0.040785 0.000000
# 6 0.000000 0.000000 0.000000 0.000000 0.000000 0.046172
#
#
# Mechanical properties :
#
#
# Convention : Reuss Voigt Hill
#
# Bulk Modulus (GPa) = 54.14150 63.75414 58.94782
# Shear Modulus (GPa) = 22.52427 23.44741 22.98584
#
# Velocity S-wave (km/s) = 3.55590 3.62803 3.59214
# Velocity P-wave (km/s) = 6.87404 7.30340 7.09197
#
# Compressibility (1/GPa) = 0.01847012
#
# Stress axis : x y z
#
# Youngs Moduli (GPa) = 57.22885 46.22280 67.39505
#
# Poissons Ratio (x) = 0.18873 0.57043
# Poissons Ratio (y) = 0.23367 0.34984
# Poissons Ratio (z) = 0.48438 0.23994
#
# Static dielectric constant tensor:
#      x y z
#    x 1.632400 0.000000 0.000000 
#    y 0.000000 1.617710 0.000000 
#    z 0.000000 0.000000 1.583300 
# 
# From -- ./inp_files/26180.got.cif
#   From: 2010.05.17/outbox.cif.g08.bks.cpg/sg59_14_cif.got.tgz:26180.got - 2010.06.03 14:40:33.
