data_PCOD9450621
_publ_section_title
;
Structure prediction by ZEFSAII (Michael W. Deem and Ramdas Pophale) SiO2 
 PCOD9450621
Probable space group: P M M N
;
_chemical_formula_sum "Si O2"
_cell_formula_units_Z 48
_cell_length_a 7.667462
_cell_length_b 18.271226
_cell_length_c 17.698508
_cell_angle_alpha 90.000000
_cell_angle_beta 90.000000
_cell_angle_gamma 90.000000
_cell_volume 2479.453559
_symmetry_space_group_name_H-M "P M M N"
_symmetry_group_IT_number 59
_space_group.IT_coordinate_system_code '2'
_symmetry_cell_setting 'orthorhombic'
loop_
_space_group_symop_operation_xyz
x,y,z
1/2-x,1/2-y,z
1/2+x,-y,-z
-x,1/2+y,-z
-x,-y,-z
1/2+x,1/2+y,-z
1/2-x,y,z
x,1/2-y,z
loop_
_atom_site_type_symbol
_atom_site_label
_atom_site_fract_x
_atom_site_fract_y
_atom_site_fract_z
Si Si1 0.750000 0.838882 0.107401
Si Si2 0.459866 0.595850 0.659307
Si Si3 0.038610 0.431460 0.630814
Si Si4 0.750000 0.839050 0.935401
Si Si5 0.545690 0.161881 0.181147
Si Si6 0.451208 0.836235 0.222787
Si Si7 0.041526 0.168973 0.496407
O O1 0.750000 0.750000 0.103862
O O2 0.581264 0.860115 0.156335
O O3 0.750000 0.865873 0.021509
O O4 0.250000 0.593675 0.662605
O O5 0.524896 0.514233 0.641286
O O6 0.516494 0.625464 0.740717
O O7 0.507495 0.647678 0.589781
O O8 0.250000 0.434083 0.628632
O O9 0.974734 0.392318 0.554384
O O10 0.986176 0.382466 0.702180
O O11 0.750000 0.750000 0.938097
O O12 0.579078 0.860286 0.887636
O O13 0.750000 0.143944 0.168240
O O14 0.534558 0.250000 0.189877
O O15 0.250000 0.843542 0.200200
O O16 0.485278 0.750000 0.238659
O O17 0.250000 0.171432 0.506653
O O18 0.971844 0.250000 0.513620
#
# Coordination Sequence:
#
# PCOD9450621 Si02
#       7
#     4   8   8   4   8   8   8
#     4   9  18  34  56  83 115 141 173 231 281 327
#     4  10  21  35  53  78 107 148 186 230 279 328
#     4  10  20  36  55  77 109 150 186 231 276 328
#     4   9  18  32  56  85 109 143 179 219 285 337
#     4   9  18  33  53  80 111 141 182 231 274 326
#     4  10  20  34  56  84 110 144 187 227 277 333
#     4  10  21  34  52  78 109 146 188 231 277 325
#
# _framework density 19.359103999999999
#
# number of rings (size 3 to 8) (size 9 to 14) (size 15 to 20)
#    0.000    2.333    0.833    1.500    1.167    3.667 
#    0.000    3.333    0.000    1.000    0.000    0.000 
#    0.000    0.000    0.000    0.000    0.000    0.000 
#
# Total GULP energy -267961.859524 kJ/mol
# GULP energy per Si atom -5582.538740 kJ/mol
# Density = 1.931504 g / cm^3
# Si number density = 19.359104 Si / 1000 Ang^3
#
#
#
# Elastic Constant Matrix: (Units=GPa)
#
#
# Indices 1 2 3 4 5 6 
#
# 1 42.4600 -0.6511 1.8997 0.0000 0.0000 0.0000
# 2 -0.6511 30.3434 -7.9867 0.0000 0.0000 0.0000
# 3 1.8997 -7.9867 81.3153 0.0000 0.0000 0.0000
# 4 0.0000 0.0000 0.0000 -19.8871 0.0000 0.0000
# 5 0.0000 0.0000 0.0000 0.0000 5.3621 0.0000
# 6 0.0000 0.0000 0.0000 0.0000 0.0000 10.5916
#
#
#
# Elastic Compliance Matrix: (Units=1/GPa)
#
#
# Indices 1 2 3 4 5 6 
#
# 1 0.023580 0.000371 -0.000514 0.000000 0.000000 0.000000
# 2 0.000371 0.033837 0.003315 0.000000 0.000000 0.000000
# 3 -0.000514 0.003315 0.012635 0.000000 0.000000 0.000000
# 4 0.000000 0.000000 0.000000 -0.050284 0.000000 0.000000
# 5 0.000000 0.000000 0.000000 0.000000 0.186494 0.000000
# 6 0.000000 0.000000 0.000000 0.000000 0.000000 0.094414
#
#
# Mechanical properties :
#
#
# Convention : Reuss Voigt Hill
#
# Bulk Modulus (GPa) = 13.09007 15.62694 14.35850
# Shear Modulus (GPa) = 15.63480 9.93711 12.78595
#
# Velocity S-wave (km/s) = 2.84495 2.26808 2.57273
# Velocity P-wave (km/s) = 4.19142 3.86634 4.03216
#
# Compressibility (1/GPa) = 0.07639378
#
# Stress axis : x y z
#
# Youngs Moduli (GPa) = 42.40828 29.55388 79.14268
#
# Poissons Ratio (x) = -0.01095 0.04072
# Poissons Ratio (y) = -0.01571 -0.26234
# Poissons Ratio (z) = 0.02182 -0.09796
#
# Static dielectric constant tensor:
#      x y z
#    x 1.698120 0.000000 0.000000 
#    y 0.000000 1.677300 0.000000 
#    z 0.000000 0.000000 1.637220 
# 
# From -- ./inp_files/20580.got.cif
#   From: 2010.05.17/outbox.cif.g08.bks.cpg/sg59_11_cif.got.tgz:20580.got - 2010.06.03 14:40:33.
