data_PCOD9450238
_publ_section_title
;
Structure prediction by ZEFSAII (Michael W. Deem and Ramdas Pophale) SiO2 
 PCOD9450238
Probable space group: P M M N
;
_chemical_formula_sum "Si O2"
_cell_formula_units_Z 48
_cell_length_a 9.183846
_cell_length_b 9.016038
_cell_length_c 31.982423
_cell_angle_alpha 90.000000
_cell_angle_beta 90.000000
_cell_angle_gamma 90.000000
_cell_volume 2648.205536
_symmetry_space_group_name_H-M "P M M N"
_symmetry_group_IT_number 59
_space_group.IT_coordinate_system_code '2'
_symmetry_cell_setting 'orthorhombic'
loop_
_space_group_symop_operation_xyz
x,y,z
1/2-x,1/2-y,z
1/2+x,-y,-z
-x,1/2+y,-z
-x,-y,-z
1/2+x,1/2+y,-z
1/2-x,y,z
x,1/2-y,z
loop_
_atom_site_type_symbol
_atom_site_label
_atom_site_fract_x
_atom_site_fract_y
_atom_site_fract_z
Si Si1 0.582482 0.069269 0.875885
Si Si2 0.922917 0.572480 0.208733
Si Si3 0.920242 0.570991 0.039463
Si Si4 0.075725 0.425967 0.618939
Si Si5 0.572827 0.079402 0.294717
Si Si6 0.422451 0.427002 0.460198
O O1 0.750000 0.021750 0.877993
O O2 0.580139 0.250000 0.875612
O O3 0.506737 0.022279 0.832765
O O4 0.495135 0.022792 0.917145
O O5 0.750000 0.545037 0.203311
O O6 0.941250 0.750000 0.213405
O O7 0.974075 0.493900 0.251152
O O8 0.750000 0.532219 0.039535
O O9 0.931911 0.750000 0.036953
O O10 0.000000 0.500000 0.000000
O O11 0.250000 0.451753 0.614403
O O12 0.051467 0.250000 0.617125
O O13 0.029337 0.489410 0.664031
O O14 0.992316 0.506714 0.581710
O O15 0.750000 0.076411 0.294049
O O16 0.526476 0.250000 0.297675
O O17 0.500000 0.500000 0.500000
O O18 0.250000 0.457486 0.461507
O O19 0.443356 0.250000 0.461238
#
# Coordination Sequence:
#
# PCOD9450238 Si02
#       6
#     8   8   8   8   8   8
#     4   9  17  30  49  72  98 130 169 212 258 309
#     4   9  16  28  48  72  96 125 166 213 255 300
#     4  10  20  34  53  77 104 135 172 214 261 313
#     4  10  20  35  57  84 111 141 180 223 266 314
#     4   9  17  30  50  76 105 137 172 211 258 311
#     4  11  24  40  58  82 111 143 180 221 266 317
#
# _framework density 18.12548
#
# number of rings (size 3 to 8) (size 9 to 14) (size 15 to 20)
#    0.000    2.333    0.000    3.000    0.000    9.333 
#    0.000    1.667    0.000    6.500    0.000    0.000 
#    0.000    0.000    0.000    0.000    0.000    0.000 
#
# Total GULP energy -267932.009630 kJ/mol
# GULP energy per Si atom -5581.916867 kJ/mol
# Density = 1.808423 g / cm^3
# Si number density = 18.125480 Si / 1000 Ang^3
#
#
#
# Elastic Constant Matrix: (Units=GPa)
#
#
# Indices 1 2 3 4 5 6 
#
# 1 102.4508 63.3053 101.5376 0.0000 0.0000 0.0000
# 2 63.3053 60.1373 73.9128 0.0000 0.0000 0.0000
# 3 101.5376 73.9128 222.3683 0.0000 0.0000 0.0000
# 4 0.0000 0.0000 0.0000 35.4646 0.0000 0.0000
# 5 0.0000 0.0000 0.0000 0.0000 32.7987 0.0000
# 6 0.0000 0.0000 0.0000 0.0000 0.0000 20.2318
#
#
#
# Elastic Compliance Matrix: (Units=1/GPa)
#
#
# Indices 1 2 3 4 5 6 
#
# 1 0.031717 -0.026354 -0.005723 0.000000 0.000000 0.000000
# 2 -0.026354 0.050012 -0.004590 0.000000 0.000000 0.000000
# 3 -0.005723 -0.004590 0.008636 0.000000 0.000000 0.000000
# 4 0.000000 0.000000 0.000000 0.028197 0.000000 0.000000
# 5 0.000000 0.000000 0.000000 0.000000 0.030489 0.000000
# 6 0.000000 0.000000 0.000000 0.000000 0.000000 0.049427
#
#
# Mechanical properties :
#
#
# Convention : Reuss Voigt Hill
#
# Bulk Modulus (GPa) = 58.71421 95.82977 77.27199
# Shear Modulus (GPa) = 18.01877 27.44574 22.73225
#
# Velocity S-wave (km/s) = 3.15638 3.89550 3.54525
# Velocity P-wave (km/s) = 6.76366 8.55677 7.71250
#
# Compressibility (1/GPa) = 0.01703165
#
# Stress axis : x y z
#
# Youngs Moduli (GPa) = 31.52886 19.99516 115.79820
#
# Poissons Ratio (x) = 0.52696 0.66268
# Poissons Ratio (y) = 0.83092 0.53148
# Poissons Ratio (z) = 0.18043 0.09177
#
# Static dielectric constant tensor:
#      x y z
#    x 1.609840 0.000000 0.000000 
#    y 0.000000 1.610850 0.000000 
#    z 0.000000 0.000000 1.594120 
# 
# From -- ./inp_files/32823.got.cif
#   From: 2010.05.17/outbox.cif.g08.bks.cpg/sg59_17_cif.got.tgz:32823.got - 2010.06.03 14:40:33.
