data_PCOD9450496
_publ_section_title
;
Structure prediction by ZEFSAII (Michael W. Deem and Ramdas Pophale) SiO2 
 PCOD9450496
Probable space group: P M M N
;
_chemical_formula_sum "Si O2"
_cell_formula_units_Z 56
_cell_length_a 8.667896
_cell_length_b 24.669605
_cell_length_c 15.243013
_cell_angle_alpha 90.000000
_cell_angle_beta 90.000000
_cell_angle_gamma 90.000000
_cell_volume 3259.467895
_symmetry_space_group_name_H-M "P M M N"
_symmetry_group_IT_number 59
_space_group.IT_coordinate_system_code '2'
_symmetry_cell_setting 'orthorhombic'
loop_
_space_group_symop_operation_xyz
x,y,z
1/2-x,1/2-y,z
1/2+x,-y,-z
-x,1/2+y,-z
-x,-y,-z
1/2+x,1/2+y,-z
1/2-x,y,z
x,1/2-y,z
loop_
_atom_site_type_symbol
_atom_site_label
_atom_site_fract_x
_atom_site_fract_y
_atom_site_fract_z
Si Si1 0.933185 0.353079 0.786417
Si Si2 0.429518 0.250000 0.694510
Si Si3 0.933756 0.866562 0.534299
Si Si4 0.932589 0.250000 0.502163
Si Si5 0.436040 0.923095 0.056041
Si Si6 0.432447 0.935496 0.372481
Si Si7 0.435181 0.551472 0.673518
Si Si8 0.063992 0.963413 0.873281
O O1 0.750000 0.339657 0.786893
O O2 0.982388 0.373263 0.882499
O O3 0.952875 0.402923 0.718563
O O4 0.027553 0.302835 0.749986
O O5 0.250000 0.250000 0.669998
O O6 0.528999 0.250000 0.605847
O O7 0.750000 0.865993 0.527954
O O8 0.996301 0.805330 0.535316
O O9 0.001696 0.897960 0.449621
O O10 0.988719 0.900860 0.617874
O O11 0.750000 0.250000 0.489229
O O12 0.250000 0.925803 0.060100
O O13 0.500424 0.977874 0.099600
O O14 0.481882 0.924043 0.953809
O O15 0.250000 0.943729 0.386783
O O16 0.514640 0.993435 0.366125
O O17 0.250000 0.556084 0.669000
O O18 0.485375 0.552229 0.775579
O O19 0.250000 0.966387 0.872191
#
# Coordination Sequence:
#
# PCOD9450496 Si02
#       8
#     8   4   8   4   8   8   8   8
#     4  10  20  34  55  79 111 148 183 222 270 326
#     4  12  24  36  56  81 110 143 184 227 270 324
#     4  12  25  40  58  80 108 145 187 231 276 327
#     4  12  24  42  62  81 106 139 182 229 278 328
#     4   9  17  32  53  79 108 141 178 218 266 321
#     4  11  21  35  55  81 113 150 184 224 273 329
#     4  11  22  36  54  81 116 151 186 229 277 329
#     4   9  18  31  52  80 110 141 177 220 267 320
#
# _framework density 17.180719
#
# number of rings (size 3 to 8) (size 9 to 14) (size 15 to 20)
#    0.000    1.429    2.857    3.857    0.000    1.714 
#    0.000    0.000    0.000    0.857    0.000    3.000 
#    0.000    0.000    0.000    0.000    0.000    0.000 
#
# Total GULP energy -312776.981549 kJ/mol
# GULP energy per Si atom -5585.303242 kJ/mol
# Density = 1.714162 g / cm^3
# Si number density = 17.180719 Si / 1000 Ang^3
#
#
#
# Elastic Constant Matrix: (Units=GPa)
#
#
# Indices 1 2 3 4 5 6 
#
# 1 50.8702 22.6696 24.7524 0.0000 0.0000 0.0000
# 2 22.6696 92.0536 45.5574 0.0000 0.0000 0.0000
# 3 24.7524 45.5574 93.2251 0.0000 0.0000 0.0000
# 4 0.0000 0.0000 0.0000 8.8914 0.0000 0.0000
# 5 0.0000 0.0000 0.0000 0.0000 17.1342 0.0000
# 6 0.0000 0.0000 0.0000 0.0000 0.0000 29.2315
#
#
#
# Elastic Compliance Matrix: (Units=1/GPa)
#
#
# Indices 1 2 3 4 5 6 
#
# 1 0.023421 -0.003548 -0.004485 0.000000 0.000000 0.000000
# 2 -0.003548 0.014866 -0.006323 0.000000 0.000000 0.000000
# 3 -0.004485 -0.006323 0.015007 0.000000 0.000000 0.000000
# 4 0.000000 0.000000 0.000000 0.112469 0.000000 0.000000
# 5 0.000000 0.000000 0.000000 0.000000 0.058363 0.000000
# 6 0.000000 0.000000 0.000000 0.000000 0.000000 0.034210
#
#
# Mechanical properties :
#
#
# Convention : Reuss Voigt Hill
#
# Bulk Modulus (GPa) = 40.67801 46.90086 43.78943
# Shear Modulus (GPa) = 16.93526 20.59603 18.76565
#
# Velocity S-wave (km/s) = 3.14301 3.46611 3.30851
# Velocity P-wave (km/s) = 6.07448 6.58607 6.33544
#
# Compressibility (1/GPa) = 0.02458331
#
# Stress axis : x y z
#
# Youngs Moduli (GPa) = 42.69616 67.26673 66.63466
#
# Poissons Ratio (x) = 0.23869 0.29883
# Poissons Ratio (y) = 0.15150 0.42131
# Poissons Ratio (z) = 0.19147 0.42531
#
# Static dielectric constant tensor:
#      x y z
#    x 1.575100 0.000000 0.000000 
#    y 0.000000 1.552470 0.000000 
#    z 0.000000 0.000000 1.601710 
# 
# From -- ./inp_files/21200.got.cif
#   From: 2010.05.17/outbox.cif.g08.bks.cpg/sg59_11_cif.got.tgz:21200.got - 2010.06.03 14:40:33.
