data_PCOD9450759
_publ_section_title
;
Structure prediction by ZEFSAII (Michael W. Deem and Ramdas Pophale) SiO2 
 PCOD9450759
Probable space group: P M M N
;
_chemical_formula_sum "Si O2"
_cell_formula_units_Z 32
_cell_length_a 8.938765
_cell_length_b 17.509080
_cell_length_c 11.941060
_cell_angle_alpha 90.000000
_cell_angle_beta 90.000000
_cell_angle_gamma 90.000000
_cell_volume 1868.889945
_symmetry_space_group_name_H-M "P M M N"
_symmetry_group_IT_number 59
_space_group.IT_coordinate_system_code '2'
_symmetry_cell_setting 'orthorhombic'
loop_
_space_group_symop_operation_xyz
x,y,z
1/2-x,1/2-y,z
1/2+x,-y,-z
-x,1/2+y,-z
-x,-y,-z
1/2+x,1/2+y,-z
1/2-x,y,z
x,1/2-y,z
loop_
_atom_site_type_symbol
_atom_site_label
_atom_site_fract_x
_atom_site_fract_y
_atom_site_fract_z
Si Si1 0.570602 0.435930 0.852274
Si Si2 0.071662 0.750000 0.786052
Si Si3 0.573188 0.750000 0.542225
Si Si4 0.571980 0.890809 0.916159
Si Si5 0.424329 0.664818 0.353717
O O1 0.750000 0.424217 0.864174
O O2 0.542359 0.526423 0.860021
O O3 0.524883 0.397557 0.735258
O O4 0.487962 0.397700 0.957155
O O5 0.250000 0.750000 0.784873
O O6 0.008400 0.750000 0.660244
O O7 0.010188 0.675872 0.850282
O O8 0.750000 0.750000 0.556469
O O9 0.519425 0.678073 0.465999
O O10 0.750000 0.877852 0.915816
O O11 0.250000 0.651065 0.382609
O O12 0.430644 0.750000 0.298774
#
# Coordination Sequence:
#
# PCOD9450759 Si02
#       5
#     8   4   4   8   8
#     4   9  18  35  56  82 113 144 175 213 263 318
#     4  12  24  39  56  73 102 145 185 217 269 326
#     4  10  20  35  54  79 106 133 175 227 269 308
#     4  10  21  35  54  81 113 142 177 222 264 312
#     4   8  16  32  55  78 104 138 174 211 255 311
#
# _framework density 17.122463
#
# number of rings (size 3 to 8) (size 9 to 14) (size 15 to 20)
#    0.750    1.750    0.000    2.625    1.750    2.000 
#    0.000    1.250    0.000    0.000    0.000    0.000 
#    0.000    0.000    0.000    0.000    0.000    0.000 
#
# Total GULP energy -178267.891857 kJ/mol
# GULP energy per Si atom -5570.871621 kJ/mol
# Density = 1.708349 g / cm^3
# Si number density = 17.122463 Si / 1000 Ang^3
#
#
#
# Elastic Constant Matrix: (Units=GPa)
#
#
# Indices 1 2 3 4 5 6 
#
# 1 104.1099 67.7679 81.2302 0.0000 0.0000 0.0000
# 2 67.7679 79.9610 85.4756 0.0000 0.0000 0.0000
# 3 81.2302 85.4756 128.7904 0.0000 0.0000 0.0000
# 4 0.0000 0.0000 0.0000 -67.8210 0.0000 0.0000
# 5 0.0000 0.0000 0.0000 0.0000 30.9838 0.0000
# 6 0.0000 0.0000 0.0000 0.0000 0.0000 17.2617
#
#
#
# Elastic Compliance Matrix: (Units=1/GPa)
#
#
# Indices 1 2 3 4 5 6 
#
# 1 0.022416 -0.013370 -0.005265 0.000000 0.000000 0.000000
# 2 -0.013370 0.051017 -0.025427 0.000000 0.000000 0.000000
# 3 -0.005265 -0.025427 0.027960 0.000000 0.000000 0.000000
# 4 0.000000 0.000000 0.000000 -0.014745 0.000000 0.000000
# 5 0.000000 0.000000 0.000000 0.000000 0.032275 0.000000
# 6 0.000000 0.000000 0.000000 0.000000 0.000000 0.057932
#
#
# Mechanical properties :
#
#
# Convention : Reuss Voigt Hill
#
# Bulk Modulus (GPa) = 75.35206 86.86764 81.10985
# Shear Modulus (GPa) = 18.55967 1.31075 9.93521
#
# Velocity S-wave (km/s) = 3.29589 0.87589 2.41144
# Velocity P-wave (km/s) = 7.65422 7.20182 7.43146
#
# Compressibility (1/GPa) = 0.01327104
#
# Stress axis : x y z
#
# Youngs Moduli (GPa) = 44.61174 19.60113 35.76510
#
# Poissons Ratio (x) = 0.26206 0.18829
# Poissons Ratio (y) = 0.59645 0.90939
# Poissons Ratio (z) = 0.23486 0.49839
#
# Static dielectric constant tensor:
#      x y z
#    x 1.570550 0.000000 0.000000 
#    y 0.000000 1.580040 0.000000 
#    z 0.000000 0.000000 1.554420 
# 
# From -- ./inp_files/13682.got.cif
#   From: 2010.05.17/outbox.cif.g08.bks.cpg/sg59_7_cif.got.tgz:13682.got - 2010.06.03 14:40:33.
