data_PCOD9450551
_publ_section_title
;
Structure prediction by ZEFSAII (Michael W. Deem and Ramdas Pophale) SiO2 
 PCOD9450551
Probable space group: P M M N
;
_chemical_formula_sum "Si O2"
_cell_formula_units_Z 64
_cell_length_a 8.223638
_cell_length_b 16.200474
_cell_length_c 24.407774
_cell_angle_alpha 90.000000
_cell_angle_beta 90.000000
_cell_angle_gamma 90.000000
_cell_volume 3251.770445
_symmetry_space_group_name_H-M "P M M N"
_symmetry_group_IT_number 59
_space_group.IT_coordinate_system_code '2'
_symmetry_cell_setting 'orthorhombic'
loop_
_space_group_symop_operation_xyz
x,y,z
1/2-x,1/2-y,z
1/2+x,-y,-z
-x,1/2+y,-z
-x,-y,-z
1/2+x,1/2+y,-z
1/2-x,y,z
x,1/2-y,z
loop_
_atom_site_type_symbol
_atom_site_label
_atom_site_fract_x
_atom_site_fract_y
_atom_site_fract_z
Si Si1 0.055122 0.503736 0.259334
Si Si2 0.946785 0.658030 0.676395
Si Si3 0.558932 0.659899 0.327487
Si Si4 0.445799 0.992295 0.135823
Si Si5 0.056157 0.083828 0.969934
Si Si6 0.551478 0.838891 0.921433
Si Si7 0.941919 0.397856 0.559308
Si Si8 0.054671 0.913558 0.562672
O O1 0.250000 0.495561 0.256097
O O2 0.993622 0.418395 0.286391
O O3 0.993701 0.518170 0.197600
O O4 0.018172 0.581938 0.297222
O O5 0.750000 0.656742 0.677650
O O6 0.999857 0.750000 0.693456
O O7 0.001678 0.639767 0.614377
O O8 0.750000 0.657929 0.315817
O O9 0.493247 0.750000 0.310836
O O10 0.532436 0.648542 0.392326
O O11 0.250000 0.995136 0.136747
O O12 0.492046 0.922532 0.091661
O O13 0.504083 0.080913 0.112031
O O14 0.250000 0.085510 0.967067
O O15 0.004167 0.151505 0.014573
O O16 0.000000 0.000000 0.000000
O O17 0.750000 0.840625 0.919743
O O18 0.498001 0.750000 0.899892
O O19 0.750000 0.382308 0.565221
O O20 0.991186 0.377755 0.496937
O O21 0.975386 0.495715 0.566846
O O22 0.250000 0.923897 0.562968
#
# Coordination Sequence:
#
# PCOD9450551 Si02
#       8
#     8   8   8   8   8   8   8   8
#     4  10  21  38  58  80 109 147 188 232 280 330
#     4  10  21  36  55  81 113 149 188 229 276 333
#     4  11  24  40  59  83 108 139 184 236 287 337
#     4   9  18  32  52  76 102 136 179 220 261 316
#     4   9  16  28  48  73 101 134 169 207 253 304
#     4   8  14  26  47  76 106 134 167 209 254 303
#     4  10  20  35  57  83 110 141 179 225 281 340
#     4  10  20  34  55  83 113 145 180 222 276 338
#
# _framework density 19.681585999999999
#
# number of rings (size 3 to 8) (size 9 to 14) (size 15 to 20)
#    0.000    2.375    1.250    2.250    0.000    4.250 
#    0.000    5.625    0.000   11.625    0.000    3.500 
#    0.000    0.000    0.000    0.000    0.000    0.000 
#
# Total GULP energy -356864.570402 kJ/mol
# GULP energy per Si atom -5576.008913 kJ/mol
# Density = 1.963679 g / cm^3
# Si number density = 19.681586 Si / 1000 Ang^3
#
#
#
# Elastic Constant Matrix: (Units=GPa)
#
#
# Indices 1 2 3 4 5 6 
#
# 1 10.6984 2.0623 9.0915 0.0000 0.0000 0.0000
# 2 2.0623 66.3334 28.0726 0.0000 0.0000 0.0000
# 3 9.0915 28.0726 112.5585 0.0000 0.0000 0.0000
# 4 0.0000 0.0000 0.0000 6.0002 0.0000 0.0000
# 5 0.0000 0.0000 0.0000 0.0000 23.9903 0.0000
# 6 0.0000 0.0000 0.0000 0.0000 0.0000 14.3525
#
#
#
# Elastic Compliance Matrix: (Units=1/GPa)
#
#
# Indices 1 2 3 4 5 6 
#
# 1 0.100368 0.000347 -0.008193 0.000000 0.000000 0.000000
# 2 0.000347 0.016856 -0.004232 0.000000 0.000000 0.000000
# 3 -0.008193 -0.004232 0.010602 0.000000 0.000000 0.000000
# 4 0.000000 0.000000 0.000000 0.166661 0.000000 0.000000
# 5 0.000000 0.000000 0.000000 0.000000 0.041684 0.000000
# 6 0.000000 0.000000 0.000000 0.000000 0.000000 0.069674
#
#
# Mechanical properties :
#
#
# Convention : Reuss Voigt Hill
#
# Bulk Modulus (GPa) = 9.64613 29.78258 19.71435
# Shear Modulus (GPa) = 10.76296 18.89285 14.82790
#
# Velocity S-wave (km/s) = 2.34103 3.10163 2.74777
# Velocity P-wave (km/s) = 3.49556 5.29073 4.48390
#
# Compressibility (1/GPa) = 0.10366851
#
# Stress axis : x y z
#
# Youngs Moduli (GPa) = 9.96334 59.32773 94.32617
#
# Poissons Ratio (x) = -0.02059 0.77285
# Poissons Ratio (y) = -0.00346 0.39918
# Poissons Ratio (z) = 0.08163 0.25107
#
# Static dielectric constant tensor:
#      x y z
#    x 1.689580 0.000000 0.000000 
#    y 0.000000 1.699850 0.000000 
#    z 0.000000 0.000000 1.701800 
# 
# From -- ./inp_files/31422.got.cif
#   From: 2010.05.17/outbox.cif.g08.bks.cpg/sg59_16_cif.got.tgz:31422.got - 2010.06.03 14:40:33.
