data_PCOD9450883
_publ_section_title
;
Structure prediction by ZEFSAII (Michael W. Deem and Ramdas Pophale) SiO2 
 PCOD9450883
Probable space group: P M M N
;
_chemical_formula_sum "Si O2"
_cell_formula_units_Z 64
_cell_length_a 7.523982
_cell_length_b 30.000306
_cell_length_c 12.844416
_cell_angle_alpha 90.000000
_cell_angle_beta 90.000000
_cell_angle_gamma 90.000000
_cell_volume 2899.264216
_symmetry_space_group_name_H-M "P M M N"
_symmetry_group_IT_number 59
_space_group.IT_coordinate_system_code '2'
_symmetry_cell_setting 'orthorhombic'
loop_
_space_group_symop_operation_xyz
x,y,z
1/2-x,1/2-y,z
1/2+x,-y,-z
-x,1/2+y,-z
-x,-y,-z
1/2+x,1/2+y,-z
1/2-x,y,z
x,1/2-y,z
loop_
_atom_site_type_symbol
_atom_site_label
_atom_site_fract_x
_atom_site_fract_y
_atom_site_fract_z
Si Si1 0.461886 0.449220 0.471763
Si Si2 0.031745 0.123039 0.853646
Si Si3 0.963985 0.199192 0.439720
Si Si4 0.462310 0.299315 0.006615
Si Si5 0.537525 0.977650 0.110712
Si Si6 0.961370 0.870873 0.381924
Si Si7 0.464093 0.842965 0.777300
Si Si8 0.954575 0.060218 0.235150
O O1 0.500000 0.500000 0.500000
O O2 0.250000 0.443381 0.462608
O O3 0.529783 0.414945 0.558883
O O4 0.541711 0.438637 0.359551
O O5 0.250000 0.123298 0.857186
O O6 0.970772 0.072878 0.880888
O O7 0.973509 0.133900 0.735757
O O8 0.969549 0.160548 0.934511
O O9 0.750000 0.200615 0.432506
O O10 0.028563 0.250000 0.445784
O O11 0.029262 0.175318 0.333894
O O12 0.007879 0.170405 0.541253
O O13 0.250000 0.297970 0.991672
O O14 0.532592 0.250000 0.981675
O O15 0.495139 0.310941 0.127037
O O16 0.750000 0.973638 0.125858
O O17 0.467241 0.013790 0.194111
O O18 0.500000 0.000000 0.000000
O O19 0.750000 0.876970 0.372172
O O20 0.250000 0.846425 0.768945
O O21 0.534751 0.892782 0.800904
O O22 0.750000 0.060051 0.198752
#
# Coordination Sequence:
#
# PCOD9450883 Si02
#       8
#     8   8   8   8   8   8   8   8
#     4  11  22  35  55  83 114 149 190 235 283 337
#     4   9  19  37  57  78 111 149 183 230 287 336
#     4  10  21  37  57  82 114 151 187 229 289 350
#     4  10  21  36  56  81 107 141 187 235 282 338
#     4  10  20  35  56  82 113 148 188 234 283 339
#     4  10  21  38  59  83 111 148 195 239 281 336
#     4  10  20  36  58  82 113 148 182 230 289 347
#     4  10  20  35  56  81 111 148 189 231 281 343
#
# _framework density 22.074566000000001
#
# number of rings (size 3 to 8) (size 9 to 14) (size 15 to 20)
#    0.000    2.000    1.250    2.250    0.000    5.500 
#    0.000    2.500    0.000    0.000    0.000    0.000 
#    0.000    0.000    0.000    0.000    0.000    0.000 
#
# Total GULP energy -357612.222572 kJ/mol
# GULP energy per Si atom -5587.690978 kJ/mol
# Density = 2.202432 g / cm^3
# Si number density = 22.074566 Si / 1000 Ang^3
#
#
#
# Elastic Constant Matrix: (Units=GPa)
#
#
# Indices 1 2 3 4 5 6 
#
# 1 55.1935 2.4408 -9.6708 0.0000 0.0000 0.0000
# 2 2.4408 203.6164 78.9025 0.0000 0.0000 0.0000
# 3 -9.6708 78.9025 134.8105 0.0000 0.0000 0.0000
# 4 0.0000 0.0000 0.0000 38.2100 0.0000 0.0000
# 5 0.0000 0.0000 0.0000 0.0000 -34.0152 0.0000
# 6 0.0000 0.0000 0.0000 0.0000 0.0000 12.8331
#
#
#
# Elastic Compliance Matrix: (Units=1/GPa)
#
#
# Indices 1 2 3 4 5 6 
#
# 1 0.018490 -0.000951 0.001883 0.000000 0.000000 0.000000
# 2 -0.000951 0.006401 -0.003815 0.000000 0.000000 0.000000
# 3 0.001883 -0.003815 0.009785 0.000000 0.000000 0.000000
# 4 0.000000 0.000000 0.000000 0.026171 0.000000 0.000000
# 5 0.000000 0.000000 0.000000 0.000000 -0.029399 0.000000
# 6 0.000000 0.000000 0.000000 0.000000 0.000000 0.077923
#
#
# Mechanical properties :
#
#
# Convention : Reuss Voigt Hill
#
# Bulk Modulus (GPa) = 34.58889 59.66282 47.12586
# Shear Modulus (GPa) = 40.07226 24.86879 32.47053
#
# Velocity S-wave (km/s) = 4.26527 3.36010 3.83945
# Velocity P-wave (km/s) = 6.32138 6.49155 6.40703
#
# Compressibility (1/GPa) = 0.02891102
#
# Stress axis : x y z
#
# Youngs Moduli (GPa) = 54.08293 156.23185 102.19218
#
# Poissons Ratio (x) = 0.14864 -0.19245
# Poissons Ratio (y) = 0.05146 0.38981
# Poissons Ratio (z) = -0.10185 0.59595
#
# Static dielectric constant tensor:
#      x y z
#    x 1.883160 0.000000 0.000000 
#    y 0.000000 1.809330 0.000000 
#    z 0.000000 0.000000 1.770590 
# 
# From -- ./inp_files/15005.got.cif
#   From: 2010.05.17/outbox.cif.g08.bks.cpg/sg59_8_cif.got.tgz:15005.got - 2010.06.03 14:40:33.
