data_PCOD9450817
_publ_section_title
;
Structure prediction by ZEFSAII (Michael W. Deem and Ramdas Pophale) SiO2 
 PCOD9450817
Probable space group: P M M N
;
_chemical_formula_sum "Si O2"
_cell_formula_units_Z 40
_cell_length_a 7.735829
_cell_length_b 14.804417
_cell_length_c 17.759572
_cell_angle_alpha 90.000000
_cell_angle_beta 90.000000
_cell_angle_gamma 90.000000
_cell_volume 2033.905009
_symmetry_space_group_name_H-M "P M M N"
_symmetry_group_IT_number 59
_space_group.IT_coordinate_system_code '2'
_symmetry_cell_setting 'orthorhombic'
loop_
_space_group_symop_operation_xyz
x,y,z
1/2-x,1/2-y,z
1/2+x,-y,-z
-x,1/2+y,-z
-x,-y,-z
1/2+x,1/2+y,-z
1/2-x,y,z
x,1/2-y,z
loop_
_atom_site_type_symbol
_atom_site_label
_atom_site_fract_x
_atom_site_fract_y
_atom_site_fract_z
Si Si1 0.962324 0.250000 0.652174
Si Si2 0.045515 0.561271 0.281743
Si Si3 0.461547 0.750000 0.523074
Si Si4 0.040874 0.994426 0.118534
Si Si5 0.456835 0.647582 0.993289
Si Si6 0.456193 0.943763 0.574967
O O1 0.750000 0.250000 0.652166
O O2 0.023366 0.159023 0.692915
O O3 0.014055 0.250000 0.564576
O O4 0.250000 0.574477 0.270184
O O5 0.976348 0.523480 0.202886
O O6 0.023816 0.493305 0.351134
O O7 0.250000 0.750000 0.523288
O O8 0.520255 0.841759 0.562736
O O9 0.250000 0.991948 0.118534
O O10 0.991343 0.089932 0.081867
O O11 0.978270 0.915074 0.062120
O O12 0.250000 0.653174 0.002089
O O13 0.524708 0.750000 0.992486
O O14 0.250000 0.940807 0.581283
O O15 0.500000 0.000000 0.500000
#
# Coordination Sequence:
#
# PCOD9450817 Si02
#       6
#     4   8   4   8   8   8
#     4   9  16  30  54  78 103 132 169 213 262 312
#     4  10  20  35  55  80 106 136 173 218 265 312
#     4   9  18  34  54  74  97 136 179 211 256 312
#     4   9  19  34  54  80 108 135 172 219 266 310
#     4   9  18  34  56  80 105 138 178 214 255 314
#     4  11  21  36  56  77 105 140 178 217 261 311
#
# _framework density 19.666602000000001
#
# number of rings (size 3 to 8) (size 9 to 14) (size 15 to 20)
#    0.000    2.400    2.000    0.600    1.400    1.200 
#    1.800    3.500    0.000    0.000    0.000    0.000 
#    0.000    0.000    0.000    0.000    0.000    0.000 
#
# Total GULP energy -223229.513775 kJ/mol
# GULP energy per Si atom -5580.737844 kJ/mol
# Density = 1.962184 g / cm^3
# Si number density = 19.666602 Si / 1000 Ang^3
#
#
#
# Elastic Constant Matrix: (Units=GPa)
#
#
# Indices 1 2 3 4 5 6 
#
# 1 25.5628 -6.4552 -11.8261 0.0000 0.0000 0.0000
# 2 -6.4552 179.8715 77.2506 0.0000 0.0000 0.0000
# 3 -11.8261 77.2506 150.4763 0.0000 0.0000 0.0000
# 4 0.0000 0.0000 0.0000 12.1672 0.0000 0.0000
# 5 0.0000 0.0000 0.0000 0.0000 22.1835 0.0000
# 6 0.0000 0.0000 0.0000 0.0000 0.0000 20.8973
#
#
#
# Elastic Compliance Matrix: (Units=1/GPa)
#
#
# Indices 1 2 3 4 5 6 
#
# 1 0.040597 0.000111 0.003133 0.000000 0.000000 0.000000
# 2 0.000111 0.007132 -0.003653 0.000000 0.000000 0.000000
# 3 0.003133 -0.003653 0.008767 0.000000 0.000000 0.000000
# 4 0.000000 0.000000 0.000000 0.082188 0.000000 0.000000
# 5 0.000000 0.000000 0.000000 0.000000 0.045078 0.000000
# 6 0.000000 0.000000 0.000000 0.000000 0.000000 0.047853
#
#
# Mechanical properties :
#
#
# Convention : Reuss Voigt Hill
#
# Bulk Modulus (GPa) = 17.95971 52.64993 35.30482
# Shear Modulus (GPa) = 19.92091 30.84568 25.38329
#
# Velocity S-wave (km/s) = 3.18611 3.96464 3.59650
# Velocity P-wave (km/s) = 4.76308 6.91283 5.93608
#
# Compressibility (1/GPa) = 0.05568018
#
# Stress axis : x y z
#
# Youngs Moduli (GPa) = 24.63231 140.20705 114.06296
#
# Poissons Ratio (x) = -0.01559 -0.35741
# Poissons Ratio (y) = -0.00274 0.41665
# Poissons Ratio (z) = -0.07718 0.51215
#
# Static dielectric constant tensor:
#      x y z
#    x 1.750570 0.000000 0.000000 
#    y 0.000000 1.682260 0.000000 
#    z 0.000000 0.000000 1.650450 
# 
# From -- ./inp_files/19959.got.cif
#   From: 2010.05.17/outbox.cif.g08.bks.cpg/sg59_10_cif.got.tgz:19959.got - 2010.06.03 14:40:33.
