data_PCOD9450044
_publ_section_title
;
Structure prediction by ZEFSAII (Michael W. Deem and Ramdas Pophale) SiO2 
 PCOD9450044
Probable space group: P M M N
;
_chemical_formula_sum "Si O2"
_cell_formula_units_Z 56
_cell_length_a 14.506140
_cell_length_b 9.079827
_cell_length_c 23.067752
_cell_angle_alpha 90.000000
_cell_angle_beta 90.000000
_cell_angle_gamma 90.000000
_cell_volume 3038.328393
_symmetry_space_group_name_H-M "P M M N"
_symmetry_group_IT_number 59
_space_group.IT_coordinate_system_code '2'
_symmetry_cell_setting 'orthorhombic'
loop_
_space_group_symop_operation_xyz
x,y,z
1/2-x,1/2-y,z
1/2+x,-y,-z
-x,1/2+y,-z
-x,-y,-z
1/2+x,1/2+y,-z
1/2-x,y,z
x,1/2-y,z
loop_
_atom_site_type_symbol
_atom_site_label
_atom_site_fract_x
_atom_site_fract_y
_atom_site_fract_z
Si Si1 0.452771 0.926438 0.084932
Si Si2 0.091178 0.921864 0.523509
Si Si3 0.642813 0.927109 0.026142
Si Si4 0.358106 0.427772 0.195517
Si Si5 0.024665 0.423784 0.308994
Si Si6 0.147806 0.582033 0.396440
Si Si7 0.644986 0.924353 0.356953
O O1 0.443315 0.750000 0.086145
O O2 0.561448 0.960414 0.072700
O O3 0.412338 0.997126 0.142959
O O4 0.392914 0.992236 0.031786
O O5 0.075938 0.750000 0.537160
O O6 0.152263 0.930214 0.465646
O O7 0.129021 0.002001 0.580120
O O8 0.000000 0.000000 0.500000
O O9 0.750000 0.965725 0.039677
O O10 0.640486 0.750000 0.016766
O O11 0.250000 0.470330 0.196484
O O12 0.361422 0.250000 0.188969
O O13 0.410324 0.465576 0.255215
O O14 0.009086 0.250000 0.307385
O O15 0.078479 0.469668 0.367265
O O16 0.928285 0.507941 0.312685
O O17 0.250000 0.560257 0.372247
O O18 0.117038 0.750000 0.383737
O O19 0.750000 0.951584 0.338987
O O20 0.630433 0.750000 0.362622
#
# Coordination Sequence:
#
# PCOD9450044 Si02
#       7
#     8   8   8   8   8   8   8
#     4  10  20  33  54  86 117 148 192 238 276 322
#     4  11  21  35  57  84 113 145 180 222 277 336
#     4   9  18  34  55  80 116 158 191 226 277 331
#     4  10  22  40  59  81 112 149 185 224 278 339
#     4  11  23  39  60  82 107 142 186 235 280 330
#     4  10  21  36  55  80 111 143 175 219 276 334
#     4  11  24  41  60  82 110 146 186 229 281 341
#
# _framework density 18.431187000000001
#
# number of rings (size 3 to 8) (size 9 to 14) (size 15 to 20)
#    0.000    1.714    1.429    3.000    0.000    7.143 
#    0.000    0.714    0.000    2.571    0.000    0.000 
#    0.000    0.000    0.000    0.000    0.000    0.000 
#
# Total GULP energy -312523.373925 kJ/mol
# GULP energy per Si atom -5580.774534 kJ/mol
# Density = 1.838924 g / cm^3
# Si number density = 18.431187 Si / 1000 Ang^3
#
#
#
# Elastic Constant Matrix: (Units=GPa)
#
#
# Indices 1 2 3 4 5 6 
#
# 1 171.6180 65.9860 63.0392 0.0000 0.0000 0.0000
# 2 65.9860 61.2897 41.3290 0.0000 0.0000 0.0000
# 3 63.0392 41.3290 91.0900 0.0000 0.0000 0.0000
# 4 0.0000 0.0000 0.0000 30.8910 0.0000 0.0000
# 5 0.0000 0.0000 0.0000 0.0000 23.8731 0.0000
# 6 0.0000 0.0000 0.0000 0.0000 0.0000 27.4621
#
#
#
# Elastic Compliance Matrix: (Units=1/GPa)
#
#
# Indices 1 2 3 4 5 6 
#
# 1 0.010511 -0.009238 -0.003083 0.000000 0.000000 0.000000
# 2 -0.009238 0.031627 -0.007957 0.000000 0.000000 0.000000
# 3 -0.003083 -0.007957 0.016722 0.000000 0.000000 0.000000
# 4 0.000000 0.000000 0.000000 0.032372 0.000000 0.000000
# 5 0.000000 0.000000 0.000000 0.000000 0.041888 0.000000
# 6 0.000000 0.000000 0.000000 0.000000 0.000000 0.036414
#
#
# Mechanical properties :
#
#
# Convention : Reuss Voigt Hill
#
# Bulk Modulus (GPa) = 54.62943 73.85623 64.24283
# Shear Modulus (GPa) = 23.12782 26.68814 24.90798
#
# Velocity S-wave (km/s) = 3.54619 3.80937 3.68013
# Velocity P-wave (km/s) = 6.81698 7.71406 7.27935
#
# Compressibility (1/GPa) = 0.01830515
#
# Stress axis : x y z
#
# Youngs Moduli (GPa) = 95.13695 31.61886 59.80200
#
# Poissons Ratio (x) = 0.29208 0.18437
# Poissons Ratio (y) = 0.87884 0.47582
# Poissons Ratio (z) = 0.29331 0.25158
#
# Static dielectric constant tensor:
#      x y z
#    x 1.653180 0.000000 0.000000 
#    y 0.000000 1.612110 0.000000 
#    z 0.000000 0.000000 1.619830 
# 
# From -- ./inp_files/30327.got.cif
#   From: 2010.05.17/outbox.cif.g08.bks.cpg/sg59_16_cif.got.tgz:30327.got - 2010.06.03 14:40:33.
