data_PCOD9450745
_publ_section_title
;
Structure prediction by ZEFSAII (Michael W. Deem and Ramdas Pophale) SiO2 
 PCOD9450745
Probable space group: P M M N
;
_chemical_formula_sum "Si O2"
_cell_formula_units_Z 56
_cell_length_a 7.951664
_cell_length_b 23.558915
_cell_length_c 15.098669
_cell_angle_alpha 90.000000
_cell_angle_beta 90.000000
_cell_angle_gamma 90.000000
_cell_volume 2828.472562
_symmetry_space_group_name_H-M "P M M N"
_symmetry_group_IT_number 59
_space_group.IT_coordinate_system_code '2'
_symmetry_cell_setting 'orthorhombic'
loop_
_space_group_symop_operation_xyz
x,y,z
1/2-x,1/2-y,z
1/2+x,-y,-z
-x,1/2+y,-z
-x,-y,-z
1/2+x,1/2+y,-z
1/2-x,y,z
x,1/2-y,z
loop_
_atom_site_type_symbol
_atom_site_label
_atom_site_fract_x
_atom_site_fract_y
_atom_site_fract_z
Si Si1 0.945677 0.902724 0.714658
Si Si2 0.450064 0.921306 0.082650
Si Si3 0.048034 0.490420 0.602136
Si Si4 0.546695 0.638399 0.377959
Si Si5 0.548395 0.186974 0.808583
Si Si6 0.447009 0.955831 0.890044
Si Si7 0.455821 0.184885 0.430956
O O1 0.750000 0.890868 0.730304
O O2 0.015427 0.854172 0.649857
O O3 0.964904 0.960982 0.660258
O O4 0.028201 0.913238 0.809247
O O5 0.250000 0.912777 0.075638
O O6 0.518890 0.866450 0.134247
O O7 0.477884 0.981963 0.129950
O O8 0.517211 0.931488 0.982784
O O9 0.250000 0.494598 0.611495
O O10 0.994932 0.427276 0.630163
O O11 0.000000 0.500000 0.500000
O O12 0.750000 0.640007 0.378244
O O13 0.486187 0.673907 0.294300
O O14 0.489202 0.661580 0.473318
O O15 0.750000 0.188171 0.820160
O O16 0.483245 0.250000 0.831760
O O17 0.250000 0.965863 0.902822
O O18 0.250000 0.182004 0.431144
O O19 0.504873 0.250000 0.420649
#
# Coordination Sequence:
#
# PCOD9450745 Si02
#       7
#     8   8   8   8   8   8   8
#     4  11  21  35  54  79 109 143 179 218 268 318
#     4   9  19  37  58  79 107 141 175 217 272 329
#     4  11  21  34  53  80 110 141 178 222 270 317
#     4  10  20  35  54  77 105 141 182 218 262 317
#     4  10  21  36  54  79 109 142 180 221 269 324
#     4  10  20  35  57  84 108 136 177 223 273 325
#     4   9  18  34  53  71  98 140 185 220 254 307
#
# _framework density 19.798670000000001
#
# number of rings (size 3 to 8) (size 9 to 14) (size 15 to 20)
#    0.000    2.000    1.429    2.571    0.000    5.429 
#    0.000    0.714    0.000    3.429    0.000    0.000 
#    0.000    0.000    0.000    0.000    0.000    0.000 
#
# Total GULP energy -312684.642020 kJ/mol
# GULP energy per Si atom -5583.654322 kJ/mol
# Density = 1.975361 g / cm^3
# Si number density = 19.798670 Si / 1000 Ang^3
#
#
#
# Elastic Constant Matrix: (Units=GPa)
#
#
# Indices 1 2 3 4 5 6 
#
# 1 13.8447 1.5736 -4.5628 0.0000 0.0000 0.0000
# 2 1.5736 152.2838 59.8095 0.0000 0.0000 0.0000
# 3 -4.5628 59.8095 97.1280 0.0000 0.0000 0.0000
# 4 0.0000 0.0000 0.0000 24.4292 0.0000 0.0000
# 5 0.0000 0.0000 0.0000 0.0000 24.1070 0.0000
# 6 0.0000 0.0000 0.0000 0.0000 0.0000 17.1295
#
#
#
# Elastic Compliance Matrix: (Units=1/GPa)
#
#
# Indices 1 2 3 4 5 6 
#
# 1 0.074273 -0.002820 0.005225 0.000000 0.000000 0.000000
# 2 -0.002820 0.008768 -0.005532 0.000000 0.000000 0.000000
# 3 0.005225 -0.005532 0.013948 0.000000 0.000000 0.000000
# 4 0.000000 0.000000 0.000000 0.040935 0.000000 0.000000
# 5 0.000000 0.000000 0.000000 0.000000 0.041482 0.000000
# 6 0.000000 0.000000 0.000000 0.000000 0.000000 0.058379
#
#
# Mechanical properties :
#
#
# Convention : Reuss Voigt Hill
#
# Bulk Modulus (GPa) = 11.02097 41.87745 26.44921
# Shear Modulus (GPa) = 18.22945 26.89557 22.56251
#
# Velocity S-wave (km/s) = 3.03766 3.68972 3.37945
# Velocity P-wave (km/s) = 4.22869 6.27293 5.34936
#
# Compressibility (1/GPa) = 0.09073616
#
# Stress axis : x y z
#
# Youngs Moduli (GPa) = 13.46393 114.04474 71.69680
#
# Poissons Ratio (x) = 0.32158 -0.37465
# Poissons Ratio (y) = 0.03797 0.39662
# Poissons Ratio (z) = -0.07036 0.63089
#
# Static dielectric constant tensor:
#      x y z
#    x 1.725380 0.000000 0.000000 
#    y 0.000000 1.692950 0.000000 
#    z 0.000000 0.000000 1.693540 
# 
# From -- ./inp_files/20964.got.cif
#   From: 2010.05.17/outbox.cif.g08.bks.cpg/sg59_11_cif.got.tgz:20964.got - 2010.06.03 14:40:33.
