data_PCOD9450424
_publ_section_title
;
Structure prediction by ZEFSAII (Michael W. Deem and Ramdas Pophale) SiO2 
 PCOD9450424
Probable space group: P M M N
;
_chemical_formula_sum "Si O2"
_cell_formula_units_Z 48
_cell_length_a 12.627164
_cell_length_b 13.067135
_cell_length_c 16.378252
_cell_angle_alpha 90.000000
_cell_angle_beta 90.000000
_cell_angle_gamma 90.000000
_cell_volume 2702.425611
_symmetry_space_group_name_H-M "P M M N"
_symmetry_group_IT_number 59
_space_group.IT_coordinate_system_code '2'
_symmetry_cell_setting 'orthorhombic'
loop_
_space_group_symop_operation_xyz
x,y,z
1/2-x,1/2-y,z
1/2+x,-y,-z
-x,1/2+y,-z
-x,-y,-z
1/2+x,1/2+y,-z
1/2-x,y,z
x,1/2-y,z
loop_
_atom_site_type_symbol
_atom_site_label
_atom_site_fract_x
_atom_site_fract_y
_atom_site_fract_z
Si Si1 0.972704 0.133661 0.426446
Si Si2 0.375064 0.628326 0.991544
Si Si3 0.023930 0.008411 0.132297
Si Si4 0.370701 0.421860 0.570072
Si Si5 0.369525 0.371622 0.276315
Si Si6 0.873215 0.869275 0.241761
O O1 0.933132 0.250000 0.418528
O O2 0.047576 0.124749 0.505779
O O3 0.047114 0.108682 0.348635
O O4 0.886314 0.044619 0.432294
O O5 0.250000 0.612446 0.974492
O O6 0.391842 0.750000 0.003304
O O7 0.449809 0.585306 0.919590
O O8 0.409768 0.562703 0.070504
O O9 0.948040 0.937502 0.186624
O O10 0.097683 0.069845 0.194728
O O11 0.250000 0.393461 0.549988
O O12 0.393657 0.385900 0.662070
O O13 0.250000 0.399682 0.301643
O O14 0.371931 0.250000 0.261244
O O15 0.750000 0.896309 0.227844
O O16 0.887490 0.750000 0.222379
#
# Coordination Sequence:
#
# PCOD9450424 Si02
#       6
#     8   8   8   8   8   8
#     4  10  20  35  55  80 111 148 184 220 262 310
#     4  10  22  38  56  78 106 140 176 218 270 330
#     4  11  20  36  57  80 106 138 179 220 270 321
#     4  10  20  35  55  80 111 148 184 220 262 310
#     4  10  20  34  54  81 110 140 178 222 266 314
#     4  10  20  34  54  81 110 140 178 222 266 314
#
# _framework density 17.761823
#
# number of rings (size 3 to 8) (size 9 to 14) (size 15 to 20)
#    0.000    1.833    1.667    3.000    0.000    2.000 
#    0.000    0.000    0.000    8.000    0.000    0.000 
#    0.000    0.000    0.000    0.000    0.000    0.000 
#
# Total GULP energy -267961.326622 kJ/mol
# GULP energy per Si atom -5582.527638 kJ/mol
# Density = 1.772140 g / cm^3
# Si number density = 17.761823 Si / 1000 Ang^3
#
#
#
# Elastic Constant Matrix: (Units=GPa)
#
#
# Indices 1 2 3 4 5 6 
#
# 1 38.8089 14.9532 2.4203 0.0000 0.0000 0.0000
# 2 14.9532 53.2471 -1.2704 0.0000 0.0000 0.0000
# 3 2.4203 -1.2704 37.6547 0.0000 0.0000 0.0000
# 4 0.0000 0.0000 0.0000 20.3606 0.0000 0.0000
# 5 0.0000 0.0000 0.0000 0.0000 21.8308 0.0000
# 6 0.0000 0.0000 0.0000 0.0000 0.0000 20.0278
#
#
#
# Elastic Compliance Matrix: (Units=1/GPa)
#
#
# Indices 1 2 3 4 5 6 
#
# 1 0.029066 -0.008214 -0.002145 0.000000 0.000000 0.000000
# 2 -0.008214 0.021117 0.001240 0.000000 0.000000 0.000000
# 3 -0.002145 0.001240 0.026737 0.000000 0.000000 0.000000
# 4 0.000000 0.000000 0.000000 0.049115 0.000000 0.000000
# 5 0.000000 0.000000 0.000000 0.000000 0.045807 0.000000
# 6 0.000000 0.000000 0.000000 0.000000 0.000000 0.049930
#
#
# Mechanical properties :
#
#
# Convention : Reuss Voigt Hill
#
# Bulk Modulus (GPa) = 17.04098 17.99076 17.51587
# Shear Modulus (GPa) = 19.26269 20.01767 19.64018
#
# Velocity S-wave (km/s) = 3.29675 3.36073 3.32889
# Velocity P-wave (km/s) = 4.90982 5.02098 4.96571
#
# Compressibility (1/GPa) = 0.05868206
#
# Stress axis : x y z
#
# Youngs Moduli (GPa) = 34.40463 47.35616 37.40155
#
# Poissons Ratio (x) = 0.38897 0.08024
# Poissons Ratio (y) = 0.28259 -0.04639
# Poissons Ratio (z) = 0.07381 -0.05874
#
# Static dielectric constant tensor:
#      x y z
#    x 1.580850 0.000000 0.000000 
#    y 0.000000 1.595890 0.000000 
#    z 0.000000 0.000000 1.582080 
# 
# From -- ./inp_files/23153.got.cif
#   From: 2010.05.17/outbox.cif.g08.bks.cpg/sg59_12_cif.got.tgz:23153.got - 2010.06.03 14:40:33.
