data_PCOD9450881
_publ_section_title
;
Structure prediction by ZEFSAII (Michael W. Deem and Ramdas Pophale) SiO2 
 PCOD9450881
Probable space group: P M M N
;
_chemical_formula_sum "Si O2"
_cell_formula_units_Z 64
_cell_length_a 8.807066
_cell_length_b 31.705014
_cell_length_c 12.371174
_cell_angle_alpha 90.000000
_cell_angle_beta 90.000000
_cell_angle_gamma 90.000000
_cell_volume 3454.380040
_symmetry_space_group_name_H-M "P M M N"
_symmetry_group_IT_number 59
_space_group.IT_coordinate_system_code '2'
_symmetry_cell_setting 'orthorhombic'
loop_
_space_group_symop_operation_xyz
x,y,z
1/2-x,1/2-y,z
1/2+x,-y,-z
-x,1/2+y,-z
-x,-y,-z
1/2+x,1/2+y,-z
1/2-x,y,z
x,1/2-y,z
loop_
_atom_site_type_symbol
_atom_site_label
_atom_site_fract_x
_atom_site_fract_y
_atom_site_fract_z
Si Si1 0.932291 0.373507 0.633489
Si Si2 0.931843 0.453019 0.489826
Si Si3 0.569600 0.018266 0.889538
Si Si4 0.568817 0.445753 0.242793
Si Si5 0.430563 0.110418 0.861307
Si Si6 0.573071 0.200539 0.261737
Si Si7 0.430519 0.298972 0.492051
Si Si8 0.568145 0.132831 0.086091
O O1 0.750000 0.374610 0.638058
O O2 0.983515 0.417508 0.575659
O O3 0.000137 0.370133 0.752970
O O4 0.986164 0.333525 0.564279
O O5 0.750000 0.456968 0.501188
O O6 0.962756 0.436226 0.368142
O O7 0.000000 0.500000 0.500000
O O8 0.750000 0.022266 0.899915
O O9 0.495825 0.063172 0.867783
O O10 0.524404 0.986277 0.794828
O O11 0.500000 0.000000 0.000000
O O12 0.750000 0.454215 0.233250
O O13 0.532575 0.408021 0.160129
O O14 0.250000 0.109852 0.855227
O O15 0.484512 0.131845 0.972325
O O16 0.750000 0.190146 0.287325
O O17 0.564339 0.250000 0.236877
O O18 0.474465 0.192314 0.367669
O O19 0.528594 0.172731 0.159709
O O20 0.250000 0.302223 0.506926
O O21 0.475731 0.250000 0.514223
O O22 0.750000 0.132377 0.067045
#
# Coordination Sequence:
#
# PCOD9450881 Si02
#       8
#     8   8   8   8   8   8   8   8
#     4  11  23  41  63  87 117 158 204 249 299 359
#     4  10  22  38  57  84 116 153 194 240 292 349
#     4  12  23  37  56  81 112 151 196 241 287 344
#     4  10  20  35  56  81 111 146 189 240 290 339
#     4  12  25  40  58  83 115 154 197 246 298 353
#     4   9  18  35  61  91 120 151 188 232 285 345
#     4  10  21  38  62  93 125 156 194 243 299 357
#     4  10  20  36  58  83 113 150 192 240 287 342
#
# _framework density 18.527204000000001
#
# number of rings (size 3 to 8) (size 9 to 14) (size 15 to 20)
#    0.000    1.500    1.250    4.500    0.000    6.750 
#    0.000    1.875    0.000    2.250    0.000    0.000 
#    0.000    0.000    0.000    0.000    0.000    0.000 
#
# Total GULP energy -357663.831072 kJ/mol
# GULP energy per Si atom -5588.497360 kJ/mol
# Density = 1.848504 g / cm^3
# Si number density = 18.527204 Si / 1000 Ang^3
#
#
#
# Elastic Constant Matrix: (Units=GPa)
#
#
# Indices 1 2 3 4 5 6 
#
# 1 76.6302 47.0057 57.6734 0.0000 0.0000 0.0000
# 2 47.0057 78.7503 64.7924 0.0000 0.0000 0.0000
# 3 57.6734 64.7924 134.1809 0.0000 0.0000 0.0000
# 4 0.0000 0.0000 0.0000 33.8943 0.0000 0.0000
# 5 0.0000 0.0000 0.0000 0.0000 28.8915 0.0000
# 6 0.0000 0.0000 0.0000 0.0000 0.0000 24.9705
#
#
#
# Elastic Compliance Matrix: (Units=1/GPa)
#
#
# Indices 1 2 3 4 5 6 
#
# 1 0.022671 -0.009150 -0.005326 0.000000 0.000000 0.000000
# 2 -0.009150 0.024762 -0.008024 0.000000 0.000000 0.000000
# 3 -0.005326 -0.008024 0.013616 0.000000 0.000000 0.000000
# 4 0.000000 0.000000 0.000000 0.029504 0.000000 0.000000
# 5 0.000000 0.000000 0.000000 0.000000 0.034612 0.000000
# 6 0.000000 0.000000 0.000000 0.000000 0.000000 0.040047
#
#
# Mechanical properties :
#
#
# Convention : Reuss Voigt Hill
#
# Bulk Modulus (GPa) = 62.30944 69.83385 66.07165
# Shear Modulus (GPa) = 23.19519 25.55725 24.37622
#
# Velocity S-wave (km/s) = 3.54213 3.71812 3.63119
# Velocity P-wave (km/s) = 7.10164 7.49713 7.30206
#
# Compressibility (1/GPa) = 0.01604893
#
# Stress axis : x y z
#
# Youngs Moduli (GPa) = 44.10929 40.38483 73.44101
#
# Poissons Ratio (x) = 0.36953 0.39115
# Poissons Ratio (y) = 0.40361 0.58928
# Poissons Ratio (z) = 0.23493 0.32404
#
# Static dielectric constant tensor:
#      x y z
#    x 1.621600 0.000000 0.000000 
#    y 0.000000 1.621740 0.000000 
#    z 0.000000 0.000000 1.679380 
# 
# From -- ./inp_files/14886.got.cif
#   From: 2010.05.17/outbox.cif.g08.bks.cpg/sg59_8_cif.got.tgz:14886.got - 2010.06.03 14:40:33.
