data_PCOD9450203
_publ_section_title
;
Structure prediction by ZEFSAII (Michael W. Deem and Ramdas Pophale) SiO2 
 PCOD9450203
Probable space group: P M M N
;
_chemical_formula_sum "Si O2"
_cell_formula_units_Z 64
_cell_length_a 9.041383
_cell_length_b 15.924155
_cell_length_c 23.912493
_cell_angle_alpha 90.000000
_cell_angle_beta 90.000000
_cell_angle_gamma 90.000000
_cell_volume 3442.834282
_symmetry_space_group_name_H-M "P M M N"
_symmetry_group_IT_number 59
_space_group.IT_coordinate_system_code '2'
_symmetry_cell_setting 'orthorhombic'
loop_
_space_group_symop_operation_xyz
x,y,z
1/2-x,1/2-y,z
1/2+x,-y,-z
-x,1/2+y,-z
-x,-y,-z
1/2+x,1/2+y,-z
1/2-x,y,z
x,1/2-y,z
loop_
_atom_site_type_symbol
_atom_site_label
_atom_site_fract_x
_atom_site_fract_y
_atom_site_fract_z
Si Si1 0.587687 0.346725 0.084200
Si Si2 0.428694 0.148351 0.512134
Si Si3 0.416686 0.427389 0.184614
Si Si4 0.082508 0.616014 0.135627
Si Si5 0.427674 0.517908 0.706217
Si Si6 0.072254 0.977624 0.577109
Si Si7 0.926442 0.838461 0.247306
Si Si8 0.074187 0.412544 0.981191
O O1 0.750000 0.384788 0.071000
O O2 0.605896 0.250000 0.094118
O O3 0.521666 0.383252 0.140522
O O4 0.477298 0.355647 0.032437
O O5 0.250000 0.150467 0.508633
O O6 0.472969 0.250000 0.517477
O O7 0.495585 0.096439 0.459150
O O8 0.465321 0.075323 0.559416
O O9 0.250000 0.393126 0.185510
O O10 0.409156 0.521045 0.158839
O O11 0.486694 0.430890 0.246179
O O12 0.250000 0.646229 0.126757
O O13 0.000612 0.660469 0.186602
O O14 0.993972 0.616371 0.077716
O O15 0.250000 0.527008 0.713990
O O16 0.463073 0.536520 0.642167
O O17 0.468464 0.420735 0.718560
O O18 0.250000 0.970674 0.569388
O O19 0.750000 0.842698 0.239528
O O20 0.962803 0.750000 0.275907
O O21 0.250000 0.418382 0.977467
O O22 0.000000 0.500000 0.000000
#
# Coordination Sequence:
#
# PCOD9450203 Si02
#       8
#     8   8   8   8   8   8   8   8
#     4  11  24  40  58  80 106 135 170 218 272 323
#     4   9  18  33  54  81 115 153 190 231 280 330
#     4  10  20  35  56  78 102 135 173 214 261 317
#     4  10  20  34  53  76 101 134 172 212 261 320
#     4   9  18  33  54  78 106 141 181 225 269 320
#     4   9  18  33  54  82 114 149 190 234 279 329
#     4   9  18  32  50  74 104 138 176 220 271 326
#     4  12  23  36  57  81 105 136 174 217 266 326
#
# _framework density 18.589334999999998
#
# number of rings (size 3 to 8) (size 9 to 14) (size 15 to 20)
#    0.000    2.125    1.250    2.250    0.000    4.000 
#    0.000    3.125    0.000    0.750    0.000    7.000 
#    0.000    0.000    0.000    0.000    0.000    0.000 
#
# Total GULP energy -356349.973610 kJ/mol
# GULP energy per Si atom -5567.968338 kJ/mol
# Density = 1.854702 g / cm^3
# Si number density = 18.589335 Si / 1000 Ang^3
#
#
#
# Elastic Constant Matrix: (Units=GPa)
#
#
# Indices 1 2 3 4 5 6 
#
# 1 42.5291 7.4278 23.4413 0.0000 0.0000 0.0000
# 2 7.4278 71.0300 6.5184 0.0000 0.0000 0.0000
# 3 23.4413 6.5184 98.8617 0.0000 0.0000 0.0000
# 4 0.0000 0.0000 0.0000 10.2806 0.0000 0.0000
# 5 0.0000 0.0000 0.0000 0.0000 26.8844 0.0000
# 6 0.0000 0.0000 0.0000 0.0000 0.0000 16.8186
#
#
#
# Elastic Compliance Matrix: (Units=1/GPa)
#
#
# Indices 1 2 3 4 5 6 
#
# 1 0.027412 -0.002284 -0.006349 0.000000 0.000000 0.000000
# 2 -0.002284 0.014355 -0.000405 0.000000 0.000000 0.000000
# 3 -0.006349 -0.000405 0.011647 0.000000 0.000000 0.000000
# 4 0.000000 0.000000 0.000000 0.097271 0.000000 0.000000
# 5 0.000000 0.000000 0.000000 0.000000 0.037196 0.000000
# 6 0.000000 0.000000 0.000000 0.000000 0.000000 0.059458
#
#
# Mechanical properties :
#
#
# Convention : Reuss Voigt Hill
#
# Bulk Modulus (GPa) = 28.29828 31.91063 30.10446
# Shear Modulus (GPa) = 18.03794 22.46561 20.25178
#
# Velocity S-wave (km/s) = 3.11840 3.48015 3.30423
# Velocity P-wave (km/s) = 5.31242 5.77512 5.54859
#
# Compressibility (1/GPa) = 0.03533784
#
# Stress axis : x y z
#
# Youngs Moduli (GPa) = 36.48078 69.66434 85.85694
#
# Poissons Ratio (x) = 0.15910 0.54511
# Poissons Ratio (y) = 0.08332 0.03477
# Poissons Ratio (z) = 0.23162 0.02821
#
# Static dielectric constant tensor:
#      x y z
#    x 1.991540 0.000000 0.000000 
#    y 0.000000 1.720430 0.000000 
#    z 0.000000 0.000000 1.590160 
# 
# From -- ./inp_files/31515.got.cif
#   From: 2010.05.17/outbox.cif.g08.bks.cpg/sg59_16_cif.got.tgz:31515.got - 2010.06.03 14:40:33.
