data_PCOD9450240
_publ_section_title
;
Structure prediction by ZEFSAII (Michael W. Deem and Ramdas Pophale) SiO2 
 PCOD9450240
Probable space group: P M M N
;
_chemical_formula_sum "Si O2"
_cell_formula_units_Z 64
_cell_length_a 9.302617
_cell_length_b 18.497525
_cell_length_c 21.262589
_cell_angle_alpha 90.000000
_cell_angle_beta 90.000000
_cell_angle_gamma 90.000000
_cell_volume 3658.768306
_symmetry_space_group_name_H-M "P M M N"
_symmetry_group_IT_number 59
_space_group.IT_coordinate_system_code '2'
_symmetry_cell_setting 'orthorhombic'
loop_
_space_group_symop_operation_xyz
x,y,z
1/2-x,1/2-y,z
1/2+x,-y,-z
-x,1/2+y,-z
-x,-y,-z
1/2+x,1/2+y,-z
1/2-x,y,z
x,1/2-y,z
loop_
_atom_site_type_symbol
_atom_site_label
_atom_site_fract_x
_atom_site_fract_y
_atom_site_fract_z
Si Si1 0.584005 0.661843 0.942607
Si Si2 0.577542 0.581842 0.320380
Si Si3 0.922579 0.928820 0.684139
Si Si4 0.924967 0.666873 0.803694
Si Si5 0.581013 0.664665 0.559684
Si Si6 0.582093 0.163003 0.567353
Si Si7 0.921025 0.664993 0.191690
Si Si8 0.915112 0.161811 0.933884
O O1 0.750000 0.639424 0.950065
O O2 0.583516 0.750000 0.941987
O O3 0.529542 0.640801 0.873166
O O4 0.492200 0.637486 0.002135
O O5 0.750000 0.579765 0.327054
O O6 0.509119 0.502684 0.319736
O O7 0.507231 0.626086 0.377373
O O8 0.543142 0.621135 0.254334
O O9 0.750000 0.942240 0.687522
O O10 0.966072 0.883739 0.746056
O O11 0.948666 0.880992 0.622017
O O12 0.750000 0.668579 0.805464
O O13 0.972318 0.750000 0.794043
O O14 0.750000 0.655645 0.543542
O O15 0.558111 0.750000 0.572424
O O16 0.484608 0.643158 0.500308
O O17 0.750000 0.143057 0.571021
O O18 0.570765 0.250000 0.573057
O O19 0.750000 0.659712 0.180615
O O20 0.954628 0.750000 0.201754
O O21 0.003431 0.639425 0.129480
O O22 0.750000 0.139220 0.932430
O O23 0.919413 0.250000 0.934558
#
# Coordination Sequence:
#
# PCOD9450240 Si02
#       8
#     8   8   8   8   8   8   8   8
#     4   8  13  23  42  68  97 128 162 201 245 295
#     4  11  23  37  53  74 103 138 172 207 250 303
#     4  10  20  34  53  77 105 136 171 212 253 294
#     4   8  14  27  50  77 101 130 171 213 251 296
#     4   9  18  34  57  82 106 134 168 206 250 300
#     4  10  21  37  58  82 105 130 164 208 254 299
#     4   9  18  33  52  71  92 124 166 207 247 296
#     4   9  16  25  41  69 101 127 154 197 252 301
#
# _framework density 17.492225000000001
#
# number of rings (size 3 to 8) (size 9 to 14) (size 15 to 20)
#    0.000    2.750    0.000    2.625    0.000    6.250 
#    0.000    1.875    0.000    2.625    0.000    0.000 
#    0.000    0.000    0.000    0.000    0.000    0.000 
#
# Total GULP energy -356868.598936 kJ/mol
# GULP energy per Si atom -5576.071858 kJ/mol
# Density = 1.745241 g / cm^3
# Si number density = 17.492225 Si / 1000 Ang^3
#
#
#
# Elastic Constant Matrix: (Units=GPa)
#
#
# Indices 1 2 3 4 5 6 
#
# 1 71.8974 42.8933 91.8141 0.0000 0.0000 0.0000
# 2 42.8933 43.7390 64.1192 0.0000 0.0000 0.0000
# 3 91.8141 64.1192 189.8542 0.0000 0.0000 0.0000
# 4 0.0000 0.0000 0.0000 -6.4406 0.0000 0.0000
# 5 0.0000 0.0000 0.0000 0.0000 14.4328 0.0000
# 6 0.0000 0.0000 0.0000 0.0000 0.0000 19.6296
#
#
#
# Elastic Compliance Matrix: (Units=1/GPa)
#
#
# Indices 1 2 3 4 5 6 
#
# 1 0.047394 -0.025506 -0.014306 0.000000 0.000000 0.000000
# 2 -0.025506 0.059008 -0.007594 0.000000 0.000000 0.000000
# 3 -0.014306 -0.007594 0.014750 0.000000 0.000000 0.000000
# 4 0.000000 0.000000 0.000000 -0.155265 0.000000 0.000000
# 5 0.000000 0.000000 0.000000 0.000000 0.069286 0.000000
# 6 0.000000 0.000000 0.000000 0.000000 0.000000 0.050944
#
#
# Mechanical properties :
#
#
# Convention : Reuss Voigt Hill
#
# Bulk Modulus (GPa) = 37.96389 78.12710 58.04550
# Shear Modulus (GPa) = 26.35594 12.63529 19.49561
#
# Velocity S-wave (km/s) = 3.88586 2.69055 3.34208
# Velocity P-wave (km/s) = 6.47176 7.37651 6.93890
#
# Compressibility (1/GPa) = 0.02634082
#
# Stress axis : x y z
#
# Youngs Moduli (GPa) = 21.09954 16.94675 67.79560
#
# Poissons Ratio (x) = 0.43225 0.96987
# Poissons Ratio (y) = 0.53817 0.51483
# Poissons Ratio (z) = 0.30185 0.12869
#
# Static dielectric constant tensor:
#      x y z
#    x 1.582990 0.000000 0.000000 
#    y 0.000000 1.574960 0.000000 
#    z 0.000000 0.000000 1.586180 
# 
# From -- ./inp_files/29459.got.cif
#   From: 2010.05.17/outbox.cif.g08.bks.cpg/sg59_15_cif.got.tgz:29459.got - 2010.06.03 14:40:33.
