data_PCOD9450408
_publ_section_title
;
Structure prediction by ZEFSAII (Michael W. Deem and Ramdas Pophale) SiO2 
 PCOD9450408
Probable space group: P M M N
;
_chemical_formula_sum "Si O2"
_cell_formula_units_Z 64
_cell_length_a 7.915705
_cell_length_b 15.224358
_cell_length_c 24.690778
_cell_angle_alpha 90.000000
_cell_angle_beta 90.000000
_cell_angle_gamma 90.000000
_cell_volume 2975.523353
_symmetry_space_group_name_H-M "P M M N"
_symmetry_group_IT_number 59
_space_group.IT_coordinate_system_code '2'
_symmetry_cell_setting 'orthorhombic'
loop_
_space_group_symop_operation_xyz
x,y,z
1/2-x,1/2-y,z
1/2+x,-y,-z
-x,1/2+y,-z
-x,-y,-z
1/2+x,1/2+y,-z
1/2-x,y,z
x,1/2-y,z
loop_
_atom_site_type_symbol
_atom_site_label
_atom_site_fract_x
_atom_site_fract_y
_atom_site_fract_z
Si Si1 0.448649 0.155356 0.602021
Si Si2 0.546819 0.150199 0.777018
Si Si3 0.451692 0.653520 0.632317
Si Si4 0.943778 0.019906 0.686070
Si Si5 0.452590 0.900050 0.512809
Si Si6 0.954928 0.538690 0.119262
Si Si7 0.551203 0.346986 0.105975
Si Si8 0.046666 0.349523 0.981780
O O1 0.250000 0.145790 0.613221
O O2 0.508357 0.250000 0.623225
O O3 0.474835 0.152531 0.537849
O O4 0.541668 0.075721 0.630802
O O5 0.750000 0.155034 0.770149
O O6 0.481261 0.250000 0.773046
O O7 0.508884 0.105746 0.834353
O O8 0.477561 0.083437 0.731425
O O9 0.250000 0.658594 0.627088
O O10 0.516015 0.750000 0.647875
O O11 0.484315 0.575616 0.674162
O O12 0.515768 0.628327 0.572063
O O13 0.750000 0.006705 0.700636
O O14 0.250000 0.890827 0.512214
O O15 0.500000 0.000000 0.500000
O O16 0.750000 0.536112 0.118051
O O17 0.017754 0.438977 0.129082
O O18 0.011091 0.578487 0.061503
O O19 0.750000 0.343908 0.119478
O O20 0.478648 0.250000 0.119886
O O21 0.533142 0.357261 0.041008
O O22 0.250000 0.356659 0.988048
O O23 0.011223 0.250000 0.961603
#
# Coordination Sequence:
#
# PCOD9450408 Si02
#       8
#     8   8   8   8   8   8   8   8
#     4  11  23  37  56  84 116 150 189 230 276 335
#     4  10  23  42  61  83 110 139 177 227 283 340
#     4  10  22  40  61  85 116 152 189 230 276 330
#     4  11  23  40  62  84 110 145 185 234 287 337
#     4  11  21  35  57  85 118 154 189 227 275 330
#     4  10  20  34  54  80 110 146 186 229 277 329
#     4   9  18  32  50  76 111 149 188 227 268 318
#     4   9  17  29  47  75 110 145 184 229 276 328
#
# _framework density 21.508821000000001
#
# number of rings (size 3 to 8) (size 9 to 14) (size 15 to 20)
#    0.000    1.875    1.250    2.625    0.000    5.500 
#    0.000    1.875    0.000    2.250    0.000    0.000 
#    0.000    0.000    0.000    0.000    0.000    0.000 
#
# Total GULP energy -357360.206037 kJ/mol
# GULP energy per Si atom -5583.753219 kJ/mol
# Density = 2.145987 g / cm^3
# Si number density = 21.508821 Si / 1000 Ang^3
#
#
#
# Elastic Constant Matrix: (Units=GPa)
#
#
# Indices 1 2 3 4 5 6 
#
# 1 21.3179 6.2393 -8.2488 0.0000 0.0000 0.0000
# 2 6.2393 181.4351 31.8463 0.0000 0.0000 0.0000
# 3 -8.2488 31.8463 44.3858 0.0000 0.0000 0.0000
# 4 0.0000 0.0000 0.0000 27.4785 0.0000 0.0000
# 5 0.0000 0.0000 0.0000 0.0000 19.6142 0.0000
# 6 0.0000 0.0000 0.0000 0.0000 0.0000 11.1497
#
#
#
# Elastic Compliance Matrix: (Units=1/GPa)
#
#
# Indices 1 2 3 4 5 6 
#
# 1 0.053042 -0.004066 0.012775 0.000000 0.000000 0.000000
# 2 -0.004066 0.006617 -0.005504 0.000000 0.000000 0.000000
# 3 0.012775 -0.005504 0.028853 0.000000 0.000000 0.000000
# 4 0.000000 0.000000 0.000000 0.036392 0.000000 0.000000
# 5 0.000000 0.000000 0.000000 0.000000 0.050984 0.000000
# 6 0.000000 0.000000 0.000000 0.000000 0.000000 0.089689
#
#
# Mechanical properties :
#
#
# Convention : Reuss Voigt Hill
#
# Bulk Modulus (GPa) = 10.53492 34.09027 22.31259
# Shear Modulus (GPa) = 17.19350 26.13528 21.66439
#
# Velocity S-wave (km/s) = 2.83038 3.48960 3.17714
# Velocity P-wave (km/s) = 3.94842 5.66748 4.88417
#
# Compressibility (1/GPa) = 0.09492241
#
# Stress axis : x y z
#
# Youngs Moduli (GPa) = 18.85291 151.11507 34.65886
#
# Poissons Ratio (x) = 0.61449 -0.44277
# Poissons Ratio (y) = 0.07666 0.19075
# Poissons Ratio (z) = -0.24085 0.83169
#
# Static dielectric constant tensor:
#      x y z
#    x 1.764520 0.000000 0.000000 
#    y 0.000000 1.820240 0.000000 
#    z 0.000000 0.000000 1.764820 
# 
# From -- ./inp_files/31450.got.cif
#   From: 2010.05.17/outbox.cif.g08.bks.cpg/sg59_16_cif.got.tgz:31450.got - 2010.06.03 14:40:33.
