data_PCOD9450294
_publ_section_title
;
Structure prediction by ZEFSAII (Michael W. Deem and Ramdas Pophale) SiO2 
 PCOD9450294
Probable space group: P M M N
;
_chemical_formula_sum "Si O2"
_cell_formula_units_Z 56
_cell_length_a 8.894473
_cell_length_b 23.625414
_cell_length_c 15.688068
_cell_angle_alpha 90.000000
_cell_angle_beta 90.000000
_cell_angle_gamma 90.000000
_cell_volume 3296.621691
_symmetry_space_group_name_H-M "P M M N"
_symmetry_group_IT_number 59
_space_group.IT_coordinate_system_code '2'
_symmetry_cell_setting 'orthorhombic'
loop_
_space_group_symop_operation_xyz
x,y,z
1/2-x,1/2-y,z
1/2+x,-y,-z
-x,1/2+y,-z
-x,-y,-z
1/2+x,1/2+y,-z
1/2-x,y,z
x,1/2-y,z
loop_
_atom_site_type_symbol
_atom_site_label
_atom_site_fract_x
_atom_site_fract_y
_atom_site_fract_z
Si Si1 0.570710 0.682959 0.313468
Si Si2 0.428111 0.886862 0.159871
Si Si3 0.577477 0.318652 0.508317
Si Si4 0.430992 0.183804 0.330558
Si Si5 0.429047 0.114905 0.162515
Si Si6 0.426389 0.183108 0.989684
Si Si7 0.929267 0.499041 0.094896
O O1 0.750000 0.676999 0.306503
O O2 0.534904 0.750000 0.301563
O O3 0.489547 0.645980 0.242173
O O4 0.515341 0.665601 0.407618
O O5 0.250000 0.894611 0.165019
O O6 0.508759 0.946778 0.145353
O O7 0.471770 0.849017 0.078063
O O8 0.750000 0.337440 0.515191
O O9 0.576530 0.250000 0.506680
O O10 0.504400 0.336142 0.418880
O O11 0.250000 0.182022 0.338873
O O12 0.471860 0.250000 0.315960
O O13 0.473901 0.145732 0.249890
O O14 0.250000 0.102165 0.166748
O O15 0.450037 0.157673 0.083407
O O16 0.518275 0.058162 0.141152
O O17 0.250000 0.173342 0.967139
O O18 0.452989 0.250000 0.988556
O O19 0.750000 0.501701 0.087511
O O20 0.000000 0.500000 0.000000
#
# Coordination Sequence:
#
# PCOD9450294 Si02
#       7
#     8   8   8   8   8   8   8
#     4  10  20  35  56  82 112 146 182 222 272 329
#     4  12  24  37  55  79 108 143 182 227 273 323
#     4   9  17  30  50  78 112 147 182 223 268 317
#     4   9  17  31  53  82 114 148 183 218 264 323
#     4  10  20  35  56  80 109 144 184 227 268 319
#     4  10  20  34  53  78 110 146 179 217 269 324
#     4  12  24  40  59  78 103 140 187 233 275 323
#
# _framework density 16.987086999999999
#
# number of rings (size 3 to 8) (size 9 to 14) (size 15 to 20)
#    0.000    1.714    1.429    4.286    0.000    6.857 
#    0.000    0.000    0.000    3.429    0.000    0.000 
#    0.000    0.000    0.000    0.000    0.000    0.000 
#
# Total GULP energy -312748.825719 kJ/mol
# GULP energy per Si atom -5584.800459 kJ/mol
# Density = 1.694842 g / cm^3
# Si number density = 16.987087 Si / 1000 Ang^3
#
#
#
# Elastic Constant Matrix: (Units=GPa)
#
#
# Indices 1 2 3 4 5 6 
#
# 1 78.5739 32.7823 38.3343 0.0000 0.0000 0.0000
# 2 32.7823 60.5221 20.3446 0.0000 0.0000 0.0000
# 3 38.3343 20.3446 98.0630 0.0000 0.0000 0.0000
# 4 0.0000 0.0000 0.0000 -1.4528 0.0000 0.0000
# 5 0.0000 0.0000 0.0000 0.0000 23.2898 0.0000
# 6 0.0000 0.0000 0.0000 0.0000 0.0000 25.0154
#
#
#
# Elastic Compliance Matrix: (Units=1/GPa)
#
#
# Indices 1 2 3 4 5 6 
#
# 1 0.018997 -0.008378 -0.005688 0.000000 0.000000 0.000000
# 2 -0.008378 0.021456 -0.001176 0.000000 0.000000 0.000000
# 3 -0.005688 -0.001176 0.012665 0.000000 0.000000 0.000000
# 4 0.000000 0.000000 0.000000 -0.688332 0.000000 0.000000
# 5 0.000000 0.000000 0.000000 0.000000 0.042937 0.000000
# 6 0.000000 0.000000 0.000000 0.000000 0.000000 0.039975
#
#
# Mechanical properties :
#
#
# Convention : Reuss Voigt Hill
#
# Bulk Modulus (GPa) = 44.18174 46.67571 45.42872
# Shear Modulus (GPa) = -9.72250 19.08369 4.68060
#
# Velocity S-wave (km/s) = -2.39497 3.35539 1.66174
# Velocity P-wave (km/s) = 4.29158 6.52291 5.52114
#
# Compressibility (1/GPa) = 0.02263379
#
# Stress axis : x y z
#
# Youngs Moduli (GPa) = 52.63859 46.60629 78.95656
#
# Poissons Ratio (x) = 0.39047 0.44912
# Poissons Ratio (y) = 0.44101 0.09288
# Poissons Ratio (z) = 0.29942 0.05482
#
# Static dielectric constant tensor:
#      x y z
#    x 1.575300 0.000000 0.000000 
#    y 0.000000 1.660010 0.000000 
#    z 0.000000 0.000000 1.556900 
# 
# From -- ./inp_files/20900.got.cif
#   From: 2010.05.17/outbox.cif.g08.bks.cpg/sg59_11_cif.got.tgz:20900.got - 2010.06.03 14:40:33.
