data_PCOD9450528
_publ_section_title
;
Structure prediction by ZEFSAII (Michael W. Deem and Ramdas Pophale) SiO2 
 PCOD9450528
Probable space group: P M M N
;
_chemical_formula_sum "Si O2"
_cell_formula_units_Z 64
_cell_length_a 14.996564
_cell_length_b 8.487838
_cell_length_c 25.134705
_cell_angle_alpha 90.000000
_cell_angle_beta 90.000000
_cell_angle_gamma 90.000000
_cell_volume 3199.356529
_symmetry_space_group_name_H-M "P M M N"
_symmetry_group_IT_number 59
_space_group.IT_coordinate_system_code '2'
_symmetry_cell_setting 'orthorhombic'
loop_
_space_group_symop_operation_xyz
x,y,z
1/2-x,1/2-y,z
1/2+x,-y,-z
-x,1/2+y,-z
-x,-y,-z
1/2+x,1/2+y,-z
1/2-x,y,z
x,1/2-y,z
loop_
_atom_site_type_symbol
_atom_site_label
_atom_site_fract_x
_atom_site_fract_y
_atom_site_fract_z
Si Si1 0.033750 0.063811 0.133005
Si Si2 0.146494 0.557145 0.348797
Si Si3 0.149273 0.557766 0.913602
Si Si4 0.644590 0.436748 0.964138
Si Si5 0.847227 0.934189 0.369544
Si Si6 0.652318 0.433709 0.254269
Si Si7 0.515794 0.061401 0.559073
Si Si8 0.956564 0.436282 0.757707
O O1 0.028595 0.250000 0.140700
O O2 0.932309 0.004156 0.122848
O O3 0.087782 0.025362 0.079747
O O4 0.079443 0.993291 0.185451
O O5 0.250000 0.509984 0.346555
O O6 0.143934 0.750000 0.348632
O O7 0.092037 0.503427 0.296010
O O8 0.097245 0.505182 0.403255
O O9 0.250000 0.505997 0.900021
O O10 0.150567 0.750000 0.912512
O O11 0.128934 0.512551 0.974813
O O12 0.750000 0.457141 0.954224
O O13 0.624792 0.250000 0.960767
O O14 0.750000 0.944053 0.395760
O O15 0.859496 0.750000 0.352281
O O16 0.926950 0.975815 0.407768
O O17 0.846272 0.042251 0.317881
O O18 0.750000 0.493089 0.235142
O O19 0.646922 0.250000 0.239638
O O20 0.560262 0.515624 0.239873
O O21 0.524087 0.250000 0.555614
O O22 0.500000 0.000000 0.500000
O O23 0.949785 0.250000 0.755302
#
# Coordination Sequence:
#
# PCOD9450528 Si02
#       8
#     8   8   8   8   8   8   8   8
#     4  11  22  34  53  84 117 147 183 236 296 341
#     4   9  19  38  61  81 105 144 192 234 273 321
#     4   8  16  33  56  80 109 147 187 228 281 345
#     4   9  18  35  58  80 105 145 194 235 277 338
#     4   9  17  32  54  78 106 139 175 215 265 328
#     4  10  20  34  55  82 109 138 175 223 279 333
#     4  10  20  35  55  83 112 143 179 223 276 330
#     4  11  22  38  58  80 109 150 196 236 276 330
#
# _framework density 20.004024000000001
#
# number of rings (size 3 to 8) (size 9 to 14) (size 15 to 20)
#    0.000    2.375    1.250    2.250    0.000    3.000 
#    0.000    3.125    0.000    5.250    0.000    0.000 
#    0.000    0.000    0.000    0.000    0.000    0.000 
#
# Total GULP energy -356904.878436 kJ/mol
# GULP energy per Si atom -5576.638726 kJ/mol
# Density = 1.995849 g / cm^3
# Si number density = 20.004024 Si / 1000 Ang^3
#
#
#
# Elastic Constant Matrix: (Units=GPa)
#
#
# Indices 1 2 3 4 5 6 
#
# 1 92.5815 18.5080 66.5754 0.0000 0.0000 0.0000
# 2 18.5080 7.8290 14.7564 0.0000 0.0000 0.0000
# 3 66.5754 14.7564 133.8729 0.0000 0.0000 0.0000
# 4 0.0000 0.0000 0.0000 23.4048 0.0000 0.0000
# 5 0.0000 0.0000 0.0000 0.0000 -0.0470 0.0000
# 6 0.0000 0.0000 0.0000 0.0000 0.0000 19.0576
#
#
#
# Elastic Compliance Matrix: (Units=1/GPa)
#
#
# Indices 1 2 3 4 5 6 
#
# 1 0.025407 -0.045754 -0.007592 0.000000 0.000000 0.000000
# 2 -0.045754 0.243621 -0.004100 0.000000 0.000000 0.000000
# 3 -0.007592 -0.004100 0.011697 0.000000 0.000000 0.000000
# 4 0.000000 0.000000 0.000000 0.042726 0.000000 0.000000
# 5 0.000000 0.000000 0.000000 0.000000-21.293935 0.000000
# 6 0.000000 0.000000 0.000000 0.000000 0.000000 0.052472
#
#
# Mechanical properties :
#
#
# Convention : Reuss Voigt Hill
#
# Bulk Modulus (GPa) = 6.03013 48.21812 27.12413
# Shear Modulus (GPa) = -0.24099 17.44601 8.60251
#
# Velocity S-wave (km/s) = -0.34746 2.95638 2.07599
# Velocity P-wave (km/s) = 1.69116 5.98416 4.39717
#
# Compressibility (1/GPa) = 0.16583380
#
# Stress axis : x y z
#
# Youngs Moduli (GPa) = 39.35875 4.10473 85.49128
#
# Poissons Ratio (x) = 0.18781 0.64903
# Poissons Ratio (y) = 1.80083 0.35050
# Poissons Ratio (z) = 0.29880 0.01683
#
# Static dielectric constant tensor:
#      x y z
#    x 1.739200 0.000000 0.000000 
#    y 0.000000 1.689270 0.000000 
#    z 0.000000 0.000000 1.717740 
# 
# From -- ./inp_files/32128.got.cif
#   From: 2010.05.17/outbox.cif.g08.bks.cpg/sg59_17_cif.got.tgz:32128.got - 2010.06.03 14:40:33.
