data_PCOD9450434
_publ_section_title
;
Structure prediction by ZEFSAII (Michael W. Deem and Ramdas Pophale) SiO2 
 PCOD9450434
Probable space group: P M M N
;
_chemical_formula_sum "Si O2"
_cell_formula_units_Z 40
_cell_length_a 25.665736
_cell_length_b 8.796764
_cell_length_c 9.948424
_cell_angle_alpha 90.000000
_cell_angle_beta 90.000000
_cell_angle_gamma 90.000000
_cell_volume 2246.109632
_symmetry_space_group_name_H-M "P M M N"
_symmetry_group_IT_number 59
_space_group.IT_coordinate_system_code '2'
_symmetry_cell_setting 'orthorhombic'
loop_
_space_group_symop_operation_xyz
x,y,z
1/2-x,1/2-y,z
1/2+x,-y,-z
-x,1/2+y,-z
-x,-y,-z
1/2+x,1/2+y,-z
1/2-x,y,z
x,1/2-y,z
loop_
_atom_site_type_symbol
_atom_site_label
_atom_site_fract_x
_atom_site_fract_y
_atom_site_fract_z
Si Si1 0.661954 0.068113 0.900202
Si Si2 0.540510 0.931638 0.604078
Si Si3 0.339221 0.066875 0.394270
Si Si4 0.459076 0.931704 0.103339
Si Si5 0.750000 0.565160 0.400112
Si Si6 0.750000 0.567040 0.089372
O O1 0.668113 0.250000 0.901630
O O2 0.601313 0.030800 0.929439
O O3 0.673642 0.007147 0.749815
O O4 0.700022 0.993767 0.008389
O O5 0.535982 0.750000 0.607371
O O6 0.600814 0.969766 0.571325
O O7 0.500000 0.000000 0.500000
O O8 0.530091 0.999807 0.750486
O O9 0.335057 0.250000 0.378693
O O10 0.300230 0.018648 0.512340
O O11 0.463541 0.750000 0.107090
O O12 0.500000 0.000000 0.000000
O O13 0.750000 0.750000 0.396562
O O14 0.750000 0.515044 0.245233
O O15 0.750000 0.750000 0.086897
#
# Coordination Sequence:
#
# PCOD9450434 Si02
#       6
#     8   8   8   8   4   4
#     4  10  21  37  56  80 109 141 179 223 270 322
#     4  10  20  34  54  81 111 144 182 223 270 325
#     4   9  18  35  58  80 103 137 180 221 264 321
#     4  10  21  37  57  81 110 144 182 227 278 331
#     4   9  19  35  54  78 104 131 172 221 264 308
#     4  11  22  35  54  80 110 145 180 219 268 320
#
# _framework density 17.808568999999999
#
# number of rings (size 3 to 8) (size 9 to 14) (size 15 to 20)
#    0.000    2.200    0.000    2.700    0.000    5.600 
#    0.000    4.000    0.000    0.000    0.000    0.000 
#    0.000    0.000    0.000    0.000    0.000    0.000 
#
# Total GULP energy -223319.449674 kJ/mol
# GULP energy per Si atom -5582.986242 kJ/mol
# Density = 1.776804 g / cm^3
# Si number density = 17.808569 Si / 1000 Ang^3
#
#
#
# Elastic Constant Matrix: (Units=GPa)
#
#
# Indices 1 2 3 4 5 6 
#
# 1 146.3773 60.3764 143.4759 0.0000 0.0000 0.0000
# 2 60.3764 50.2863 62.0083 0.0000 0.0000 0.0000
# 3 143.4759 62.0083 184.0756 0.0000 0.0000 0.0000
# 4 0.0000 0.0000 0.0000 28.1657 0.0000 0.0000
# 5 0.0000 0.0000 0.0000 0.0000 38.0398 0.0000
# 6 0.0000 0.0000 0.0000 0.0000 0.0000 29.4540
#
#
#
# Elastic Compliance Matrix: (Units=1/GPa)
#
#
# Indices 1 2 3 4 5 6 
#
# 1 0.033771 -0.013836 -0.021661 0.000000 0.000000 0.000000
# 2 -0.013836 0.039685 -0.002584 0.000000 0.000000 0.000000
# 3 -0.021661 -0.002584 0.023187 0.000000 0.000000 0.000000
# 4 0.000000 0.000000 0.000000 0.035504 0.000000 0.000000
# 5 0.000000 0.000000 0.000000 0.000000 0.026288 0.000000
# 6 0.000000 0.000000 0.000000 0.000000 0.000000 0.033951
#
#
# Mechanical properties :
#
#
# Convention : Reuss Voigt Hill
#
# Bulk Modulus (GPa) = 48.82962 101.38448 75.10705
# Shear Modulus (GPa) = 18.15708 26.79049 22.47379
#
# Velocity S-wave (km/s) = 3.19653 3.88281 3.55627
# Velocity P-wave (km/s) = 6.41112 8.78382 7.68954
#
# Compressibility (1/GPa) = 0.02047937
#
# Stress axis : x y z
#
# Youngs Moduli (GPa) = 29.61157 25.19862 43.12822
#
# Poissons Ratio (x) = 0.34865 0.93421
# Poissons Ratio (y) = 0.40971 0.11144
# Poissons Ratio (z) = 0.64142 0.06511
#
# Static dielectric constant tensor:
#      x y z
#    x 1.610530 0.000000 0.000000 
#    y 0.000000 1.600960 0.000000 
#    z 0.000000 0.000000 1.565210 
# 
# From -- ./inp_files/12397.got.cif
#   From: 2010.05.17/outbox.cif.g08.bks.cpg/sg59_7_cif.got.tgz:12397.got - 2010.06.03 14:40:33.
