data_PCOD9450502
_publ_section_title
;
Structure prediction by ZEFSAII (Michael W. Deem and Ramdas Pophale) SiO2 
 PCOD9450502
Probable space group: P M M N
;
_chemical_formula_sum "Si O2"
_cell_formula_units_Z 64
_cell_length_a 18.874872
_cell_length_b 21.228055
_cell_length_c 7.566492
_cell_angle_alpha 90.000000
_cell_angle_beta 90.000000
_cell_angle_gamma 90.000000
_cell_volume 3031.717960
_symmetry_space_group_name_H-M "P M M N"
_symmetry_group_IT_number 59
_space_group.IT_coordinate_system_code '2'
_symmetry_cell_setting 'orthorhombic'
loop_
_space_group_symop_operation_xyz
x,y,z
1/2-x,1/2-y,z
1/2+x,-y,-z
-x,1/2+y,-z
-x,-y,-z
1/2+x,1/2+y,-z
1/2-x,y,z
x,1/2-y,z
loop_
_atom_site_type_symbol
_atom_site_label
_atom_site_fract_x
_atom_site_fract_y
_atom_site_fract_z
Si Si1 0.667768 0.037814 0.785333
Si Si2 0.527508 0.681806 0.299814
Si Si3 0.171011 0.979961 0.632324
Si Si4 0.170122 0.323153 0.905043
Si Si5 0.404023 0.087179 0.178820
Si Si6 0.171434 0.633842 0.909810
Si Si7 0.551555 0.557796 0.451414
Si Si8 0.477043 0.682318 0.903093
O O1 0.750000 0.016699 0.814417
O O2 0.659130 0.042205 0.572466
O O3 0.613814 0.985512 0.862550
O O4 0.659997 0.101117 0.898434
O O5 0.518174 0.750000 0.388570
O O6 0.610383 0.672994 0.246364
O O7 0.506473 0.617773 0.394015
O O8 0.488435 0.683998 0.113111
O O9 0.250000 0.008322 0.639885
O O10 0.170133 0.922138 0.766135
O O11 0.108518 0.028033 0.681882
O O12 0.250000 0.336636 0.846783
O O13 0.167296 0.250000 0.965419
O O14 0.147113 0.368652 0.064752
O O15 0.399265 0.084218 0.390250
O O16 0.480619 0.119716 0.153215
O O17 0.250000 0.662469 0.907201
O O18 0.105377 0.676940 0.865477
O O19 0.500000 0.500000 0.500000
O O20 0.505649 0.750000 0.835038
#
# Coordination Sequence:
#
# PCOD9450502 Si02
#       8
#     8   8   8   8   8   8   8   8
#     4   9  19  34  54  85 118 146 183 229 281 351
#     4   9  21  38  56  79 113 153 191 237 290 345
#     4   9  20  37  54  83 121 146 180 238 292 343
#     4   9  18  35  57  81 112 152 194 229 270 337
#     4  10  20  34  55  80 113 147 182 229 287 339
#     4  10  21  37  61  84 107 151 192 234 304 358
#     4  11  23  36  56  86 114 151 193 241 289 351
#     4  10  22  39  57  81 111 146 194 247 288 345
#
# _framework density 21.110142
#
# number of rings (size 3 to 8) (size 9 to 14) (size 15 to 20)
#    0.000    2.375    0.000    2.250    7.000    2.750 
#    0.000    0.000    0.000    1.500    0.000    3.500 
#    0.000    0.000    0.000    0.000    0.000    0.000 
#
# Total GULP energy -356571.256400 kJ/mol
# GULP energy per Si atom -5571.425881 kJ/mol
# Density = 2.106209 g / cm^3
# Si number density = 21.110142 Si / 1000 Ang^3
#
#
#
# Elastic Constant Matrix: (Units=GPa)
#
#
# Indices 1 2 3 4 5 6 
#
# 1 99.5610 15.9708 -19.7378 0.0000 0.0000 0.0000
# 2 15.9708 61.4158 7.9870 0.0000 0.0000 0.0000
# 3 -19.7378 7.9870 41.9984 0.0000 0.0000 0.0000
# 4 0.0000 0.0000 0.0000 -28.9411 0.0000 0.0000
# 5 0.0000 0.0000 0.0000 0.0000 6.8400 0.0000
# 6 0.0000 0.0000 0.0000 0.0000 0.0000 6.1340
#
#
#
# Elastic Compliance Matrix: (Units=1/GPa)
#
#
# Indices 1 2 3 4 5 6 
#
# 1 0.011935 -0.003930 0.006356 0.000000 0.000000 0.000000
# 2 -0.003930 0.017990 -0.005268 0.000000 0.000000 0.000000
# 3 0.006356 -0.005268 0.027800 0.000000 0.000000 0.000000
# 4 0.000000 0.000000 0.000000 -0.034553 0.000000 0.000000
# 5 0.000000 0.000000 0.000000 0.000000 0.146199 0.000000
# 6 0.000000 0.000000 0.000000 0.000000 0.000000 0.163026
#
#
# Mechanical properties :
#
#
# Convention : Reuss Voigt Hill
#
# Bulk Modulus (GPa) = 19.21608 23.49057 21.35333
# Shear Modulus (GPa) = 14.06762 10.05692 12.06227
#
# Velocity S-wave (km/s) = 2.58426 2.18503 2.39298
# Velocity P-wave (km/s) = 4.24583 4.18540 4.21572
#
# Compressibility (1/GPa) = 0.05203975
#
# Stress axis : x y z
#
# Youngs Moduli (GPa) = 83.78950 55.58777 35.97177
#
# Poissons Ratio (x) = 0.21847 -0.22865
# Poissons Ratio (y) = 0.32931 0.18951
# Poissons Ratio (z) = -0.53259 0.29285
#
# Static dielectric constant tensor:
#      x y z
#    x 1.796000 0.000000 0.000000 
#    y 0.000000 1.823220 0.000000 
#    z 0.000000 0.000000 1.781350 
# 
# From -- ./inp_files/10690.got.cif
#   From: 2010.05.17/outbox.cif.g08.bks.cpg/sg59_6_cif.got.tgz:10690.got - 2010.06.03 14:40:33.
