data_PCOD9450796
_publ_section_title
;
Structure prediction by ZEFSAII (Michael W. Deem and Ramdas Pophale) SiO2 
 PCOD9450796
Probable space group: P M M N
;
_chemical_formula_sum "Si O2"
_cell_formula_units_Z 56
_cell_length_a 8.806130
_cell_length_b 14.483746
_cell_length_c 23.443221
_cell_angle_alpha 90.000000
_cell_angle_beta 90.000000
_cell_angle_gamma 90.000000
_cell_volume 2990.083209
_symmetry_space_group_name_H-M "P M M N"
_symmetry_group_IT_number 59
_space_group.IT_coordinate_system_code '2'
_symmetry_cell_setting 'orthorhombic'
loop_
_space_group_symop_operation_xyz
x,y,z
1/2-x,1/2-y,z
1/2+x,-y,-z
-x,1/2+y,-z
-x,-y,-z
1/2+x,1/2+y,-z
1/2-x,y,z
x,1/2-y,z
loop_
_atom_site_type_symbol
_atom_site_label
_atom_site_fract_x
_atom_site_fract_y
_atom_site_fract_z
Si Si1 0.932519 0.354400 0.407006
Si Si2 0.066073 0.039878 0.645345
Si Si3 0.928533 0.859858 0.471591
Si Si4 0.067988 0.858238 0.245410
Si Si5 0.427874 0.859740 0.029710
Si Si6 0.431519 0.356682 0.095120
Si Si7 0.430960 0.463678 0.862654
O O1 0.750000 0.352050 0.406801
O O2 0.989235 0.250000 0.396370
O O3 0.978863 0.432701 0.362226
O O4 0.984124 0.383278 0.470467
O O5 0.250000 0.045896 0.650852
O O6 0.022966 0.088781 0.585712
O O7 0.990259 0.090810 0.698034
O O8 0.750000 0.879339 0.480469
O O9 0.946163 0.750000 0.462631
O O10 0.250000 0.864145 0.241595
O O11 0.025620 0.750000 0.247013
O O12 0.995333 0.907548 0.190804
O O13 0.250000 0.884950 0.026176
O O14 0.437482 0.750000 0.042014
O O15 0.507567 0.915324 0.079927
O O16 0.506677 0.874921 0.968785
O O17 0.250000 0.366878 0.095625
O O18 0.469010 0.250000 0.108952
O O19 0.507268 0.431791 0.135844
O O20 0.250000 0.463147 0.862167
#
# Coordination Sequence:
#
# PCOD9450796 Si02
#       7
#     8   8   8   8   8   8   8
#     4   9  18  32  51  78 111 144 180 222 267 318
#     4  10  20  35  55  78 107 145 184 224 274 328
#     4   9  17  29  48  76 108 141 179 224 274 328
#     4  11  25  43  61  82 108 139 180 230 279 331
#     4  10  20  35  57  86 120 154 189 232 280 331
#     4  10  21  38  60  86 117 151 188 231 277 327
#     4  12  24  38  59  84 113 150 189 230 278 333
#
# _framework density 18.728576
#
# number of rings (size 3 to 8) (size 9 to 14) (size 15 to 20)
#    0.000    1.857    0.000    4.286    0.000    6.286 
#    0.000    2.143    0.000    2.571    0.000    0.000 
#    0.000    0.000    0.000    0.000    0.000    0.000 
#
# Total GULP energy -312899.942729 kJ/mol
# GULP energy per Si atom -5587.498977 kJ/mol
# Density = 1.868595 g / cm^3
# Si number density = 18.728576 Si / 1000 Ang^3
#
#
#
# Elastic Constant Matrix: (Units=GPa)
#
#
# Indices 1 2 3 4 5 6 
#
# 1 69.1172 62.5520 41.7860 0.0000 0.0000 0.0000
# 2 62.5520 136.3576 90.2982 0.0000 0.0000 0.0000
# 3 41.7860 90.2982 76.4223 0.0000 0.0000 0.0000
# 4 0.0000 0.0000 0.0000 33.4123 0.0000 0.0000
# 5 0.0000 0.0000 0.0000 0.0000 32.4638 0.0000
# 6 0.0000 0.0000 0.0000 0.0000 0.0000 26.7675
#
#
#
# Elastic Compliance Matrix: (Units=1/GPa)
#
#
# Indices 1 2 3 4 5 6 
#
# 1 0.024744 -0.010993 -0.000540 0.000000 0.000000 0.000000
# 2 -0.010993 0.038595 -0.039592 0.000000 0.000000 0.000000
# 3 -0.000540 -0.039592 0.060161 0.000000 0.000000 0.000000
# 4 0.000000 0.000000 0.000000 0.029929 0.000000 0.000000
# 5 0.000000 0.000000 0.000000 0.000000 0.030803 0.000000
# 6 0.000000 0.000000 0.000000 0.000000 0.000000 0.037359
#
#
# Mechanical properties :
#
#
# Convention : Reuss Voigt Hill
#
# Bulk Modulus (GPa) = 47.06021 74.57438 60.81729
# Shear Modulus (GPa) = 15.10924 24.34612 19.72768
#
# Velocity S-wave (km/s) = 2.84341 3.60939 3.24905
# Velocity P-wave (km/s) = 5.99684 7.56804 6.82778
#
# Compressibility (1/GPa) = 0.02124937
#
# Stress axis : x y z
#
# Youngs Moduli (GPa) = 40.41451 25.91031 16.62211
#
# Poissons Ratio (x) = 0.28483 0.00898
# Poissons Ratio (y) = 0.44427 0.65810
# Poissons Ratio (z) = 0.02184 1.02583
#
# Static dielectric constant tensor:
#      x y z
#    x 1.627530 0.000000 0.000000 
#    y 0.000000 1.682310 0.000000 
#    z 0.000000 0.000000 1.602380 
# 
# From -- ./inp_files/29044.got.cif
#   From: 2010.05.17/outbox.cif.g08.bks.cpg/sg59_15_cif.got.tgz:29044.got - 2010.06.03 14:40:33.
