data_PCOD9450107
_publ_section_title
;
Structure prediction by ZEFSAII (Michael W. Deem and Ramdas Pophale) SiO2 
 PCOD9450107
Probable space group: P M M N
;
_chemical_formula_sum "Si O2"
_cell_formula_units_Z 40
_cell_length_a 12.398542
_cell_length_b 27.202851
_cell_length_c 5.466857
_cell_angle_alpha 90.000000
_cell_angle_beta 90.000000
_cell_angle_gamma 90.000000
_cell_volume 1843.837970
_symmetry_space_group_name_H-M "P M M N"
_symmetry_group_IT_number 59
_space_group.IT_coordinate_system_code '2'
_symmetry_cell_setting 'orthorhombic'
loop_
_space_group_symop_operation_xyz
x,y,z
1/2-x,1/2-y,z
1/2+x,-y,-z
-x,1/2+y,-z
-x,-y,-z
1/2+x,1/2+y,-z
1/2-x,y,z
x,1/2-y,z
loop_
_atom_site_type_symbol
_atom_site_label
_atom_site_fract_x
_atom_site_fract_y
_atom_site_fract_z
Si Si1 0.582305 0.857683 0.899357
Si Si2 0.439413 0.464590 0.188916
Si Si3 0.626830 0.346889 0.837467
Si Si4 0.922953 0.692829 0.393976
Si Si5 0.136771 0.945545 0.468769
O O1 0.451572 0.850180 0.928160
O O2 0.623139 0.829424 0.140716
O O3 0.609946 0.915282 0.921934
O O4 0.612618 0.835840 0.637233
O O5 0.365123 0.501506 0.339165
O O6 0.531007 0.444266 0.369914
O O7 0.500000 0.500000 0.000000
O O8 0.750000 0.330439 0.874380
O O9 0.552500 0.315134 0.652128
O O10 0.630249 0.401807 0.726218
O O11 0.898764 0.750000 0.418262
O O12 0.250000 0.939632 0.608594
#
# Coordination Sequence:
#
# PCOD9450107 Si02
#       5
#     8   8   8   8   8
#     4  10  20  34  51  75  99 141 182 226 269 323
#     4  11  19  34  55  76 111 149 182 230 276 333
#     4   9  19  33  48  72 105 142 181 220 263 321
#     4  10  20  35  50  71 103 141 185 232 272 318
#     4  10  21  35  53  80 111 149 188 223 276 336
#
# _framework density 21.693881999999999
#
# number of rings (size 3 to 8) (size 9 to 14) (size 15 to 20)
#    1.200    0.800    4.000    0.600    2.800    2.800 
#    0.000    0.000    0.000    0.000    0.000    0.000 
#    0.000    4.800    0.000    0.000    0.000    0.000 
#
# Total GULP energy -222925.923971 kJ/mol
# GULP energy per Si atom -5573.148099 kJ/mol
# Density = 2.164451 g / cm^3
# Si number density = 21.693882 Si / 1000 Ang^3
#
#
#
# Elastic Constant Matrix: (Units=GPa)
#
#
# Indices 1 2 3 4 5 6 
#
# 1 82.5750 -14.3837 0.3097 0.0000 0.0000 0.0000
# 2 -14.3837 139.4806 45.9639 0.0000 0.0000 0.0000
# 3 0.3097 45.9639 103.4077 0.0000 0.0000 0.0000
# 4 0.0000 0.0000 0.0000 33.7399 0.0000 0.0000
# 5 0.0000 0.0000 0.0000 0.0000 -7.2240 0.0000
# 6 0.0000 0.0000 0.0000 0.0000 0.0000 -4.5792
#
#
#
# Elastic Compliance Matrix: (Units=1/GPa)
#
#
# Indices 1 2 3 4 5 6 
#
# 1 0.012376 0.001510 -0.000708 0.000000 0.000000 0.000000
# 2 0.001510 0.008584 -0.003820 0.000000 0.000000 0.000000
# 3 -0.000708 -0.003820 0.011371 0.000000 0.000000 0.000000
# 4 0.000000 0.000000 0.000000 0.029638 0.000000 0.000000
# 5 0.000000 0.000000 0.000000 0.000000 -0.138427 0.000000
# 6 0.000000 0.000000 0.000000 0.000000 0.000000 -0.218378
#
#
# Mechanical properties :
#
#
# Convention : Reuss Voigt Hill
#
# Bulk Modulus (GPa) = 38.03249 43.24922 40.64086
# Shear Modulus (GPa) = -17.85494 23.95889 3.05197
#
# Velocity S-wave (km/s) = -2.87198 3.32687 1.18739
# Velocity P-wave (km/s) = 2.56355 5.89380 4.54470
#
# Compressibility (1/GPa) = 0.02629331
#
# Stress axis : x y z
#
# Youngs Moduli (GPa) = 80.80276 116.49630 87.94651
#
# Poissons Ratio (x) = -0.17586 0.06227
# Poissons Ratio (y) = -0.12198 0.33596
# Poissons Ratio (z) = 0.05721 0.44502
#
# Static dielectric constant tensor:
#      x y z
#    x 1.833360 0.000000 0.000000 
#    y 0.000000 1.814580 0.000000 
#    z 0.000000 0.000000 1.816310 
# 
# From -- ./inp_files/2074.got.cif
#   From: 2010.05.17/outbox.cif.g08.bks.cpg/sg59_2_cif.got.tgz:2074.got - 2010.06.03 14:40:33.
