data_PCOD9450532
_publ_section_title
;
Structure prediction by ZEFSAII (Michael W. Deem and Ramdas Pophale) SiO2 
 PCOD9450532
Probable space group: P M M N
;
_chemical_formula_sum "Si O2"
_cell_formula_units_Z 64
_cell_length_a 9.097039
_cell_length_b 15.960503
_cell_length_c 24.280915
_cell_angle_alpha 90.000000
_cell_angle_beta 90.000000
_cell_angle_gamma 90.000000
_cell_volume 3525.426619
_symmetry_space_group_name_H-M "P M M N"
_symmetry_group_IT_number 59
_space_group.IT_coordinate_system_code '2'
_symmetry_cell_setting 'orthorhombic'
loop_
_space_group_symop_operation_xyz
x,y,z
1/2-x,1/2-y,z
1/2+x,-y,-z
-x,1/2+y,-z
-x,-y,-z
1/2+x,1/2+y,-z
1/2-x,y,z
x,1/2-y,z
loop_
_atom_site_type_symbol
_atom_site_label
_atom_site_fract_x
_atom_site_fract_y
_atom_site_fract_z
Si Si1 0.425738 0.843287 0.163615
Si Si2 0.075268 0.658641 0.571338
Si Si3 0.926186 0.507570 0.361959
Si Si4 0.577583 0.097986 0.060747
Si Si5 0.077883 0.104166 0.947391
Si Si6 0.074001 0.082456 0.526216
Si Si7 0.927150 0.494084 0.755684
Si Si8 0.926953 0.654799 0.826718
O O1 0.250000 0.851351 0.155360
O O2 0.455086 0.750000 0.185951
O O3 0.504058 0.853781 0.105192
O O4 0.471928 0.917909 0.204192
O O5 0.250000 0.649034 0.561132
O O6 0.049330 0.750000 0.596490
O O7 0.031407 0.582107 0.610811
O O8 0.992342 0.652787 0.513043
O O9 0.750000 0.507261 0.354357
O O10 0.960993 0.576949 0.408889
O O11 0.004730 0.517867 0.304214
O O12 0.750000 0.118444 0.060585
O O13 0.500255 0.134648 0.114645
O O14 0.562739 0.996569 0.061083
O O15 0.501566 0.127139 0.004319
O O16 0.250000 0.123885 0.950819
O O17 0.250000 0.078773 0.520899
O O18 0.000000 0.000000 0.500000
O O19 0.750000 0.493377 0.751630
O O20 0.971435 0.582471 0.783613
O O21 0.750000 0.649311 0.832938
O O22 0.963431 0.750000 0.809658
#
# Coordination Sequence:
#
# PCOD9450532 Si02
#       8
#     8   8   8   8   8   8   8   8
#     4  10  21  38  59  80 103 136 179 226 276 327
#     4   9  18  33  53  80 113 144 176 220 270 319
#     4   9  19  34  53  76 105 142 181 218 263 318
#     4  10  20  34  55  82 110 141 176 216 266 328
#     4  10  20  34  56  83 109 138 173 218 273 330
#     4   9  17  31  51  76 105 138 174 214 258 310
#     4  10  21  37  56  78 107 142 182 230 273 315
#     4  10  21  37  56  78 107 143 180 221 271 323
#
# _framework density 18.153832000000001
#
# number of rings (size 3 to 8) (size 9 to 14) (size 15 to 20)
#    0.000    2.375    1.250    1.875    0.000    6.250 
#    0.000    0.625    0.000    2.250    0.000    0.000 
#    0.000    0.000    0.000    0.000    0.000    0.000 
#
# Total GULP energy -356930.874524 kJ/mol
# GULP energy per Si atom -5577.044914 kJ/mol
# Density = 1.811251 g / cm^3
# Si number density = 18.153832 Si / 1000 Ang^3
#
#
#
# Elastic Constant Matrix: (Units=GPa)
#
#
# Indices 1 2 3 4 5 6 
#
# 1 24.7700 22.5781 29.6971 0.0000 0.0000 0.0000
# 2 22.5781 60.5209 29.0310 0.0000 0.0000 0.0000
# 3 29.6971 29.0310 118.1642 0.0000 0.0000 0.0000
# 4 0.0000 0.0000 0.0000 7.1514 0.0000 0.0000
# 5 0.0000 0.0000 0.0000 0.0000 38.0709 0.0000
# 6 0.0000 0.0000 0.0000 0.0000 0.0000 15.4741
#
#
#
# Elastic Compliance Matrix: (Units=1/GPa)
#
#
# Indices 1 2 3 4 5 6 
#
# 1 0.077326 -0.022134 -0.013996 0.000000 0.000000 0.000000
# 2 -0.022134 0.025066 -0.000596 0.000000 0.000000 0.000000
# 3 -0.013996 -0.000596 0.012127 0.000000 0.000000 0.000000
# 4 0.000000 0.000000 0.000000 0.139832 0.000000 0.000000
# 5 0.000000 0.000000 0.000000 0.000000 0.026267 0.000000
# 6 0.000000 0.000000 0.000000 0.000000 0.000000 0.064624
#
#
# Mechanical properties :
#
#
# Convention : Reuss Voigt Hill
#
# Bulk Modulus (GPa) = 24.34957 40.67415 32.51186
# Shear Modulus (GPa) = 11.56383 20.28255 15.92319
#
# Velocity S-wave (km/s) = 2.52661 3.34617 2.96484
# Velocity P-wave (km/s) = 4.68548 6.11417 5.44687
#
# Compressibility (1/GPa) = 0.04106848
#
# Stress axis : x y z
#
# Youngs Moduli (GPa) = 12.93218 39.89417 82.46360
#
# Poissons Ratio (x) = 0.88302 1.15414
# Poissons Ratio (y) = 0.28624 0.04912
# Poissons Ratio (z) = 0.18100 0.02376
#
# Static dielectric constant tensor:
#      x y z
#    x 1.603460 0.000000 0.000000 
#    y 0.000000 1.678120 0.000000 
#    z 0.000000 0.000000 1.590220 
# 
# From -- ./inp_files/29624.got.cif
#   From: 2010.05.17/outbox.cif.g08.bks.cpg/sg59_15_cif.got.tgz:29624.got - 2010.06.03 14:40:33.
