data_PCOD9450217
_publ_section_title
;
Structure prediction by ZEFSAII (Michael W. Deem and Ramdas Pophale) SiO2 
 PCOD9450217
Probable space group: P M M N
;
_chemical_formula_sum "Si O2"
_cell_formula_units_Z 64
_cell_length_a 9.057502
_cell_length_b 14.639163
_cell_length_c 25.947114
_cell_angle_alpha 90.000000
_cell_angle_beta 90.000000
_cell_angle_gamma 90.000000
_cell_volume 3440.438073
_symmetry_space_group_name_H-M "P M M N"
_symmetry_group_IT_number 59
_space_group.IT_coordinate_system_code '2'
_symmetry_cell_setting 'orthorhombic'
loop_
_space_group_symop_operation_xyz
x,y,z
1/2-x,1/2-y,z
1/2+x,-y,-z
-x,1/2+y,-z
-x,-y,-z
1/2+x,1/2+y,-z
1/2-x,y,z
x,1/2-y,z
loop_
_atom_site_type_symbol
_atom_site_label
_atom_site_fract_x
_atom_site_fract_y
_atom_site_fract_z
Si Si1 0.072600 0.348130 0.354013
Si Si2 0.081868 0.401390 0.561975
Si Si3 0.572299 0.353948 0.080219
Si Si4 0.428227 0.946482 0.332974
Si Si5 0.572112 0.144244 0.775705
Si Si6 0.075933 0.358421 0.972184
Si Si7 0.081800 0.881407 0.539484
Si Si8 0.571965 0.965041 0.131457
O O1 0.250000 0.349190 0.353575
O O2 0.024257 0.250000 0.330660
O O3 0.025464 0.446032 0.330635
O O4 0.015441 0.349227 0.412615
O O5 0.250000 0.367767 0.564587
O O6 0.087197 0.508774 0.546605
O O7 0.002502 0.400251 0.617219
O O8 0.989917 0.358188 0.515314
O O9 0.750000 0.354173 0.077462
O O10 0.522784 0.250000 0.090928
O O11 0.528887 0.429536 0.122034
O O12 0.511174 0.381520 0.024131
O O13 0.250000 0.943742 0.339415
O O14 0.467217 0.895133 0.280457
O O15 0.750000 0.140586 0.779936
O O16 0.526300 0.250000 0.780828
O O17 0.501696 0.082973 0.820158
O O18 0.250000 0.375842 0.980727
O O19 0.056740 0.250000 0.963112
O O20 0.030092 0.412296 0.921217
O O21 0.250000 0.849806 0.543071
O O22 0.750000 0.959505 0.136302
#
# Coordination Sequence:
#
# PCOD9450217 Si02
#       8
#     8   8   8   8   8   8   8   8
#     4   9  17  30  49  72  98 128 162 201 245 296
#     4   9  16  27  46  71  97 127 165 204 242 290
#     4   9  18  32  50  75 108 143 176 209 248 298
#     4   9  18  34  53  71  95 128 164 205 255 304
#     4  10  22  39  57  77 100 127 165 215 265 310
#     4   9  17  29  47  74 106 138 174 215 256 298
#     4   9  16  26  43  69 100 132 163 197 240 289
#     4  10  20  34  53  76 104 139 175 212 256 303
#
# _framework density 18.602281999999999
#
# number of rings (size 3 to 8) (size 9 to 14) (size 15 to 20)
#    0.000    2.750    0.000    1.500    0.000    5.500 
#    0.000    2.500    0.000    3.000    0.000    0.000 
#    0.000    0.000    0.000    0.000    0.000    0.000 
#
# Total GULP energy -356840.773137 kJ/mol
# GULP energy per Si atom -5575.637080 kJ/mol
# Density = 1.855994 g / cm^3
# Si number density = 18.602282 Si / 1000 Ang^3
#
#
#
# Elastic Constant Matrix: (Units=GPa)
#
#
# Indices 1 2 3 4 5 6 
#
# 1 14.5154 21.3047 32.1777 0.0000 0.0000 0.0000
# 2 21.3047 86.0226 69.8830 0.0000 0.0000 0.0000
# 3 32.1777 69.8830 126.6400 0.0000 0.0000 0.0000
# 4 0.0000 0.0000 0.0000 -21.0286 0.0000 0.0000
# 5 0.0000 0.0000 0.0000 0.0000 31.0205 0.0000
# 6 0.0000 0.0000 0.0000 0.0000 0.0000 11.0744
#
#
#
# Elastic Compliance Matrix: (Units=1/GPa)
#
#
# Indices 1 2 3 4 5 6 
#
# 1 0.164633 -0.012309 -0.035039 0.000000 0.000000 0.000000
# 2 -0.012309 0.021991 -0.009008 0.000000 0.000000 0.000000
# 3 -0.035039 -0.009008 0.021770 0.000000 0.000000 0.000000
# 4 0.000000 0.000000 0.000000 -0.047554 0.000000 0.000000
# 5 0.000000 0.000000 0.000000 0.000000 0.032237 0.000000
# 6 0.000000 0.000000 0.000000 0.000000 0.000000 0.090298
#
#
# Mechanical properties :
#
#
# Convention : Reuss Voigt Hill
#
# Bulk Modulus (GPa) = 10.45115 52.65653 31.55384
# Shear Modulus (GPa) = 11.68281 11.13410 11.40846
#
# Velocity S-wave (km/s) = 2.50877 2.44915 2.47914
# Velocity P-wave (km/s) = 3.74464 6.03040 5.01937
#
# Compressibility (1/GPa) = 0.09568322
#
# Stress axis : x y z
#
# Youngs Moduli (GPa) = 6.07412 45.47340 45.93466
#
# Poissons Ratio (x) = 0.55971 1.60951
# Poissons Ratio (y) = 0.07476 0.41376
# Poissons Ratio (z) = 0.21283 0.40961
#
# Static dielectric constant tensor:
#      x y z
#    x 1.627910 0.000000 0.000000 
#    y 0.000000 1.721190 0.000000 
#    z 0.000000 0.000000 1.591060 
# 
# From -- ./inp_files/31537.got.cif
#   From: 2010.05.17/outbox.cif.g08.bks.cpg/sg59_16_cif.got.tgz:31537.got - 2010.06.03 14:40:33.
