data_PCOD9450911
_publ_section_title
;
Structure prediction by ZEFSAII (Michael W. Deem and Ramdas Pophale) SiO2 
 PCOD9450911
Probable space group: P M M N
;
_chemical_formula_sum "Si O2"
_cell_formula_units_Z 64
_cell_length_a 9.043369
_cell_length_b 19.524629
_cell_length_c 20.488426
_cell_angle_alpha 90.000000
_cell_angle_beta 90.000000
_cell_angle_gamma 90.000000
_cell_volume 3617.609102
_symmetry_space_group_name_H-M "P M M N"
_symmetry_group_IT_number 59
_space_group.IT_coordinate_system_code '2'
_symmetry_cell_setting 'orthorhombic'
loop_
_space_group_symop_operation_xyz
x,y,z
1/2-x,1/2-y,z
1/2+x,-y,-z
-x,1/2+y,-z
-x,-y,-z
1/2+x,1/2+y,-z
1/2-x,y,z
x,1/2-y,z
loop_
_atom_site_type_symbol
_atom_site_label
_atom_site_fract_x
_atom_site_fract_y
_atom_site_fract_z
Si Si1 0.919539 0.666912 0.032648
Si Si2 0.926058 0.044553 0.594906
Si Si3 0.076144 0.170861 0.345430
Si Si4 0.074515 0.596160 0.545941
Si Si5 0.428745 0.330411 0.114204
Si Si6 0.075687 0.831848 0.165285
Si Si7 0.573600 0.930348 0.268234
Si Si8 0.426375 0.585839 0.769430
O O1 0.750000 0.643950 0.042816
O O2 0.916950 0.750000 0.031633
O O3 0.019319 0.646197 0.093470
O O4 0.969001 0.647684 0.959720
O O5 0.750000 0.033414 0.601907
O O6 0.949396 0.092766 0.531740
O O7 0.994900 0.072104 0.661498
O O8 0.005351 0.973269 0.576157
O O9 0.250000 0.154428 0.346275
O O10 0.059087 0.250000 0.326512
O O11 0.005590 0.156741 0.415936
O O12 0.993580 0.123452 0.293578
O O13 0.250000 0.597098 0.558216
O O14 0.250000 0.333733 0.119091
O O15 0.469458 0.250000 0.123730
O O16 0.502377 0.378343 0.167721
O O17 0.250000 0.844565 0.171689
O O18 0.050592 0.750000 0.171030
O O19 0.987438 0.872653 0.220142
O O20 0.750000 0.924720 0.276323
O O21 0.541251 0.005194 0.237365
O O22 0.250000 0.594629 0.770365
#
# Coordination Sequence:
#
# PCOD9450911 Si02
#       8
#     8   8   8   8   8   8   8   8
#     4   8  15  31  55  80 107 141 181 224 272 330
#     4  10  20  35  58  83 109 142 180 225 274 325
#     4  11  23  37  55  80 112 152 193 232 278 331
#     4  10  20  35  56  83 109 139 182 227 274 326
#     4   9  18  33  54  80 110 147 189 229 273 328
#     4  10  21  37  59  86 111 137 176 227 283 341
#     4  11  23  38  57  82 112 147 187 228 274 332
#     4  11  23  36  52  79 112 147 189 233 276 326
#
# _framework density 17.691244000000001
#
# number of rings (size 3 to 8) (size 9 to 14) (size 15 to 20)
#    0.000    2.000    1.250    3.375    0.000    7.000 
#    0.000    2.500    0.000    0.750    0.000    0.000 
#    0.000    0.000    0.000    0.000    0.000    0.000 
#
# Total GULP energy -357237.704443 kJ/mol
# GULP energy per Si atom -5581.839132 kJ/mol
# Density = 1.765098 g / cm^3
# Si number density = 17.691244 Si / 1000 Ang^3
#
#
#
# Elastic Constant Matrix: (Units=GPa)
#
#
# Indices 1 2 3 4 5 6 
#
# 1 66.8731 35.6599 56.1479 0.0000 0.0000 0.0000
# 2 35.6599 39.0546 35.9158 0.0000 0.0000 0.0000
# 3 56.1479 35.9158 128.7408 0.0000 0.0000 0.0000
# 4 0.0000 0.0000 0.0000 27.2146 0.0000 0.0000
# 5 0.0000 0.0000 0.0000 0.0000 36.8165 0.0000
# 6 0.0000 0.0000 0.0000 0.0000 0.0000 26.0569
#
#
#
# Elastic Compliance Matrix: (Units=1/GPa)
#
#
# Indices 1 2 3 4 5 6 
#
# 1 0.034948 -0.024068 -0.008527 0.000000 0.000000 0.000000
# 2 -0.024068 0.051016 -0.003736 0.000000 0.000000 0.000000
# 3 -0.008527 -0.003736 0.012529 0.000000 0.000000 0.000000
# 4 0.000000 0.000000 0.000000 0.036745 0.000000 0.000000
# 5 0.000000 0.000000 0.000000 0.000000 0.027162 0.000000
# 6 0.000000 0.000000 0.000000 0.000000 0.000000 0.038378
#
#
# Mechanical properties :
#
#
# Convention : Reuss Voigt Hill
#
# Bulk Modulus (GPa) = 38.71319 54.45732 46.58525
# Shear Modulus (GPa) = 17.72741 25.14726 21.43734
#
# Velocity S-wave (km/s) = 3.16894 3.77431 3.48479
# Velocity P-wave (km/s) = 5.94305 7.05994 6.52543
#
# Compressibility (1/GPa) = 0.02583099
#
# Stress axis : x y z
#
# Youngs Moduli (GPa) = 28.61433 19.60150 79.81640
#
# Poissons Ratio (x) = 0.47177 0.68062
# Poissons Ratio (y) = 0.68869 0.29817
# Poissons Ratio (z) = 0.24400 0.07323
#
# Static dielectric constant tensor:
#      x y z
#    x 1.587150 0.000000 0.000000 
#    y 0.000000 1.587420 0.000000 
#    z 0.000000 0.000000 1.605580 
# 
# From -- ./inp_files/29714.got.cif
#   From: 2010.05.17/outbox.cif.g08.bks.cpg/sg59_15_cif.got.tgz:29714.got - 2010.06.03 14:40:33.
