data_PCOD9450607
_publ_section_title
;
Structure prediction by ZEFSAII (Michael W. Deem and Ramdas Pophale) SiO2 
 PCOD9450607
Probable space group: P M M N
;
_chemical_formula_sum "Si O2"
_cell_formula_units_Z 64
_cell_length_a 7.787042
_cell_length_b 29.567396
_cell_length_c 12.854747
_cell_angle_alpha 90.000000
_cell_angle_beta 90.000000
_cell_angle_gamma 90.000000
_cell_volume 2959.709787
_symmetry_space_group_name_H-M "P M M N"
_symmetry_group_IT_number 59
_space_group.IT_coordinate_system_code '2'
_symmetry_cell_setting 'orthorhombic'
loop_
_space_group_symop_operation_xyz
x,y,z
1/2-x,1/2-y,z
1/2+x,-y,-z
-x,1/2+y,-z
-x,-y,-z
1/2+x,1/2+y,-z
1/2-x,y,z
x,1/2-y,z
loop_
_atom_site_type_symbol
_atom_site_label
_atom_site_fract_x
_atom_site_fract_y
_atom_site_fract_z
Si Si1 0.543070 0.474880 0.107342
Si Si2 0.542297 0.994839 0.330744
Si Si3 0.048309 0.872412 0.861142
Si Si4 0.442315 0.669495 0.486857
Si Si5 0.458199 0.197151 0.960778
Si Si6 0.452669 0.072248 0.491331
Si Si7 0.038732 0.700671 0.700716
Si Si8 0.046293 0.199402 0.730259
O O1 0.750000 0.473443 0.111280
O O2 0.484309 0.501416 0.211536
O O3 0.478710 0.422750 0.116513
O O4 0.500000 0.500000 0.000000
O O5 0.750000 0.994811 0.331809
O O6 0.482192 0.038286 0.396079
O O7 0.488730 0.952539 0.402207
O O8 0.250000 0.878870 0.838296
O O9 0.975419 0.842171 0.766640
O O10 0.030132 0.838893 0.958817
O O11 0.250000 0.686638 0.474571
O O12 0.446933 0.618119 0.524656
O O13 0.522915 0.697044 0.581748
O O14 0.518960 0.670695 0.372340
O O15 0.250000 0.195093 0.967240
O O16 0.506322 0.250000 0.979355
O O17 0.517426 0.184785 0.843513
O O18 0.250000 0.082219 0.499638
O O19 0.250000 0.698943 0.700062
O O20 0.991062 0.750000 0.744781
O O21 0.250000 0.202747 0.743875
O O22 0.979193 0.250000 0.709140
#
# Coordination Sequence:
#
# PCOD9450607 Si02
#       8
#     8   8   8   8   8   8   8   8
#     4  10  22  39  57  79 109 144 182 226 280 336
#     4   9  19  38  59  77 102 137 177 221 269 321
#     4  10  20  35  57  82 106 136 179 228 272 319
#     4  11  21  33  52  79 112 145 178 216 260 318
#     4   9  19  36  56  78 107 143 180 220 271 329
#     4  10  20  34  56  83 107 136 176 220 267 319
#     4   9  18  33  54  80 110 144 179 218 267 319
#     4   9  19  36  54  72 101 140 177 217 264 309
#
# _framework density 21.623743000000001
#
# number of rings (size 3 to 8) (size 9 to 14) (size 15 to 20)
#    0.000    2.375    0.000    3.000    0.000    6.500 
#    0.000    7.500    0.000    3.000    0.000    0.000 
#    0.000    0.000    0.000    0.000    0.000    0.000 
#
# Total GULP energy -357065.040839 kJ/mol
# GULP energy per Si atom -5579.141263 kJ/mol
# Density = 2.157453 g / cm^3
# Si number density = 21.623743 Si / 1000 Ang^3
#
#
#
# Elastic Constant Matrix: (Units=GPa)
#
#
# Indices 1 2 3 4 5 6 
#
# 1 22.6175 -0.3964 1.1067 0.0000 0.0000 0.0000
# 2 -0.3964 83.1998 42.1598 0.0000 0.0000 0.0000
# 3 1.1067 42.1598 143.5759 0.0000 0.0000 0.0000
# 4 0.0000 0.0000 0.0000 7.1253 0.0000 0.0000
# 5 0.0000 0.0000 0.0000 0.0000 23.2168 0.0000
# 6 0.0000 0.0000 0.0000 0.0000 0.0000 -11.4460
#
#
#
# Elastic Compliance Matrix: (Units=1/GPa)
#
#
# Indices 1 2 3 4 5 6 
#
# 1 0.044245 0.000451 -0.000473 0.000000 0.000000 0.000000
# 2 0.000451 0.014125 -0.004151 0.000000 0.000000 0.000000
# 3 -0.000473 -0.004151 0.008188 0.000000 0.000000 0.000000
# 4 0.000000 0.000000 0.000000 0.140345 0.000000 0.000000
# 5 0.000000 0.000000 0.000000 0.000000 0.043072 0.000000
# 6 0.000000 0.000000 0.000000 0.000000 0.000000 -0.087367
#
#
# Mechanical properties :
#
#
# Convention : Reuss Voigt Hill
#
# Bulk Modulus (GPa) = 17.17935 37.23704 27.20819
# Shear Modulus (GPa) = 26.26627 17.54743 21.90685
#
# Velocity S-wave (km/s) = 3.48903 2.85175 3.18636
# Velocity P-wave (km/s) = 4.91864 5.30105 5.11342
#
# Compressibility (1/GPa) = 0.05820943
#
# Stress axis : x y z
#
# Youngs Moduli (GPa) = 22.60160 70.79692 122.13673
#
# Poissons Ratio (x) = -0.03191 0.05782
# Poissons Ratio (y) = -0.01019 0.50700
# Poissons Ratio (z) = 0.01070 0.29389
#
# Static dielectric constant tensor:
#      x y z
#    x 1.808320 0.000000 0.000000 
#    y 0.000000 1.782850 0.000000 
#    z 0.000000 0.000000 1.815240 
# 
# From -- ./inp_files/14945.got.cif
#   From: 2010.05.17/outbox.cif.g08.bks.cpg/sg59_8_cif.got.tgz:14945.got - 2010.06.03 14:40:33.
