data_PCOD9450145
_publ_section_title
;
Structure prediction by ZEFSAII (Michael W. Deem and Ramdas Pophale) SiO2 
 PCOD9450145
Probable space group: P M M N
;
_chemical_formula_sum "Si O2"
_cell_formula_units_Z 64
_cell_length_a 8.723953
_cell_length_b 23.442494
_cell_length_c 16.615570
_cell_angle_alpha 90.000000
_cell_angle_beta 90.000000
_cell_angle_gamma 90.000000
_cell_volume 3398.070423
_symmetry_space_group_name_H-M "P M M N"
_symmetry_group_IT_number 59
_space_group.IT_coordinate_system_code '2'
_symmetry_cell_setting 'orthorhombic'
loop_
_space_group_symop_operation_xyz
x,y,z
1/2-x,1/2-y,z
1/2+x,-y,-z
-x,1/2+y,-z
-x,-y,-z
1/2+x,1/2+y,-z
1/2-x,y,z
x,1/2-y,z
loop_
_atom_site_type_symbol
_atom_site_label
_atom_site_fract_x
_atom_site_fract_y
_atom_site_fract_z
Si Si1 0.565442 0.534187 0.611631
Si Si2 0.437017 0.816541 0.330294
Si Si3 0.930008 0.317385 0.145407
Si Si4 0.932770 0.581262 0.783450
Si Si5 0.565109 0.411172 0.543882
Si Si6 0.924418 0.818152 0.027265
Si Si7 0.068198 0.497228 0.910019
Si Si8 0.930926 0.115450 0.830788
O O1 0.750000 0.536398 0.607137
O O2 0.518526 0.551413 0.700917
O O3 0.519386 0.469067 0.591706
O O4 0.499301 0.577112 0.544858
O O5 0.250000 0.815252 0.329294
O O6 0.487655 0.750000 0.329883
O O7 0.484082 0.854646 0.407546
O O8 0.483647 0.852391 0.250599
O O9 0.750000 0.330970 0.140631
O O10 0.945785 0.250000 0.158312
O O11 0.012089 0.353840 0.213580
O O12 0.011416 0.331405 0.060785
O O13 0.750000 0.577118 0.790811
O O14 0.010819 0.550766 0.858820
O O15 0.750000 0.410038 0.540205
O O16 0.750000 0.840152 0.036707
O O17 0.920424 0.750000 0.034549
O O18 0.034218 0.842643 0.095223
O O19 0.250000 0.496551 0.916548
O O20 0.011842 0.442688 0.858340
O O21 0.000000 0.500000 0.000000
O O22 0.750000 0.103842 0.822009
#
# Coordination Sequence:
#
# PCOD9450145 Si02
#       8
#     8   8   8   8   8   8   8   8
#     4   9  19  35  56  82 110 141 176 220 275 330
#     4   9  18  33  55  83 114 149 187 229 281 340
#     4  10  21  37  56  78 105 138 178 222 267 316
#     4  11  22  38  59  82 110 142 179 222 271 327
#     4   9  17  33  57  82 108 138 178 223 267 324
#     4  10  20  34  52  75 105 142 185 229 272 319
#     4  12  25  40  57  80 113 150 189 233 284 336
#     4  11  21  35  55  79 110 147 189 232 277 333
#
# _framework density 18.834218
#
# number of rings (size 3 to 8) (size 9 to 14) (size 15 to 20)
#    0.000    1.875    0.000    4.500    0.000    5.000 
#    0.000    4.375    0.000    4.125    0.000    0.000 
#    0.000    0.000    0.000    0.000    0.000    0.000 
#
# Total GULP energy -357310.007072 kJ/mol
# GULP energy per Si atom -5582.968861 kJ/mol
# Density = 1.879135 g / cm^3
# Si number density = 18.834218 Si / 1000 Ang^3
#
#
#
# Elastic Constant Matrix: (Units=GPa)
#
#
# Indices 1 2 3 4 5 6 
#
# 1 53.2402 26.4351 30.6793 0.0000 0.0000 0.0000
# 2 26.4351 95.6813 55.4257 0.0000 0.0000 0.0000
# 3 30.6793 55.4257 89.1539 0.0000 0.0000 0.0000
# 4 0.0000 0.0000 0.0000 27.2714 0.0000 0.0000
# 5 0.0000 0.0000 0.0000 0.0000 26.7939 0.0000
# 6 0.0000 0.0000 0.0000 0.0000 0.0000 29.4172
#
#
#
# Elastic Compliance Matrix: (Units=1/GPa)
#
#
# Indices 1 2 3 4 5 6 
#
# 1 0.023925 -0.002877 -0.006444 0.000000 0.000000 0.000000
# 2 -0.002877 0.016679 -0.009379 0.000000 0.000000 0.000000
# 3 -0.006444 -0.009379 0.019265 0.000000 0.000000 0.000000
# 4 0.000000 0.000000 0.000000 0.036668 0.000000 0.000000
# 5 0.000000 0.000000 0.000000 0.000000 0.037322 0.000000
# 6 0.000000 0.000000 0.000000 0.000000 0.000000 0.033994
#
#
# Mechanical properties :
#
#
# Convention : Reuss Voigt Hill
#
# Bulk Modulus (GPa) = 44.50761 51.46174 47.98467
# Shear Modulus (GPa) = 23.50242 25.06553 24.28397
#
# Velocity S-wave (km/s) = 3.53633 3.65204 3.59465
# Velocity P-wave (km/s) = 6.35270 6.72057 6.53922
#
# Compressibility (1/GPa) = 0.02246807
#
# Stress axis : x y z
#
# Youngs Moduli (GPa) = 41.79763 59.95411 51.90720
#
# Poissons Ratio (x) = 0.17249 0.33451
# Poissons Ratio (y) = 0.12025 0.48685
# Poissons Ratio (z) = 0.26936 0.56233
#
# Static dielectric constant tensor:
#      x y z
#    x 1.641700 0.000000 0.000000 
#    y 0.000000 1.742110 0.000000 
#    z 0.000000 0.000000 1.630170 
# 
# From -- ./inp_files/21575.got.cif
#   From: 2010.05.17/outbox.cif.g08.bks.cpg/sg59_11_cif.got.tgz:21575.got - 2010.06.03 14:40:33.
