data_PCOD9450953
_publ_section_title
;
Structure prediction by ZEFSAII (Michael W. Deem and Ramdas Pophale) SiO2 
 PCOD9450953
Probable space group: P M M N
;
_chemical_formula_sum "Si O2"
_cell_formula_units_Z 64
_cell_length_a 15.477123
_cell_length_b 21.696386
_cell_length_c 9.645423
_cell_angle_alpha 90.000000
_cell_angle_beta 90.000000
_cell_angle_gamma 90.000000
_cell_volume 3238.910230
_symmetry_space_group_name_H-M "P M M N"
_symmetry_group_IT_number 59
_space_group.IT_coordinate_system_code '2'
_symmetry_cell_setting 'orthorhombic'
loop_
_space_group_symop_operation_xyz
x,y,z
1/2-x,1/2-y,z
1/2+x,-y,-z
-x,1/2+y,-z
-x,-y,-z
1/2+x,1/2+y,-z
1/2-x,y,z
x,1/2-y,z
loop_
_atom_site_type_symbol
_atom_site_label
_atom_site_fract_x
_atom_site_fract_y
_atom_site_fract_z
Si Si1 0.153419 0.401470 0.546450
Si Si2 0.654308 0.923824 0.979785
Si Si3 0.844714 0.175259 0.590675
Si Si4 0.924304 0.321487 0.874675
Si Si5 0.522603 0.389438 0.146590
Si Si6 0.625284 0.819981 0.187056
Si Si7 0.989388 0.678420 0.594072
Si Si8 0.350571 0.989966 0.746979
O O1 0.250000 0.406972 0.487387
O O2 0.156886 0.356158 0.679284
O O3 0.085680 0.369074 0.446704
O O4 0.127399 0.466458 0.616092
O O5 0.750000 0.935001 0.917889
O O6 0.567800 0.923803 0.888357
O O7 0.653352 0.856323 0.050487
O O8 0.643400 0.969456 0.111379
O O9 0.750000 0.153260 0.545116
O O10 0.843110 0.250000 0.592770
O O11 0.863694 0.156574 0.749439
O O12 0.924584 0.160121 0.491405
O O13 0.903078 0.250000 0.911439
O O14 0.021056 0.321004 0.811769
O O15 0.931067 0.365883 0.006577
O O16 0.504646 0.330599 0.243057
O O17 0.584999 0.434198 0.231228
O O18 0.653109 0.750000 0.187179
O O19 0.968525 0.750000 0.560614
O O20 0.250000 0.971858 0.733128
#
# Coordination Sequence:
#
# PCOD9450953 Si02
#       8
#     8   8   8   8   8   8   8   8
#     4  10  20  35  57  81 111 152 197 241 284 337
#     4   9  19  35  53  79 116 153 187 231 286 344
#     4   9  18  35  57  78 109 152 193 236 283 337
#     4   9  17  32  54  82 112 144 187 237 288 349
#     4  11  22  35  59  85 118 155 187 234 299 352
#     4   9  15  27  51  81 107 138 186 237 281 334
#     4  11  23  38  56  87 125 156 189 234 294 359
#     4   9  20  39  61  83 107 145 203 254 289 334
#
# _framework density 19.759732
#
# number of rings (size 3 to 8) (size 9 to 14) (size 15 to 20)
#    0.000    2.375    1.250    2.250    0.000    4.250 
#    0.000    0.000    0.000    3.750    0.000    0.000 
#    0.000    0.000    0.000    0.000    0.000    0.000 
#
# Total GULP energy -356911.029678 kJ/mol
# GULP energy per Si atom -5576.734839 kJ/mol
# Density = 1.971476 g / cm^3
# Si number density = 19.759732 Si / 1000 Ang^3
#
#
#
# Elastic Constant Matrix: (Units=GPa)
#
#
# Indices 1 2 3 4 5 6 
#
# 1 63.8112 7.9991 13.0227 0.0000 0.0000 0.0000
# 2 7.9991 35.7167 -3.9482 0.0000 0.0000 0.0000
# 3 13.0227 -3.9482 48.5955 0.0000 0.0000 0.0000
# 4 0.0000 0.0000 0.0000 19.0223 0.0000 0.0000
# 5 0.0000 0.0000 0.0000 0.0000 -12.5487 0.0000
# 6 0.0000 0.0000 0.0000 0.0000 0.0000 9.7530
#
#
#
# Elastic Compliance Matrix: (Units=1/GPa)
#
#
# Indices 1 2 3 4 5 6 
#
# 1 0.017240 -0.004411 -0.004978 0.000000 0.000000 0.000000
# 2 -0.004411 0.029381 0.003569 0.000000 0.000000 0.000000
# 3 -0.004978 0.003569 0.022202 0.000000 0.000000 0.000000
# 4 0.000000 0.000000 0.000000 0.052570 0.000000 0.000000
# 5 0.000000 0.000000 0.000000 0.000000 -0.079689 0.000000
# 6 0.000000 0.000000 0.000000 0.000000 0.000000 0.102533
#
#
# Mechanical properties :
#
#
# Convention : Reuss Voigt Hill
#
# Bulk Modulus (GPa) = 17.48810 20.25227 18.87019
# Shear Modulus (GPa) = 28.58150 11.98196 20.28173
#
# Velocity S-wave (km/s) = 3.80735 2.46516 3.20725
# Velocity P-wave (km/s) = 5.31013 4.28651 4.82554
#
# Compressibility (1/GPa) = 0.05718174
#
# Stress axis : x y z
#
# Youngs Moduli (GPa) = 58.00381 34.03598 45.04064
#
# Poissons Ratio (x) = 0.15015 0.22423
# Poissons Ratio (y) = 0.25588 -0.16076
# Poissons Ratio (z) = 0.28877 -0.12148
#
# Static dielectric constant tensor:
#      x y z
#    x 1.731480 0.000000 0.000000 
#    y 0.000000 1.680900 0.000000 
#    z 0.000000 0.000000 1.679970 
# 
# From -- ./inp_files/9571.got.cif
#   From: 2010.05.17/outbox.cif.g08.bks.cpg/sg59_5_cif.got.tgz:9571.got - 2010.06.03 14:40:33.
