data_PCOD9450117
_publ_section_title
;
Structure prediction by ZEFSAII (Michael W. Deem and Ramdas Pophale) SiO2 
 PCOD9450117
Probable space group: P M M N
;
_chemical_formula_sum "Si O2"
_cell_formula_units_Z 64
_cell_length_a 7.451479
_cell_length_b 14.865841
_cell_length_c 25.509680
_cell_angle_alpha 90.000000
_cell_angle_beta 90.000000
_cell_angle_gamma 90.000000
_cell_volume 2825.771080
_symmetry_space_group_name_H-M "P M M N"
_symmetry_group_IT_number 59
_space_group.IT_coordinate_system_code '2'
_symmetry_cell_setting 'orthorhombic'
loop_
_space_group_symop_operation_xyz
x,y,z
1/2-x,1/2-y,z
1/2+x,-y,-z
-x,1/2+y,-z
-x,-y,-z
1/2+x,1/2+y,-z
1/2-x,y,z
x,1/2-y,z
loop_
_atom_site_type_symbol
_atom_site_label
_atom_site_fract_x
_atom_site_fract_y
_atom_site_fract_z
Si Si1 0.962112 0.647481 0.908431
Si Si2 0.030883 0.853103 0.138369
Si Si3 0.035183 0.959648 0.611676
Si Si4 0.030138 0.029538 0.189560
Si Si5 0.035037 0.854917 0.022528
Si Si6 0.466398 0.648661 0.513469
Si Si7 0.043030 0.151746 0.608358
Si Si8 0.535075 0.851016 0.714492
O O1 0.750000 0.655209 0.899755
O O2 0.036326 0.750000 0.908143
O O3 0.030042 0.587409 0.860876
O O4 0.981888 0.605255 0.966511
O O5 0.250000 0.851166 0.138087
O O6 0.972530 0.750000 0.146281
O O7 0.974842 0.885899 0.079921
O O8 0.973586 0.926766 0.180433
O O9 0.250000 0.969052 0.605920
O O10 0.967521 0.922971 0.555858
O O11 0.002527 0.887793 0.656813
O O12 0.962442 0.057788 0.627600
O O13 0.250000 0.029070 0.189841
O O14 0.968487 0.079058 0.241937
O O15 0.250000 0.856914 0.023275
O O16 0.976693 0.750000 0.020110
O O17 0.250000 0.641965 0.509383
O O18 0.508086 0.750000 0.532446
O O19 0.540060 0.640968 0.454907
O O20 0.250000 0.155537 0.625704
O O21 0.961775 0.250000 0.620111
O O22 0.750000 0.847006 0.720540
O O23 0.465579 0.750000 0.722202
#
# Coordination Sequence:
#
# PCOD9450117 Si02
#       8
#     8   8   8   8   8   8   8   8
#     4   9  16  26  42  64  90 120 150 180 222 277
#     4   8  14  26  45  67  90 117 149 186 229 277
#     4  10  20  34  52  73 100 135 169 200 240 289
#     4   9  17  30  47  65  87 118 155 193 234 279
#     4   8  14  25  41  63  91 119 147 182 223 269
#     4   9  17  29  47  73 103 133 165 202 243 284
#     4   9  18  32  50  74 104 136 168 200 235 280
#     4  10  21  36  53  73  96 122 157 204 250 288
#
# _framework density 22.648685
#
# number of rings (size 3 to 8) (size 9 to 14) (size 15 to 20)
#    0.000    3.000    0.000    1.875    0.000    3.750 
#    0.000    2.500    0.000    3.000    0.000    0.000 
#    0.000    0.000    0.000    0.000    0.000    0.000 
#
# Total GULP energy -357104.387880 kJ/mol
# GULP energy per Si atom -5579.756061 kJ/mol
# Density = 2.259714 g / cm^3
# Si number density = 22.648685 Si / 1000 Ang^3
#
#
#
# Elastic Constant Matrix: (Units=GPa)
#
#
# Indices 1 2 3 4 5 6 
#
# 1 66.8106 2.0382 -10.7500 0.0000 0.0000 0.0000
# 2 2.0382 104.8993 15.0155 0.0000 0.0000 0.0000
# 3 -10.7500 15.0155 35.4873 0.0000 0.0000 0.0000
# 4 0.0000 0.0000 0.0000 36.2403 0.0000 0.0000
# 5 0.0000 0.0000 0.0000 0.0000 10.2399 0.0000
# 6 0.0000 0.0000 0.0000 0.0000 0.0000 1.8358
#
#
#
# Elastic Compliance Matrix: (Units=1/GPa)
#
#
# Indices 1 2 3 4 5 6 
#
# 1 0.015844 -0.001059 0.005248 0.000000 0.000000 0.000000
# 2 -0.001059 0.010218 -0.004644 0.000000 0.000000 0.000000
# 3 0.005248 -0.004644 0.031734 0.000000 0.000000 0.000000
# 4 0.000000 0.000000 0.000000 0.027594 0.000000 0.000000
# 5 0.000000 0.000000 0.000000 0.000000 0.097657 0.000000
# 6 0.000000 0.000000 0.000000 0.000000 0.000000 0.544713
#
#
# Mechanical properties :
#
#
# Convention : Reuss Voigt Hill
#
# Bulk Modulus (GPa) = 17.57924 24.42273 21.00099
# Shear Modulus (GPa) = 6.68777 23.05612 14.87195
#
# Velocity S-wave (km/s) = 1.72024 3.19406 2.56527
# Velocity P-wave (km/s) = 3.42406 4.94058 4.25050
#
# Compressibility (1/GPa) = 0.05688527
#
# Stress axis : x y z
#
# Youngs Moduli (GPa) = 63.11392 97.86332 31.51203
#
# Poissons Ratio (x) = 0.10364 -0.16537
# Poissons Ratio (y) = 0.06684 0.14635
# Poissons Ratio (z) = -0.33121 0.45452
#
# Static dielectric constant tensor:
#      x y z
#    x 1.792110 0.000000 0.000000 
#    y 0.000000 1.887440 0.000000 
#    z 0.000000 0.000000 1.801200 
# 
# From -- ./inp_files/31588.got.cif
#   From: 2010.05.17/outbox.cif.g08.bks.cpg/sg59_16_cif.got.tgz:31588.got - 2010.06.03 14:40:33.
