data_PCOD9450020
_publ_section_title
;
Structure prediction by ZEFSAII (Michael W. Deem and Ramdas Pophale) SiO2 
 PCOD9450020
Probable space group: P M M N
;
_chemical_formula_sum "Si O2"
_cell_formula_units_Z 48
_cell_length_a 9.262435
_cell_length_b 17.855024
_cell_length_c 15.358862
_cell_angle_alpha 90.000000
_cell_angle_beta 90.000000
_cell_angle_gamma 90.000000
_cell_volume 2540.063944
_symmetry_space_group_name_H-M "P M M N"
_symmetry_group_IT_number 59
_space_group.IT_coordinate_system_code '2'
_symmetry_cell_setting 'orthorhombic'
loop_
_space_group_symop_operation_xyz
x,y,z
1/2-x,1/2-y,z
1/2+x,-y,-z
-x,1/2+y,-z
-x,-y,-z
1/2+x,1/2+y,-z
1/2-x,y,z
x,1/2-y,z
loop_
_atom_site_type_symbol
_atom_site_label
_atom_site_fract_x
_atom_site_fract_y
_atom_site_fract_z
Si Si1 0.089565 0.339568 0.226022
Si Si2 0.419811 0.922928 0.912217
Si Si3 0.920094 0.068866 0.548635
Si Si4 0.423252 0.919195 0.107712
Si Si5 0.425697 0.836749 0.283932
Si Si6 0.088884 0.160749 0.422629
O O1 0.250000 0.364374 0.196581
O O2 0.091015 0.250000 0.230073
O O3 0.069070 0.368471 0.324347
O O4 0.968607 0.365763 0.160868
O O5 0.250000 0.937789 0.910553
O O6 0.503745 0.999450 0.890636
O O7 0.456141 0.892719 0.009092
O O8 0.750000 0.053412 0.553948
O O9 0.969528 0.101774 0.642752
O O10 0.960568 0.135934 0.483789
O O11 0.000000 0.000000 0.500000
O O12 0.250000 0.927227 0.114751
O O13 0.468922 0.866698 0.188068
O O14 0.250000 0.834962 0.286789
O O15 0.473645 0.750000 0.299320
O O16 0.250000 0.136249 0.453001
O O17 0.092406 0.250000 0.418908
#
# Coordination Sequence:
#
# PCOD9450020 Si02
#       6
#     8   8   8   8   8   8
#     4   9  19  35  55  78 107 146 185 220 269 336
#     4  10  20  33  53  83 115 143 181 233 279 323
#     4  11  23  37  56  84 114 145 185 234 282 334
#     4   9  19  36  57  79 107 148 187 224 274 332
#     4   9  19  37  60  83 107 143 191 233 274 332
#     4   9  19  37  58  79 107 145 185 225 275 334
#
# _framework density 18.897162000000002
#
# number of rings (size 3 to 8) (size 9 to 14) (size 15 to 20)
#    0.000    2.500    0.000    2.500    2.333    3.333 
#    0.000    4.167    0.000    2.500    0.000    0.000 
#    0.000    0.000    0.000    0.000    0.000    0.000 
#
# Total GULP energy -267324.936973 kJ/mol
# GULP energy per Si atom -5569.269520 kJ/mol
# Density = 1.885415 g / cm^3
# Si number density = 18.897162 Si / 1000 Ang^3
#
#
#
# Elastic Constant Matrix: (Units=GPa)
#
#
# Indices 1 2 3 4 5 6 
#
# 1 17.4674 10.2870 21.7782 0.0000 0.0000 0.0000
# 2 10.2870 48.2963 35.2426 0.0000 0.0000 0.0000
# 3 21.7782 35.2426 85.1807 0.0000 0.0000 0.0000
# 4 0.0000 0.0000 0.0000 26.5075 0.0000 0.0000
# 5 0.0000 0.0000 0.0000 0.0000 26.4149 0.0000
# 6 0.0000 0.0000 0.0000 0.0000 0.0000 30.3133
#
#
#
# Elastic Compliance Matrix: (Units=1/GPa)
#
#
# Indices 1 2 3 4 5 6 
#
# 1 0.084381 -0.003195 -0.020252 0.000000 0.000000 0.000000
# 2 -0.003195 0.029781 -0.011505 0.000000 0.000000 0.000000
# 3 -0.020252 -0.011505 0.021678 0.000000 0.000000 0.000000
# 4 0.000000 0.000000 0.000000 0.037725 0.000000 0.000000
# 5 0.000000 0.000000 0.000000 0.000000 0.037857 0.000000
# 6 0.000000 0.000000 0.000000 0.000000 0.000000 0.032989
#
#
# Mechanical properties :
#
#
# Convention : Reuss Voigt Hill
#
# Bulk Modulus (GPa) = 15.16609 31.72890 23.44750
# Shear Modulus (GPa) = 14.86799 22.22293 18.54546
#
# Velocity S-wave (km/s) = 2.80801 3.43300 3.13611
# Velocity P-wave (km/s) = 4.30770 5.70445 5.05455
#
# Compressibility (1/GPa) = 0.06593657
#
# Stress axis : x y z
#
# Youngs Moduli (GPa) = 11.85103 33.57816 46.13057
#
# Poissons Ratio (x) = 0.10727 0.93423
# Poissons Ratio (y) = 0.03786 0.53073
# Poissons Ratio (z) = 0.24001 0.38631
#
# Static dielectric constant tensor:
#      x y z
#    x 1.647560 0.000000 0.000000 
#    y 0.000000 1.693370 0.000000 
#    z 0.000000 0.000000 1.681720 
# 
# From -- ./inp_files/20404.got.cif
#   From: 2010.05.17/outbox.cif.g08.bks.cpg/sg59_11_cif.got.tgz:20404.got - 2010.06.03 14:40:33.
