data_PCOD9450573
_publ_section_title
;
Structure prediction by ZEFSAII (Michael W. Deem and Ramdas Pophale) SiO2 
 PCOD9450573
Probable space group: P M M N
;
_chemical_formula_sum "Si O2"
_cell_formula_units_Z 24
_cell_length_a 7.845989
_cell_length_b 12.373778
_cell_length_c 10.040742
_cell_angle_alpha 90.000000
_cell_angle_beta 90.000000
_cell_angle_gamma 90.000000
_cell_volume 974.800679
_symmetry_space_group_name_H-M "P M M N"
_symmetry_group_IT_number 59
_space_group.IT_coordinate_system_code '2'
_symmetry_cell_setting 'orthorhombic'
loop_
_space_group_symop_operation_xyz
x,y,z
1/2-x,1/2-y,z
1/2+x,-y,-z
-x,1/2+y,-z
-x,-y,-z
1/2+x,1/2+y,-z
1/2-x,y,z
x,1/2-y,z
loop_
_atom_site_type_symbol
_atom_site_label
_atom_site_fract_x
_atom_site_fract_y
_atom_site_fract_z
Si Si1 0.941929 0.371327 0.984335
Si Si2 0.454939 0.635564 0.595122
Si Si3 0.049325 0.084770 0.704119
O O1 0.750000 0.371406 0.038636
O O2 0.015670 0.250000 0.026184
O O3 0.949203 0.363826 0.823896
O O4 0.000000 0.500000 0.000000
O O5 0.250000 0.626828 0.583507
O O6 0.501990 0.750000 0.652944
O O7 0.511651 0.538413 0.686717
O O8 0.524642 0.628031 0.445321
O O9 0.250000 0.091256 0.736580
#
# Coordination Sequence:
#
# PCOD9450573 Si02
#       3
#     8   8   8
#     4  11  25  44  65  89 119 157 202 252 305 361
#     4   9  18  33  53  79 114 154 193 236 289 349
#     4  10  20  34  55  84 116 151 194 243 296 354
#
# _framework density 24.620418000000001
#
# number of rings (size 3 to 8) (size 9 to 14) (size 15 to 20)
#    0.000    2.000    0.000    3.000    0.000   10.000 
#    0.000    3.333    0.000    0.000    0.000    0.000 
#    0.000    0.000    0.000    0.000    0.000    0.000 
#
# Total GULP energy -133690.582981 kJ/mol
# GULP energy per Si atom -5570.440958 kJ/mol
# Density = 2.456438 g / cm^3
# Si number density = 24.620418 Si / 1000 Ang^3
#
#
#
# Elastic Constant Matrix: (Units=GPa)
#
#
# Indices 1 2 3 4 5 6 
#
# 1 35.6747 25.7443 1.6755 0.0000 0.0000 0.0000
# 2 25.7443 261.7019 26.1341 0.0000 0.0000 0.0000
# 3 1.6755 26.1341 81.7836 0.0000 0.0000 0.0000
# 4 0.0000 0.0000 0.0000 -15.7357 0.0000 0.0000
# 5 0.0000 0.0000 0.0000 0.0000 22.3343 0.0000
# 6 0.0000 0.0000 0.0000 0.0000 0.0000 20.6609
#
#
#
# Elastic Compliance Matrix: (Units=1/GPa)
#
#
# Indices 1 2 3 4 5 6 
#
# 1 0.030182 -0.003003 0.000341 0.000000 0.000000 0.000000
# 2 -0.003003 0.004246 -0.001295 0.000000 0.000000 0.000000
# 3 0.000341 -0.001295 0.012634 0.000000 0.000000 0.000000
# 4 0.000000 0.000000 0.000000 -0.063550 0.000000 0.000000
# 5 0.000000 0.000000 0.000000 0.000000 0.044774 0.000000
# 6 0.000000 0.000000 0.000000 0.000000 0.000000 0.048401
#
#
# Mechanical properties :
#
#
# Convention : Reuss Voigt Hill
#
# Bulk Modulus (GPa) = 25.54391 54.02978 39.78685
# Shear Modulus (GPa) = 51.20272 27.15900 39.18086
#
# Velocity S-wave (km/s) = 4.56530 3.32491 3.99356
# Velocity P-wave (km/s) = 6.17956 6.06076 6.12045
#
# Compressibility (1/GPa) = 0.03914827
#
# Stress axis : x y z
#
# Youngs Moduli (GPa) = 33.13200 235.52013 79.14961
#
# Poissons Ratio (x) = 0.70731 -0.02702
# Poissons Ratio (y) = 0.09950 0.10252
# Poissons Ratio (z) = -0.01131 0.30506
#
# Static dielectric constant tensor:
#      x y z
#    x 1.923930 0.000000 0.000000 
#    y 0.000000 2.133600 0.000000 
#    z 0.000000 0.000000 1.878360 
# 
# From -- ./inp_files/4994.got.cif
#   From: 2010.05.17/outbox.cif.g08.bks.cpg/sg59_3_cif.got.tgz:4994.got - 2010.06.03 14:40:33.
