data_PCOD9450315
_publ_section_title
;
Structure prediction by ZEFSAII (Michael W. Deem and Ramdas Pophale) SiO2 
 PCOD9450315
Probable space group: P M M N
;
_chemical_formula_sum "Si O2"
_cell_formula_units_Z 56
_cell_length_a 14.689115
_cell_length_b 15.060255
_cell_length_c 13.583611
_cell_angle_alpha 90.000000
_cell_angle_beta 90.000000
_cell_angle_gamma 90.000000
_cell_volume 3004.991115
_symmetry_space_group_name_H-M "P M M N"
_symmetry_group_IT_number 59
_space_group.IT_coordinate_system_code '2'
_symmetry_cell_setting 'orthorhombic'
loop_
_space_group_symop_operation_xyz
x,y,z
1/2-x,1/2-y,z
1/2+x,-y,-z
-x,1/2+y,-z
-x,-y,-z
1/2+x,1/2+y,-z
1/2-x,y,z
x,1/2-y,z
loop_
_atom_site_type_symbol
_atom_site_label
_atom_site_fract_x
_atom_site_fract_y
_atom_site_fract_z
Si Si1 0.558126 0.962394 0.408185
Si Si2 0.149219 0.907011 0.735799
Si Si3 0.452899 0.150776 0.238348
Si Si4 0.986147 0.355664 0.782735
Si Si5 0.851723 0.938389 0.102142
Si Si6 0.150403 0.144463 0.433435
Si Si7 0.358827 0.504582 0.116381
O O1 0.505722 0.910695 0.319368
O O2 0.624029 0.892830 0.461374
O O3 0.500000 0.000000 0.500000
O O4 0.618438 0.040811 0.362003
O O5 0.250000 0.866698 0.727076
O O6 0.062013 0.849079 0.764320
O O7 0.153031 0.983127 0.818320
O O8 0.418124 0.250000 0.217512
O O9 0.421440 0.123758 0.348067
O O10 0.408946 0.077512 0.169217
O O11 0.972395 0.250000 0.766457
O O12 0.073349 0.371855 0.854304
O O13 0.904133 0.406430 0.839237
O O14 0.750000 0.898726 0.092472
O O15 0.875360 0.985570 0.999073
O O16 0.250000 0.111171 0.402571
O O17 0.152762 0.250000 0.439628
O O18 0.250000 0.504060 0.132839
#
# Coordination Sequence:
#
# PCOD9450315 Si02
#       7
#     8   8   8   8   8   8   8
#     4  11  19  36  59  84 114 160 202 244 295 361
#     4  10  20  37  59  84 115 151 194 246 302 360
#     4  11  22  37  59  86 116 151 200 253 305 360
#     4  11  23  38  61  93 129 161 202 256 312 368
#     4   9  20  39  64  88 118 158 199 244 299 363
#     4  10  20  34  53  80 112 145 189 242 292 348
#     4  11  22  41  63  86 122 163 204 248 300 364
#
# _framework density 18.635662
#
# number of rings (size 3 to 8) (size 9 to 14) (size 15 to 20)
#    0.000    1.571    4.286    1.714    0.000    2.857 
#    0.000    2.143    0.000    2.571    0.000    0.000 
#    0.000    0.000    0.000    0.000    0.000    0.000 
#
# Total GULP energy -312082.012595 kJ/mol
# GULP energy per Si atom -5572.893082 kJ/mol
# Density = 1.859325 g / cm^3
# Si number density = 18.635662 Si / 1000 Ang^3
#
#
#
# Elastic Constant Matrix: (Units=GPa)
#
#
# Indices 1 2 3 4 5 6 
#
# 1 122.5573 37.2281 41.1999 0.0000 0.0000 0.0000
# 2 37.2281 76.0438 29.6612 0.0000 0.0000 0.0000
# 3 41.1999 29.6612 80.2641 0.0000 0.0000 0.0000
# 4 0.0000 0.0000 0.0000 14.1534 0.0000 0.0000
# 5 0.0000 0.0000 0.0000 0.0000 19.9292 0.0000
# 6 0.0000 0.0000 0.0000 0.0000 0.0000 13.1444
#
#
#
# Elastic Compliance Matrix: (Units=1/GPa)
#
#
# Indices 1 2 3 4 5 6 
#
# 1 0.010642 -0.003598 -0.004133 0.000000 0.000000 0.000000
# 2 -0.003598 0.016581 -0.004281 0.000000 0.000000 0.000000
# 3 -0.004133 -0.004281 0.016162 0.000000 0.000000 0.000000
# 4 0.000000 0.000000 0.000000 0.070654 0.000000 0.000000
# 5 0.000000 0.000000 0.000000 0.000000 0.050178 0.000000
# 6 0.000000 0.000000 0.000000 0.000000 0.000000 0.076078
#
#
# Mechanical properties :
#
#
# Convention : Reuss Voigt Hill
#
# Bulk Modulus (GPa) = 51.64644 55.00483 53.32564
# Shear Modulus (GPa) = 18.46572 20.83048 19.64810
#
# Velocity S-wave (km/s) = 3.15124 3.34694 3.25056
# Velocity P-wave (km/s) = 6.40425 6.67203 6.53951
#
# Compressibility (1/GPa) = 0.01936242
#
# Stress axis : x y z
#
# Youngs Moduli (GPa) = 93.97055 60.30866 61.87256
#
# Poissons Ratio (x) = 0.21697 0.25571
# Poissons Ratio (y) = 0.33808 0.26487
# Poissons Ratio (z) = 0.38837 0.25817
#
# Static dielectric constant tensor:
#      x y z
#    x 1.718400 0.000000 0.000000 
#    y 0.000000 1.632260 0.000000 
#    z 0.000000 0.000000 1.646780 
# 
# From -- ./inp_files/16922.got.cif
#   From: 2010.05.17/outbox.cif.g08.bks.cpg/sg59_9_cif.got.tgz:16922.got - 2010.06.03 14:40:33.
