data_PCOD9450657
_publ_section_title
;
Structure prediction by ZEFSAII (Michael W. Deem and Ramdas Pophale) SiO2 
 PCOD9450657
Probable space group: P M M N
;
_chemical_formula_sum "Si O2"
_cell_formula_units_Z 64
_cell_length_a 17.994646
_cell_length_b 19.642536
_cell_length_c 8.989391
_cell_angle_alpha 90.000000
_cell_angle_beta 90.000000
_cell_angle_gamma 90.000000
_cell_volume 3177.394475
_symmetry_space_group_name_H-M "P M M N"
_symmetry_group_IT_number 59
_space_group.IT_coordinate_system_code '2'
_symmetry_cell_setting 'orthorhombic'
loop_
_space_group_symop_operation_xyz
x,y,z
1/2-x,1/2-y,z
1/2+x,-y,-z
-x,1/2+y,-z
-x,-y,-z
1/2+x,1/2+y,-z
1/2-x,y,z
x,1/2-y,z
loop_
_atom_site_type_symbol
_atom_site_label
_atom_site_fract_x
_atom_site_fract_y
_atom_site_fract_z
Si Si1 0.429453 0.066983 0.252746
Si Si2 0.107389 0.097692 0.935370
Si Si3 0.479609 0.175488 0.493866
Si Si4 0.334876 0.999820 0.499534
Si Si5 0.405860 0.545598 0.794226
Si Si6 0.829492 0.851147 0.347132
Si Si7 0.161778 0.829797 0.971564
Si Si8 0.537129 0.331479 0.799079
O O1 0.461697 0.124735 0.362039
O O2 0.379792 0.015251 0.348648
O O3 0.505655 0.035256 0.193092
O O4 0.386856 0.099008 0.112586
O O5 0.159838 0.142728 0.829863
O O6 0.025265 0.124886 0.886238
O O7 0.123512 0.020105 0.884073
O O8 0.503589 0.250000 0.441047
O O9 0.401732 0.181279 0.582170
O O10 0.533803 0.149876 0.624768
O O11 0.250000 0.976022 0.476176
O O12 0.330478 0.073396 0.581320
O O13 0.379907 0.957408 0.622503
O O14 0.375865 0.615764 0.861729
O O15 0.750000 0.821602 0.384872
O O16 0.250000 0.841733 0.983120
O O17 0.150871 0.750000 0.928402
O O18 0.116822 0.840229 0.125103
O O19 0.519221 0.250000 0.808432
#
# Coordination Sequence:
#
# PCOD9450657 Si02
#       8
#     8   8   8   8   8   8   8   8
#     4  11  21  33  54  83 114 149 190 243 285 336
#     4  10  20  34  57  85 113 146 193 240 282 334
#     4   9  19  34  54  78 107 146 187 223 276 343
#     4   9  19  35  52  75 111 149 182 224 282 339
#     4  11  21  37  59  81 114 153 194 237 293 349
#     4   8  16  32  53  76 106 142 180 221 267 324
#     4  10  21  37  61  89 112 142 189 243 295 347
#     4   9  18  36  58  82 114 150 186 231 283 346
#
# _framework density 20.142289999999999
#
# number of rings (size 3 to 8) (size 9 to 14) (size 15 to 20)
#    0.000    2.375    1.250    1.875    0.000    2.250 
#    0.000    0.000    0.000    0.750    0.000    5.250 
#    0.000    0.000    0.000    0.000    0.000    0.000 
#
# Total GULP energy -356704.139159 kJ/mol
# GULP energy per Si atom -5573.502174 kJ/mol
# Density = 2.009644 g / cm^3
# Si number density = 20.142290 Si / 1000 Ang^3
#
#
#
# Elastic Constant Matrix: (Units=GPa)
#
#
# Indices 1 2 3 4 5 6 
#
# 1 67.7908 5.8341 -1.5162 0.0000 0.0000 0.0000
# 2 5.8341 56.9995 26.7506 0.0000 0.0000 0.0000
# 3 -1.5162 26.7506 92.6253 0.0000 0.0000 0.0000
# 4 0.0000 0.0000 0.0000 19.5689 0.0000 0.0000
# 5 0.0000 0.0000 0.0000 0.0000 21.8054 0.0000
# 6 0.0000 0.0000 0.0000 0.0000 0.0000 6.9542
#
#
#
# Elastic Compliance Matrix: (Units=1/GPa)
#
#
# Indices 1 2 3 4 5 6 
#
# 1 0.014933 -0.001901 0.000793 0.000000 0.000000 0.000000
# 2 -0.001901 0.020537 -0.005962 0.000000 0.000000 0.000000
# 3 0.000793 -0.005962 0.012531 0.000000 0.000000 0.000000
# 4 0.000000 0.000000 0.000000 0.051102 0.000000 0.000000
# 5 0.000000 0.000000 0.000000 0.000000 0.045860 0.000000
# 6 0.000000 0.000000 0.000000 0.000000 0.000000 0.143797
#
#
# Mechanical properties :
#
#
# Convention : Reuss Voigt Hill
#
# Bulk Modulus (GPa) = 29.53231 31.06141 30.29686
# Shear Modulus (GPa) = 15.91417 22.08884 19.00151
#
# Velocity S-wave (km/s) = 2.81390 3.31515 3.07475
# Velocity P-wave (km/s) = 5.02504 5.48708 5.26114
#
# Compressibility (1/GPa) = 0.03386122
#
# Stress axis : x y z
#
# Youngs Moduli (GPa) = 66.96766 48.69333 79.80150
#
# Poissons Ratio (x) = 0.09255 -0.06331
# Poissons Ratio (y) = 0.12729 0.47579
# Poissons Ratio (z) = -0.05313 0.29032
#
# Static dielectric constant tensor:
#      x y z
#    x 1.722590 0.000000 0.000000 
#    y 0.000000 1.739240 0.000000 
#    z 0.000000 0.000000 1.719840 
# 
# From -- ./inp_files/10676.got.cif
#   From: 2010.05.17/outbox.cif.g08.bks.cpg/sg59_6_cif.got.tgz:10676.got - 2010.06.03 14:40:33.
