data_PCOD9450711
_publ_section_title
;
Structure prediction by ZEFSAII (Michael W. Deem and Ramdas Pophale) SiO2 
 PCOD9450711
Probable space group: P M M N
;
_chemical_formula_sum "Si O2"
_cell_formula_units_Z 64
_cell_length_a 7.641377
_cell_length_b 25.453731
_cell_length_c 15.642490
_cell_angle_alpha 90.000000
_cell_angle_beta 90.000000
_cell_angle_gamma 90.000000
_cell_volume 3042.488623
_symmetry_space_group_name_H-M "P M M N"
_symmetry_group_IT_number 59
_space_group.IT_coordinate_system_code '2'
_symmetry_cell_setting 'orthorhombic'
loop_
_space_group_symop_operation_xyz
x,y,z
1/2-x,1/2-y,z
1/2+x,-y,-z
-x,1/2+y,-z
-x,-y,-z
1/2+x,1/2+y,-z
1/2-x,y,z
x,1/2-y,z
loop_
_atom_site_type_symbol
_atom_site_label
_atom_site_fract_x
_atom_site_fract_y
_atom_site_fract_z
Si Si1 0.541232 0.961225 0.575556
Si Si2 0.961307 0.189825 0.057598
Si Si3 0.455938 0.310515 0.865772
Si Si4 0.444169 0.612175 0.279064
Si Si5 0.049751 0.654380 0.597735
Si Si6 0.034138 0.881209 0.783715
Si Si7 0.556038 0.003712 0.239682
Si Si8 0.034700 0.691847 0.419347
O O1 0.750000 0.956210 0.588064
O O2 0.458719 0.904543 0.560740
O O3 0.500000 0.000000 0.500000
O O4 0.452740 0.984350 0.659659
O O5 0.750000 0.190272 0.058364
O O6 0.022178 0.250000 0.069035
O O7 0.018116 0.153316 0.135486
O O8 0.018513 0.171791 0.963642
O O9 0.250000 0.312426 0.845711
O O10 0.516014 0.250000 0.861669
O O11 0.552052 0.346133 0.797515
O O12 0.250000 0.599802 0.310328
O O13 0.502998 0.557076 0.238080
O O14 0.529490 0.644043 0.358741
O O15 0.250000 0.672436 0.609569
O O16 0.975947 0.645678 0.693767
O O17 0.974835 0.686960 0.518204
O O18 0.250000 0.882963 0.778642
O O19 0.970241 0.941706 0.793477
O O20 0.750000 0.004752 0.203127
O O21 0.250000 0.689786 0.419768
O O22 0.986716 0.750000 0.385883
#
# Coordination Sequence:
#
# PCOD9450711 Si02
#       8
#     8   8   8   8   8   8   8   8
#     4  11  20  31  48  70  97 132 176 221 264 308
#     4   9  17  32  56  83 107 133 170 216 265 319
#     4  10  21  37  56  79 106 137 176 222 273 325
#     4  11  21  34  54  79 107 141 182 225 271 322
#     4   9  17  31  50  73 103 137 171 208 253 308
#     4   8  16  31  52  79 109 139 170 210 260 313
#     4  10  20  35  53  75 106 141 178 219 264 319
#     4   9  18  31  49  75 105 136 172 216 264 314
#
# _framework density 21.035411
#
# number of rings (size 3 to 8) (size 9 to 14) (size 15 to 20)
#    0.000    2.375    0.000    4.125    0.000    2.750 
#    0.000    6.875    0.000    1.875    0.000    0.000 
#    0.000    0.000    0.000    0.000    0.000    0.000 
#
# Total GULP energy -356539.586601 kJ/mol
# GULP energy per Si atom -5570.931041 kJ/mol
# Density = 2.098753 g / cm^3
# Si number density = 21.035411 Si / 1000 Ang^3
#
#
#
# Elastic Constant Matrix: (Units=GPa)
#
#
# Indices 1 2 3 4 5 6 
#
# 1 50.3358 -1.1338 -5.8945 0.0000 0.0000 0.0000
# 2 -1.1338 77.7293 48.3210 0.0000 0.0000 0.0000
# 3 -5.8945 48.3210 78.0289 0.0000 0.0000 0.0000
# 4 0.0000 0.0000 0.0000 34.5636 0.0000 0.0000
# 5 0.0000 0.0000 0.0000 0.0000 1.3226 0.0000
# 6 0.0000 0.0000 0.0000 0.0000 0.0000 11.4590
#
#
#
# Elastic Compliance Matrix: (Units=1/GPa)
#
#
# Indices 1 2 3 4 5 6 
#
# 1 0.020097 -0.001058 0.002173 0.000000 0.000000 0.000000
# 2 -0.001058 0.020974 -0.013068 0.000000 0.000000 0.000000
# 3 0.002173 -0.013068 0.021073 0.000000 0.000000 0.000000
# 4 0.000000 0.000000 0.000000 0.028932 0.000000 0.000000
# 5 0.000000 0.000000 0.000000 0.000000 0.756074 0.000000
# 6 0.000000 0.000000 0.000000 0.000000 0.000000 0.087268
#
#
# Mechanical properties :
#
#
# Convention : Reuss Voigt Hill
#
# Bulk Modulus (GPa) = 26.15205 32.07549 29.11377
# Shear Modulus (GPa) = 5.14896 20.45579 12.80238
#
# Velocity S-wave (km/s) = 1.56623 3.12179 2.46968
# Velocity P-wave (km/s) = 3.96613 5.31747 4.69072
#
# Compressibility (1/GPa) = 0.03823792
#
# Stress axis : x y z
#
# Youngs Moduli (GPa) = 49.75807 47.67855 47.45453
#
# Poissons Ratio (x) = 0.05044 -0.10314
# Poissons Ratio (y) = 0.05264 0.62015
# Poissons Ratio (z) = -0.10814 0.62308
#
# Static dielectric constant tensor:
#      x y z
#    x 1.841830 0.000000 0.000000 
#    y 0.000000 1.782410 0.000000 
#    z 0.000000 0.000000 1.725150 
# 
# From -- ./inp_files/21491.got.cif
#   From: 2010.05.17/outbox.cif.g08.bks.cpg/sg59_11_cif.got.tgz:21491.got - 2010.06.03 14:40:33.
