data_PCOD9450208
_publ_section_title
;
Structure prediction by ZEFSAII (Michael W. Deem and Ramdas Pophale) SiO2 
 PCOD9450208
Probable space group: P M M N
;
_chemical_formula_sum "Si O2"
_cell_formula_units_Z 48
_cell_length_a 14.658225
_cell_length_b 8.215126
_cell_length_c 21.963534
_cell_angle_alpha 90.000000
_cell_angle_beta 90.000000
_cell_angle_gamma 90.000000
_cell_volume 2644.830432
_symmetry_space_group_name_H-M "P M M N"
_symmetry_group_IT_number 59
_space_group.IT_coordinate_system_code '2'
_symmetry_cell_setting 'orthorhombic'
loop_
_space_group_symop_operation_xyz
x,y,z
1/2-x,1/2-y,z
1/2+x,-y,-z
-x,1/2+y,-z
-x,-y,-z
1/2+x,1/2+y,-z
1/2-x,y,z
x,1/2-y,z
loop_
_atom_site_type_symbol
_atom_site_label
_atom_site_fract_x
_atom_site_fract_y
_atom_site_fract_z
Si Si1 0.853819 0.555357 0.666598
Si Si2 0.000951 0.946299 0.235830
Si Si3 0.145910 0.946716 0.998421
Si Si4 0.998053 0.055469 0.569321
Si Si5 0.500633 0.946729 0.097343
Si Si6 0.854060 0.551128 0.333415
O O1 0.750000 0.493869 0.666174
O O2 0.851887 0.750000 0.668711
O O3 0.910178 0.504208 0.606807
O O4 0.911267 0.494245 0.724528
O O5 0.997967 0.750000 0.234040
O O6 0.002826 0.006516 0.166634
O O7 0.912390 0.000648 0.274396
O O8 0.250000 0.004961 0.000234
O O9 0.147158 0.750000 0.999548
O O10 0.084925 0.002287 0.056006
O O11 0.091287 0.000827 0.938500
O O12 0.997631 0.250000 0.571052
O O13 0.086748 0.999727 0.607920
O O14 0.000000 0.000000 0.500000
O O15 0.498449 0.750000 0.098495
O O16 0.750000 0.494301 0.333780
O O17 0.852377 0.750000 0.333303
#
# Coordination Sequence:
#
# PCOD9450208 Si02
#       6
#     8   8   8   8   8   8
#     4  10  21  36  53  74 102 136 172 210 252 298
#     4   9  18  32  52  76  99 127 164 207 254 301
#     4   9  18  32  48  68  98 134 168 204 249 299
#     4  10  20  34  53  76 102 134 170 209 254 300
#     4   9  18  32  50  73  99 128 165 208 252 299
#     4   8  15  29  48  70  96 124 155 194 242 295
#
# _framework density 18.148610000000001
#
# number of rings (size 3 to 8) (size 9 to 14) (size 15 to 20)
#    0.000    2.833    0.000    2.000    0.000    4.333 
#    0.000    5.000    0.000   12.000    0.000    0.000 
#    0.000    0.000    0.000    0.000    0.000    0.000 
#
# Total GULP energy -267640.151962 kJ/mol
# GULP energy per Si atom -5575.836499 kJ/mol
# Density = 1.810730 g / cm^3
# Si number density = 18.148610 Si / 1000 Ang^3
#
#
#
# Elastic Constant Matrix: (Units=GPa)
#
#
# Indices 1 2 3 4 5 6 
#
# 1 199.5851 10.7234 105.8969 0.0000 0.0000 0.0000
# 2 10.7234 7.7276 12.8260 0.0000 0.0000 0.0000
# 3 105.8969 12.8260 197.1750 0.0000 0.0000 0.0000
# 4 0.0000 0.0000 0.0000 22.6574 0.0000 0.0000
# 5 0.0000 0.0000 0.0000 0.0000 5.8501 0.0000
# 6 0.0000 0.0000 0.0000 0.0000 0.0000 21.3703
#
#
#
# Elastic Compliance Matrix: (Units=1/GPa)
#
#
# Indices 1 2 3 4 5 6 
#
# 1 0.007114 -0.003957 -0.003563 0.000000 0.000000 0.000000
# 2 -0.003957 0.147270 -0.007454 0.000000 0.000000 0.000000
# 3 -0.003563 -0.007454 0.007470 0.000000 0.000000 0.000000
# 4 0.000000 0.000000 0.000000 0.044136 0.000000 0.000000
# 5 0.000000 0.000000 0.000000 0.000000 0.170937 0.000000
# 6 0.000000 0.000000 0.000000 0.000000 0.000000 0.046794
#
#
# Mechanical properties :
#
#
# Convention : Reuss Voigt Hill
#
# Bulk Modulus (GPa) = 7.58127 73.70891 40.64509
# Shear Modulus (GPa) = 10.04747 28.31164 19.17956
#
# Velocity S-wave (km/s) = 2.35547 3.95396 3.25438
# Velocity P-wave (km/s) = 3.40353 7.84521 6.04695
#
# Compressibility (1/GPa) = 0.13190403
#
# Stress axis : x y z
#
# Youngs Moduli (GPa) = 140.57747 6.79025 133.86651
#
# Poissons Ratio (x) = 0.02687 0.47697
# Poissons Ratio (y) = 0.55633 0.99788
# Poissons Ratio (z) = 0.50088 0.05062
#
# Static dielectric constant tensor:
#      x y z
#    x 1.613780 0.000000 0.000000 
#    y 0.000000 1.649140 0.000000 
#    z 0.000000 0.000000 1.575530 
# 
# From -- ./inp_files/28846.got.cif
#   From: 2010.05.17/outbox.cif.g08.bks.cpg/sg59_15_cif.got.tgz:28846.got - 2010.06.03 14:40:33.
