data_PCOD9450712
_publ_section_title
;
Structure prediction by ZEFSAII (Michael W. Deem and Ramdas Pophale) SiO2 
 PCOD9450712
Probable space group: P M M N
;
_chemical_formula_sum "Si O2"
_cell_formula_units_Z 36
_cell_length_a 7.663031
_cell_length_b 17.626702
_cell_length_c 16.007666
_cell_angle_alpha 90.000000
_cell_angle_beta 90.000000
_cell_angle_gamma 90.000000
_cell_volume 2162.218899
_symmetry_space_group_name_H-M "P M M N"
_symmetry_group_IT_number 59
_space_group.IT_coordinate_system_code '2'
_symmetry_cell_setting 'orthorhombic'
loop_
_space_group_symop_operation_xyz
x,y,z
1/2-x,1/2-y,z
1/2+x,-y,-z
-x,1/2+y,-z
-x,-y,-z
1/2+x,1/2+y,-z
1/2-x,y,z
x,1/2-y,z
loop_
_atom_site_type_symbol
_atom_site_label
_atom_site_fract_x
_atom_site_fract_y
_atom_site_fract_z
Si Si1 0.453256 0.660801 0.129056
Si Si2 0.250000 0.159078 0.001322
Si Si3 0.953733 0.046117 0.416822
Si Si4 0.250000 0.085964 0.182344
Si Si5 0.547447 0.524947 0.238783
Si Si6 0.750000 0.839928 0.637645
O O1 0.250000 0.650508 0.107782
O O2 0.483046 0.750000 0.145981
O O3 0.499772 0.608709 0.207860
O O4 0.580522 0.637641 0.053451
O O5 0.250000 0.250000 0.008738
O O6 0.250000 0.125099 0.093089
O O7 0.750000 0.068490 0.418549
O O8 0.082047 0.117029 0.401337
O O9 0.979833 0.991046 0.336800
O O10 0.000000 0.000000 0.500000
O O11 0.250000 0.141744 0.262702
O O12 0.419282 0.032716 0.191921
O O13 0.750000 0.510099 0.219958
O O14 0.750000 0.750000 0.623568
#
# Coordination Sequence:
#
# PCOD9450712 Si02
#       6
#     8   4   8   4   8   4
#     4  10  20  35  53  75 106 142 179 224 274 323
#     4  10  21  36  53  75 106 144 180 223 276 320
#     4  10  20  36  61  86 112 148 184 227 277 333
#     4  10  21  36  55  78 108 144 184 224 269 324
#     4  10  20  35  54  81 107 139 183 220 272 327
#     4  10  21  38  59  85 116 148 186 229 276 330
#
# _framework density 16.649564000000002
#
# number of rings (size 3 to 8) (size 9 to 14) (size 15 to 20)
#    0.000    2.000    3.333    0.333    0.000    2.222 
#    0.000    1.111    0.000    4.000    0.000    0.000 
#    0.000    0.000    0.000    0.000    0.000    0.000 
#
# Total GULP energy -200771.839954 kJ/mol
# GULP energy per Si atom -5576.995554 kJ/mol
# Density = 1.661167 g / cm^3
# Si number density = 16.649564 Si / 1000 Ang^3
#
#
#
# Elastic Constant Matrix: (Units=GPa)
#
#
# Indices 1 2 3 4 5 6 
#
# 1 143.7832 69.7345 71.6230 0.0000 0.0000 0.0000
# 2 69.7345 100.4965 76.7220 0.0000 0.0000 0.0000
# 3 71.6230 76.7220 107.5341 0.0000 0.0000 0.0000
# 4 0.0000 0.0000 0.0000 21.3721 0.0000 0.0000
# 5 0.0000 0.0000 0.0000 0.0000 16.5647 0.0000
# 6 0.0000 0.0000 0.0000 0.0000 0.0000 19.5840
#
#
#
# Elastic Compliance Matrix: (Units=1/GPa)
#
#
# Indices 1 2 3 4 5 6 
#
# 1 0.011301 -0.004602 -0.004243 0.000000 0.000000 0.000000
# 2 -0.004602 0.023728 -0.013864 0.000000 0.000000 0.000000
# 3 -0.004243 -0.013864 0.022017 0.000000 0.000000 0.000000
# 4 0.000000 0.000000 0.000000 0.046790 0.000000 0.000000
# 5 0.000000 0.000000 0.000000 0.000000 0.060369 0.000000
# 6 0.000000 0.000000 0.000000 0.000000 0.000000 0.051062
#
#
# Mechanical properties :
#
#
# Convention : Reuss Voigt Hill
#
# Bulk Modulus (GPa) = 86.00617 87.55254 86.77936
# Shear Modulus (GPa) = 18.89913 20.41978 19.65946
#
# Velocity S-wave (km/s) = 3.37280 3.50586 3.43997
# Velocity P-wave (km/s) = 8.18148 8.31190 8.24695
#
# Compressibility (1/GPa) = 0.01162707
#
# Stress axis : x y z
#
# Youngs Moduli (GPa) = 88.49064 42.14397 45.41871
#
# Poissons Ratio (x) = 0.19394 0.19273
# Poissons Ratio (y) = 0.40723 0.62969
# Poissons Ratio (z) = 0.37551 0.58429
#
# Static dielectric constant tensor:
#      x y z
#    x 1.578580 0.000000 0.000000 
#    y 0.000000 1.539100 0.000000 
#    z 0.000000 0.000000 1.538210 
# 
# From -- ./inp_files/19811.got.cif
#   From: 2010.05.17/outbox.cif.g08.bks.cpg/sg59_10_cif.got.tgz:19811.got - 2010.06.03 14:40:33.
