data_PCOD9450625
_publ_section_title
;
Structure prediction by ZEFSAII (Michael W. Deem and Ramdas Pophale) SiO2 
 PCOD9450625
Probable space group: P M M N
;
_chemical_formula_sum "Si O2"
_cell_formula_units_Z 64
_cell_length_a 8.728082
_cell_length_b 19.461405
_cell_length_c 19.805573
_cell_angle_alpha 90.000000
_cell_angle_beta 90.000000
_cell_angle_gamma 90.000000
_cell_volume 3364.189260
_symmetry_space_group_name_H-M "P M M N"
_symmetry_group_IT_number 59
_space_group.IT_coordinate_system_code '2'
_symmetry_cell_setting 'orthorhombic'
loop_
_space_group_symop_operation_xyz
x,y,z
1/2-x,1/2-y,z
1/2+x,-y,-z
-x,1/2+y,-z
-x,-y,-z
1/2+x,1/2+y,-z
1/2-x,y,z
x,1/2-y,z
loop_
_atom_site_type_symbol
_atom_site_label
_atom_site_fract_x
_atom_site_fract_y
_atom_site_fract_z
Si Si1 0.933226 0.411779 0.432912
Si Si2 0.432928 0.073345 0.575470
Si Si3 0.926911 0.832609 0.158163
Si Si4 0.069705 0.831552 0.015107
Si Si5 0.435472 0.170862 0.306748
Si Si6 0.433367 0.589546 0.283502
Si Si7 0.931614 0.547387 0.941198
Si Si8 0.563778 0.549956 0.788792
O O1 0.750000 0.406703 0.430559
O O2 0.976358 0.492093 0.421526
O O3 0.993367 0.395696 0.507984
O O4 0.005089 0.364205 0.375381
O O5 0.250000 0.077709 0.570986
O O6 0.493081 0.105786 0.644530
O O7 0.750000 0.855329 0.154420
O O8 0.928796 0.750000 0.160771
O O9 0.015609 0.852953 0.090064
O O10 0.007760 0.861973 0.223990
O O11 0.250000 0.845609 0.007644
O O12 0.044535 0.750000 0.008365
O O13 0.974144 0.875172 0.961990
O O14 0.250000 0.169997 0.308201
O O15 0.485359 0.250000 0.300448
O O16 0.485601 0.121610 0.244882
O O17 0.250000 0.592215 0.288395
O O18 0.479794 0.512702 0.259944
O O19 0.750000 0.537155 0.941177
O O20 0.990496 0.535803 0.864998
O O21 0.000000 0.500000 0.000000
O O22 0.750000 0.550973 0.791573
#
# Coordination Sequence:
#
# PCOD9450625 Si02
#       8
#     8   8   8   8   8   8   8   8
#     4  10  20  35  56  83 113 146 185 233 282 332
#     4  10  20  34  56  84 113 147 187 230 277 333
#     4  10  21  37  57  82 112 146 186 232 285 349
#     4  10  21  38  58  80 109 147 192 239 289 348
#     4  10  20  37  60  83 113 154 196 240 288 341
#     4  11  20  34  58  85 116 150 186 235 286 337
#     4  11  22  37  58  85 116 152 192 243 297 350
#     4   9  20  36  55  82 113 147 192 235 280 340
#
# _framework density 19.023900999999999
#
# number of rings (size 3 to 8) (size 9 to 14) (size 15 to 20)
#    0.000    1.875    1.250    3.000    0.000    4.250 
#    0.000    5.000    0.000    3.750    0.000    0.000 
#    0.000    0.000    0.000    0.000    0.000    0.000 
#
# Total GULP energy -357430.626427 kJ/mol
# GULP energy per Si atom -5584.853538 kJ/mol
# Density = 1.898060 g / cm^3
# Si number density = 19.023901 Si / 1000 Ang^3
#
#
#
# Elastic Constant Matrix: (Units=GPa)
#
#
# Indices 1 2 3 4 5 6 
#
# 1 26.0925 14.4500 11.8481 0.0000 0.0000 0.0000
# 2 14.4500 43.6845 22.9180 0.0000 0.0000 0.0000
# 3 11.8481 22.9180 120.0742 0.0000 0.0000 0.0000
# 4 0.0000 0.0000 0.0000 22.7546 0.0000 0.0000
# 5 0.0000 0.0000 0.0000 0.0000 29.8679 0.0000
# 6 0.0000 0.0000 0.0000 0.0000 0.0000 26.9384
#
#
#
# Elastic Compliance Matrix: (Units=1/GPa)
#
#
# Indices 1 2 3 4 5 6 
#
# 1 0.047294 -0.014664 -0.001868 0.000000 0.000000 0.000000
# 2 -0.014664 0.029986 -0.004276 0.000000 0.000000 0.000000
# 3 -0.001868 -0.004276 0.009329 0.000000 0.000000 0.000000
# 4 0.000000 0.000000 0.000000 0.043947 0.000000 0.000000
# 5 0.000000 0.000000 0.000000 0.000000 0.033481 0.000000
# 6 0.000000 0.000000 0.000000 0.000000 0.000000 0.037122
#
#
# Mechanical properties :
#
#
# Convention : Reuss Voigt Hill
#
# Bulk Modulus (GPa) = 22.22615 32.03149 27.12882
# Shear Modulus (GPa) = 19.39699 25.28785 22.34242
#
# Velocity S-wave (km/s) = 3.19660 3.64987 3.43073
# Velocity P-wave (km/s) = 5.03319 5.88524 5.47581
#
# Compressibility (1/GPa) = 0.04499206
#
# Stress axis : x y z
#
# Youngs Moduli (GPa) = 21.14418 33.34945 107.19638
#
# Poissons Ratio (x) = 0.48904 0.20022
# Poissons Ratio (y) = 0.31006 0.45840
# Poissons Ratio (z) = 0.03949 0.14261
#
# Static dielectric constant tensor:
#      x y z
#    x 1.640730 0.000000 0.000000 
#    y 0.000000 1.675070 0.000000 
#    z 0.000000 0.000000 1.646510 
# 
# From -- ./inp_files/26316.got.cif
#   From: 2010.05.17/outbox.cif.g08.bks.cpg/sg59_14_cif.got.tgz:26316.got - 2010.06.03 14:40:33.
