data_PCOD9450981
_publ_section_title
;
Structure prediction by ZEFSAII (Michael W. Deem and Ramdas Pophale) SiO2 
 PCOD9450981
Probable space group: P M M N
;
_chemical_formula_sum "Si O2"
_cell_formula_units_Z 48
_cell_length_a 8.683204
_cell_length_b 15.538772
_cell_length_c 19.197074
_cell_angle_alpha 90.000000
_cell_angle_beta 90.000000
_cell_angle_gamma 90.000000
_cell_volume 2590.190688
_symmetry_space_group_name_H-M "P M M N"
_symmetry_group_IT_number 59
_space_group.IT_coordinate_system_code '2'
_symmetry_cell_setting 'orthorhombic'
loop_
_space_group_symop_operation_xyz
x,y,z
1/2-x,1/2-y,z
1/2+x,-y,-z
-x,1/2+y,-z
-x,-y,-z
1/2+x,1/2+y,-z
1/2-x,y,z
x,1/2-y,z
loop_
_atom_site_type_symbol
_atom_site_label
_atom_site_fract_x
_atom_site_fract_y
_atom_site_fract_z
Si Si1 0.423015 0.462129 0.305585
Si Si2 0.064544 0.505030 0.922320
Si Si3 0.435337 0.651638 0.809937
Si Si4 0.077758 0.609452 0.190055
Si Si5 0.569787 0.250000 0.579426
Si Si6 0.421729 0.250000 0.724985
Si Si7 0.434199 0.440693 0.561622
O O1 0.250000 0.439690 0.329910
O O2 0.502013 0.383653 0.264208
O O3 0.410173 0.531300 0.243929
O O4 0.512013 0.510863 0.367515
O O5 0.250000 0.499508 0.922668
O O6 0.022067 0.589179 0.875030
O O7 0.987688 0.426127 0.881384
O O8 0.000000 0.500000 0.000000
O O9 0.250000 0.649133 0.806049
O O10 0.485196 0.750000 0.821475
O O11 0.250000 0.646765 0.182887
O O12 0.954681 0.670424 0.225866
O O13 0.750000 0.250000 0.562085
O O14 0.543467 0.250000 0.662704
O O15 0.496976 0.342022 0.556692
O O16 0.250000 0.250000 0.695103
O O17 0.500000 0.500000 0.500000
O O18 0.250000 0.437524 0.559613
#
# Coordination Sequence:
#
# PCOD9450981 Si02
#       7
#     8   8   8   8   4   4   8
#     4  10  20  36  60  88 118 151 194 244 298 357
#     4  10  20  36  57  81 115 154 198 246 301 363
#     4   9  19  37  60  84 112 152 202 251 303 364
#     4  10  20  35  57  83 114 151 191 239 294 348
#     4  12  24  42  66  94 126 163 206 253 310 374
#     4  12  22  34  58  90 120 151 194 243 292 348
#     4  12  25  43  66  93 127 166 207 256 311 370
#
# _framework density 18.531455000000001
#
# number of rings (size 3 to 8) (size 9 to 14) (size 15 to 20)
#    0.000    1.500    1.667    4.500    0.000    2.333 
#    3.000    0.000    0.000    0.000    0.000    0.000 
#    0.000    0.000    0.000    0.000    0.000    0.000 
#
# Total GULP energy -267617.482615 kJ/mol
# GULP energy per Si atom -5575.364221 kJ/mol
# Density = 1.848928 g / cm^3
# Si number density = 18.531455 Si / 1000 Ang^3
#
#
#
# Elastic Constant Matrix: (Units=GPa)
#
#
# Indices 1 2 3 4 5 6 
#
# 1 110.4297 38.9711 42.4643 0.0000 0.0000 0.0000
# 2 38.9711 108.8639 46.7300 0.0000 0.0000 0.0000
# 3 42.4643 46.7300 116.7063 0.0000 0.0000 0.0000
# 4 0.0000 0.0000 0.0000 23.9529 0.0000 0.0000
# 5 0.0000 0.0000 0.0000 0.0000 31.0081 0.0000
# 6 0.0000 0.0000 0.0000 0.0000 0.0000 24.5150
#
#
#
# Elastic Compliance Matrix: (Units=1/GPa)
#
#
# Indices 1 2 3 4 5 6 
#
# 1 0.011158 -0.002719 -0.002971 0.000000 0.000000 0.000000
# 2 -0.002719 0.011755 -0.003717 0.000000 0.000000 0.000000
# 3 -0.002971 -0.003717 0.011138 0.000000 0.000000 0.000000
# 4 0.000000 0.000000 0.000000 0.041749 0.000000 0.000000
# 5 0.000000 0.000000 0.000000 0.000000 0.032250 0.000000
# 6 0.000000 0.000000 0.000000 0.000000 0.000000 0.040791
#
#
# Mechanical properties :
#
#
# Convention : Reuss Voigt Hill
#
# Bulk Modulus (GPa) = 65.63552 65.81450 65.72501
# Shear Modulus (GPa) = 28.94638 29.75084 29.34861
#
# Velocity S-wave (km/s) = 3.95652 4.01112 3.98391
# Velocity P-wave (km/s) = 7.50782 7.55276 7.53033
#
# Compressibility (1/GPa) = 0.01523565
#
# Stress axis : x y z
#
# Youngs Moduli (GPa) = 89.62571 85.07175 89.78228
#
# Poissons Ratio (x) = 0.23130 0.26675
# Poissons Ratio (y) = 0.24368 0.33376
# Poissons Ratio (z) = 0.26629 0.31625
#
# Static dielectric constant tensor:
#      x y z
#    x 1.663130 0.000000 0.000000 
#    y 0.000000 1.669750 0.000000 
#    z 0.000000 0.000000 1.606430 
# 
# From -- ./inp_files/25575.got.cif
#   From: 2010.05.17/outbox.cif.g08.bks.cpg/sg59_13_cif.got.tgz:25575.got - 2010.06.03 14:40:33.
