data_PCOD9450556
_publ_section_title
;
Structure prediction by ZEFSAII (Michael W. Deem and Ramdas Pophale) SiO2 
 PCOD9450556
Probable space group: P M M N
;
_chemical_formula_sum "Si O2"
_cell_formula_units_Z 64
_cell_length_a 14.652965
_cell_length_b 7.915221
_cell_length_c 26.882451
_cell_angle_alpha 90.000000
_cell_angle_beta 90.000000
_cell_angle_gamma 90.000000
_cell_volume 3117.865815
_symmetry_space_group_name_H-M "P M M N"
_symmetry_group_IT_number 59
_space_group.IT_coordinate_system_code '2'
_symmetry_cell_setting 'orthorhombic'
loop_
_space_group_symop_operation_xyz
x,y,z
1/2-x,1/2-y,z
1/2+x,-y,-z
-x,1/2+y,-z
-x,-y,-z
1/2+x,1/2+y,-z
1/2-x,y,z
x,1/2-y,z
loop_
_atom_site_type_symbol
_atom_site_label
_atom_site_fract_x
_atom_site_fract_y
_atom_site_fract_z
Si Si1 0.852417 0.949885 0.974583
Si Si2 0.650789 0.947243 0.740101
Si Si3 0.961101 0.449868 0.070032
Si Si4 0.986480 0.548884 0.443070
Si Si5 0.149162 0.952995 0.373563
Si Si6 0.646813 0.452487 0.360558
Si Si7 0.047228 0.546251 0.738110
Si Si8 0.852206 0.548039 0.164411
O O1 0.750000 0.021318 0.968705
O O2 0.845806 0.750000 0.964361
O O3 0.936612 0.016935 0.941099
O O4 0.889983 0.971862 0.030679
O O5 0.750000 0.021647 0.754827
O O6 0.652722 0.750000 0.754836
O O7 0.552495 0.020819 0.754875
O O8 0.646009 0.960478 0.680121
O O9 0.962333 0.250000 0.059817
O O10 0.924867 0.479616 0.125064
O O11 0.988083 0.750000 0.440615
O O12 0.896430 0.489924 0.414143
O O13 0.000000 0.500000 0.500000
O O14 0.070949 0.484160 0.409884
O O15 0.250000 0.981357 0.395072
O O16 0.139390 0.750000 0.365598
O O17 0.750000 0.517782 0.355656
O O18 0.650210 0.250000 0.355041
O O19 0.581877 0.516890 0.315729
O O20 0.038780 0.750000 0.734755
O O21 0.119996 0.503354 0.780140
O O22 0.750000 0.486196 0.152590
O O23 0.852396 0.750000 0.160908
#
# Coordination Sequence:
#
# PCOD9450556 Si02
#       8
#     8   8   8   8   8   8   8   8
#     4   9  18  34  56  82 114 151 189 231 282 336
#     4   9  17  31  55  84 108 131 164 209 259 313
#     4  10  20  34  55  83 113 148 191 236 281 331
#     4  11  23  37  55  79 109 142 179 220 267 324
#     4   9  18  33  53  76 101 131 166 207 257 310
#     4  10  21  38  59  82 110 143 179 223 275 328
#     4  10  20  36  59  84 111 143 182 224 271 328
#     4  11  24  39  55  78 110 148 189 234 282 328
#
# _framework density 20.526861
#
# number of rings (size 3 to 8) (size 9 to 14) (size 15 to 20)
#    0.000    2.125    1.250    1.875    0.000    6.000 
#    0.000    1.875    0.000    3.750    0.000    0.000 
#    0.000    0.000    0.000    0.000    0.000    0.000 
#
# Total GULP energy -357025.744543 kJ/mol
# GULP energy per Si atom -5578.527258 kJ/mol
# Density = 2.048014 g / cm^3
# Si number density = 20.526861 Si / 1000 Ang^3
#
#
#
# Elastic Constant Matrix: (Units=GPa)
#
#
# Indices 1 2 3 4 5 6 
#
# 1 141.6529 10.4120 23.5096 0.0000 0.0000 0.0000
# 2 10.4120 19.8580 -9.4085 0.0000 0.0000 0.0000
# 3 23.5096 -9.4085 65.0992 0.0000 0.0000 0.0000
# 4 0.0000 0.0000 0.0000 22.2487 0.0000 0.0000
# 5 0.0000 0.0000 0.0000 0.0000 19.9446 0.0000
# 6 0.0000 0.0000 0.0000 0.0000 0.0000 17.5457
#
#
#
# Elastic Compliance Matrix: (Units=1/GPa)
#
#
# Indices 1 2 3 4 5 6 
#
# 1 0.008140 -0.006077 -0.003818 0.000000 0.000000 0.000000
# 2 -0.006077 0.058596 0.010663 0.000000 0.000000 0.000000
# 3 -0.003818 0.010663 0.018281 0.000000 0.000000 0.000000
# 4 0.000000 0.000000 0.000000 0.044947 0.000000 0.000000
# 5 0.000000 0.000000 0.000000 0.000000 0.050139 0.000000
# 6 0.000000 0.000000 0.000000 0.000000 0.000000 0.056994
#
#
# Mechanical properties :
#
#
# Convention : Reuss Voigt Hill
#
# Bulk Modulus (GPa) = 11.55355 30.62627 21.08991
# Shear Modulus (GPa) = 18.91004 25.42093 22.16549
#
# Velocity S-wave (km/s) = 3.03848 3.52294 3.28964
# Velocity P-wave (km/s) = 4.23680 5.61254 4.97248
#
# Compressibility (1/GPa) = 0.08655347
#
# Stress axis : x y z
#
# Youngs Moduli (GPa) = 122.85321 17.06614 54.70160
#
# Poissons Ratio (x) = 0.10371 0.20884
# Poissons Ratio (y) = 0.74654 -0.58329
# Poissons Ratio (z) = 0.46903 -0.18198
#
# Static dielectric constant tensor:
#      x y z
#    x 1.817070 0.000000 0.000000 
#    y 0.000000 1.762530 0.000000 
#    z 0.000000 0.000000 1.702760 
# 
# From -- ./inp_files/31583.got.cif
#   From: 2010.05.17/outbox.cif.g08.bks.cpg/sg59_16_cif.got.tgz:31583.got - 2010.06.03 14:40:33.
