data_PCOD9450198
_publ_section_title
;
Structure prediction by ZEFSAII (Michael W. Deem and Ramdas Pophale) SiO2 
 PCOD9450198
Probable space group: P M M N
;
_chemical_formula_sum "Si O2"
_cell_formula_units_Z 48
_cell_length_a 7.522334
_cell_length_b 9.551040
_cell_length_c 32.249297
_cell_angle_alpha 90.000000
_cell_angle_beta 90.000000
_cell_angle_gamma 90.000000
_cell_volume 2316.986634
_symmetry_space_group_name_H-M "P M M N"
_symmetry_group_IT_number 59
_space_group.IT_coordinate_system_code '2'
_symmetry_cell_setting 'orthorhombic'
loop_
_space_group_symop_operation_xyz
x,y,z
1/2-x,1/2-y,z
1/2+x,-y,-z
-x,1/2+y,-z
-x,-y,-z
1/2+x,1/2+y,-z
1/2-x,y,z
x,1/2-y,z
loop_
_atom_site_type_symbol
_atom_site_label
_atom_site_fract_x
_atom_site_fract_y
_atom_site_fract_z
Si Si1 0.033241 0.587057 0.868959
Si Si2 0.037256 0.908576 0.959922
Si Si3 0.032176 0.411555 0.379766
Si Si4 0.037713 0.589780 0.301469
Si Si5 0.536957 0.089952 0.540962
Si Si6 0.036438 0.409344 0.791240
O O1 0.250000 0.581630 0.868093
O O2 0.983939 0.750000 0.865399
O O3 0.975327 0.537062 0.914812
O O4 0.968795 0.499639 0.829708
O O5 0.250000 0.900362 0.956733
O O6 0.969479 0.750000 0.965319
O O7 0.000000 0.000000 0.000000
O O8 0.250000 0.410241 0.379981
O O9 0.975370 0.250000 0.382513
O O10 0.972863 0.488036 0.337612
O O11 0.972992 0.504141 0.418936
O O12 0.250000 0.598503 0.306463
O O13 0.968027 0.750000 0.304824
O O14 0.003375 0.536875 0.254914
O O15 0.750000 0.099259 0.544982
O O16 0.469152 0.250000 0.538561
O O17 0.500000 0.000000 0.500000
O O18 0.250000 0.404468 0.794650
O O19 0.968859 0.250000 0.793401
#
# Coordination Sequence:
#
# PCOD9450198 Si02
#       6
#     8   8   8   8   8   8
#     4   8  15  29  47  65  88 119 152 185 224 273
#     4   9  18  32  49  70  95 123 157 196 237 283
#     4   9  17  30  49  71  94 123 160 197 232 277
#     4   9  17  30  47  66  90 120 152 187 229 275
#     4  10  20  34  53  76 101 130 164 201 242 288
#     4   9  17  29  46  68  91 116 150 189 227 271
#
# _framework density 20.716563000000001
#
# number of rings (size 3 to 8) (size 9 to 14) (size 15 to 20)
#    0.000    3.000    0.000    2.000    0.000    4.667 
#    0.000    3.333    0.000    6.000    0.000    0.000 
#    0.000    0.000    0.000    0.000    0.000    0.000 
#
# Total GULP energy -267773.095495 kJ/mol
# GULP energy per Si atom -5578.606156 kJ/mol
# Density = 2.066941 g / cm^3
# Si number density = 20.716563 Si / 1000 Ang^3
#
#
#
# Elastic Constant Matrix: (Units=GPa)
#
#
# Indices 1 2 3 4 5 6 
#
# 1 51.2623 5.2810 1.3827 0.0000 0.0000 0.0000
# 2 5.2810 139.6291 135.7433 0.0000 0.0000 0.0000
# 3 1.3827 135.7433 255.0043 0.0000 0.0000 0.0000
# 4 0.0000 0.0000 0.0000 42.5807 0.0000 0.0000
# 5 0.0000 0.0000 0.0000 0.0000 23.1058 0.0000
# 6 0.0000 0.0000 0.0000 0.0000 0.0000 8.7126
#
#
#
# Elastic Compliance Matrix: (Units=1/GPa)
#
#
# Indices 1 2 3 4 5 6 
#
# 1 0.019628 -0.001324 0.000598 0.000000 0.000000 0.000000
# 2 -0.001324 0.014933 -0.007942 0.000000 0.000000 0.000000
# 3 0.000598 -0.007942 0.008146 0.000000 0.000000 0.000000
# 4 0.000000 0.000000 0.000000 0.023485 0.000000 0.000000
# 5 0.000000 0.000000 0.000000 0.000000 0.043279 0.000000
# 6 0.000000 0.000000 0.000000 0.000000 0.000000 0.114776
#
#
# Mechanical properties :
#
#
# Convention : Reuss Voigt Hill
#
# Bulk Modulus (GPa) = 39.41459 81.18999 60.30229
# Shear Modulus (GPa) = 19.99697 35.11241 27.55469
#
# Velocity S-wave (km/s) = 3.11024 4.12138 3.65098
# Velocity P-wave (km/s) = 5.65377 7.86916 6.85159
#
# Compressibility (1/GPa) = 0.02537132
#
# Stress axis : x y z
#
# Youngs Moduli (GPa) = 50.94822 66.96755 122.76312
#
# Poissons Ratio (x) = 0.08867 -0.07347
# Poissons Ratio (y) = 0.06746 0.97495
# Poissons Ratio (z) = -0.03049 0.53184
#
# Static dielectric constant tensor:
#      x y z
#    x 1.801330 0.000000 0.000000 
#    y 0.000000 1.717990 0.000000 
#    z 0.000000 0.000000 1.727350 
# 
# From -- ./inp_files/31218.got.cif
#   From: 2010.05.17/outbox.cif.g08.bks.cpg/sg59_16_cif.got.tgz:31218.got - 2010.06.03 14:40:33.
