data_PCOD9450859
_publ_section_title
;
Structure prediction by ZEFSAII (Michael W. Deem and Ramdas Pophale) SiO2 
 PCOD9450859
Probable space group: P M M N
;
_chemical_formula_sum "Si O2"
_cell_formula_units_Z 40
_cell_length_a 7.397179
_cell_length_b 22.988432
_cell_length_c 9.985182
_cell_angle_alpha 90.000000
_cell_angle_beta 90.000000
_cell_angle_gamma 90.000000
_cell_volume 1697.975670
_symmetry_space_group_name_H-M "P M M N"
_symmetry_group_IT_number 59
_space_group.IT_coordinate_system_code '2'
_symmetry_cell_setting 'orthorhombic'
loop_
_space_group_symop_operation_xyz
x,y,z
1/2-x,1/2-y,z
1/2+x,-y,-z
-x,1/2+y,-z
-x,-y,-z
1/2+x,1/2+y,-z
1/2-x,y,z
x,1/2-y,z
loop_
_atom_site_type_symbol
_atom_site_label
_atom_site_fract_x
_atom_site_fract_y
_atom_site_fract_z
Si Si1 0.541133 0.548787 0.665635
Si Si2 0.039768 0.937375 0.184704
Si Si3 0.970524 0.377577 0.079031
Si Si4 0.968900 0.869693 0.436450
Si Si5 0.031002 0.250000 0.424636
Si Si6 0.459447 0.750000 0.890782
O O1 0.750000 0.534960 0.635150
O O2 0.457608 0.492191 0.736240
O O3 0.533331 0.598448 0.778712
O O4 0.464181 0.577534 0.531666
O O5 0.250000 0.951898 0.161609
O O6 0.027282 0.883306 0.286103
O O7 0.965847 0.919269 0.040739
O O8 0.750000 0.377534 0.080413
O O9 0.034956 0.311462 0.060450
O O10 0.750000 0.870000 0.439941
O O11 0.027708 0.808379 0.498522
O O12 0.250000 0.250000 0.421230
O O13 0.968828 0.250000 0.271025
O O14 0.250000 0.750000 0.931315
#
# Coordination Sequence:
#
# PCOD9450859 Si02
#       6
#     8   8   8   8   4   4
#     4  10  20  36  58  82 109 146 187 225 270 324
#     4  10  22  37  54  82 116 146 181 224 273 327
#     4  10  21  36  55  81 111 143 182 228 273 324
#     4  10  21  36  56  81 109 143 183 227 273 322
#     4  10  20  37  58  80 108 140 182 231 272 320
#     4  10  20  35  56  80 106 140 182 223 272 328
#
# _framework density 23.557464
#
# number of rings (size 3 to 8) (size 9 to 14) (size 15 to 20)
#    0.000    2.000    2.000    1.200    0.000    4.000 
#    0.000    1.000    0.000    0.000    0.000    0.000 
#    0.000    0.000    0.000    0.000    0.000    0.000 
#
# Total GULP energy -223632.454424 kJ/mol
# GULP energy per Si atom -5590.811361 kJ/mol
# Density = 2.350385 g / cm^3
# Si number density = 23.557464 Si / 1000 Ang^3
#
#
#
# Elastic Constant Matrix: (Units=GPa)
#
#
# Indices 1 2 3 4 5 6 
#
# 1 86.9358 2.8180 -10.5359 0.0000 0.0000 0.0000
# 2 2.8180 86.1059 -16.1875 0.0000 0.0000 0.0000
# 3 -10.5359 -16.1875 65.7939 0.0000 0.0000 0.0000
# 4 0.0000 0.0000 0.0000 22.3911 0.0000 0.0000
# 5 0.0000 0.0000 0.0000 0.0000 8.2328 0.0000
# 6 0.0000 0.0000 0.0000 0.0000 0.0000 -2.2762
#
#
#
# Elastic Compliance Matrix: (Units=1/GPa)
#
#
# Indices 1 2 3 4 5 6 
#
# 1 0.011730 -0.000032 0.001871 0.000000 0.000000 0.000000
# 2 -0.000032 0.012177 0.002991 0.000000 0.000000 0.000000
# 3 0.001871 0.002991 0.016234 0.000000 0.000000 0.000000
# 4 0.000000 0.000000 0.000000 0.044661 0.000000 0.000000
# 5 0.000000 0.000000 0.000000 0.000000 0.121466 0.000000
# 6 0.000000 0.000000 0.000000 0.000000 0.000000 -0.439330
#
#
# Mechanical properties :
#
#
# Convention : Reuss Voigt Hill
#
# Bulk Modulus (GPa) = 20.08039 21.22496 20.65268
# Shear Modulus (GPa) = -22.11217 23.18560 0.53671
#
# Velocity S-wave (km/s) = -3.06706 3.14062 0.47783
# Velocity P-wave (km/s) = 1.99999 4.70965 3.01503
#
# Compressibility (1/GPa) = 0.04979984
#
# Stress axis : x y z
#
# Youngs Moduli (GPa) = 85.24799 82.12257 61.59776
#
# Poissons Ratio (x) = 0.00265 -0.11522
# Poissons Ratio (y) = 0.00275 -0.18422
# Poissons Ratio (z) = -0.15946 -0.24561
#
# Static dielectric constant tensor:
#      x y z
#    x 1.868740 0.000000 0.000000 
#    y 0.000000 1.911970 0.000000 
#    z 0.000000 0.000000 1.813970 
# 
# From -- ./inp_files/5960.got.cif
#   From: 2010.05.17/outbox.cif.g08.bks.cpg/sg59_3_cif.got.tgz:5960.got - 2010.06.03 14:40:33.
