data_PCOD9450467
_publ_section_title
;
Structure prediction by ZEFSAII (Michael W. Deem and Ramdas Pophale) SiO2 
 PCOD9450467
Probable space group: P M M N
;
_chemical_formula_sum "Si O2"
_cell_formula_units_Z 64
_cell_length_a 8.680411
_cell_length_b 15.002123
_cell_length_c 25.139270
_cell_angle_alpha 90.000000
_cell_angle_beta 90.000000
_cell_angle_gamma 90.000000
_cell_volume 3273.751217
_symmetry_space_group_name_H-M "P M M N"
_symmetry_group_IT_number 59
_space_group.IT_coordinate_system_code '2'
_symmetry_cell_setting 'orthorhombic'
loop_
_space_group_symop_operation_xyz
x,y,z
1/2-x,1/2-y,z
1/2+x,-y,-z
-x,1/2+y,-z
-x,-y,-z
1/2+x,1/2+y,-z
1/2-x,y,z
x,1/2-y,z
loop_
_atom_site_type_symbol
_atom_site_label
_atom_site_fract_x
_atom_site_fract_y
_atom_site_fract_z
Si Si1 0.568805 0.653381 0.916201
Si Si2 0.934298 0.649152 0.134194
Si Si3 0.433103 0.852566 0.523671
Si Si4 0.565656 0.850811 0.405069
Si Si5 0.931546 0.406671 0.979721
Si Si6 0.437806 0.352696 0.276603
Si Si7 0.564025 0.975195 0.821949
Si Si8 0.065367 0.035144 0.380155
O O1 0.750000 0.639857 0.929427
O O2 0.557462 0.750000 0.888974
O O3 0.519269 0.576686 0.875982
O O4 0.473112 0.653957 0.970027
O O5 0.750000 0.645216 0.134148
O O6 0.983024 0.750000 0.147393
O O7 0.992879 0.626098 0.074782
O O8 0.998851 0.574188 0.173677
O O9 0.250000 0.865085 0.517363
O O10 0.460513 0.750000 0.541787
O O11 0.512442 0.861731 0.466352
O O12 0.498299 0.921491 0.566235
O O13 0.750000 0.855987 0.402301
O O14 0.518530 0.750000 0.388569
O O15 0.493218 0.933995 0.374148
O O16 0.750000 0.413865 0.971257
O O17 0.000000 0.500000 0.000000
O O18 0.250000 0.350341 0.275225
O O19 0.490654 0.250000 0.273574
O O20 0.487338 0.414797 0.227474
O O21 0.482311 0.401768 0.331137
O O22 0.750000 0.979087 0.821040
O O23 0.250000 0.034596 0.383283
#
# Coordination Sequence:
#
# PCOD9450467 Si02
#       8
#     8   8   8   8   8   8   8   8
#     4  10  20  34  55  84 115 146 180 222 277 335
#     4  11  24  41  60  83 115 153 190 232 283 337
#     4  10  20  34  54  82 117 154 193 237 285 342
#     4  10  21  37  56  79 111 152 196 240 287 340
#     4  12  23  36  56  83 116 152 188 229 277 332
#     4   9  19  37  61  89 117 146 184 230 282 339
#     4  10  20  37  62  86 110 145 188 234 279 329
#     4  11  21  34  56  84 116 153 192 237 287 341
#
# _framework density 19.549437999999999
#
# number of rings (size 3 to 8) (size 9 to 14) (size 15 to 20)
#    0.000    1.625    1.250    4.125    0.000    6.250 
#    0.000    1.875    0.000    6.375    0.000    0.000 
#    0.000    0.000    0.000    0.000    0.000    0.000 
#
# Total GULP energy -357513.639868 kJ/mol
# GULP energy per Si atom -5586.150623 kJ/mol
# Density = 1.950494 g / cm^3
# Si number density = 19.549438 Si / 1000 Ang^3
#
#
#
# Elastic Constant Matrix: (Units=GPa)
#
#
# Indices 1 2 3 4 5 6 
#
# 1 34.5581 31.1574 9.6438 0.0000 0.0000 0.0000
# 2 31.1574 179.0760 51.5549 0.0000 0.0000 0.0000
# 3 9.6438 51.5549 55.2621 0.0000 0.0000 0.0000
# 4 0.0000 0.0000 0.0000 31.1116 0.0000 0.0000
# 5 0.0000 0.0000 0.0000 0.0000 16.0888 0.0000
# 6 0.0000 0.0000 0.0000 0.0000 0.0000 30.8495
#
#
#
# Elastic Compliance Matrix: (Units=1/GPa)
#
#
# Indices 1 2 3 4 5 6 
#
# 1 0.034334 -0.005809 -0.000572 0.000000 0.000000 0.000000
# 2 -0.005809 0.008618 -0.007026 0.000000 0.000000 0.000000
# 3 -0.000572 -0.007026 0.024750 0.000000 0.000000 0.000000
# 4 0.000000 0.000000 0.000000 0.032142 0.000000 0.000000
# 5 0.000000 0.000000 0.000000 0.000000 0.062155 0.000000
# 6 0.000000 0.000000 0.000000 0.000000 0.000000 0.032415
#
#
# Mechanical properties :
#
#
# Convention : Reuss Voigt Hill
#
# Bulk Modulus (GPa) = 24.45752 50.40095 37.42924
# Shear Modulus (GPa) = 21.28952 27.37933 24.33443
#
# Velocity S-wave (km/s) = 3.30359 3.74641 3.53195
# Velocity P-wave (km/s) = 5.20475 6.67468 5.98501
#
# Compressibility (1/GPa) = 0.04088721
#
# Stress axis : x y z
#
# Youngs Moduli (GPa) = 29.12576 116.04155 40.40419
#
# Poissons Ratio (x) = 0.67408 0.02312
# Poissons Ratio (y) = 0.16919 0.28387
# Poissons Ratio (z) = 0.01667 0.81528
#
# Static dielectric constant tensor:
#      x y z
#    x 1.661890 0.000000 0.000000 
#    y 0.000000 1.758210 0.000000 
#    z 0.000000 0.000000 1.666100 
# 
# From -- ./inp_files/31396.got.cif
#   From: 2010.05.17/outbox.cif.g08.bks.cpg/sg59_16_cif.got.tgz:31396.got - 2010.06.03 14:40:33.
