data_PCOD9450714
_publ_section_title
;
Structure prediction by ZEFSAII (Michael W. Deem and Ramdas Pophale) SiO2 
 PCOD9450714
Probable space group: P M M N
;
_chemical_formula_sum "Si O2"
_cell_formula_units_Z 48
_cell_length_a 7.951800
_cell_length_b 30.693609
_cell_length_c 10.491178
_cell_angle_alpha 90.000000
_cell_angle_beta 90.000000
_cell_angle_gamma 90.000000
_cell_volume 2560.575940
_symmetry_space_group_name_H-M "P M M N"
_symmetry_group_IT_number 59
_space_group.IT_coordinate_system_code '2'
_symmetry_cell_setting 'orthorhombic'
loop_
_space_group_symop_operation_xyz
x,y,z
1/2-x,1/2-y,z
1/2+x,-y,-z
-x,1/2+y,-z
-x,-y,-z
1/2+x,1/2+y,-z
1/2-x,y,z
x,1/2-y,z
loop_
_atom_site_type_symbol
_atom_site_label
_atom_site_fract_x
_atom_site_fract_y
_atom_site_fract_z
Si Si1 0.450738 0.467407 0.388134
Si Si2 0.543866 0.631900 0.606566
Si Si3 0.044639 0.299719 0.604043
Si Si4 0.946394 0.035931 0.102161
Si Si5 0.955590 0.700049 0.106175
Si Si6 0.051277 0.365554 0.107746
O O1 0.500000 0.500000 0.500000
O O2 0.250000 0.466674 0.377966
O O3 0.507435 0.417996 0.418685
O O4 0.517452 0.478852 0.247377
O O5 0.750000 0.632641 0.606891
O O6 0.486249 0.665647 0.499943
O O7 0.484941 0.643063 0.749656
O O8 0.250000 0.300370 0.603072
O O9 0.994151 0.250000 0.574810
O O10 0.991642 0.310038 0.748815
O O11 0.750000 0.043480 0.088837
O O12 0.031547 0.083003 0.082123
O O13 0.000000 0.000000 0.000000
O O14 0.750000 0.699024 0.106866
O O15 0.003705 0.750000 0.076557
O O16 0.018139 0.665431 0.002759
O O17 0.250000 0.356479 0.113330
#
# Coordination Sequence:
#
# PCOD9450714 Si02
#       6
#     8   8   8   8   8   8
#     4  10  20  35  53  76 105 136 172 211 255 307
#     4   8  15  26  40  61  91 125 158 196 240 286
#     4   8  13  22  37  61  93 124 154 191 237 287
#     4  11  22  37  55  75 101 133 171 216 266 318
#     4   8  14  24  40  65  97 130 163 201 245 294
#     4   9  17  30  47  69  98 128 162 205 251 301
#
# _framework density 18.745782999999999
#
# number of rings (size 3 to 8) (size 9 to 14) (size 15 to 20)
#    0.000    3.000    0.000    4.000    0.000    2.000 
#    0.000    6.667    0.000    0.500    0.000    0.000 
#    0.000    8.667    0.000    0.000    0.000    0.000 
#
# Total GULP energy -267572.192569 kJ/mol
# GULP energy per Si atom -5574.420679 kJ/mol
# Density = 1.870312 g / cm^3
# Si number density = 18.745783 Si / 1000 Ang^3
#
#
#
# Elastic Constant Matrix: (Units=GPa)
#
#
# Indices 1 2 3 4 5 6 
#
# 1 11.9279 -8.1431 -3.5040 0.0000 0.0000 0.0000
# 2 -8.1431 122.6192 133.7764 0.0000 0.0000 0.0000
# 3 -3.5040 133.7764 175.9372 0.0000 0.0000 0.0000
# 4 0.0000 0.0000 0.0000 46.5101 0.0000 0.0000
# 5 0.0000 0.0000 0.0000 0.0000 12.9802 0.0000
# 6 0.0000 0.0000 0.0000 0.0000 0.0000 11.7582
#
#
#
# Elastic Compliance Matrix: (Units=1/GPa)
#
#
# Indices 1 2 3 4 5 6 
#
# 1 0.095952 0.025153 -0.017214 0.000000 0.000000 0.000000
# 2 0.025153 0.054440 -0.040893 0.000000 0.000000 0.000000
# 3 -0.017214 -0.040893 0.036435 0.000000 0.000000 0.000000
# 4 0.000000 0.000000 0.000000 0.021501 0.000000 0.000000
# 5 0.000000 0.000000 0.000000 0.000000 0.077040 0.000000
# 6 0.000000 0.000000 0.000000 0.000000 0.000000 0.085047
#
#
# Mechanical properties :
#
#
# Convention : Reuss Voigt Hill
#
# Bulk Modulus (GPa) = 8.27016 61.63811 34.95413
# Shear Modulus (GPa) = 10.49036 26.80671 18.64853
#
# Velocity S-wave (km/s) = 2.36818 3.78565 3.15749
# Velocity P-wave (km/s) = 3.44949 7.21531 5.65507
#
# Compressibility (1/GPa) = 0.12091666
#
# Stress axis : x y z
#
# Youngs Moduli (GPa) = 10.42192 18.36900 27.44646
#
# Poissons Ratio (x) = -0.46203 0.47247
# Poissons Ratio (y) = -0.26214 1.12237
# Poissons Ratio (z) = 0.17940 0.75116
#
# Static dielectric constant tensor:
#      x y z
#    x 1.702270 0.000000 0.000000 
#    y 0.000000 1.658580 0.000000 
#    z 0.000000 0.000000 1.653430 
# 
# From -- ./inp_files/14500.got.cif
#   From: 2010.05.17/outbox.cif.g08.bks.cpg/sg59_8_cif.got.tgz:14500.got - 2010.06.03 14:40:33.
