data_PCOD9450157
_publ_section_title
;
Structure prediction by ZEFSAII (Michael W. Deem and Ramdas Pophale) SiO2 
 PCOD9450157
Probable space group: P M M N
;
_chemical_formula_sum "Si O2"
_cell_formula_units_Z 58
_cell_length_a 8.165239
_cell_length_b 15.343210
_cell_length_c 25.773596
_cell_angle_alpha 90.000000
_cell_angle_beta 90.000000
_cell_angle_gamma 90.000000
_cell_volume 3228.941279
_symmetry_space_group_name_H-M "P M M N"
_symmetry_group_IT_number 59
_space_group.IT_coordinate_system_code '2'
_symmetry_cell_setting 'orthorhombic'
loop_
_space_group_symop_operation_xyz
x,y,z
1/2-x,1/2-y,z
1/2+x,-y,-z
-x,1/2+y,-z
-x,-y,-z
1/2+x,1/2+y,-z
1/2-x,y,z
x,1/2-y,z
loop_
_atom_site_type_symbol
_atom_site_label
_atom_site_fract_x
_atom_site_fract_y
_atom_site_fract_z
Si Si1 0.940357 0.127648 0.960718
Si Si2 0.443551 0.348073 0.579508
Si Si3 0.939598 0.443214 0.069049
Si Si4 0.559417 0.523632 0.623930
Si Si5 0.945216 0.349743 0.285057
Si Si6 0.442840 0.849349 0.536867
Si Si7 0.444688 0.350476 0.170707
Si Si8 0.250000 0.250000 0.935404
O O1 0.750000 0.155779 0.950815
O O2 0.098678 0.176198 0.937190
O O3 0.968395 0.126733 0.023133
O O4 0.952001 0.027439 0.942616
O O5 0.250000 0.348023 0.569084
O O6 0.489122 0.250000 0.597700
O O7 0.481781 0.428231 0.617044
O O8 0.531137 0.363280 0.524300
O O9 0.750000 0.468234 0.064195
O O10 0.973500 0.405487 0.125540
O O11 0.750000 0.511379 0.632573
O O12 0.490397 0.583517 0.669816
O O13 0.530587 0.578686 0.571288
O O14 0.750000 0.346449 0.280984
O O15 0.003756 0.250000 0.296115
O O16 0.015256 0.378021 0.229408
O O17 0.250000 0.854092 0.548851
O O18 0.499196 0.750000 0.548506
O O19 0.250000 0.353210 0.163192
O O20 0.500582 0.250000 0.166611
#
# Coordination Sequence:
#
# PCOD9450157 Si02
#       8
#     8   8   8   8   8   8   8   2
#     4  10  22  36  55  82 116 153 194 236 282 336
#     4  10  21  37  55  76 102 133 175 222 264 311
#     4  10  20  36  54  80 116 152 188 232 279 330
#     4  12  23  34  53  77 106 142 176 214 265 323
#     4  10  21  38  56  79 110 141 178 222 266 322
#     4  10  20  34  52  76 107 141 175 213 259 313
#     4  10  21  34  55  83 114 147 183 224 271 326
#     4  12  22  36  56  82 114 156 194 240 280 338
#
# _framework density 17.962544999999999
#
# number of rings (size 3 to 8) (size 9 to 14) (size 15 to 20)
#    0.000    1.655    0.690    4.345    2.897    4.966 
#    0.000    0.000    0.000    0.000    1.793    0.000 
#    0.000    0.000    0.000    0.000    0.000    0.000 
#
# Total GULP energy -323127.972796 kJ/mol
# GULP energy per Si atom -5571.171945 kJ/mol
# Density = 1.792166 g / cm^3
# Si number density = 17.962545 Si / 1000 Ang^3
#
#
#
# Elastic Constant Matrix: (Units=GPa)
#
#
# Indices 1 2 3 4 5 6 
#
# 1 72.2792 8.4558 -5.1676 0.0000 0.0000 0.0000
# 2 8.4558 72.9086 33.2354 0.0000 0.0000 0.0000
# 3 -5.1676 33.2354 59.3936 0.0000 0.0000 0.0000
# 4 0.0000 0.0000 0.0000 25.1456 0.0000 0.0000
# 5 0.0000 0.0000 0.0000 0.0000 26.9124 0.0000
# 6 0.0000 0.0000 0.0000 0.0000 0.0000 29.4985
#
#
#
# Elastic Compliance Matrix: (Units=1/GPa)
#
#
# Indices 1 2 3 4 5 6 
#
# 1 0.014397 -0.003008 0.002936 0.000000 0.000000 0.000000
# 2 -0.003008 0.019041 -0.010917 0.000000 0.000000 0.000000
# 3 0.002936 -0.010917 0.023201 0.000000 0.000000 0.000000
# 4 0.000000 0.000000 0.000000 0.039768 0.000000 0.000000
# 5 0.000000 0.000000 0.000000 0.000000 0.037158 0.000000
# 6 0.000000 0.000000 0.000000 0.000000 0.000000 0.033900
#
#
# Mechanical properties :
#
#
# Convention : Reuss Voigt Hill
#
# Bulk Modulus (GPa) = 28.85058 30.84763 29.84911
# Shear Modulus (GPa) = 24.87603 27.51515 26.19559
#
# Velocity S-wave (km/s) = 3.72544 3.91808 3.82297
# Velocity P-wave (km/s) = 5.88231 6.13832 6.01168
#
# Compressibility (1/GPa) = 0.03466135
#
# Stress axis : x y z
#
# Youngs Moduli (GPa) = 69.45872 52.51811 43.10156
#
# Poissons Ratio (x) = 0.15798 -0.12654
# Poissons Ratio (y) = 0.20894 0.47053
# Poissons Ratio (z) = -0.20392 0.57332
#
# Static dielectric constant tensor:
#      x y z
#    x 1.634130 0.000000 0.000000 
#    y 0.000000 1.673690 0.000000 
#    z 0.000000 0.000000 1.603560 
# 
# From -- ./inp_files/31335.got.cif
#   From: 2010.05.17/outbox.cif.g08.bks.cpg/sg59_16_cif.got.tgz:31335.got - 2010.06.03 14:40:33.
