data_PCOD9450843
_publ_section_title
;
Structure prediction by ZEFSAII (Michael W. Deem and Ramdas Pophale) SiO2 
 PCOD9450843
Probable space group: P M M N
;
_chemical_formula_sum "Si O2"
_cell_formula_units_Z 56
_cell_length_a 18.507621
_cell_length_b 19.447541
_cell_length_c 8.031765
_cell_angle_alpha 90.000000
_cell_angle_beta 90.000000
_cell_angle_gamma 90.000000
_cell_volume 2890.854850
_symmetry_space_group_name_H-M "P M M N"
_symmetry_group_IT_number 59
_space_group.IT_coordinate_system_code '2'
_symmetry_cell_setting 'orthorhombic'
loop_
_space_group_symop_operation_xyz
x,y,z
1/2-x,1/2-y,z
1/2+x,-y,-z
-x,1/2+y,-z
-x,-y,-z
1/2+x,1/2+y,-z
1/2-x,y,z
x,1/2-y,z
loop_
_atom_site_type_symbol
_atom_site_label
_atom_site_fract_x
_atom_site_fract_y
_atom_site_fract_z
Si Si1 0.167091 0.016959 0.353717
Si Si2 0.670905 0.357112 0.694905
Si Si3 0.027797 0.887021 0.743823
Si Si4 0.570473 0.548824 0.967653
Si Si5 0.330632 0.832499 0.911625
Si Si6 0.572191 0.959152 0.327231
Si Si7 0.013560 0.824150 0.403782
O O1 0.250000 0.041835 0.344617
O O2 0.123499 0.029169 0.182304
O O3 0.124205 0.045522 0.513723
O O4 0.169330 0.934723 0.370557
O O5 0.750000 0.327783 0.652662
O O6 0.599276 0.323117 0.626344
O O7 0.665224 0.355380 0.895669
O O8 0.106813 0.868081 0.808250
O O9 0.003387 0.836541 0.599512
O O10 0.971401 0.885031 0.895882
O O11 0.033449 0.965503 0.670110
O O12 0.500000 0.500000 0.000000
O O13 0.609285 0.546934 0.145412
O O14 0.250000 0.849337 0.849798
O O15 0.339387 0.750000 0.907332
O O16 0.518251 0.893840 0.324456
O O17 0.983474 0.750000 0.349531
#
# Coordination Sequence:
#
# PCOD9450843 Si02
#       7
#     8   8   8   8   8   8   8
#     4  11  22  39  63  96 126 156 207 262 310 373
#     4  10  20  35  55  83 124 169 206 245 293 360
#     4  11  20  36  60  84 120 163 214 257 308 355
#     4  10  21  35  62  92 121 161 202 259 308 357
#     4  10  21  36  53  83 130 174 211 250 297 365
#     4  11  22  40  64  87 124 161 205 263 317 357
#     4  12  23  36  59  88 121 163 207 256 314 379
#
# _framework density 19.371433
#
# number of rings (size 3 to 8) (size 9 to 14) (size 15 to 20)
#    0.000    1.286    2.857    5.571    0.000    2.571 
#    0.000    0.714    0.000    0.429    0.000    0.000 
#    0.000    0.000    0.000    0.000    0.000    0.000 
#
# Total GULP energy -312307.201476 kJ/mol
# GULP energy per Si atom -5576.914312 kJ/mol
# Density = 1.932734 g / cm^3
# Si number density = 19.371433 Si / 1000 Ang^3
#
#
#
# Elastic Constant Matrix: (Units=GPa)
#
#
# Indices 1 2 3 4 5 6 
#
# 1 90.2033 29.7629 37.2580 0.0000 0.0000 0.0000
# 2 29.7629 83.0048 7.6663 0.0000 0.0000 0.0000
# 3 37.2580 7.6663 104.7379 0.0000 0.0000 0.0000
# 4 0.0000 0.0000 0.0000 -88.8396 0.0000 0.0000
# 5 0.0000 0.0000 0.0000 0.0000 16.7707 0.0000
# 6 0.0000 0.0000 0.0000 0.0000 0.0000 23.8935
#
#
#
# Elastic Compliance Matrix: (Units=1/GPa)
#
#
# Indices 1 2 3 4 5 6 
#
# 1 0.014688 -0.004817 -0.004872 0.000000 0.000000 0.000000
# 2 -0.004817 0.013709 0.000710 0.000000 0.000000 0.000000
# 3 -0.004872 0.000710 0.011229 0.000000 0.000000 0.000000
# 4 0.000000 0.000000 0.000000 -0.011256 0.000000 0.000000
# 5 0.000000 0.000000 0.000000 0.000000 0.059628 0.000000
# 6 0.000000 0.000000 0.000000 0.000000 0.000000 0.041852
#
#
# Mechanical properties :
#
#
# Convention : Reuss Voigt Hill
#
# Bulk Modulus (GPa) = 46.15131 47.48003 46.81567
# Shear Modulus (GPa) = 32.25179 3.91549 18.08364
#
# Velocity S-wave (km/s) = 4.08476 1.42326 3.05867
# Velocity P-wave (km/s) = 6.79141 5.22153 6.05754
#
# Compressibility (1/GPa) = 0.02166786
#
# Stress axis : x y z
#
# Youngs Moduli (GPa) = 68.08383 72.94479 89.05619
#
# Poissons Ratio (x) = 0.35134 0.43391
# Poissons Ratio (y) = 0.32793 -0.06322
# Poissons Ratio (z) = 0.33172 -0.05179
#
# Static dielectric constant tensor:
#      x y z
#    x 1.690220 0.000000 0.000000 
#    y 0.000000 1.662750 0.000000 
#    z 0.000000 0.000000 1.756220 
# 
# From -- ./inp_files/10595.got.cif
#   From: 2010.05.17/outbox.cif.g08.bks.cpg/sg59_6_cif.got.tgz:10595.got - 2010.06.03 14:40:33.
