data_PCOD9450665
_publ_section_title
;
Structure prediction by ZEFSAII (Michael W. Deem and Ramdas Pophale) SiO2 
 PCOD9450665
Probable space group: P M M N
;
_chemical_formula_sum "Si O2"
_cell_formula_units_Z 64
_cell_length_a 18.598932
_cell_length_b 16.344122
_cell_length_c 11.614011
_cell_angle_alpha 90.000000
_cell_angle_beta 90.000000
_cell_angle_gamma 90.000000
_cell_volume 3530.464387
_symmetry_space_group_name_H-M "P M M N"
_symmetry_group_IT_number 59
_space_group.IT_coordinate_system_code '2'
_symmetry_cell_setting 'orthorhombic'
loop_
_space_group_symop_operation_xyz
x,y,z
1/2-x,1/2-y,z
1/2+x,-y,-z
-x,1/2+y,-z
-x,-y,-z
1/2+x,1/2+y,-z
1/2-x,y,z
x,1/2-y,z
loop_
_atom_site_type_symbol
_atom_site_label
_atom_site_fract_x
_atom_site_fract_y
_atom_site_fract_z
Si Si1 0.072946 0.486238 0.151760
Si Si2 0.833369 0.448118 0.639809
Si Si3 0.093062 0.490507 0.886036
Si Si4 0.168012 0.123887 0.479676
Si Si5 0.834146 0.155313 0.207883
Si Si6 0.663559 0.843292 0.254775
Si Si7 0.542775 0.659173 0.687213
Si Si8 0.594362 0.155189 0.447364
O O1 0.124170 0.532564 0.242457
O O2 0.062620 0.396118 0.205075
O O3 0.991579 0.519580 0.142393
O O4 0.103327 0.485121 0.023254
O O5 0.750000 0.425010 0.660365
O O6 0.832616 0.529608 0.560387
O O7 0.877180 0.384755 0.562648
O O8 0.120858 0.580455 0.846294
O O9 0.132964 0.416327 0.822297
O O10 0.250000 0.153481 0.466553
O O11 0.146278 0.137467 0.611574
O O12 0.111514 0.163932 0.394567
O O13 0.750000 0.144248 0.181562
O O14 0.853974 0.250000 0.175741
O O15 0.847086 0.149255 0.345393
O O16 0.750000 0.844591 0.245443
O O17 0.639483 0.750000 0.227189
O O18 0.519707 0.750000 0.723062
O O19 0.478425 0.620339 0.610892
O O20 0.579149 0.250000 0.470496
#
# Coordination Sequence:
#
# PCOD9450665 Si02
#       8
#     8   8   8   8   8   8   8   8
#     4  10  24  39  57  81 111 154 198 235 279 342
#     4  10  21  37  56  81 113 149 185 232 288 345
#     4  11  22  40  59  82 114 154 200 243 285 328
#     4   9  19  34  55  84 116 150 186 225 282 352
#     4  10  20  36  62  91 115 146 191 243 297 348
#     4  10  21  36  57  86 117 149 187 234 284 335
#     4  10  20  35  58  85 116 150 185 235 291 342
#     4  10  20  34  57  88 116 144 183 234 292 354
#
# _framework density 18.127927
#
# number of rings (size 3 to 8) (size 9 to 14) (size 15 to 20)
#    0.000    2.000    1.250    1.875    1.750    5.000 
#    0.000    2.500    0.000    0.000    0.000    0.000 
#    0.000    0.000    0.000    0.000    0.000    0.000 
#
# Total GULP energy -356855.735152 kJ/mol
# GULP energy per Si atom -5575.870862 kJ/mol
# Density = 1.808667 g / cm^3
# Si number density = 18.127927 Si / 1000 Ang^3
#
#
#
# Elastic Constant Matrix: (Units=GPa)
#
#
# Indices 1 2 3 4 5 6 
#
# 1 56.0052 24.7391 36.0383 0.0000 0.0000 0.0000
# 2 24.7391 78.2430 63.5823 0.0000 0.0000 0.0000
# 3 36.0383 63.5823 120.4221 0.0000 0.0000 0.0000
# 4 0.0000 0.0000 0.0000 -1.2846 0.0000 0.0000
# 5 0.0000 0.0000 0.0000 0.0000 27.6568 0.0000
# 6 0.0000 0.0000 0.0000 0.0000 0.0000 6.5100
#
#
#
# Elastic Compliance Matrix: (Units=1/GPa)
#
#
# Indices 1 2 3 4 5 6 
#
# 1 0.022477 -0.002874 -0.005209 0.000000 0.000000 0.000000
# 2 -0.002874 0.022753 -0.011153 0.000000 0.000000 0.000000
# 3 -0.005209 -0.011153 0.015752 0.000000 0.000000 0.000000
# 4 0.000000 0.000000 0.000000 -0.778441 0.000000 0.000000
# 5 0.000000 0.000000 0.000000 0.000000 0.036157 0.000000
# 6 0.000000 0.000000 0.000000 0.000000 0.000000 0.153609
#
#
# Mechanical properties :
#
#
# Convention : Reuss Voigt Hill
#
# Bulk Modulus (GPa) = 44.42638 55.93218 50.17928
# Shear Modulus (GPa) = -10.37955 15.26381 2.44213
#
# Velocity S-wave (km/s) = -2.39544 2.90488 1.16193
# Velocity P-wave (km/s) = 4.11211 6.49402 5.43515
#
# Compressibility (1/GPa) = 0.02250915
#
# Stress axis : x y z
#
# Youngs Moduli (GPa) = 44.49002 43.95056 63.48372
#
# Poissons Ratio (x) = 0.12629 0.33071
# Poissons Ratio (y) = 0.12784 0.70806
# Poissons Ratio (z) = 0.23177 0.49020
#
# Static dielectric constant tensor:
#      x y z
#    x 1.639390 0.000000 0.000000 
#    y 0.000000 1.701690 0.000000 
#    z 0.000000 0.000000 1.583290 
# 
# From -- ./inp_files/17847.got.cif
#   From: 2010.05.17/outbox.cif.g08.bks.cpg/sg59_9_cif.got.tgz:17847.got - 2010.06.03 14:40:33.
