data_PCOD9450905
_publ_section_title
;
Structure prediction by ZEFSAII (Michael W. Deem and Ramdas Pophale) SiO2 
 PCOD9450905
Probable space group: P M M N
;
_chemical_formula_sum "Si O2"
_cell_formula_units_Z 48
_cell_length_a 27.804946
_cell_length_b 11.971944
_cell_length_c 7.556925
_cell_angle_alpha 90.000000
_cell_angle_beta 90.000000
_cell_angle_gamma 90.000000
_cell_volume 2515.543575
_symmetry_space_group_name_H-M "P M M N"
_symmetry_group_IT_number 59
_space_group.IT_coordinate_system_code '2'
_symmetry_cell_setting 'orthorhombic'
loop_
_space_group_symop_operation_xyz
x,y,z
1/2-x,1/2-y,z
1/2+x,-y,-z
-x,1/2+y,-z
-x,-y,-z
1/2+x,1/2+y,-z
1/2-x,y,z
x,1/2-y,z
loop_
_atom_site_type_symbol
_atom_site_label
_atom_site_fract_x
_atom_site_fract_y
_atom_site_fract_z
Si Si1 0.030531 0.882376 0.969187
Si Si2 0.451332 0.948822 0.577415
Si Si3 0.388293 0.625784 0.256692
Si Si4 0.193983 0.048953 0.353885
Si Si5 0.301753 0.121208 0.963794
Si Si6 0.130071 0.121250 0.674935
O O1 0.014255 0.750000 0.012633
O O2 0.039648 0.883807 0.759146
O O3 0.078333 0.901411 0.087456
O O4 0.000000 0.000000 0.000000
O O5 0.424347 0.881461 0.423818
O O6 0.500000 0.000000 0.500000
O O7 0.415801 0.050489 0.623150
O O8 0.370076 0.750000 0.230947
O O9 0.342668 0.549845 0.302704
O O10 0.250000 0.019365 0.386828
O O11 0.170446 0.109019 0.522190
O O12 0.192855 0.120144 0.173706
O O13 0.250000 0.067503 0.922228
O O14 0.299741 0.250000 0.905299
O O15 0.345705 0.073422 0.853407
O O16 0.116217 0.250000 0.696218
#
# Coordination Sequence:
#
# PCOD9450905 Si02
#       6
#     8   8   8   8   8   8
#     4  11  23  41  64  91 122 163 206 259 315 373
#     4  11  22  39  59  83 118 156 202 245 308 363
#     4  10  22  40  59  83 117 154 198 248 303 361
#     4  10  20  35  56  82 113 149 194 241 294 357
#     4   9  17  31  52  78 110 144 178 226 289 350
#     4  10  21  34  54  83 115 150 193 242 299 364
#
# _framework density 19.081363
#
# number of rings (size 3 to 8) (size 9 to 14) (size 15 to 20)
#    0.000    1.833    1.667    2.500    0.000    4.000 
#    0.000    0.833    0.000    0.000    0.000    4.667 
#    0.000    0.000    0.000    0.000    0.000    0.000 
#
# Total GULP energy -267246.351955 kJ/mol
# GULP energy per Si atom -5567.632332 kJ/mol
# Density = 1.903793 g / cm^3
# Si number density = 19.081363 Si / 1000 Ang^3
#
#
#
# Elastic Constant Matrix: (Units=GPa)
#
#
# Indices 1 2 3 4 5 6 
#
# 1 94.2282 37.3892 18.5863 0.0000 0.0000 0.0000
# 2 37.3892 88.4046 5.5000 0.0000 0.0000 0.0000
# 3 18.5863 5.5000 82.8894 0.0000 0.0000 0.0000
# 4 0.0000 0.0000 0.0000 56.7099 0.0000 0.0000
# 5 0.0000 0.0000 0.0000 0.0000 29.0836 0.0000
# 6 0.0000 0.0000 0.0000 0.0000 0.0000 8.0337
#
#
#
# Elastic Compliance Matrix: (Units=1/GPa)
#
#
# Indices 1 2 3 4 5 6 
#
# 1 0.013296 -0.005460 -0.002619 0.000000 0.000000 0.000000
# 2 -0.005460 0.013601 0.000322 0.000000 0.000000 0.000000
# 3 -0.002619 0.000322 0.012630 0.000000 0.000000 0.000000
# 4 0.000000 0.000000 0.000000 0.017634 0.000000 0.000000
# 5 0.000000 0.000000 0.000000 0.000000 0.034384 0.000000
# 6 0.000000 0.000000 0.000000 0.000000 0.000000 0.124475
#
#
# Mechanical properties :
#
#
# Convention : Reuss Voigt Hill
#
# Bulk Modulus (GPa) = 41.64571 43.16370 42.40470
# Shear Modulus (GPa) = 20.87353 32.36856 26.62105
#
# Velocity S-wave (km/s) = 3.31104 4.12314 3.73920
# Velocity P-wave (km/s) = 6.04070 6.73328 6.39637
#
# Compressibility (1/GPa) = 0.02401208
#
# Stress axis : x y z
#
# Youngs Moduli (GPa) = 75.21220 73.52442 79.17553
#
# Poissons Ratio (x) = 0.40146 0.20736
# Poissons Ratio (y) = 0.41068 -0.02549
# Poissons Ratio (z) = 0.19698 -0.02367
#
# Static dielectric constant tensor:
#      x y z
#    x 1.677390 0.000000 0.000000 
#    y 0.000000 1.681400 0.000000 
#    z 0.000000 0.000000 1.672210 
# 
# From -- ./inp_files/12514.got.cif
#   From: 2010.05.17/outbox.cif.g08.bks.cpg/sg59_7_cif.got.tgz:12514.got - 2010.06.03 14:40:33.
