data_PCOD9450590
_publ_section_title
;
Structure prediction by ZEFSAII (Michael W. Deem and Ramdas Pophale) SiO2 
 PCOD9450590
Probable space group: P M M N
;
_chemical_formula_sum "Si O2"
_cell_formula_units_Z 64
_cell_length_a 9.030642
_cell_length_b 14.189834
_cell_length_c 26.339120
_cell_angle_alpha 90.000000
_cell_angle_beta 90.000000
_cell_angle_gamma 90.000000
_cell_volume 3375.182043
_symmetry_space_group_name_H-M "P M M N"
_symmetry_group_IT_number 59
_space_group.IT_coordinate_system_code '2'
_symmetry_cell_setting 'orthorhombic'
loop_
_space_group_symop_operation_xyz
x,y,z
1/2-x,1/2-y,z
1/2+x,-y,-z
-x,1/2+y,-z
-x,-y,-z
1/2+x,1/2+y,-z
1/2-x,y,z
x,1/2-y,z
loop_
_atom_site_type_symbol
_atom_site_label
_atom_site_fract_x
_atom_site_fract_y
_atom_site_fract_z
Si Si1 0.427052 0.964087 0.878773
Si Si2 0.081100 0.635227 0.474147
Si Si3 0.922021 0.862970 0.974076
Si Si4 0.572821 0.970306 0.680525
Si Si5 0.573861 0.638494 0.577328
Si Si6 0.074106 0.139039 0.631685
Si Si7 0.427708 0.639857 0.773270
Si Si8 0.926570 0.360227 0.917805
O O1 0.250000 0.967809 0.884861
O O2 0.499834 0.911338 0.926578
O O3 0.461483 0.907808 0.827365
O O4 0.495206 0.068633 0.879291
O O5 0.250000 0.602292 0.469016
O O6 0.082474 0.750000 0.476307
O O7 0.009148 0.603769 0.526972
O O8 0.989738 0.612096 0.423743
O O9 0.750000 0.892274 0.978152
O O10 0.925898 0.750000 0.967013
O O11 0.007325 0.882836 0.026478
O O12 0.750000 0.974958 0.683590
O O13 0.532566 0.913717 0.629011
O O14 0.507739 0.915748 0.728429
O O15 0.504003 0.073403 0.672884
O O16 0.750000 0.628312 0.569451
O O17 0.543116 0.750000 0.583423
O O18 0.250000 0.125241 0.632372
O O19 0.043243 0.250000 0.639378
O O20 0.250000 0.634462 0.765967
O O21 0.469833 0.750000 0.773377
O O22 0.750000 0.373590 0.917960
O O23 0.957587 0.250000 0.907603
#
# Coordination Sequence:
#
# PCOD9450590 Si02
#       8
#     8   8   8   8   8   8   8   8
#     4  11  22  37  59  85 115 152 194 238 284 336
#     4   9  17  30  51  80 111 143 181 225 272 324
#     4  10  20  34  55  85 120 157 196 237 283 337
#     4  11  23  38  59  85 111 143 185 234 285 333
#     4   9  18  33  52  77 111 147 181 219 270 333
#     4  10  21  38  59  81 109 146 185 227 277 334
#     4  10  23  43  64  86 114 148 186 229 278 333
#     4  10  21  37  57  83 118 157 195 237 284 334
#
# _framework density 18.961940999999999
#
# number of rings (size 3 to 8) (size 9 to 14) (size 15 to 20)
#    0.000    2.000    0.000    3.375    0.000    7.500 
#    0.000    1.875    0.000    0.750    0.000    0.000 
#    0.000    0.000    0.000    0.000    0.000    0.000 
#
# Total GULP energy -357740.608427 kJ/mol
# GULP energy per Si atom -5589.697007 kJ/mol
# Density = 1.891878 g / cm^3
# Si number density = 18.961941 Si / 1000 Ang^3
#
#
#
# Elastic Constant Matrix: (Units=GPa)
#
#
# Indices 1 2 3 4 5 6 
#
# 1 80.9601 63.1184 63.0727 0.0000 0.0000 0.0000
# 2 63.1184 110.9007 78.2179 0.0000 0.0000 0.0000
# 3 63.0727 78.2179 99.7866 0.0000 0.0000 0.0000
# 4 0.0000 0.0000 0.0000 35.0164 0.0000 0.0000
# 5 0.0000 0.0000 0.0000 0.0000 34.4733 0.0000
# 6 0.0000 0.0000 0.0000 0.0000 0.0000 28.4076
#
#
#
# Elastic Compliance Matrix: (Units=1/GPa)
#
#
# Indices 1 2 3 4 5 6 
#
# 1 0.026795 -0.007391 -0.011143 0.000000 0.000000 0.000000
# 2 -0.007391 0.022204 -0.012733 0.000000 0.000000 0.000000
# 3 -0.011143 -0.012733 0.027045 0.000000 0.000000 0.000000
# 4 0.000000 0.000000 0.000000 0.028558 0.000000 0.000000
# 5 0.000000 0.000000 0.000000 0.000000 0.029008 0.000000
# 6 0.000000 0.000000 0.000000 0.000000 0.000000 0.035202
#
#
# Mechanical properties :
#
#
# Convention : Reuss Voigt Hill
#
# Bulk Modulus (GPa) = 74.01706 77.82948 75.92327
# Shear Modulus (GPa) = 21.19983 25.39534 23.29759
#
# Velocity S-wave (km/s) = 3.34731 3.66359 3.50901
# Velocity P-wave (km/s) = 7.35245 7.68310 7.51959
#
# Compressibility (1/GPa) = 0.01351040
#
# Stress axis : x y z
#
# Youngs Moduli (GPa) = 37.32028 45.03613 36.97473
#
# Poissons Ratio (x) = 0.33287 0.41201
# Poissons Ratio (y) = 0.27584 0.47081
# Poissons Ratio (z) = 0.41586 0.57345
#
# Static dielectric constant tensor:
#      x y z
#    x 1.635440 0.000000 0.000000 
#    y 0.000000 1.697820 0.000000 
#    z 0.000000 0.000000 1.612020 
# 
# From -- ./inp_files/31560.got.cif
#   From: 2010.05.17/outbox.cif.g08.bks.cpg/sg59_16_cif.got.tgz:31560.got - 2010.06.03 14:40:33.
