data_PCOD9450323
_publ_section_title
;
Structure prediction by ZEFSAII (Michael W. Deem and Ramdas Pophale) SiO2 
 PCOD9450323
Probable space group: P M M N
;
_chemical_formula_sum "Si O2"
_cell_formula_units_Z 40
_cell_length_a 8.919508
_cell_length_b 15.266243
_cell_length_c 14.734600
_cell_angle_alpha 90.000000
_cell_angle_beta 90.000000
_cell_angle_gamma 90.000000
_cell_volume 2006.371827
_symmetry_space_group_name_H-M "P M M N"
_symmetry_group_IT_number 59
_space_group.IT_coordinate_system_code '2'
_symmetry_cell_setting 'orthorhombic'
loop_
_space_group_symop_operation_xyz
x,y,z
1/2-x,1/2-y,z
1/2+x,-y,-z
-x,1/2+y,-z
-x,-y,-z
1/2+x,1/2+y,-z
1/2-x,y,z
x,1/2-y,z
loop_
_atom_site_type_symbol
_atom_site_label
_atom_site_fract_x
_atom_site_fract_y
_atom_site_fract_z
Si Si1 0.067809 0.852410 0.246209
Si Si2 0.930053 0.083883 0.552623
Si Si3 0.415672 0.349281 0.391371
Si Si4 0.924173 0.355409 0.213481
Si Si5 0.928740 0.497100 0.900875
O O1 0.250000 0.850435 0.244309
O O2 0.018212 0.750000 0.241441
O O3 0.028478 0.897266 0.343083
O O4 0.019466 0.915612 0.163346
O O5 0.750000 0.085466 0.545153
O O6 0.007185 0.154579 0.488353
O O7 0.000000 0.000000 0.500000
O O8 0.250000 0.392217 0.392093
O O9 0.394352 0.250000 0.362011
O O10 0.525709 0.384996 0.314567
O O11 0.750000 0.376184 0.199068
O O12 0.939613 0.250000 0.201699
O O13 0.025864 0.412474 0.147688
O O14 0.750000 0.490438 0.908161
O O15 0.000000 0.500000 0.000000
#
# Coordination Sequence:
#
# PCOD9450323 Si02
#       5
#     8   8   8   8   8
#     4   9  20  39  61  85 116 159 208 252 298 359
#     4  11  21  34  56  84 116 155 200 247 294 351
#     4  10  20  34  53  80 115 151 186 228 282 346
#     4  10  21  38  61  88 118 155 200 250 305 367
#     4  11  23  40  63  89 118 153 197 254 317 379
#
# _framework density 19.936485000000001
#
# number of rings (size 3 to 8) (size 9 to 14) (size 15 to 20)
#    0.000    1.800    0.000    4.200    0.000    5.600 
#    0.000    5.000    0.000    6.600    0.000    0.000 
#    0.000    0.000    0.000    0.000    0.000    0.000 
#
# Total GULP energy -222887.028215 kJ/mol
# GULP energy per Si atom -5572.175705 kJ/mol
# Density = 1.989111 g / cm^3
# Si number density = 19.936485 Si / 1000 Ang^3
#
#
#
# Elastic Constant Matrix: (Units=GPa)
#
#
# Indices 1 2 3 4 5 6 
#
# 1 66.0292 25.2342 37.4521 0.0000 0.0000 0.0000
# 2 25.2342 95.5249 43.9947 0.0000 0.0000 0.0000
# 3 37.4521 43.9947 160.3607 0.0000 0.0000 0.0000
# 4 0.0000 0.0000 0.0000 18.4453 0.0000 0.0000
# 5 0.0000 0.0000 0.0000 0.0000 31.6286 0.0000
# 6 0.0000 0.0000 0.0000 0.0000 0.0000 25.3861
#
#
#
# Elastic Compliance Matrix: (Units=1/GPa)
#
#
# Indices 1 2 3 4 5 6 
#
# 1 0.018315 -0.003283 -0.003377 0.000000 0.000000 0.000000
# 2 -0.003283 0.012571 -0.002682 0.000000 0.000000 0.000000
# 3 -0.003377 -0.002682 0.007760 0.000000 0.000000 0.000000
# 4 0.000000 0.000000 0.000000 0.054214 0.000000 0.000000
# 5 0.000000 0.000000 0.000000 0.000000 0.031617 0.000000
# 6 0.000000 0.000000 0.000000 0.000000 0.000000 0.039392
#
#
# Mechanical properties :
#
#
# Convention : Reuss Voigt Hill
#
# Bulk Modulus (GPa) = 50.09360 59.47519 54.78439
# Shear Modulus (GPa) = 26.42610 29.44091 27.93351
#
# Velocity S-wave (km/s) = 3.64471 3.84700 3.74722
# Velocity P-wave (km/s) = 6.54928 7.04483 6.80157
#
# Compressibility (1/GPa) = 0.01996263
#
# Stress axis : x y z
#
# Youngs Moduli (GPa) = 54.60087 79.54837 128.85925
#
# Poissons Ratio (x) = 0.26115 0.43512
# Poissons Ratio (y) = 0.17925 0.34561
# Poissons Ratio (z) = 0.18437 0.21336
#
# Static dielectric constant tensor:
#      x y z
#    x 1.809100 0.000000 0.000000 
#    y 0.000000 2.612160 0.000000 
#    z 0.000000 0.000000 1.711410 
# 
# From -- ./inp_files/17458.got.cif
#   From: 2010.05.17/outbox.cif.g08.bks.cpg/sg59_9_cif.got.tgz:17458.got - 2010.06.03 14:40:33.
