data_PCOD9450790
_publ_section_title
;
Structure prediction by ZEFSAII (Michael W. Deem and Ramdas Pophale) SiO2 
 PCOD9450790
Probable space group: P M M N
;
_chemical_formula_sum "Si O2"
_cell_formula_units_Z 64
_cell_length_a 8.721122
_cell_length_b 28.114749
_cell_length_c 14.339120
_cell_angle_alpha 90.000000
_cell_angle_beta 90.000000
_cell_angle_gamma 90.000000
_cell_volume 3515.839748
_symmetry_space_group_name_H-M "P M M N"
_symmetry_group_IT_number 59
_space_group.IT_coordinate_system_code '2'
_symmetry_cell_setting 'orthorhombic'
loop_
_space_group_symop_operation_xyz
x,y,z
1/2-x,1/2-y,z
1/2+x,-y,-z
-x,1/2+y,-z
-x,-y,-z
1/2+x,1/2+y,-z
1/2-x,y,z
x,1/2-y,z
loop_
_atom_site_type_symbol
_atom_site_label
_atom_site_fract_x
_atom_site_fract_y
_atom_site_fract_z
Si Si1 0.565615 0.304773 0.557025
Si Si2 0.434227 0.027496 0.218176
Si Si3 0.934179 0.607365 0.927423
Si Si4 0.067398 0.804457 0.835785
Si Si5 0.934882 0.389821 0.690965
Si Si6 0.924526 0.692226 0.639251
Si Si7 0.566198 0.985558 0.400030
Si Si8 0.065501 0.067828 0.870839
O O1 0.750000 0.304439 0.549848
O O2 0.515479 0.250000 0.573007
O O3 0.523302 0.341199 0.638405
O O4 0.499789 0.322307 0.458100
O O5 0.250000 0.026613 0.228639
O O6 0.480010 0.073415 0.158484
O O7 0.511548 0.021864 0.319051
O O8 0.487477 0.981652 0.158663
O O9 0.750000 0.610364 0.926680
O O10 0.002180 0.659167 0.910648
O O11 0.978998 0.584110 0.025739
O O12 0.250000 0.804494 0.838227
O O13 0.013211 0.750000 0.849320
O O14 0.012932 0.820798 0.733069
O O15 0.750000 0.393317 0.697124
O O16 0.997856 0.434680 0.632093
O O17 0.008512 0.395044 0.792863
O O18 0.750000 0.675292 0.645212
O O19 0.924540 0.750000 0.637124
O O20 0.250000 0.016663 0.597881
O O21 0.500000 0.000000 0.500000
O O22 0.250000 0.062803 0.865836
#
# Coordination Sequence:
#
# PCOD9450790 Si02
#       8
#     8   8   8   8   8   8   8   8
#     4   9  18  33  53  77 105 138 178 220 258 303
#     4  10  20  36  57  82 109 137 174 217 261 311
#     4  10  22  37  56  81 107 138 176 218 264 315
#     4  10  21  36  54  77 106 140 177 217 261 310
#     4  10  20  35  55  78 106 142 178 215 264 313
#     4   9  17  30  50  74 101 134 169 209 259 309
#     4  11  22  37  56  79 109 143 177 213 259 315
#     4  10  20  36  56  79 107 138 173 215 267 317
#
# _framework density 18.203333000000001
#
# number of rings (size 3 to 8) (size 9 to 14) (size 15 to 20)
#    0.000    2.125    0.000    4.875    0.000    6.250 
#    0.000    0.625    0.000    2.250    0.000    0.000 
#    0.000    0.000    0.000    0.000    0.000    0.000 
#
# Total GULP energy -357258.518810 kJ/mol
# GULP energy per Si atom -5582.164356 kJ/mol
# Density = 1.816190 g / cm^3
# Si number density = 18.203333 Si / 1000 Ang^3
#
#
#
# Elastic Constant Matrix: (Units=GPa)
#
#
# Indices 1 2 3 4 5 6 
#
# 1 44.7834 20.6280 30.1900 0.0000 0.0000 0.0000
# 2 20.6280 61.7363 55.0463 0.0000 0.0000 0.0000
# 3 30.1900 55.0463 115.3238 0.0000 0.0000 0.0000
# 4 0.0000 0.0000 0.0000 24.7088 0.0000 0.0000
# 5 0.0000 0.0000 0.0000 0.0000 33.0365 0.0000
# 6 0.0000 0.0000 0.0000 0.0000 0.0000 21.3247
#
#
#
# Elastic Compliance Matrix: (Units=1/GPa)
#
#
# Indices 1 2 3 4 5 6 
#
# 1 0.027941 -0.004899 -0.004976 0.000000 0.000000 0.000000
# 2 -0.004899 0.029058 -0.012588 0.000000 0.000000 0.000000
# 3 -0.004976 -0.012588 0.015982 0.000000 0.000000 0.000000
# 4 0.000000 0.000000 0.000000 0.040471 0.000000 0.000000
# 5 0.000000 0.000000 0.000000 0.000000 0.030270 0.000000
# 6 0.000000 0.000000 0.000000 0.000000 0.000000 0.046894
#
#
# Mechanical properties :
#
#
# Convention : Reuss Voigt Hill
#
# Bulk Modulus (GPa) = 35.64306 48.17467 41.90887
# Shear Modulus (GPa) = 20.41700 23.54595 21.98147
#
# Velocity S-wave (km/s) = 3.35267 3.60042 3.47876
# Velocity P-wave (km/s) = 5.88305 6.61863 6.26165
#
# Compressibility (1/GPa) = 0.02805595
#
# Stress axis : x y z
#
# Youngs Moduli (GPa) = 35.78989 34.41339 62.56952
#
# Poissons Ratio (x) = 0.16859 0.31135
# Poissons Ratio (y) = 0.17534 0.78760
# Poissons Ratio (z) = 0.17809 0.43318
#
# Static dielectric constant tensor:
#      x y z
#    x 1.613600 0.000000 0.000000 
#    y 0.000000 1.633030 0.000000 
#    z 0.000000 0.000000 1.610800 
# 
# From -- ./inp_files/14982.got.cif
#   From: 2010.05.17/outbox.cif.g08.bks.cpg/sg59_8_cif.got.tgz:14982.got - 2010.06.03 14:40:33.
