data_PCOD9450301
_publ_section_title
;
Structure prediction by ZEFSAII (Michael W. Deem and Ramdas Pophale) SiO2 
 PCOD9450301
Probable space group: P M M N
;
_chemical_formula_sum "Si O2"
_cell_formula_units_Z 64
_cell_length_a 7.558342
_cell_length_b 32.341568
_cell_length_c 12.135001
_cell_angle_alpha 90.000000
_cell_angle_beta 90.000000
_cell_angle_gamma 90.000000
_cell_volume 2966.384391
_symmetry_space_group_name_H-M "P M M N"
_symmetry_group_IT_number 59
_space_group.IT_coordinate_system_code '2'
_symmetry_cell_setting 'orthorhombic'
loop_
_space_group_symop_operation_xyz
x,y,z
1/2-x,1/2-y,z
1/2+x,-y,-z
-x,1/2+y,-z
-x,-y,-z
1/2+x,1/2+y,-z
1/2-x,y,z
x,1/2-y,z
loop_
_atom_site_type_symbol
_atom_site_label
_atom_site_fract_x
_atom_site_fract_y
_atom_site_fract_z
Si Si1 0.536918 0.874175 0.861387
Si Si2 0.456172 0.044142 0.755021
Si Si3 0.959695 0.704588 0.726584
Si Si4 0.041800 0.295356 0.755756
Si Si5 0.461868 0.826439 0.484640
Si Si6 0.538661 0.045073 0.281367
Si Si7 0.967534 0.624008 0.114666
Si Si8 0.964849 0.422316 0.516036
O O1 0.750000 0.871680 0.862903
O O2 0.467887 0.834092 0.795630
O O3 0.491763 0.915831 0.796381
O O4 0.477868 0.875142 0.987661
O O5 0.250000 0.041736 0.787119
O O6 0.530915 0.082385 0.824595
O O7 0.469209 0.056209 0.626607
O O8 0.533433 0.998143 0.765453
O O9 0.750000 0.706062 0.749092
O O10 0.033607 0.750000 0.752538
O O11 0.981473 0.695147 0.597326
O O12 0.250000 0.293680 0.782438
O O13 0.965809 0.250000 0.781191
O O14 0.970267 0.335018 0.821034
O O15 0.025430 0.304317 0.625823
O O16 0.250000 0.826358 0.482082
O O17 0.521479 0.874297 0.485115
O O18 0.750000 0.039892 0.292498
O O19 0.472690 0.055702 0.404203
O O20 0.750000 0.623999 0.119191
O O21 0.750000 0.422971 0.518036
#
# Coordination Sequence:
#
# PCOD9450301 Si02
#       8
#     8   8   8   8   8   8   8   8
#     4  10  21  37  57  78 105 142 181 224 268 312
#     4  10  20  35  58  81 107 143 178 218 269 322
#     4  10  21  36  55  80 107 138 179 221 262 314
#     4  10  20  35  57  82 109 143 180 220 267 321
#     4  11  21  34  55  81 111 144 174 214 270 324
#     4  10  21  37  55  80 111 142 177 219 268 323
#     4   9  19  36  55  79 107 137 180 226 266 311
#     4  10  20  34  53  79 111 140 174 220 266 319
#
# _framework density 21.575087
#
# number of rings (size 3 to 8) (size 9 to 14) (size 15 to 20)
#    0.000    2.000    2.500    1.125    0.000    4.500 
#    0.000    3.750    0.000    0.000    0.000    1.750 
#    0.000    0.000    0.000    0.000    0.000    0.000 
#
# Total GULP energy -357620.442966 kJ/mol
# GULP energy per Si atom -5587.819421 kJ/mol
# Density = 2.152598 g / cm^3
# Si number density = 21.575087 Si / 1000 Ang^3
#
#
#
# Elastic Constant Matrix: (Units=GPa)
#
#
# Indices 1 2 3 4 5 6 
#
# 1 47.7236 -2.0851 -20.2399 0.0000 0.0000 0.0000
# 2 -2.0851 224.0502 81.6847 0.0000 0.0000 0.0000
# 3 -20.2399 81.6847 130.9952 0.0000 0.0000 0.0000
# 4 0.0000 0.0000 0.0000 6.2720 0.0000 0.0000
# 5 0.0000 0.0000 0.0000 0.0000 -21.8528 0.0000
# 6 0.0000 0.0000 0.0000 0.0000 0.0000 10.3876
#
#
#
# Elastic Compliance Matrix: (Units=1/GPa)
#
#
# Indices 1 2 3 4 5 6 
#
# 1 0.022750 -0.001385 0.004379 0.000000 0.000000 0.000000
# 2 -0.001385 0.005861 -0.003869 0.000000 0.000000 0.000000
# 3 0.004379 -0.003869 0.010723 0.000000 0.000000 0.000000
# 4 0.000000 0.000000 0.000000 0.159440 0.000000 0.000000
# 5 0.000000 0.000000 0.000000 0.000000 -0.045761 0.000000
# 6 0.000000 0.000000 0.000000 0.000000 0.000000 0.096269
#
#
# Mechanical properties :
#
#
# Convention : Reuss Voigt Hill
#
# Bulk Modulus (GPa) = 26.60654 57.94315 42.27485
# Shear Modulus (GPa) = 18.97105 21.85530 20.41318
#
# Velocity S-wave (km/s) = 2.96852 3.18620 3.07929
# Velocity P-wave (km/s) = 4.91002 6.36008 5.68150
#
# Compressibility (1/GPa) = 0.03758475
#
# Stress axis : x y z
#
# Youngs Moduli (GPa) = 43.95512 170.62489 93.25999
#
# Poissons Ratio (x) = 0.23625 -0.40834
# Poissons Ratio (y) = 0.06086 0.36078
# Poissons Ratio (z) = -0.19246 0.66007
#
# Static dielectric constant tensor:
#      x y z
#    x 1.775600 0.000000 0.000000 
#    y 0.000000 1.800070 0.000000 
#    z 0.000000 0.000000 1.722050 
# 
# From -- ./inp_files/14910.got.cif
#   From: 2010.05.17/outbox.cif.g08.bks.cpg/sg59_8_cif.got.tgz:14910.got - 2010.06.03 14:40:33.
