data_PCOD9450137
_publ_section_title
;
Structure prediction by ZEFSAII (Michael W. Deem and Ramdas Pophale) SiO2 
 PCOD9450137
Probable space group: P M M N
;
_chemical_formula_sum "Si O2"
_cell_formula_units_Z 56
_cell_length_a 8.967415
_cell_length_b 24.592972
_cell_length_c 13.871528
_cell_angle_alpha 90.000000
_cell_angle_beta 90.000000
_cell_angle_gamma 90.000000
_cell_volume 3059.162782
_symmetry_space_group_name_H-M "P M M N"
_symmetry_group_IT_number 59
_space_group.IT_coordinate_system_code '2'
_symmetry_cell_setting 'orthorhombic'
loop_
_space_group_symop_operation_xyz
x,y,z
1/2-x,1/2-y,z
1/2+x,-y,-z
-x,1/2+y,-z
-x,-y,-z
1/2+x,1/2+y,-z
1/2-x,y,z
x,1/2-y,z
loop_
_atom_site_type_symbol
_atom_site_label
_atom_site_fract_x
_atom_site_fract_y
_atom_site_fract_z
Si Si1 0.071276 0.413724 0.843173
Si Si2 0.928112 0.187607 0.742258
Si Si3 0.572648 0.090878 0.045421
Si Si4 0.928990 0.686445 0.845332
Si Si5 0.072151 0.186795 0.533974
Si Si6 0.071094 0.120507 0.347837
Si Si7 0.428018 0.524844 0.759136
O O1 0.250000 0.411564 0.845813
O O2 0.026925 0.462118 0.769830
O O3 0.004477 0.356695 0.809633
O O4 0.009899 0.427106 0.949013
O O5 0.750000 0.182281 0.746452
O O6 0.967631 0.250000 0.768009
O O7 0.985865 0.178407 0.633413
O O8 0.750000 0.090982 0.030496
O O9 0.514180 0.150354 0.076355
O O10 0.538448 0.052816 0.137331
O O11 0.750000 0.680288 0.858354
O O12 0.965054 0.750000 0.849504
O O13 0.967202 0.661089 0.740650
O O14 0.250000 0.179127 0.550537
O O15 0.052015 0.250000 0.504098
O O16 0.022819 0.147081 0.448366
O O17 0.250000 0.116617 0.350041
O O18 0.004524 0.062053 0.321065
O O19 0.250000 0.527373 0.745643
#
# Coordination Sequence:
#
# PCOD9450137 Si02
#       7
#     8   8   8   8   8   8   8
#     4  11  22  37  57  77  99 133 175 214 256 305
#     4  10  22  39  57  79 105 132 168 214 260 306
#     4  10  20  34  52  75 104 136 171 213 259 304
#     4   9  17  30  48  73 106 140 173 209 250 300
#     4   9  17  32  55  81 108 138 172 210 253 302
#     4   9  17  30  52  80 107 137 172 209 251 301
#     4   9  20  36  53  77 107 136 169 211 255 303
#
# _framework density 18.305662000000002
#
# number of rings (size 3 to 8) (size 9 to 14) (size 15 to 20)
#    0.000    2.429    0.000    2.143    0.000    5.714 
#    0.000    0.714    0.000    2.571    0.000    0.000 
#    0.000    0.000    0.000    0.000    0.000    0.000 
#
# Total GULP energy -312507.445251 kJ/mol
# GULP energy per Si atom -5580.490094 kJ/mol
# Density = 1.826400 g / cm^3
# Si number density = 18.305662 Si / 1000 Ang^3
#
#
#
# Elastic Constant Matrix: (Units=GPa)
#
#
# Indices 1 2 3 4 5 6 
#
# 1 30.1283 27.7308 13.7737 0.0000 0.0000 0.0000
# 2 27.7308 71.7829 4.6955 0.0000 0.0000 0.0000
# 3 13.7737 4.6955 22.4083 0.0000 0.0000 0.0000
# 4 0.0000 0.0000 0.0000 22.6708 0.0000 0.0000
# 5 0.0000 0.0000 0.0000 0.0000 27.5577 0.0000
# 6 0.0000 0.0000 0.0000 0.0000 0.0000 27.9190
#
#
#
# Elastic Compliance Matrix: (Units=1/GPa)
#
#
# Indices 1 2 3 4 5 6 
#
# 1 0.077258 -0.027111 -0.041807 0.000000 0.000000 0.000000
# 2 -0.027111 0.023638 0.011711 0.000000 0.000000 0.000000
# 3 -0.041807 0.011711 0.067870 0.000000 0.000000 0.000000
# 4 0.000000 0.000000 0.000000 0.044110 0.000000 0.000000
# 5 0.000000 0.000000 0.000000 0.000000 0.036288 0.000000
# 6 0.000000 0.000000 0.000000 0.000000 0.000000 0.035818
#
#
# Mechanical properties :
#
#
# Convention : Reuss Voigt Hill
#
# Bulk Modulus (GPa) = 18.39862 24.07993 21.23928
# Shear Modulus (GPa) = 11.97564 20.83745 16.40654
#
# Velocity S-wave (km/s) = 2.56052 3.37754 2.99700
# Velocity P-wave (km/s) = 4.33754 5.32853 4.85837
#
# Compressibility (1/GPa) = 0.05435190
#
# Stress axis : x y z
#
# Youngs Moduli (GPa) = 12.94358 42.30419 14.73401
#
# Poissons Ratio (x) = 1.14692 0.61599
# Poissons Ratio (y) = 0.35092 -0.17255
# Poissons Ratio (z) = 0.54114 -0.49544
#
# Static dielectric constant tensor:
#      x y z
#    x 1.608970 0.000000 0.000000 
#    y 0.000000 1.633990 0.000000 
#    z 0.000000 0.000000 1.614160 
# 
# From -- ./inp_files/20919.got.cif
#   From: 2010.05.17/outbox.cif.g08.bks.cpg/sg59_11_cif.got.tgz:20919.got - 2010.06.03 14:40:33.
