data_PCOD9450890
_publ_section_title
;
Structure prediction by ZEFSAII (Michael W. Deem and Ramdas Pophale) SiO2 
 PCOD9450890
Probable space group: P M M N
;
_chemical_formula_sum "Si O2"
_cell_formula_units_Z 56
_cell_length_a 16.208837
_cell_length_b 7.434663
_cell_length_c 20.713031
_cell_angle_alpha 90.000000
_cell_angle_beta 90.000000
_cell_angle_gamma 90.000000
_cell_volume 2496.070213
_symmetry_space_group_name_H-M "P M M N"
_symmetry_group_IT_number 59
_space_group.IT_coordinate_system_code '2'
_symmetry_cell_setting 'orthorhombic'
loop_
_space_group_symop_operation_xyz
x,y,z
1/2-x,1/2-y,z
1/2+x,-y,-z
-x,1/2+y,-z
-x,-y,-z
1/2+x,1/2+y,-z
1/2-x,y,z
x,1/2-y,z
loop_
_atom_site_type_symbol
_atom_site_label
_atom_site_fract_x
_atom_site_fract_y
_atom_site_fract_z
Si Si1 0.662984 0.539618 0.624924
Si Si2 0.509184 0.034607 0.424188
Si Si3 0.655650 0.029643 0.329827
Si Si4 0.067781 0.544701 0.798010
Si Si5 0.068932 0.534369 0.944063
Si Si6 0.250000 0.968970 0.135936
Si Si7 0.886081 0.466207 0.765868
Si Si8 0.250000 0.530562 0.989261
O O1 0.750000 0.462214 0.600943
O O2 0.662401 0.750000 0.606469
O O3 0.576371 0.459215 0.603721
O O4 0.660234 0.524974 0.701792
O O5 0.509937 0.250000 0.414711
O O6 0.589478 0.970201 0.384403
O O7 0.500000 0.000000 0.500000
O O8 0.750000 0.976203 0.343061
O O9 0.653798 0.250000 0.328810
O O10 0.626530 0.967760 0.258153
O O11 0.096834 0.750000 0.807494
O O12 0.054847 0.467225 0.870324
O O13 0.977245 0.543485 0.767003
O O14 0.070032 0.750000 0.941410
O O15 0.161939 0.472383 0.960874
O O16 0.000000 0.500000 0.000000
O O17 0.250000 0.750000 0.136811
O O18 0.168178 0.025703 0.173465
O O19 0.250000 0.027370 0.063145
O O20 0.891927 0.250000 0.766492
O O21 0.250000 0.750000 0.986190
#
# Coordination Sequence:
#
# PCOD9450890 Si02
#       8
#     8   8   8   8   8   4   8   4
#     4  10  20  36  57  82 114 148 181 223 273 326
#     4  10  21  38  58  83 114 149 183 219 269 327
#     4   9  18  34  58  84 110 140 181 232 278 323
#     4  10  20  35  56  82 109 142 189 237 284 336
#     4  10  21  36  57  82 112 149 192 238 288 342
#     4   9  18  30  47  75 111 144 177 222 276 332
#     4  11  20  32  53  81 112 146 184 228 278 329
#     4   9  18  34  53  77 109 146 187 228 278 340
#
# _framework density 22.435267
#
# number of rings (size 3 to 8) (size 9 to 14) (size 15 to 20)
#    0.000    2.143    2.143    1.286    1.000    2.857 
#    0.000    0.357    0.000    3.857    0.000    0.000 
#    0.000    0.000    0.000    0.000    0.000    0.000 
#
# Total GULP energy -312393.000612 kJ/mol
# GULP energy per Si atom -5578.446439 kJ/mol
# Density = 2.238420 g / cm^3
# Si number density = 22.435267 Si / 1000 Ang^3
#
#
#
# Elastic Constant Matrix: (Units=GPa)
#
#
# Indices 1 2 3 4 5 6 
#
# 1 208.9546 7.8208 92.2427 0.0000 0.0000 0.0000
# 2 7.8208 73.8870 -4.6750 0.0000 0.0000 0.0000
# 3 92.2427 -4.6750 135.8810 0.0000 0.0000 0.0000
# 4 0.0000 0.0000 0.0000 15.6028 0.0000 0.0000
# 5 0.0000 0.0000 0.0000 0.0000 21.3752 0.0000
# 6 0.0000 0.0000 0.0000 0.0000 0.0000 -13.3928
#
#
#
# Elastic Compliance Matrix: (Units=1/GPa)
#
#
# Indices 1 2 3 4 5 6 
#
# 1 0.006911 -0.001031 -0.004727 0.000000 0.000000 0.000000
# 2 -0.001031 0.013717 0.001172 0.000000 0.000000 0.000000
# 3 -0.004727 0.001172 0.010609 0.000000 0.000000 0.000000
# 4 0.000000 0.000000 0.000000 0.064091 0.000000 0.000000
# 5 0.000000 0.000000 0.000000 0.000000 0.046783 0.000000
# 6 0.000000 0.000000 0.000000 0.000000 0.000000 -0.074667
#
#
# Mechanical properties :
#
#
# Convention : Reuss Voigt Hill
#
# Bulk Modulus (GPa) = 45.32070 67.72217 56.52144
# Shear Modulus (GPa) = 59.54427 26.27266 42.90846
#
# Velocity S-wave (km/s) = 5.15733 3.42576 4.37801
# Velocity P-wave (km/s) = 7.46382 6.77487 7.12768
#
# Compressibility (1/GPa) = 0.02206497
#
# Stress axis : x y z
#
# Youngs Moduli (GPa) = 144.69618 72.90011 94.26304
#
# Poissons Ratio (x) = 0.07513 0.44558
# Poissons Ratio (y) = 0.14913 -0.11044
# Poissons Ratio (z) = 0.68398 -0.08541
#
# Static dielectric constant tensor:
#      x y z
#    x 1.859880 0.000000 0.000000 
#    y 0.000000 1.886100 0.000000 
#    z 0.000000 0.000000 1.831900 
# 
# From -- ./inp_files/30497.got.cif
#   From: 2010.05.17/outbox.cif.g08.bks.cpg/sg59_16_cif.got.tgz:30497.got - 2010.06.03 14:40:33.
