data_PCOD9450652
_publ_section_title
;
Structure prediction by ZEFSAII (Michael W. Deem and Ramdas Pophale) SiO2 
 PCOD9450652
Probable space group: P M M N
;
_chemical_formula_sum "Si O2"
_cell_formula_units_Z 40
_cell_length_a 20.939994
_cell_length_b 8.454532
_cell_length_c 11.851440
_cell_angle_alpha 90.000000
_cell_angle_beta 90.000000
_cell_angle_gamma 90.000000
_cell_volume 2098.153449
_symmetry_space_group_name_H-M "P M M N"
_symmetry_group_IT_number 59
_space_group.IT_coordinate_system_code '2'
_symmetry_cell_setting 'orthorhombic'
loop_
_space_group_symop_operation_xyz
x,y,z
1/2-x,1/2-y,z
1/2+x,-y,-z
-x,1/2+y,-z
-x,-y,-z
1/2+x,1/2+y,-z
1/2-x,y,z
x,1/2-y,z
loop_
_atom_site_type_symbol
_atom_site_label
_atom_site_fract_x
_atom_site_fract_y
_atom_site_fract_z
Si Si1 0.644396 0.058368 0.779826
Si Si2 0.250000 0.558008 0.397730
Si Si3 0.620958 0.069469 0.217332
Si Si4 0.677844 0.573864 0.013756
Si Si5 0.506279 0.437227 0.869731
Si Si6 0.750000 0.055982 0.342449
O O1 0.647980 0.250000 0.786646
O O2 0.685573 0.011131 0.670050
O O3 0.570803 0.011372 0.803789
O O4 0.678347 0.977986 0.885639
O O5 0.250000 0.750000 0.399755
O O6 0.250000 0.506889 0.527196
O O7 0.610794 0.250000 0.252058
O O8 0.682669 0.004925 0.285374
O O9 0.553599 0.981876 0.209764
O O10 0.642405 0.055929 0.086989
O O11 0.750000 0.580556 0.055145
O O12 0.649095 0.750000 0.027438
O O13 0.509385 0.250000 0.881562
O O14 0.500000 0.500000 0.000000
O O15 0.750000 0.250000 0.333032
#
# Coordination Sequence:
#
# PCOD9450652 Si02
#       6
#     8   4   8   8   8   4
#     4  10  20  34  57  82 110 144 183 227 274 332
#     4   9  18  37  61  82 102 139 192 243 276 317
#     4  11  21  35  55  80 111 148 185 228 273 329
#     4  11  21  31  50  82 116 144 174 225 285 338
#     4  11  22  34  51  84 120 151 179 220 278 342
#     4   9  20  37  59  82 104 139 196 243 276 317
#
# _framework density 19.064382999999999
#
# number of rings (size 3 to 8) (size 9 to 14) (size 15 to 20)
#    0.000    1.600    4.000    1.800    0.000    1.600 
#    0.000    1.000    0.000    4.800    0.000    0.000 
#    0.000    0.000    0.000    0.000    0.000    0.000 
#
# Total GULP energy -222737.871411 kJ/mol
# GULP energy per Si atom -5568.446785 kJ/mol
# Density = 1.902099 g / cm^3
# Si number density = 19.064383 Si / 1000 Ang^3
#
#
#
# Elastic Constant Matrix: (Units=GPa)
#
#
# Indices 1 2 3 4 5 6 
#
# 1 172.1496 23.4945 64.3860 0.0000 0.0000 0.0000
# 2 23.4945 12.7423 8.9518 0.0000 0.0000 0.0000
# 3 64.3860 8.9518 106.6372 0.0000 0.0000 0.0000
# 4 0.0000 0.0000 0.0000 9.8580 0.0000 0.0000
# 5 0.0000 0.0000 0.0000 0.0000 13.7952 0.0000
# 6 0.0000 0.0000 0.0000 0.0000 0.0000 25.0765
#
#
#
# Elastic Compliance Matrix: (Units=1/GPa)
#
#
# Indices 1 2 3 4 5 6 
#
# 1 0.009435 -0.014234 -0.004502 0.000000 0.000000 0.000000
# 2 -0.014234 0.104871 -0.000209 0.000000 0.000000 0.000000
# 3 -0.004502 -0.000209 0.012113 0.000000 0.000000 0.000000
# 4 0.000000 0.000000 0.000000 0.101441 0.000000 0.000000
# 5 0.000000 0.000000 0.000000 0.000000 0.072489 0.000000
# 6 0.000000 0.000000 0.000000 0.000000 0.000000 0.039878
#
#
# Mechanical properties :
#
#
# Convention : Reuss Voigt Hill
#
# Bulk Modulus (GPa) = 11.29570 53.91042 32.60306
# Shear Modulus (GPa) = 12.26607 22.72572 17.49590
#
# Velocity S-wave (km/s) = 2.53929 3.45636 3.03269
# Velocity P-wave (km/s) = 3.81251 6.65342 5.42232
#
# Compressibility (1/GPa) = 0.08852929
#
# Stress axis : x y z
#
# Youngs Moduli (GPa) = 105.98400 9.53549 82.55323
#
# Poissons Ratio (x) = 0.13573 0.37166
# Poissons Ratio (y) = 1.50862 0.01725
# Poissons Ratio (z) = 0.47714 0.00199
#
# Static dielectric constant tensor:
#      x y z
#    x 1.802450 0.000000 0.000000 
#    y 0.000000 1.677030 0.000000 
#    z 0.000000 0.000000 1.631990 
# 
# From -- ./inp_files/18148.got.cif
#   From: 2010.05.17/outbox.cif.g08.bks.cpg/sg59_10_cif.got.tgz:18148.got - 2010.06.03 14:40:33.
