data_PCOD9450244
_publ_section_title
;
Structure prediction by ZEFSAII (Michael W. Deem and Ramdas Pophale) SiO2 
 PCOD9450244
Probable space group: P M M N
;
_chemical_formula_sum "Si O2"
_cell_formula_units_Z 56
_cell_length_a 24.935883
_cell_length_b 8.538692
_cell_length_c 14.034018
_cell_angle_alpha 90.000000
_cell_angle_beta 90.000000
_cell_angle_gamma 90.000000
_cell_volume 2988.120652
_symmetry_space_group_name_H-M "P M M N"
_symmetry_group_IT_number 59
_space_group.IT_coordinate_system_code '2'
_symmetry_cell_setting 'orthorhombic'
loop_
_space_group_symop_operation_xyz
x,y,z
1/2-x,1/2-y,z
1/2+x,-y,-z
-x,1/2+y,-z
-x,-y,-z
1/2+x,1/2+y,-z
1/2-x,y,z
x,1/2-y,z
loop_
_atom_site_type_symbol
_atom_site_label
_atom_site_fract_x
_atom_site_fract_y
_atom_site_fract_z
Si Si1 0.523697 0.064017 0.230137
Si Si2 0.811426 0.561246 0.521757
Si Si3 0.086186 0.437902 0.953773
Si Si4 0.621859 0.939468 0.340794
Si Si5 0.189631 0.440196 0.844667
Si Si6 0.916868 0.437510 0.836681
Si Si7 0.689932 0.438740 0.734218
O O1 0.521500 0.250000 0.230703
O O2 0.549662 0.005860 0.130441
O O3 0.564023 0.004837 0.311872
O O4 0.464098 0.995041 0.232394
O O5 0.750000 0.522835 0.492610
O O6 0.814490 0.750000 0.528952
O O7 0.853225 0.509876 0.441151
O O8 0.820531 0.489820 0.625582
O O9 0.081840 0.250000 0.950746
O O10 0.147208 0.484682 0.926041
O O11 0.072281 0.498607 0.057738
O O12 0.619007 0.750000 0.339744
O O13 0.662851 0.986135 0.255927
O O14 0.250000 0.499251 0.856240
O O15 0.191746 0.250000 0.844247
O O16 0.917329 0.250000 0.839543
O O17 0.858710 0.493537 0.800372
O O18 0.750000 0.494935 0.760457
O O19 0.690506 0.250000 0.737846
#
# Coordination Sequence:
#
# PCOD9450244 Si02
#       7
#     8   8   8   8   8   8   8
#     4  11  22  36  54  77 105 135 173 216 257 306
#     4   9  17  31  55  84 110 138 173 213 255 303
#     4  10  20  34  53  77 105 137 174 215 259 307
#     4   9  17  31  52  78 108 139 171 209 256 306
#     4   8  14  26  46  73 104 135 166 202 247 301
#     4  11  22  37  56  75 100 136 175 214 259 307
#     4   9  20  38  57  78 106 138 171 211 259 309
#
# _framework density 18.740877000000001
#
# number of rings (size 3 to 8) (size 9 to 14) (size 15 to 20)
#    0.000    2.429    0.000    3.857    0.000    4.000 
#    0.000    0.714    0.000   13.714    0.000    0.000 
#    0.000    0.000    0.000    0.000    0.000    0.000 
#
# Total GULP energy -312464.342735 kJ/mol
# GULP energy per Si atom -5579.720406 kJ/mol
# Density = 1.869822 g / cm^3
# Si number density = 18.740877 Si / 1000 Ang^3
#
#
#
# Elastic Constant Matrix: (Units=GPa)
#
#
# Indices 1 2 3 4 5 6 
#
# 1 71.9243 -3.6051 14.5077 0.0000 0.0000 0.0000
# 2 -3.6051 21.5025 4.6660 0.0000 0.0000 0.0000
# 3 14.5077 4.6660 35.4721 0.0000 0.0000 0.0000
# 4 0.0000 0.0000 0.0000 24.3008 0.0000 0.0000
# 5 0.0000 0.0000 0.0000 0.0000 23.0898 0.0000
# 6 0.0000 0.0000 0.0000 0.0000 0.0000 13.3419
#
#
#
# Elastic Compliance Matrix: (Units=1/GPa)
#
#
# Indices 1 2 3 4 5 6 
#
# 1 0.015495 0.004090 -0.006875 0.000000 0.000000 0.000000
# 2 0.004090 0.048952 -0.008112 0.000000 0.000000 0.000000
# 3 -0.006875 -0.008112 0.032070 0.000000 0.000000 0.000000
# 4 0.000000 0.000000 0.000000 0.041151 0.000000 0.000000
# 5 0.000000 0.000000 0.000000 0.000000 0.043309 0.000000
# 6 0.000000 0.000000 0.000000 0.000000 0.000000 0.074952
#
#
# Mechanical properties :
#
#
# Convention : Reuss Voigt Hill
#
# Bulk Modulus (GPa) = 13.38277 17.78178 15.58227
# Shear Modulus (GPa) = 16.52169 19.70183 18.11176
#
# Velocity S-wave (km/s) = 2.97237 3.24586 3.11212
# Velocity P-wave (km/s) = 4.35160 4.85348 4.60938
#
# Compressibility (1/GPa) = 0.07472296
#
# Stress axis : x y z
#
# Youngs Moduli (GPa) = 64.53559 20.42806 31.18163
#
# Poissons Ratio (x) = -0.08355 0.21439
# Poissons Ratio (y) = -0.26394 0.25294
# Poissons Ratio (z) = 0.44371 0.16571
#
# Static dielectric constant tensor:
#      x y z
#    x 1.678260 0.000000 0.000000 
#    y 0.000000 1.634390 0.000000 
#    z 0.000000 0.000000 1.617400 
# 
# From -- ./inp_files/24248.got.cif
#   From: 2010.05.17/outbox.cif.g08.bks.cpg/sg59_13_cif.got.tgz:24248.got - 2010.06.03 14:40:33.
