data_PCOD9450928
_publ_section_title
;
Structure prediction by ZEFSAII (Michael W. Deem and Ramdas Pophale) SiO2 
 PCOD9450928
Probable space group: P M M N
;
_chemical_formula_sum "Si O2"
_cell_formula_units_Z 40
_cell_length_a 8.633229
_cell_length_b 18.541063
_cell_length_c 13.912642
_cell_angle_alpha 90.000000
_cell_angle_beta 90.000000
_cell_angle_gamma 90.000000
_cell_volume 2226.986070
_symmetry_space_group_name_H-M "P M M N"
_symmetry_group_IT_number 59
_space_group.IT_coordinate_system_code '2'
_symmetry_cell_setting 'orthorhombic'
loop_
_space_group_symop_operation_xyz
x,y,z
1/2-x,1/2-y,z
1/2+x,-y,-z
-x,1/2+y,-z
-x,-y,-z
1/2+x,1/2+y,-z
1/2-x,y,z
x,1/2-y,z
loop_
_atom_site_type_symbol
_atom_site_label
_atom_site_fract_x
_atom_site_fract_y
_atom_site_fract_z
Si Si1 0.435026 0.040937 0.792580
Si Si2 0.564724 0.900942 0.889206
Si Si3 0.435367 0.832951 0.696311
Si Si4 0.064156 0.834263 0.085728
Si Si5 0.564774 0.970846 0.599975
O O1 0.250000 0.038846 0.790033
O O2 0.495214 0.117605 0.828934
O O3 0.495546 0.979897 0.866870
O O4 0.502155 0.018148 0.689279
O O5 0.750000 0.905397 0.891528
O O6 0.509837 0.852416 0.799207
O O7 0.501479 0.867041 0.986852
O O8 0.250000 0.843256 0.703503
O O9 0.466361 0.750000 0.671605
O O10 0.504026 0.890240 0.621766
O O11 0.250000 0.840470 0.085245
O O12 0.023068 0.750000 0.093086
O O13 0.750000 0.971724 0.600571
O O14 0.500000 0.000000 0.500000
#
# Coordination Sequence:
#
# PCOD9450928 Si02
#       5
#     8   8   8   8   8
#     4  11  22  38  59  82 110 143 184 229 274 327
#     4  11  21  34  55  82 113 148 187 227 270 324
#     4  10  20  35  56  84 116 146 180 226 278 327
#     4  11  23  38  55  78 112 151 188 227 273 324
#     4  11  22  39  62  85 111 143 183 227 275 330
#
# _framework density 17.961496
#
# number of rings (size 3 to 8) (size 9 to 14) (size 15 to 20)
#    0.000    1.200    0.000   10.200    0.000    5.600 
#    0.000    1.000    0.000    6.000    0.000    0.000 
#    0.000    0.000    0.000    0.000    0.000    0.000 
#
# Total GULP energy -223695.950949 kJ/mol
# GULP energy per Si atom -5592.398774 kJ/mol
# Density = 1.792061 g / cm^3
# Si number density = 17.961496 Si / 1000 Ang^3
#
#
#
# Elastic Constant Matrix: (Units=GPa)
#
#
# Indices 1 2 3 4 5 6 
#
# 1 148.8153 71.7596 48.5768 0.0000 0.0000 0.0000
# 2 71.7596 134.6673 80.3582 0.0000 0.0000 0.0000
# 3 48.5768 80.3582 92.5872 0.0000 0.0000 0.0000
# 4 0.0000 0.0000 0.0000 17.3608 0.0000 0.0000
# 5 0.0000 0.0000 0.0000 0.0000 32.1239 0.0000
# 6 0.0000 0.0000 0.0000 0.0000 0.0000 31.1580
#
#
#
# Elastic Compliance Matrix: (Units=1/GPa)
#
#
# Indices 1 2 3 4 5 6 
#
# 1 0.009105 -0.004151 -0.001174 0.000000 0.000000 0.000000
# 2 -0.004151 0.017295 -0.012833 0.000000 0.000000 0.000000
# 3 -0.001174 -0.012833 0.022555 0.000000 0.000000 0.000000
# 4 0.000000 0.000000 0.000000 0.057601 0.000000 0.000000
# 5 0.000000 0.000000 0.000000 0.000000 0.031129 0.000000
# 6 0.000000 0.000000 0.000000 0.000000 0.000000 0.032094
#
#
# Mechanical properties :
#
#
# Convention : Reuss Voigt Hill
#
# Bulk Modulus (GPa) = 79.12448 86.38432 82.75440
# Shear Modulus (GPa) = 23.77454 27.82021 25.79738
#
# Velocity S-wave (km/s) = 3.64213 3.93985 3.79391
# Velocity P-wave (km/s) = 7.86351 8.30031 8.08486
#
# Compressibility (1/GPa) = 0.01263831
#
# Stress axis : x y z
#
# Youngs Moduli (GPa) = 109.83459 57.81903 44.33635
#
# Poissons Ratio (x) = 0.24000 0.05206
# Poissons Ratio (y) = 0.45591 0.56898
# Poissons Ratio (z) = 0.12897 0.74200
#
# Static dielectric constant tensor:
#      x y z
#    x 1.597640 0.000000 0.000000 
#    y 0.000000 1.614880 0.000000 
#    z 0.000000 0.000000 1.585390 
# 
# From -- ./inp_files/20120.got.cif
#   From: 2010.05.17/outbox.cif.g08.bks.cpg/sg59_11_cif.got.tgz:20120.got - 2010.06.03 14:40:33.
