data_PCOD9450212
_publ_section_title
;
Structure prediction by ZEFSAII (Michael W. Deem and Ramdas Pophale) SiO2 
 PCOD9450212
Probable space group: P M M N
;
_chemical_formula_sum "Si O2"
_cell_formula_units_Z 64
_cell_length_a 18.933978
_cell_length_b 8.880371
_cell_length_c 21.331832
_cell_angle_alpha 90.000000
_cell_angle_beta 90.000000
_cell_angle_gamma 90.000000
_cell_volume 3586.750213
_symmetry_space_group_name_H-M "P M M N"
_symmetry_group_IT_number 59
_space_group.IT_coordinate_system_code '2'
_symmetry_cell_setting 'orthorhombic'
loop_
_space_group_symop_operation_xyz
x,y,z
1/2-x,1/2-y,z
1/2+x,-y,-z
-x,1/2+y,-z
-x,-y,-z
1/2+x,1/2+y,-z
1/2-x,y,z
x,1/2-y,z
loop_
_atom_site_type_symbol
_atom_site_label
_atom_site_fract_x
_atom_site_fract_y
_atom_site_fract_z
Si Si1 0.168726 0.933092 0.071987
Si Si2 0.331285 0.933166 0.930954
Si Si3 0.165830 0.072412 0.700689
Si Si4 0.664058 0.078419 0.428857
Si Si5 0.422394 0.931183 0.191061
Si Si6 0.335987 0.075719 0.443800
Si Si7 0.166880 0.432059 0.303857
Si Si8 0.077460 0.930725 0.812153
O O1 0.250000 0.979525 0.083632
O O2 0.168441 0.750000 0.071859
O O3 0.117605 0.981938 0.127479
O O4 0.148669 0.981624 0.001474
O O5 0.250000 0.979669 0.919258
O O6 0.331454 0.750000 0.930824
O O7 0.382693 0.982088 0.875664
O O8 0.250000 0.043630 0.706789
O O9 0.153919 0.250000 0.708571
O O10 0.143921 0.021359 0.630869
O O11 0.124056 0.981350 0.753092
O O12 0.750000 0.076116 0.430954
O O13 0.641561 0.250000 0.419096
O O14 0.639462 0.016906 0.496040
O O15 0.423946 0.750000 0.192194
O O16 0.378655 0.991579 0.250250
O O17 0.500788 0.996260 0.192009
O O18 0.250000 0.073277 0.443623
O O19 0.356936 0.250000 0.451137
O O20 0.356528 0.022428 0.374286
O O21 0.250000 0.469502 0.296286
O O22 0.161111 0.250000 0.300565
O O23 0.071662 0.750000 0.813156
#
# Coordination Sequence:
#
# PCOD9450212 Si02
#       8
#     8   8   8   8   8   8   8   8
#     4   8  15  30  52  77 103 131 166 209 256 305
#     4   8  15  30  53  78 101 128 166 211 257 305
#     4  10  20  34  53  76 103 135 170 211 259 309
#     4   9  16  26  44  73 105 133 165 207 251 298
#     4  11  22  34  50  74 105 140 176 213 255 305
#     4   8  14  26  45  70 100 132 165 205 255 304
#     4   9  18  33  53  76 103 136 174 216 260 306
#     4  11  22  35  52  74 102 137 176 216 257 303
#
# _framework density 17.843451000000002
#
# number of rings (size 3 to 8) (size 9 to 14) (size 15 to 20)
#    0.000    2.750    0.000    3.750    0.000    4.500 
#    0.000    1.250    0.000    3.000    0.000    8.750 
#    0.000    0.000    0.000    0.000    0.000    0.000 
#
# Total GULP energy -356812.687387 kJ/mol
# GULP energy per Si atom -5575.198240 kJ/mol
# Density = 1.780284 g / cm^3
# Si number density = 17.843451 Si / 1000 Ang^3
#
#
#
# Elastic Constant Matrix: (Units=GPa)
#
#
# Indices 1 2 3 4 5 6 
#
# 1 55.4752 30.3027 61.4122 0.0000 0.0000 0.0000
# 2 30.3027 37.9760 40.6360 0.0000 0.0000 0.0000
# 3 61.4122 40.6360 147.5236 0.0000 0.0000 0.0000
# 4 0.0000 0.0000 0.0000 17.3665 0.0000 0.0000
# 5 0.0000 0.0000 0.0000 0.0000 -5.6789 0.0000
# 6 0.0000 0.0000 0.0000 0.0000 0.0000 13.3647
#
#
#
# Elastic Compliance Matrix: (Units=1/GPa)
#
#
# Indices 1 2 3 4 5 6 
#
# 1 0.043068 -0.021526 -0.011999 0.000000 0.000000 0.000000
# 2 -0.021526 0.048097 -0.004287 0.000000 0.000000 0.000000
# 3 -0.011999 -0.004287 0.012955 0.000000 0.000000 0.000000
# 4 0.000000 0.000000 0.000000 0.057582 0.000000 0.000000
# 5 0.000000 0.000000 0.000000 0.000000 -0.176090 0.000000
# 6 0.000000 0.000000 0.000000 0.000000 0.000000 0.074824
#
#
# Mechanical properties :
#
#
# Convention : Reuss Voigt Hill
#
# Bulk Modulus (GPa) = 35.09519 56.18627 45.64073
# Shear Modulus (GPa) = 34.35056 12.25206 23.30131
#
# Velocity S-wave (km/s) = 4.39236 2.62323 3.61761
# Velocity P-wave (km/s) = 6.74054 6.38216 6.56380
#
# Compressibility (1/GPa) = 0.02849393
#
# Stress axis : x y z
#
# Youngs Moduli (GPa) = 23.21926 20.79146 77.19241
#
# Poissons Ratio (x) = 0.44756 0.92624
# Poissons Ratio (y) = 0.49982 0.33096
# Poissons Ratio (z) = 0.27861 0.08914
#
# Static dielectric constant tensor:
#      x y z
#    x 1.583850 0.000000 0.000000 
#    y 0.000000 1.597830 0.000000 
#    z 0.000000 0.000000 1.614760 
# 
# From -- ./inp_files/30690.got.cif
#   From: 2010.05.17/outbox.cif.g08.bks.cpg/sg59_16_cif.got.tgz:30690.got - 2010.06.03 14:40:33.
