data_PCOD9450071
_publ_section_title
;
Structure prediction by ZEFSAII (Michael W. Deem and Ramdas Pophale) SiO2 
 PCOD9450071
Probable space group: P M M N
;
_chemical_formula_sum "Si O2"
_cell_formula_units_Z 48
_cell_length_a 24.767387
_cell_length_b 7.293242
_cell_length_c 9.922440
_cell_angle_alpha 90.000000
_cell_angle_beta 90.000000
_cell_angle_gamma 90.000000
_cell_volume 1792.335456
_symmetry_space_group_name_H-M "P M M N"
_symmetry_group_IT_number 59
_space_group.IT_coordinate_system_code '2'
_symmetry_cell_setting 'orthorhombic'
loop_
_space_group_symop_operation_xyz
x,y,z
1/2-x,1/2-y,z
1/2+x,-y,-z
-x,1/2+y,-z
-x,-y,-z
1/2+x,1/2+y,-z
1/2-x,y,z
x,1/2-y,z
loop_
_atom_site_type_symbol
_atom_site_label
_atom_site_fract_x
_atom_site_fract_y
_atom_site_fract_z
Si Si1 0.071689 0.459701 0.730467
Si Si2 0.421539 0.970881 0.025272
Si Si3 0.191231 0.459539 0.701497
Si Si4 0.308042 0.527179 0.112836
Si Si5 0.156794 0.528332 0.411270
Si Si6 0.458740 0.526876 0.324087
O O1 0.078595 0.250000 0.686487
O O2 0.131746 0.545108 0.730052
O O3 0.019898 0.539293 0.651543
O O4 0.053747 0.457919 0.887621
O O5 0.424790 0.750000 0.021196
O O6 0.358906 0.030066 0.026400
O O7 0.443150 0.028612 0.170882
O O8 0.250000 0.539965 0.741457
O O9 0.190584 0.250000 0.750871
O O10 0.188619 0.458013 0.538901
O O11 0.250000 0.463486 0.066329
O O12 0.308362 0.750000 0.111367
O O13 0.318518 0.474057 0.267790
O O14 0.158329 0.750000 0.416003
O O15 0.093489 0.472523 0.410999
O O16 0.460344 0.750000 0.326330
#
# Coordination Sequence:
#
# PCOD9450071 Si02
#       6
#     8   8   8   8   8   8
#     4  10  20  34  50  67  96 137 166 188 233 293
#     4   9  17  30  49  73  98 122 155 201 241 277
#     4  10  22  37  49  66  98 136 167 196 234 281
#     4   8  14  26  46  71  96 121 150 192 248 294
#     4   9  17  32  55  77  94 118 159 206 247 290
#     4   8  16  32  53  76  99 122 153 199 252 294
#
# _framework density 26.780701000000001
#
# number of rings (size 3 to 8) (size 9 to 14) (size 15 to 20)
#    0.000    3.000    0.000    3.000    0.000    3.000 
#    0.000    4.167    0.000    1.000    0.000    0.000 
#    0.000    0.000    0.000    0.000    0.000    0.000 
#
# Total GULP energy -268318.830369 kJ/mol
# GULP energy per Si atom -5589.975633 kJ/mol
# Density = 2.671975 g / cm^3
# Si number density = 26.780701 Si / 1000 Ang^3
#
#
#
# Elastic Constant Matrix: (Units=GPa)
#
#
# Indices 1 2 3 4 5 6 
#
# 1 231.9960 10.9530 6.1762 0.0000 0.0000 0.0000
# 2 10.9530 124.5355 1.4842 0.0000 0.0000 0.0000
# 3 6.1762 1.4842 80.6350 0.0000 0.0000 0.0000
# 4 0.0000 0.0000 0.0000 21.4026 0.0000 0.0000
# 5 0.0000 0.0000 0.0000 0.0000 23.3730 0.0000
# 6 0.0000 0.0000 0.0000 0.0000 0.0000 -13.7134
#
#
#
# Elastic Compliance Matrix: (Units=1/GPa)
#
#
# Indices 1 2 3 4 5 6 
#
# 1 0.004337 -0.000378 -0.000325 0.000000 0.000000 0.000000
# 2 -0.000378 0.008064 -0.000120 0.000000 0.000000 0.000000
# 3 -0.000325 -0.000120 0.012429 0.000000 0.000000 0.000000
# 4 0.000000 0.000000 0.000000 0.046723 0.000000 0.000000
# 5 0.000000 0.000000 0.000000 0.000000 0.042784 0.000000
# 6 0.000000 0.000000 0.000000 0.000000 0.000000 -0.072921
#
#
# Mechanical properties :
#
#
# Convention : Reuss Voigt Hill
#
# Bulk Modulus (GPa) = 43.13056 52.71038 47.92047
# Shear Modulus (GPa) = 98.44579 34.11600 66.28089
#
# Velocity S-wave (km/s) = 6.06958 3.57305 4.98028
# Velocity P-wave (km/s) = 8.07835 6.06195 7.14167
#
# Compressibility (1/GPa) = 0.02318542
#
# Stress axis : x y z
#
# Youngs Moduli (GPa) = 230.57933 124.00074 80.45913
#
# Poissons Ratio (x) = 0.04682 0.02617
# Poissons Ratio (y) = 0.08706 0.00962
# Poissons Ratio (z) = 0.07499 0.01482
#
# Static dielectric constant tensor:
#      x y z
#    x 2.137740 0.000000 0.000000 
#    y 0.000000 2.000720 0.000000 
#    z 0.000000 0.000000 2.031280 
# 
# From -- ./inp_files/18610.got.cif
#   From: 2010.05.17/outbox.cif.g08.bks.cpg/sg59_10_cif.got.tgz:18610.got - 2010.06.03 14:40:33.
