data_PCOD9450649
_publ_section_title
;
Structure prediction by ZEFSAII (Michael W. Deem and Ramdas Pophale) SiO2 
 PCOD9450649
Probable space group: P M M N
;
_chemical_formula_sum "Si O2"
_cell_formula_units_Z 40
_cell_length_a 8.971737
_cell_length_b 15.673941
_cell_length_c 14.898435
_cell_angle_alpha 90.000000
_cell_angle_beta 90.000000
_cell_angle_gamma 90.000000
_cell_volume 2095.054824
_symmetry_space_group_name_H-M "P M M N"
_symmetry_group_IT_number 59
_space_group.IT_coordinate_system_code '2'
_symmetry_cell_setting 'orthorhombic'
loop_
_space_group_symop_operation_xyz
x,y,z
1/2-x,1/2-y,z
1/2+x,-y,-z
-x,1/2+y,-z
-x,-y,-z
1/2+x,1/2+y,-z
1/2-x,y,z
x,1/2-y,z
loop_
_atom_site_type_symbol
_atom_site_label
_atom_site_fract_x
_atom_site_fract_y
_atom_site_fract_z
Si Si1 0.924627 0.353053 0.588591
Si Si2 0.071253 0.407091 0.773167
Si Si3 0.568840 0.750000 0.102991
Si Si4 0.577397 0.853505 0.597320
Si Si5 0.570872 0.750000 0.896196
Si Si6 0.073010 0.599733 0.782400
O O1 0.750000 0.372806 0.580889
O O2 0.940304 0.250000 0.596432
O O3 0.993650 0.393255 0.677610
O O4 0.009594 0.379803 0.498212
O O5 0.250000 0.398792 0.760236
O O6 0.021778 0.333720 0.841960
O O7 0.041944 0.501993 0.808535
O O8 0.750000 0.750000 0.101964
O O9 0.520946 0.750000 0.999838
O O10 0.750000 0.879150 0.604797
O O11 0.571162 0.750000 0.601366
O O12 0.483956 0.887755 0.680807
O O13 0.750000 0.750000 0.892360
O O14 0.509681 0.832612 0.844756
O O15 0.250000 0.614840 0.785925
#
# Coordination Sequence:
#
# PCOD9450649 Si02
#       6
#     8   8   4   8   4   8
#     4  10  20  34  56  88 123 157 195 243 293 341
#     4  10  21  39  63  88 117 157 199 240 292 351
#     4   9  20  41  66  87 114 151 197 242 290 357
#     4  10  20  35  58  85 116 160 204 238 284 349
#     4  11  23  41  64  87 114 155 195 240 300 357
#     4  11  23  38  60  90 121 153 194 247 297 345
#
# _framework density 19.092578
#
# number of rings (size 3 to 8) (size 9 to 14) (size 15 to 20)
#    0.000    1.800    2.000    2.100    0.000    4.800 
#    0.000    2.000    0.000    0.000    0.000    0.000 
#    0.000    0.000    0.000    0.000    0.000    0.000 
#
# Total GULP energy -223562.290805 kJ/mol
# GULP energy per Si atom -5589.057270 kJ/mol
# Density = 1.904912 g / cm^3
# Si number density = 19.092578 Si / 1000 Ang^3
#
#
#
# Elastic Constant Matrix: (Units=GPa)
#
#
# Indices 1 2 3 4 5 6 
#
# 1 69.7879 60.0779 43.3233 0.0000 0.0000 0.0000
# 2 60.0779 111.8203 74.2511 0.0000 0.0000 0.0000
# 3 43.3233 74.2511 145.6314 0.0000 0.0000 0.0000
# 4 0.0000 0.0000 0.0000 -7.0229 0.0000 0.0000
# 5 0.0000 0.0000 0.0000 0.0000 14.9787 0.0000
# 6 0.0000 0.0000 0.0000 0.0000 0.0000 13.3066
#
#
#
# Elastic Compliance Matrix: (Units=1/GPa)
#
#
# Indices 1 2 3 4 5 6 
#
# 1 0.026747 -0.013738 -0.000952 0.000000 0.000000 0.000000
# 2 -0.013738 0.020576 -0.006404 0.000000 0.000000 0.000000
# 3 -0.000952 -0.006404 0.010415 0.000000 0.000000 0.000000
# 4 0.000000 0.000000 0.000000 -0.142392 0.000000 0.000000
# 5 0.000000 0.000000 0.000000 0.000000 0.066762 0.000000
# 6 0.000000 0.000000 0.000000 0.000000 0.000000 0.075150
#
#
# Mechanical properties :
#
#
# Convention : Reuss Voigt Hill
#
# Bulk Modulus (GPa) = 64.31111 75.83827 70.07469
# Shear Modulus (GPa) = 47.78716 14.22498 31.00607
#
# Velocity S-wave (km/s) = 5.00834 2.73253 4.03424
# Velocity P-wave (km/s) = 8.19766 7.05430 7.64738
#
# Compressibility (1/GPa) = 0.01554941
#
# Stress axis : x y z
#
# Youngs Moduli (GPa) = 37.38755 48.59932 96.01339
#
# Poissons Ratio (x) = 0.66765 0.09145
# Poissons Ratio (y) = 0.51363 0.61489
# Poissons Ratio (z) = 0.03561 0.31124
#
# Static dielectric constant tensor:
#      x y z
#    x 1.636110 0.000000 0.000000 
#    y 0.000000 1.685050 0.000000 
#    z 0.000000 0.000000 1.616420 
# 
# From -- ./inp_files/19929.got.cif
#   From: 2010.05.17/outbox.cif.g08.bks.cpg/sg59_10_cif.got.tgz:19929.got - 2010.06.03 14:40:33.
