data_PCOD9450932
_publ_section_title
;
Structure prediction by ZEFSAII (Michael W. Deem and Ramdas Pophale) SiO2 
 PCOD9450932
Probable space group: P M M N
;
_chemical_formula_sum "Si O2"
_cell_formula_units_Z 56
_cell_length_a 14.334224
_cell_length_b 8.787704
_cell_length_c 22.683119
_cell_angle_alpha 90.000000
_cell_angle_beta 90.000000
_cell_angle_gamma 90.000000
_cell_volume 2857.277215
_symmetry_space_group_name_H-M "P M M N"
_symmetry_group_IT_number 59
_space_group.IT_coordinate_system_code '2'
_symmetry_cell_setting 'orthorhombic'
loop_
_space_group_symop_operation_xyz
x,y,z
1/2-x,1/2-y,z
1/2+x,-y,-z
-x,1/2+y,-z
-x,-y,-z
1/2+x,1/2+y,-z
1/2-x,y,z
x,1/2-y,z
loop_
_atom_site_type_symbol
_atom_site_label
_atom_site_fract_x
_atom_site_fract_y
_atom_site_fract_z
Si Si1 0.405435 0.427364 0.861651
Si Si2 0.442585 0.567077 0.292419
Si Si3 0.097100 0.071565 0.169254
Si Si4 0.348643 0.071687 0.728413
Si Si5 0.641874 0.932484 0.461588
Si Si6 0.750000 0.069654 0.914626
Si Si7 0.750000 0.567419 0.044250
Si Si8 0.547642 0.569092 0.587226
O O1 0.435723 0.250000 0.868657
O O2 0.492951 0.535256 0.852686
O O3 0.351154 0.432104 0.799519
O O4 0.339786 0.470261 0.915785
O O5 0.441892 0.750000 0.288179
O O6 0.393648 0.500208 0.234543
O O7 0.550928 0.510181 0.289977
O O8 0.408786 0.510730 0.355548
O O9 0.115345 0.250000 0.172102
O O10 0.162976 0.992907 0.122010
O O11 0.250000 0.004079 0.707491
O O12 0.348633 0.250000 0.710731
O O13 0.750000 0.979866 0.451323
O O14 0.637780 0.750000 0.451705
O O15 0.609957 0.961786 0.529171
O O16 0.557845 0.007889 0.424506
O O17 0.750000 0.250000 0.914835
O O18 0.750000 0.009608 0.981191
O O19 0.750000 0.750000 0.036763
O O20 0.544097 0.750000 0.595770
#
# Coordination Sequence:
#
# PCOD9450932 Si02
#       8
#     8   8   8   8   8   4   4   8
#     4   9  17  33  59  87 115 149 188 232 285 349
#     4  10  20  35  57  83 115 154 195 236 284 346
#     4  11  23  41  62  84 115 153 193 243 298 347
#     4   8  13  25  48  77 106 141 183 225 273 332
#     4   9  19  37  59  81 111 154 195 233 285 345
#     4  12  26  44  62  82 112 150 197 248 297 348
#     4  10  20  36  62  92 120 152 193 236 287 350
#     4  10  20  35  56  84 117 149 190 242 288 336
#
# _framework density 19.599077000000001
#
# number of rings (size 3 to 8) (size 9 to 14) (size 15 to 20)
#    0.000    2.286    0.714    3.643    0.000    2.571 
#    1.286    1.429    0.000    0.857    0.000    0.000 
#    0.000    0.000    0.000    0.000    0.000    0.000 
#
# Total GULP energy -312426.366088 kJ/mol
# GULP energy per Si atom -5579.042252 kJ/mol
# Density = 1.955447 g / cm^3
# Si number density = 19.599077 Si / 1000 Ang^3
#
#
#
# Elastic Constant Matrix: (Units=GPa)
#
#
# Indices 1 2 3 4 5 6 
#
# 1 35.2311 14.8732 8.6125 0.0000 0.0000 0.0000
# 2 14.8732 57.0124 53.8909 0.0000 0.0000 0.0000
# 3 8.6125 53.8909 138.9355 0.0000 0.0000 0.0000
# 4 0.0000 0.0000 0.0000 30.4411 0.0000 0.0000
# 5 0.0000 0.0000 0.0000 0.0000 12.4256 0.0000
# 6 0.0000 0.0000 0.0000 0.0000 0.0000 -42.7496
#
#
#
# Elastic Compliance Matrix: (Units=1/GPa)
#
#
# Indices 1 2 3 4 5 6 
#
# 1 0.032244 -0.010298 0.001996 0.000000 0.000000 0.000000
# 2 -0.010298 0.030983 -0.011379 0.000000 0.000000 0.000000
# 3 0.001996 -0.011379 0.011488 0.000000 0.000000 0.000000
# 4 0.000000 0.000000 0.000000 0.032850 0.000000 0.000000
# 5 0.000000 0.000000 0.000000 0.000000 0.080479 0.000000
# 6 0.000000 0.000000 0.000000 0.000000 0.000000 -0.023392
#
#
# Mechanical properties :
#
#
# Convention : Reuss Voigt Hill
#
# Bulk Modulus (GPa) = 28.28793 42.88137 35.58465
# Shear Modulus (GPa) = 23.16976 10.27691 16.72333
#
# Velocity S-wave (km/s) = 3.44202 2.29237 2.92425
# Velocity P-wave (km/s) = 5.50103 5.37898 5.44034
#
# Compressibility (1/GPa) = 0.03535077
#
# Stress axis : x y z
#
# Youngs Moduli (GPa) = 31.01396 32.27586 87.04912
#
# Poissons Ratio (x) = 0.33238 -0.17372
# Poissons Ratio (y) = 0.31938 0.99057
# Poissons Ratio (z) = -0.06189 0.36728
#
# Static dielectric constant tensor:
#      x y z
#    x 1.706020 0.000000 0.000000 
#    y 0.000000 1.659350 0.000000 
#    z 0.000000 0.000000 1.682190 
# 
# From -- ./inp_files/30510.got.cif
#   From: 2010.05.17/outbox.cif.g08.bks.cpg/sg59_16_cif.got.tgz:30510.got - 2010.06.03 14:40:33.
