data_PCOD9450725
_publ_section_title
;
Structure prediction by ZEFSAII (Michael W. Deem and Ramdas Pophale) SiO2 
 PCOD9450725
Probable space group: P M M N
;
_chemical_formula_sum "Si O2"
_cell_formula_units_Z 64
_cell_length_a 21.831870
_cell_length_b 8.129065
_cell_length_c 16.878994
_cell_angle_alpha 90.000000
_cell_angle_beta 90.000000
_cell_angle_gamma 90.000000
_cell_volume 2995.560475
_symmetry_space_group_name_H-M "P M M N"
_symmetry_group_IT_number 59
_space_group.IT_coordinate_system_code '2'
_symmetry_cell_setting 'orthorhombic'
loop_
_space_group_symop_operation_xyz
x,y,z
1/2-x,1/2-y,z
1/2+x,-y,-z
-x,1/2+y,-z
-x,-y,-z
1/2+x,1/2+y,-z
1/2-x,y,z
x,1/2-y,z
loop_
_atom_site_type_symbol
_atom_site_label
_atom_site_fract_x
_atom_site_fract_y
_atom_site_fract_z
Si Si1 0.850776 0.059066 0.944306
Si Si2 0.179835 0.448053 0.731187
Si Si3 0.384630 0.551791 0.890638
Si Si4 0.679089 0.950833 0.449442
Si Si5 0.978992 0.559117 0.887395
Si Si6 0.439851 0.446903 0.452455
Si Si7 0.441829 0.934620 0.274507
Si Si8 0.317540 0.060433 0.221011
O O1 0.832184 0.250000 0.938299
O O2 0.923243 0.043382 0.923760
O O3 0.819716 0.958681 0.874039
O O4 0.843488 0.998882 0.034372
O O5 0.250000 0.501436 0.745419
O O6 0.178553 0.250000 0.730595
O O7 0.139086 0.505230 0.804330
O O8 0.163666 0.500998 0.641473
O O9 0.387242 0.750000 0.894771
O O10 0.453834 0.492141 0.905227
O O11 0.750000 0.001636 0.466864
O O12 0.679719 0.750000 0.451068
O O13 0.624284 0.005625 0.507454
O O14 0.972758 0.750000 0.911490
O O15 0.971997 0.548162 0.792170
O O16 0.500000 0.500000 0.500000
O O17 0.436744 0.250000 0.451026
O O18 0.448868 0.511019 0.363918
O O19 0.464913 0.750000 0.262838
O O20 0.369680 0.945908 0.255413
O O21 0.250000 0.020491 0.250061
O O22 0.331695 0.250000 0.241437
#
# Coordination Sequence:
#
# PCOD9450725 Si02
#       8
#     8   8   8   8   8   8   8   8
#     4  10  20  35  53  78 112 147 186 232 283 338
#     4   9  19  36  57  81 107 139 185 233 273 326
#     4  10  22  35  52  80 111 146 185 230 285 337
#     4   8  17  37  62  85 111 148 194 239 284 339
#     4  10  20  36  56  79 110 146 187 233 280 334
#     4  11  23  39  61  91 125 156 193 244 299 355
#     4  11  23  39  58  84 116 150 189 233 286 345
#     4  10  21  38  60  84 112 149 192 237 287 340
#
# _framework density 21.364951000000001
#
# number of rings (size 3 to 8) (size 9 to 14) (size 15 to 20)
#    0.000    2.125    0.000    5.250    1.750    4.250 
#    0.000    4.375    0.000    2.625    0.000    0.000 
#    0.000    0.000    0.000    0.000    0.000    0.000 
#
# Total GULP energy -357324.518610 kJ/mol
# GULP energy per Si atom -5583.195603 kJ/mol
# Density = 2.131632 g / cm^3
# Si number density = 21.364951 Si / 1000 Ang^3
#
#
#
# Elastic Constant Matrix: (Units=GPa)
#
#
# Indices 1 2 3 4 5 6 
#
# 1 48.6505 -2.3656 13.6400 0.0000 0.0000 0.0000
# 2 -2.3656 32.8974 -6.2067 0.0000 0.0000 0.0000
# 3 13.6400 -6.2067 88.9637 0.0000 0.0000 0.0000
# 4 0.0000 0.0000 0.0000 24.5783 0.0000 0.0000
# 5 0.0000 0.0000 0.0000 0.0000 -0.6900 0.0000
# 6 0.0000 0.0000 0.0000 0.0000 0.0000 17.6687
#
#
#
# Elastic Compliance Matrix: (Units=1/GPa)
#
#
# Indices 1 2 3 4 5 6 
#
# 1 0.021506 0.000937 -0.003232 0.000000 0.000000 0.000000
# 2 0.000937 0.030844 0.002008 0.000000 0.000000 0.000000
# 3 -0.003232 0.002008 0.011876 0.000000 0.000000 0.000000
# 4 0.000000 0.000000 0.000000 0.040686 0.000000 0.000000
# 5 0.000000 0.000000 0.000000 0.000000 -1.449268 0.000000
# 6 0.000000 0.000000 0.000000 0.000000 0.000000 0.056597
#
#
# Mechanical properties :
#
#
# Convention : Reuss Voigt Hill
#
# Bulk Modulus (GPa) = 15.71034 20.07187 17.89110
# Shear Modulus (GPa) = -3.94955 19.34099 7.69572
#
# Velocity S-wave (km/s) = -1.36111 3.01203 1.89996
# Velocity P-wave (km/s) = 2.21339 4.63806 3.63392
#
# Compressibility (1/GPa) = 0.06365236
#
# Stress axis : x y z
#
# Youngs Moduli (GPa) = 46.49762 32.42140 84.20205
#
# Poissons Ratio (x) = -0.03037 0.27214
# Poissons Ratio (y) = -0.04355 -0.16910
# Poissons Ratio (z) = 0.15028 -0.06511
#
# Static dielectric constant tensor:
#      x y z
#    x 1.787400 0.000000 0.000000 
#    y 0.000000 1.732830 0.000000 
#    z 0.000000 0.000000 1.779490 
# 
# From -- ./inp_files/28473.got.cif
#   From: 2010.05.17/outbox.cif.g08.bks.cpg/sg59_15_cif.got.tgz:28473.got - 2010.06.03 14:40:33.
