data_PCOD9450778
_publ_section_title
;
Structure prediction by ZEFSAII (Michael W. Deem and Ramdas Pophale) SiO2 
 PCOD9450778
Probable space group: P M M N
;
_chemical_formula_sum "Si O2"
_cell_formula_units_Z 48
_cell_length_a 9.032563
_cell_length_b 18.089420
_cell_length_c 15.878782
_cell_angle_alpha 90.000000
_cell_angle_beta 90.000000
_cell_angle_gamma 90.000000
_cell_volume 2594.494940
_symmetry_space_group_name_H-M "P M M N"
_symmetry_group_IT_number 59
_space_group.IT_coordinate_system_code '2'
_symmetry_cell_setting 'orthorhombic'
loop_
_space_group_symop_operation_xyz
x,y,z
1/2-x,1/2-y,z
1/2+x,-y,-z
-x,1/2+y,-z
-x,-y,-z
1/2+x,1/2+y,-z
1/2-x,y,z
x,1/2-y,z
loop_
_atom_site_type_symbol
_atom_site_label
_atom_site_fract_x
_atom_site_fract_y
_atom_site_fract_z
Si Si1 0.929887 0.428337 0.851465
Si Si2 0.424268 0.839086 0.659114
Si Si3 0.079467 0.339999 0.513900
Si Si4 0.072219 0.837269 0.312473
Si Si5 0.072405 0.401666 0.174050
Si Si6 0.573195 0.164850 0.011898
O O1 0.750000 0.425076 0.852348
O O2 0.977395 0.383222 0.768787
O O3 0.972417 0.513661 0.844811
O O4 0.979479 0.388929 0.937251
O O5 0.250000 0.855173 0.662003
O O6 0.442253 0.750000 0.665408
O O7 0.492487 0.863307 0.569752
O O8 0.506964 0.875819 0.737225
O O9 0.250000 0.363369 0.510116
O O10 0.076122 0.250000 0.514229
O O11 0.003536 0.362983 0.601144
O O12 0.250000 0.844377 0.321103
O O13 0.040442 0.750000 0.300048
O O14 0.250000 0.397212 0.176198
O O15 0.008428 0.352457 0.098633
O O16 0.750000 0.154265 0.024109
O O17 0.550842 0.250000 0.986464
#
# Coordination Sequence:
#
# PCOD9450778 Si02
#       6
#     8   8   8   8   8   8
#     4   9  19  35  54  77 105 138 174 211 254 305
#     4  10  20  35  55  77 101 134 178 220 255 300
#     4   9  17  30  50  78 109 136 166 211 264 309
#     4   9  16  30  54  79 102 133 175 217 254 299
#     4  11  22  35  52  76 108 140 169 209 262 313
#     4  10  20  36  58  80 102 133 175 217 254 300
#
# _framework density 18.500710999999999
#
# number of rings (size 3 to 8) (size 9 to 14) (size 15 to 20)
#    0.000    2.333    0.000    3.000    0.000    7.333 
#    0.000    4.167    0.000    2.000    0.000    0.000 
#    0.000    0.000    0.000    0.000    0.000    0.000 
#
# Total GULP energy -267938.899122 kJ/mol
# GULP energy per Si atom -5582.060398 kJ/mol
# Density = 1.845860 g / cm^3
# Si number density = 18.500711 Si / 1000 Ang^3
#
#
#
# Elastic Constant Matrix: (Units=GPa)
#
#
# Indices 1 2 3 4 5 6 
#
# 1 38.6563 18.0332 13.4015 0.0000 0.0000 0.0000
# 2 18.0332 26.3464 0.5515 0.0000 0.0000 0.0000
# 3 13.4015 0.5515 79.9128 0.0000 0.0000 0.0000
# 4 0.0000 0.0000 0.0000 -3.7678 0.0000 0.0000
# 5 0.0000 0.0000 0.0000 0.0000 16.6071 0.0000
# 6 0.0000 0.0000 0.0000 0.0000 0.0000 18.0673
#
#
#
# Elastic Compliance Matrix: (Units=1/GPa)
#
#
# Indices 1 2 3 4 5 6 
#
# 1 0.041339 -0.028154 -0.006738 0.000000 0.000000 0.000000
# 2 -0.028154 0.057135 0.004327 0.000000 0.000000 0.000000
# 3 -0.006738 0.004327 0.013614 0.000000 0.000000 0.000000
# 4 0.000000 0.000000 0.000000 -0.265409 0.000000 0.000000
# 5 0.000000 0.000000 0.000000 0.000000 0.060215 0.000000
# 6 0.000000 0.000000 0.000000 0.000000 0.000000 0.055349
#
#
# Mechanical properties :
#
#
# Convention : Reuss Voigt Hill
#
# Bulk Modulus (GPa) = 19.62397 23.20977 21.41687
# Shear Modulus (GPa) = 123.88933 13.70995 68.79964
#
# Velocity S-wave (km/s) = 8.19207 2.72518 6.10478
# Velocity P-wave (km/s) = 10.00551 4.74075 7.82895
#
# Compressibility (1/GPa) = 0.05095809
#
# Stress axis : x y z
#
# Youngs Moduli (GPa) = 24.19040 17.50228 73.45499
#
# Poissons Ratio (x) = 0.49275 0.49496
# Poissons Ratio (y) = 0.68105 -0.31785
# Poissons Ratio (z) = 0.16300 -0.07573
#
# Static dielectric constant tensor:
#      x y z
#    x 1.617260 0.000000 0.000000 
#    y 0.000000 1.635660 0.000000 
#    z 0.000000 0.000000 1.607850 
# 
# From -- ./inp_files/20281.got.cif
#   From: 2010.05.17/outbox.cif.g08.bks.cpg/sg59_11_cif.got.tgz:20281.got - 2010.06.03 14:40:33.
