data_PCOD9450788
_publ_section_title
;
Structure prediction by ZEFSAII (Michael W. Deem and Ramdas Pophale) SiO2 
 PCOD9450788
Probable space group: P M M N
;
_chemical_formula_sum "Si O2"
_cell_formula_units_Z 56
_cell_length_a 14.788876
_cell_length_b 8.839556
_cell_length_c 21.647954
_cell_angle_alpha 90.000000
_cell_angle_beta 90.000000
_cell_angle_gamma 90.000000
_cell_volume 2829.974195
_symmetry_space_group_name_H-M "P M M N"
_symmetry_group_IT_number 59
_space_group.IT_coordinate_system_code '2'
_symmetry_cell_setting 'orthorhombic'
loop_
_space_group_symop_operation_xyz
x,y,z
1/2-x,1/2-y,z
1/2+x,-y,-z
-x,1/2+y,-z
-x,-y,-z
1/2+x,1/2+y,-z
1/2-x,y,z
x,1/2-y,z
loop_
_atom_site_type_symbol
_atom_site_label
_atom_site_fract_x
_atom_site_fract_y
_atom_site_fract_z
Si Si1 0.147703 0.917196 0.091327
Si Si2 0.477039 0.067894 0.592517
Si Si3 0.357374 0.570697 0.842119
Si Si4 0.358162 0.073245 0.214201
Si Si5 0.354955 0.067295 0.476158
Si Si6 0.407665 0.069589 0.973491
Si Si7 0.973414 0.570240 0.268112
O O1 0.250000 0.895006 0.112097
O O2 0.103374 0.750000 0.088994
O O3 0.110826 0.025685 0.144638
O O4 0.154673 0.994412 0.025205
O O5 0.486052 0.250000 0.590520
O O6 0.401150 0.024878 0.541938
O O7 0.449655 0.025491 0.661909
O O8 0.573577 0.997659 0.573207
O O9 0.250000 0.544994 0.833349
O O10 0.372202 0.750000 0.850320
O O11 0.387370 0.486549 0.904852
O O12 0.413303 0.511529 0.783555
O O13 0.250000 0.052485 0.223099
O O14 0.376847 0.250000 0.223294
O O15 0.421828 0.973937 0.257405
O O16 0.250000 0.018039 0.470583
O O17 0.355470 0.250000 0.471926
O O18 0.404728 0.250000 0.976576
O O19 0.500000 0.000000 0.000000
O O20 0.962400 0.750000 0.260896
#
# Coordination Sequence:
#
# PCOD9450788 Si02
#       7
#     8   8   8   8   8   8   8
#     4  10  20  35  55  78 105 136 174 225 284 342
#     4   9  20  37  57  85 119 154 192 235 283 338
#     4  11  25  44  63  85 117 156 200 250 300 352
#     4  10  21  37  57  82 114 153 197 245 299 359
#     4   9  18  35  60  88 118 152 190 234 283 335
#     4  12  24  38  58  82 110 144 186 237 293 352
#     4  11  23  39  60  85 117 157 198 241 290 347
#
# _framework density 19.788167000000001
#
# number of rings (size 3 to 8) (size 9 to 14) (size 15 to 20)
#    0.000    1.714    0.000    4.286    0.000    7.143 
#    0.000    4.286    0.000    0.000    0.000    0.000 
#    0.000    0.000    0.000    0.000    0.000    0.000 
#
# Total GULP energy -312424.231019 kJ/mol
# GULP energy per Si atom -5579.004125 kJ/mol
# Density = 1.974313 g / cm^3
# Si number density = 19.788167 Si / 1000 Ang^3
#
#
#
# Elastic Constant Matrix: (Units=GPa)
#
#
# Indices 1 2 3 4 5 6 
#
# 1 80.2784 19.8147 7.3058 0.0000 0.0000 0.0000
# 2 19.8147 69.7198 22.2199 0.0000 0.0000 0.0000
# 3 7.3058 22.2199 85.8524 0.0000 0.0000 0.0000
# 4 0.0000 0.0000 0.0000 27.9796 0.0000 0.0000
# 5 0.0000 0.0000 0.0000 0.0000 14.2257 0.0000
# 6 0.0000 0.0000 0.0000 0.0000 0.0000 26.4010
#
#
#
# Elastic Compliance Matrix: (Units=1/GPa)
#
#
# Indices 1 2 3 4 5 6 
#
# 1 0.013399 -0.003754 -0.000169 0.000000 0.000000 0.000000
# 2 -0.003754 0.016685 -0.003999 0.000000 0.000000 0.000000
# 3 -0.000169 -0.003999 0.012697 0.000000 0.000000 0.000000
# 4 0.000000 0.000000 0.000000 0.035740 0.000000 0.000000
# 5 0.000000 0.000000 0.000000 0.000000 0.070295 0.000000
# 6 0.000000 0.000000 0.000000 0.000000 0.000000 0.037877
#
#
# Mechanical properties :
#
#
# Convention : Reuss Voigt Hill
#
# Bulk Modulus (GPa) = 37.12324 37.17016 37.14670
# Shear Modulus (GPa) = 23.63892 26.15526 24.89709
#
# Velocity S-wave (km/s) = 3.46005 3.63955 3.55093
# Velocity P-wave (km/s) = 5.89607 6.04041 5.96868
#
# Compressibility (1/GPa) = 0.02693730
#
# Stress axis : x y z
#
# Youngs Moduli (GPa) = 74.63449 59.93582 78.75764
#
# Poissons Ratio (x) = 0.22501 0.01327
# Poissons Ratio (y) = 0.28020 0.31493
# Poissons Ratio (z) = 0.01258 0.23967
#
# Static dielectric constant tensor:
#      x y z
#    x 1.647580 0.000000 0.000000 
#    y 0.000000 1.729820 0.000000 
#    z 0.000000 0.000000 0.815900 
# 
# From -- ./inp_files/30400.got.cif
#   From: 2010.05.17/outbox.cif.g08.bks.cpg/sg59_16_cif.got.tgz:30400.got - 2010.06.03 14:40:33.
