data_PCOD9450773
_publ_section_title
;
Structure prediction by ZEFSAII (Michael W. Deem and Ramdas Pophale) SiO2 
 PCOD9450773
Probable space group: P M M N
;
_chemical_formula_sum "Si O2"
_cell_formula_units_Z 64
_cell_length_a 9.338763
_cell_length_b 18.214594
_cell_length_c 22.224778
_cell_angle_alpha 90.000000
_cell_angle_beta 90.000000
_cell_angle_gamma 90.000000
_cell_volume 3780.474220
_symmetry_space_group_name_H-M "P M M N"
_symmetry_group_IT_number 59
_space_group.IT_coordinate_system_code '2'
_symmetry_cell_setting 'orthorhombic'
loop_
_space_group_symop_operation_xyz
x,y,z
1/2-x,1/2-y,z
1/2+x,-y,-z
-x,1/2+y,-z
-x,-y,-z
1/2+x,1/2+y,-z
1/2-x,y,z
x,1/2-y,z
loop_
_atom_site_type_symbol
_atom_site_label
_atom_site_fract_x
_atom_site_fract_y
_atom_site_fract_z
Si Si1 0.579105 0.669067 0.373664
Si Si2 0.078066 0.481746 0.561980
Si Si3 0.080767 0.838123 0.130873
Si Si4 0.918780 0.391869 0.739047
Si Si5 0.585186 0.660416 0.010812
Si Si6 0.085149 0.660432 0.892248
Si Si7 0.918772 0.546194 0.673838
Si Si8 0.419893 0.336716 0.227955
O O1 0.750000 0.666045 0.364716
O O2 0.541409 0.750000 0.396956
O O3 0.542355 0.601728 0.417414
O O4 0.503335 0.655322 0.309982
O O5 0.250000 0.488805 0.557228
O O6 0.000000 0.500000 0.500000
O O7 0.015008 0.531987 0.615569
O O8 0.250000 0.851884 0.121057
O O9 0.063674 0.750000 0.138422
O O10 0.034951 0.876523 0.192824
O O11 0.992546 0.861743 0.072401
O O12 0.750000 0.373228 0.735856
O O13 0.935320 0.475836 0.717766
O O14 0.750000 0.637040 0.008968
O O15 0.583473 0.750000 0.010148
O O16 0.499887 0.635954 0.951536
O O17 0.250000 0.637054 0.893713
O O18 0.083347 0.750000 0.892915
O O19 0.006971 0.638372 0.830704
O O20 0.750000 0.549873 0.656815
O O21 0.957024 0.617188 0.712930
O O22 0.250000 0.347200 0.216611
O O23 0.444705 0.250000 0.236781
#
# Coordination Sequence:
#
# PCOD9450773 Si02
#       8
#     8   8   8   8   8   8   8   8
#     4   9  18  32  50  73  99 126 159 198 235 272
#     4  10  20  35  55  76 100 131 163 194 230 275
#     4   9  16  25  38  59  88 119 150 186 229 275
#     4   9  17  29  46  68  94 125 158 192 233 280
#     4   9  16  25  38  58  85 117 153 192 233 278
#     4   9  16  26  42  64  89 117 150 192 241 286
#     4   9  18  33  52  73  97 125 156 190 230 278
#     4   9  17  30  49  72  96 122 154 193 237 284
#
# _framework density 16.929093999999999
#
# number of rings (size 3 to 8) (size 9 to 14) (size 15 to 20)
#    0.000    2.875    0.000    1.500    0.000    5.250 
#    0.000    1.875    0.000    4.500    0.000    0.000 
#    0.000    0.000    0.000    0.000    0.000    0.000 
#
# Total GULP energy -356699.762657 kJ/mol
# GULP energy per Si atom -5573.433792 kJ/mol
# Density = 1.689056 g / cm^3
# Si number density = 16.929094 Si / 1000 Ang^3
#
#
#
# Elastic Constant Matrix: (Units=GPa)
#
#
# Indices 1 2 3 4 5 6 
#
# 1 80.5273 38.5497 88.7712 0.0000 0.0000 0.0000
# 2 38.5497 39.7947 56.6962 0.0000 0.0000 0.0000
# 3 88.7712 56.6962 169.7790 0.0000 0.0000 0.0000
# 4 0.0000 0.0000 0.0000 17.2416 0.0000 0.0000
# 5 0.0000 0.0000 0.0000 0.0000 34.7907 0.0000
# 6 0.0000 0.0000 0.0000 0.0000 0.0000 15.1283
#
#
#
# Elastic Compliance Matrix: (Units=1/GPa)
#
#
# Indices 1 2 3 4 5 6 
#
# 1 0.032992 -0.014084 -0.012547 0.000000 0.000000 0.000000
# 2 -0.014084 0.053947 -0.010651 0.000000 0.000000 0.000000
# 3 -0.012547 -0.010651 0.016007 0.000000 0.000000 0.000000
# 4 0.000000 0.000000 0.000000 0.057999 0.000000 0.000000
# 5 0.000000 0.000000 0.000000 0.000000 0.028743 0.000000
# 6 0.000000 0.000000 0.000000 0.000000 0.000000 0.066101
#
#
# Mechanical properties :
#
#
# Convention : Reuss Voigt Hill
#
# Bulk Modulus (GPa) = 35.23340 73.12613 54.17976
# Shear Modulus (GPa) = 14.71389 20.50439 17.60914
#
# Velocity S-wave (km/s) = 2.95133 3.48399 3.22867
# Velocity P-wave (km/s) = 5.69836 7.71191 6.78030
#
# Compressibility (1/GPa) = 0.02838216
#
# Stress axis : x y z
#
# Youngs Moduli (GPa) = 30.31058 18.53668 62.47121
#
# Poissons Ratio (x) = 0.26106 0.78383
# Poissons Ratio (y) = 0.42688 0.66541
# Poissons Ratio (z) = 0.38031 0.19744
#
# Static dielectric constant tensor:
#      x y z
#    x 1.566810 0.000000 0.000000 
#    y 0.000000 1.579750 0.000000 
#    z 0.000000 0.000000 1.543380 
# 
# From -- ./inp_files/29727.got.cif
#   From: 2010.05.17/outbox.cif.g08.bks.cpg/sg59_15_cif.got.tgz:29727.got - 2010.06.03 14:40:33.
