data_PCOD9450786
_publ_section_title
;
Structure prediction by ZEFSAII (Michael W. Deem and Ramdas Pophale) SiO2 
 PCOD9450786
Probable space group: P M M N
;
_chemical_formula_sum "Si O2"
_cell_formula_units_Z 64
_cell_length_a 8.805076
_cell_length_b 14.563302
_cell_length_c 26.344427
_cell_angle_alpha 90.000000
_cell_angle_beta 90.000000
_cell_angle_gamma 90.000000
_cell_volume 3378.171716
_symmetry_space_group_name_H-M "P M M N"
_symmetry_group_IT_number 59
_space_group.IT_coordinate_system_code '2'
_symmetry_cell_setting 'orthorhombic'
loop_
_space_group_symop_operation_xyz
x,y,z
1/2-x,1/2-y,z
1/2+x,-y,-z
-x,1/2+y,-z
-x,-y,-z
1/2+x,1/2+y,-z
1/2-x,y,z
x,1/2-y,z
loop_
_atom_site_type_symbol
_atom_site_label
_atom_site_fract_x
_atom_site_fract_y
_atom_site_fract_z
Si Si1 0.930947 0.903143 0.016436
Si Si2 0.571951 0.358627 0.874359
Si Si3 0.067945 0.036657 0.778471
Si Si4 0.435008 0.356109 0.677083
Si Si5 0.082571 0.854217 0.916040
Si Si6 0.933477 0.355690 0.476087
Si Si7 0.566337 0.543731 0.425886
Si Si8 0.930211 0.641713 0.813182
O O1 0.750000 0.900153 0.015740
O O2 0.999984 0.847672 0.969598
O O3 0.991577 0.877436 0.071760
O O4 0.000000 0.000000 0.000000
O O5 0.750000 0.382023 0.879328
O O6 0.558954 0.250000 0.863857
O O7 0.498758 0.414134 0.828274
O O8 0.250000 0.037547 0.781601
O O9 0.018838 0.093641 0.728915
O O10 0.011676 0.931462 0.777158
O O11 0.250000 0.354587 0.676935
O O12 0.485952 0.250000 0.674766
O O13 0.482563 0.414532 0.627942
O O14 0.250000 0.899549 0.919758
O O15 0.105928 0.750000 0.900275
O O16 0.981196 0.890234 0.870039
O O17 0.750000 0.355095 0.478805
O O18 0.982122 0.250000 0.465875
O O19 0.976411 0.437011 0.436396
O O20 0.999032 0.393296 0.529254
O O21 0.750000 0.548717 0.428585
O O22 0.750000 0.632815 0.809435
O O23 0.966457 0.750000 0.804372
#
# Coordination Sequence:
#
# PCOD9450786 Si02
#       8
#     8   8   8   8   8   8   8   8
#     4  12  24  37  54  76 105 138 173 214 263 321
#     4  11  24  41  59  80 109 144 182 224 272 328
#     4  11  22  37  58  82 108 138 178 228 277 325
#     4   9  18  33  54  80 108 139 179 226 271 316
#     4  10  20  35  55  78 103 129 161 204 254 311
#     4   9  17  29  47  76 114 149 181 223 274 321
#     4   9  17  31  52  77 106 145 190 228 266 319
#     4  10  21  38  59  81 107 140 177 218 268 327
#
# _framework density 18.945159
#
# number of rings (size 3 to 8) (size 9 to 14) (size 15 to 20)
#    0.000    1.875    0.000    4.500    0.000    5.250 
#    0.000    1.875    0.000    5.250    0.000    0.000 
#    0.000    0.000    0.000    0.000    0.000    0.000 
#
# Total GULP energy -356891.343278 kJ/mol
# GULP energy per Si atom -5576.427239 kJ/mol
# Density = 1.890204 g / cm^3
# Si number density = 18.945159 Si / 1000 Ang^3
#
#
#
# Elastic Constant Matrix: (Units=GPa)
#
#
# Indices 1 2 3 4 5 6 
#
# 1 71.7813 42.6814 27.3332 0.0000 0.0000 0.0000
# 2 42.6814 149.5205 75.7300 0.0000 0.0000 0.0000
# 3 27.3332 75.7300 114.7144 0.0000 0.0000 0.0000
# 4 0.0000 0.0000 0.0000 26.0174 0.0000 0.0000
# 5 0.0000 0.0000 0.0000 0.0000 21.8373 0.0000
# 6 0.0000 0.0000 0.0000 0.0000 0.0000 26.4443
#
#
#
# Elastic Compliance Matrix: (Units=1/GPa)
#
#
# Indices 1 2 3 4 5 6 
#
# 1 0.016900 -0.004184 -0.001265 0.000000 0.000000 0.000000
# 2 -0.004184 0.011083 -0.006320 0.000000 0.000000 0.000000
# 3 -0.001265 -0.006320 0.013191 0.000000 0.000000 0.000000
# 4 0.000000 0.000000 0.000000 0.038436 0.000000 0.000000
# 5 0.000000 0.000000 0.000000 0.000000 0.045793 0.000000
# 6 0.000000 0.000000 0.000000 0.000000 0.000000 0.037815
#
#
# Mechanical properties :
#
#
# Convention : Reuss Voigt Hill
#
# Bulk Modulus (GPa) = 56.69738 69.72282 63.21010
# Shear Modulus (GPa) = 25.95582 27.54458 26.75020
#
# Velocity S-wave (km/s) = 3.70543 3.81716 3.76171
# Velocity P-wave (km/s) = 6.94975 7.50399 7.23218
#
# Compressibility (1/GPa) = 0.01763750
#
# Stress axis : x y z
#
# Youngs Moduli (GPa) = 59.16986 90.22672 75.81010
#
# Poissons Ratio (x) = 0.37747 0.09591
# Poissons Ratio (y) = 0.24754 0.47911
# Poissons Ratio (z) = 0.07485 0.57022
#
# Static dielectric constant tensor:
#      x y z
#    x 1.657000 0.000000 0.000000 
#    y 0.000000 1.671570 0.000000 
#    z 0.000000 0.000000 1.822780 
# 
# From -- ./inp_files/31658.got.cif
#   From: 2010.05.17/outbox.cif.g08.bks.cpg/sg59_16_cif.got.tgz:31658.got - 2010.06.03 14:40:33.
