data_PCOD9450381
_publ_section_title
;
Structure prediction by ZEFSAII (Michael W. Deem and Ramdas Pophale) SiO2 
 PCOD9450381
Probable space group: P M M N
;
_chemical_formula_sum "Si O2"
_cell_formula_units_Z 40
_cell_length_a 9.314109
_cell_length_b 15.292743
_cell_length_c 13.339068
_cell_angle_alpha 90.000000
_cell_angle_beta 90.000000
_cell_angle_gamma 90.000000
_cell_volume 1899.993839
_symmetry_space_group_name_H-M "P M M N"
_symmetry_group_IT_number 59
_space_group.IT_coordinate_system_code '2'
_symmetry_cell_setting 'orthorhombic'
loop_
_space_group_symop_operation_xyz
x,y,z
1/2-x,1/2-y,z
1/2+x,-y,-z
-x,1/2+y,-z
-x,-y,-z
1/2+x,1/2+y,-z
1/2-x,y,z
x,1/2-y,z
loop_
_atom_site_type_symbol
_atom_site_label
_atom_site_fract_x
_atom_site_fract_y
_atom_site_fract_z
Si Si1 0.088441 0.393203 0.290040
Si Si2 0.411603 0.145208 0.905883
Si Si3 0.910997 0.354437 0.094937
Si Si4 0.922489 0.905843 0.489235
Si Si5 0.585624 0.104541 0.705768
O O1 0.250000 0.363899 0.263222
O O2 0.054362 0.361039 0.402607
O O3 0.090497 0.498717 0.296601
O O4 0.978971 0.369059 0.203583
O O5 0.250000 0.110701 0.893734
O O6 0.401395 0.250000 0.916226
O O7 0.507191 0.128198 0.808466
O O8 0.487889 0.110639 0.006290
O O9 0.750000 0.390221 0.088126
O O10 0.902447 0.250000 0.080649
O O11 0.750000 0.915621 0.476461
O O12 0.994758 0.864848 0.390920
O O13 0.000000 0.000000 0.500000
O O14 0.750000 0.135996 0.702554
#
# Coordination Sequence:
#
# PCOD9450381 Si02
#       5
#     8   8   8   8   8
#     4   9  19  34  53  78 105 135 171 209 252 303
#     4  10  21  37  56  76 101 136 174 211 257 311
#     4  10  21  36  54  76 102 134 172 213 258 306
#     4   9  17  31  51  76 106 138 172 210 255 306
#     4  10  20  34  54  80 107 135 171 214 258 305
#
# _framework density 21.052699
#
# number of rings (size 3 to 8) (size 9 to 14) (size 15 to 20)
#    0.000    2.400    0.000    3.600    0.000    8.000 
#    0.000    1.000    0.000    1.200    0.000    0.000 
#    0.000    0.000    0.000    0.000    0.000    0.000 
#
# Total GULP energy -223274.970210 kJ/mol
# GULP energy per Si atom -5581.874255 kJ/mol
# Density = 2.100478 g / cm^3
# Si number density = 21.052699 Si / 1000 Ang^3
#
#
#
# Elastic Constant Matrix: (Units=GPa)
#
#
# Indices 1 2 3 4 5 6 
#
# 1 193.5549 6.8294 122.8014 0.0000 0.0000 0.0000
# 2 6.8294 36.7413 -1.8665 0.0000 0.0000 0.0000
# 3 122.8014 -1.8665 176.7214 0.0000 0.0000 0.0000
# 4 0.0000 0.0000 0.0000 29.1227 0.0000 0.0000
# 5 0.0000 0.0000 0.0000 0.0000 43.0799 0.0000
# 6 0.0000 0.0000 0.0000 0.0000 0.0000 17.3613
#
#
#
# Elastic Compliance Matrix: (Units=1/GPa)
#
#
# Indices 1 2 3 4 5 6 
#
# 1 0.009396 -0.002079 -0.006551 0.000000 0.000000 0.000000
# 2 -0.002079 0.027692 0.001737 0.000000 0.000000 0.000000
# 3 -0.006551 0.001737 0.010229 0.000000 0.000000 0.000000
# 4 0.000000 0.000000 0.000000 0.034337 0.000000 0.000000
# 5 0.000000 0.000000 0.000000 0.000000 0.023213 0.000000
# 6 0.000000 0.000000 0.000000 0.000000 0.000000 0.057599
#
#
# Mechanical properties :
#
#
# Convention : Reuss Voigt Hill
#
# Bulk Modulus (GPa) = 29.82294 73.61624 51.71959
# Shear Modulus (GPa) = 26.67644 36.52967 31.60305
#
# Velocity S-wave (km/s) = 3.56353 4.17004 3.87866
# Velocity P-wave (km/s) = 5.57927 7.63080 6.68421
#
# Compressibility (1/GPa) = 0.03353124
#
# Stress axis : x y z
#
# Youngs Moduli (GPa) = 106.42337 36.11134 97.75671
#
# Poissons Ratio (x) = 0.07509 0.64045
# Poissons Ratio (y) = 0.22130 -0.16985
# Poissons Ratio (z) = 0.69722 -0.06274
#
# Static dielectric constant tensor:
#      x y z
#    x 1.763110 0.000000 0.000000 
#    y 0.000000 1.797490 0.000000 
#    z 0.000000 0.000000 1.748060 
# 
# From -- ./inp_files/13857.got.cif
#   From: 2010.05.17/outbox.cif.g08.bks.cpg/sg59_7_cif.got.tgz:13857.got - 2010.06.03 14:40:33.
