data_PCOD9450560
_publ_section_title
;
Structure prediction by ZEFSAII (Michael W. Deem and Ramdas Pophale) SiO2 
 PCOD9450560
Probable space group: P M M N
;
_chemical_formula_sum "Si O2"
_cell_formula_units_Z 56
_cell_length_a 7.537034
_cell_length_b 20.619718
_cell_length_c 15.006690
_cell_angle_alpha 90.000000
_cell_angle_beta 90.000000
_cell_angle_gamma 90.000000
_cell_volume 2332.212438
_symmetry_space_group_name_H-M "P M M N"
_symmetry_group_IT_number 59
_space_group.IT_coordinate_system_code '2'
_symmetry_cell_setting 'orthorhombic'
loop_
_space_group_symop_operation_xyz
x,y,z
1/2-x,1/2-y,z
1/2+x,-y,-z
-x,1/2+y,-z
-x,-y,-z
1/2+x,1/2+y,-z
1/2-x,y,z
x,1/2-y,z
loop_
_atom_site_type_symbol
_atom_site_label
_atom_site_fract_x
_atom_site_fract_y
_atom_site_fract_z
Si Si1 0.454625 0.250000 0.641884
Si Si2 0.960393 0.429442 0.468067
Si Si3 0.537086 0.250000 0.432395
Si Si4 0.031422 0.551089 0.168602
Si Si5 0.955437 0.390392 0.653000
Si Si6 0.048350 0.091533 0.109878
Si Si7 0.955544 0.175367 0.943577
Si Si8 0.037061 0.868165 0.697915
O O1 0.250000 0.250000 0.665391
O O2 0.471860 0.250000 0.533596
O O3 0.537190 0.184569 0.680639
O O4 0.750000 0.413937 0.460998
O O5 0.034482 0.390361 0.553017
O O6 0.024039 0.425517 0.367003
O O7 0.000000 0.500000 0.500000
O O8 0.750000 0.250000 0.441762
O O9 0.489154 0.189835 0.369587
O O10 0.250000 0.549557 0.167792
O O11 0.970305 0.563397 0.270341
O O12 0.974332 0.481919 0.125969
O O13 0.971491 0.616251 0.117086
O O14 0.750000 0.409189 0.642623
O O15 0.250000 0.083010 0.078803
O O16 0.961503 0.141446 0.041031
O O17 0.045964 0.125485 0.206304
O O18 0.750000 0.181332 0.917603
O O19 0.028220 0.250000 0.942163
O O20 0.250000 0.866234 0.713061
#
# Coordination Sequence:
#
# PCOD9450560 Si02
#       8
#     4   8   4   8   8   8   8   8
#     4  12  24  36  54  87 124 157 198 253 310 354
#     4  10  20  34  55  83 116 155 196 241 292 348
#     4  10  20  40  62  79 110 159 210 251 292 352
#     4   9  20  39  66  94 117 154 207 250 293 355
#     4  10  20  38  62  84 114 159 206 245 290 355
#     4  11  23  40  63  92 125 157 193 248 312 365
#     4  10  22  41  65  93 120 154 203 250 291 355
#     4  10  21  37  59  86 115 156 205 245 289 350
#
# _framework density 24.011534999999999
#
# number of rings (size 3 to 8) (size 9 to 14) (size 15 to 20)
#    0.000    1.857    1.429    2.357    2.000    3.143 
#    0.000    2.857    0.000    0.000    0.000    0.000 
#    0.000    0.000    0.000    0.000    0.000    0.000 
#
# Total GULP energy -312276.180622 kJ/mol
# GULP energy per Si atom -5576.360368 kJ/mol
# Density = 2.395688 g / cm^3
# Si number density = 24.011535 Si / 1000 Ang^3
#
#
#
# Elastic Constant Matrix: (Units=GPa)
#
#
# Indices 1 2 3 4 5 6 
#
# 1 61.1029 2.1187 4.1408 0.0000 0.0000 0.0000
# 2 2.1187 112.5890 -2.3431 0.0000 0.0000 0.0000
# 3 4.1408 -2.3431 80.9298 0.0000 0.0000 0.0000
# 4 0.0000 0.0000 0.0000 35.9498 0.0000 0.0000
# 5 0.0000 0.0000 0.0000 0.0000 8.8523 0.0000
# 6 0.0000 0.0000 0.0000 0.0000 0.0000 17.3753
#
#
#
# Elastic Compliance Matrix: (Units=1/GPa)
#
#
# Indices 1 2 3 4 5 6 
#
# 1 0.016435 -0.000327 -0.000850 0.000000 0.000000 0.000000
# 2 -0.000327 0.008894 0.000274 0.000000 0.000000 0.000000
# 3 -0.000850 0.000274 0.012408 0.000000 0.000000 0.000000
# 4 0.000000 0.000000 0.000000 0.027817 0.000000 0.000000
# 5 0.000000 0.000000 0.000000 0.000000 0.112965 0.000000
# 6 0.000000 0.000000 0.000000 0.000000 0.000000 0.057553
#
#
# Mechanical properties :
#
#
# Convention : Reuss Voigt Hill
#
# Bulk Modulus (GPa) = 27.83178 29.16161 28.49669
# Shear Modulus (GPa) = 20.01169 29.14915 24.58042
#
# Velocity S-wave (km/s) = 2.89003 3.48798 3.20299
# Velocity P-wave (km/s) = 4.76996 5.32846 5.05693
#
# Compressibility (1/GPa) = 0.03593015
#
# Stress axis : x y z
#
# Youngs Moduli (GPa) = 60.84652 112.43882 80.59421
#
# Poissons Ratio (x) = 0.03676 0.06853
# Poissons Ratio (y) = 0.01989 -0.02210
# Poissons Ratio (z) = 0.05174 -0.03083
#
# Static dielectric constant tensor:
#      x y z
#    x 1.955950 0.000000 0.000000 
#    y 0.000000 2.081770 0.000000 
#    z 0.000000 0.000000 1.942380 
# 
# From -- ./inp_files/21117.got.cif
#   From: 2010.05.17/outbox.cif.g08.bks.cpg/sg59_11_cif.got.tgz:21117.got - 2010.06.03 14:40:33.
