data_PCOD9450891
_publ_section_title
;
Structure prediction by ZEFSAII (Michael W. Deem and Ramdas Pophale) SiO2 
 PCOD9450891
Probable space group: P M M N
;
_chemical_formula_sum "Si O2"
_cell_formula_units_Z 48
_cell_length_a 7.681560
_cell_length_b 18.949942
_cell_length_c 15.302622
_cell_angle_alpha 90.000000
_cell_angle_beta 90.000000
_cell_angle_gamma 90.000000
_cell_volume 2227.527954
_symmetry_space_group_name_H-M "P M M N"
_symmetry_group_IT_number 59
_space_group.IT_coordinate_system_code '2'
_symmetry_cell_setting 'orthorhombic'
loop_
_space_group_symop_operation_xyz
x,y,z
1/2-x,1/2-y,z
1/2+x,-y,-z
-x,1/2+y,-z
-x,-y,-z
1/2+x,1/2+y,-z
1/2-x,y,z
x,1/2-y,z
loop_
_atom_site_type_symbol
_atom_site_label
_atom_site_fract_x
_atom_site_fract_y
_atom_site_fract_z
Si Si1 0.951788 0.004457 0.147857
Si Si2 0.458623 0.250000 0.722577
Si Si3 0.961230 0.896330 0.998835
Si Si4 0.956954 0.127338 0.589604
Si Si5 0.037366 0.250000 0.922491
Si Si6 0.547535 0.827824 0.600561
Si Si7 0.951408 0.978329 0.656219
O O1 0.750000 0.988109 0.165296
O O2 0.968580 0.076375 0.093078
O O3 0.042937 0.007172 0.240511
O O4 0.019713 0.947310 0.078095
O O5 0.250000 0.250000 0.724103
O O6 0.514937 0.319985 0.670594
O O7 0.522502 0.250000 0.822219
O O8 0.750000 0.900486 0.995006
O O9 0.016144 0.819015 0.025737
O O10 0.750000 0.123150 0.574272
O O11 0.039753 0.161312 0.503777
O O12 0.025104 0.048188 0.609072
O O13 0.250000 0.250000 0.919399
O O14 0.750000 0.825683 0.628666
O O15 0.472149 0.750000 0.621461
O O16 0.469248 0.901009 0.637864
O O17 0.750000 0.973958 0.627527
#
# Coordination Sequence:
#
# PCOD9450891 Si02
#       7
#     8   4   8   8   4   8   8
#     4  10  20  35  56  82 110 145 185 227 275 329
#     4  11  21  35  57  84 117 150 185 231 278 335
#     4   9  18  35  57  79 108 143 182 227 277 329
#     4  11  22  36  56  84 116 147 184 231 286 333
#     4   9  18  33  55  82 105 138 185 227 268 325
#     4  10  21  39  60  81 109 149 192 231 276 330
#     4  10  22  38  57  83 113 148 190 233 275 330
#
# _framework density 21.548552000000001
#
# number of rings (size 3 to 8) (size 9 to 14) (size 15 to 20)
#    0.000    2.000    0.833    2.750    0.000    4.000 
#    1.500    2.083    0.000    0.000    0.000    0.000 
#    0.000    0.000    0.000    0.000    0.000    0.000 
#
# Total GULP energy -268043.234935 kJ/mol
# GULP energy per Si atom -5584.234061 kJ/mol
# Density = 2.149951 g / cm^3
# Si number density = 21.548552 Si / 1000 Ang^3
#
#
#
# Elastic Constant Matrix: (Units=GPa)
#
#
# Indices 1 2 3 4 5 6 
#
# 1 47.0802 1.8063 -11.3292 0.0000 0.0000 0.0000
# 2 1.8063 152.2507 9.0826 0.0000 0.0000 0.0000
# 3 -11.3292 9.0826 21.1072 0.0000 0.0000 0.0000
# 4 0.0000 0.0000 0.0000 23.5245 0.0000 0.0000
# 5 0.0000 0.0000 0.0000 0.0000 19.9010 0.0000
# 6 0.0000 0.0000 0.0000 0.0000 0.0000 69.5615
#
#
#
# Elastic Compliance Matrix: (Units=1/GPa)
#
#
# Indices 1 2 3 4 5 6 
#
# 1 0.024571 -0.001107 0.013664 0.000000 0.000000 0.000000
# 2 -0.001107 0.006791 -0.003516 0.000000 0.000000 0.000000
# 3 0.013664 -0.003516 0.056225 0.000000 0.000000 0.000000
# 4 0.000000 0.000000 0.000000 0.042509 0.000000 0.000000
# 5 0.000000 0.000000 0.000000 0.000000 0.050249 0.000000
# 6 0.000000 0.000000 0.000000 0.000000 0.000000 0.014376
#
#
# Mechanical properties :
#
#
# Convention : Reuss Voigt Hill
#
# Bulk Modulus (GPa) = 9.46345 24.39528 16.92936
# Shear Modulus (GPa) = 23.60049 37.32261 30.46155
#
# Velocity S-wave (km/s) = 3.31301 4.16627 3.76390
# Velocity P-wave (km/s) = 4.36302 5.87277 5.17327
#
# Compressibility (1/GPa) = 0.10566973
#
# Stress axis : x y z
#
# Youngs Moduli (GPa) = 40.69846 147.25361 17.78583
#
# Poissons Ratio (x) = 0.16296 -0.24303
# Poissons Ratio (y) = 0.04504 0.06254
# Poissons Ratio (z) = -0.55612 0.51777
#
# Static dielectric constant tensor:
#      x y z
#    x 1.805620 0.000000 0.000000 
#    y 0.000000 1.822680 0.000000 
#    z 0.000000 0.000000 1.724050 
# 
# From -- ./inp_files/20526.got.cif
#   From: 2010.05.17/outbox.cif.g08.bks.cpg/sg59_11_cif.got.tgz:20526.got - 2010.06.03 14:40:33.
