data_PCOD9450610
_publ_section_title
;
Structure prediction by ZEFSAII (Michael W. Deem and Ramdas Pophale) SiO2 
 PCOD9450610
Probable space group: P M M N
;
_chemical_formula_sum "Si O2"
_cell_formula_units_Z 48
_cell_length_a 8.480624
_cell_length_b 16.582663
_cell_length_c 18.538560
_cell_angle_alpha 90.000000
_cell_angle_beta 90.000000
_cell_angle_gamma 90.000000
_cell_volume 2607.102346
_symmetry_space_group_name_H-M "P M M N"
_symmetry_group_IT_number 59
_space_group.IT_coordinate_system_code '2'
_symmetry_cell_setting 'orthorhombic'
loop_
_space_group_symop_operation_xyz
x,y,z
1/2-x,1/2-y,z
1/2+x,-y,-z
-x,1/2+y,-z
-x,-y,-z
1/2+x,1/2+y,-z
1/2-x,y,z
x,1/2-y,z
loop_
_atom_site_type_symbol
_atom_site_label
_atom_site_fract_x
_atom_site_fract_y
_atom_site_fract_z
Si Si1 0.440595 0.750000 0.452924
Si Si2 0.062043 0.584855 0.531313
Si Si3 0.061119 0.429959 0.308300
Si Si4 0.439480 0.494864 0.081036
Si Si5 0.440568 0.250000 0.710761
Si Si6 0.560660 0.918336 0.218396
Si Si7 0.441671 0.338358 0.167337
O O1 0.250000 0.750000 0.456468
O O2 0.495900 0.833338 0.491280
O O3 0.492400 0.750000 0.369888
O O4 0.250000 0.583706 0.524034
O O5 0.000000 0.500000 0.500000
O O6 0.015031 0.586556 0.614995
O O7 0.250000 0.430737 0.315905
O O8 0.016136 0.363350 0.248650
O O9 0.008236 0.514430 0.272739
O O10 0.250000 0.497714 0.081826
O O11 0.502190 0.560832 0.137900
O O12 0.493467 0.409442 0.114798
O O13 0.500000 0.500000 0.000000
O O14 0.250000 0.250000 0.705760
O O15 0.487962 0.330530 0.753475
O O16 0.750000 0.923724 0.219753
O O17 0.250000 0.337612 0.164728
O O18 0.500159 0.250000 0.148269
#
# Coordination Sequence:
#
# PCOD9450610 Si02
#       7
#     4   8   8   8   4   8   8
#     4  10  24  40  56  80 115 152 189 240 296 338
#     4  11  23  39  56  80 113 150 191 237 291 343
#     4  10  20  34  56  83 111 144 185 229 280 337
#     4  10  20  36  58  83 115 148 183 225 275 327
#     4  10  22  38  58  82 107 142 193 238 276 330
#     4  10  20  37  59  83 111 147 190 233 277 330
#     4   8  16  32  54  80 106 138 180 220 263 319
#
# _framework density 18.411245000000001
#
# number of rings (size 3 to 8) (size 9 to 14) (size 15 to 20)
#    0.000    2.167    0.000    4.000    1.167    5.333 
#    1.500    0.000    0.000    9.500    0.000    0.000 
#    0.000    0.000    0.000    0.000    0.000    0.000 
#
# Total GULP energy -267892.434785 kJ/mol
# GULP energy per Si atom -5581.092391 kJ/mol
# Density = 1.836934 g / cm^3
# Si number density = 18.411245 Si / 1000 Ang^3
#
#
#
# Elastic Constant Matrix: (Units=GPa)
#
#
# Indices 1 2 3 4 5 6 
#
# 1 34.0981 23.7494 19.8731 0.0000 0.0000 0.0000
# 2 23.7494 142.7011 85.8292 0.0000 0.0000 0.0000
# 3 19.8731 85.8292 164.9431 0.0000 0.0000 0.0000
# 4 0.0000 0.0000 0.0000 12.7643 0.0000 0.0000
# 5 0.0000 0.0000 0.0000 0.0000 36.3934 0.0000
# 6 0.0000 0.0000 0.0000 0.0000 0.0000 21.9289
#
#
#
# Elastic Compliance Matrix: (Units=1/GPa)
#
#
# Indices 1 2 3 4 5 6 
#
# 1 0.033479 -0.004579 -0.001651 0.000000 0.000000 0.000000
# 2 -0.004579 0.010826 -0.005082 0.000000 0.000000 0.000000
# 3 -0.001651 -0.005082 0.008906 0.000000 0.000000 0.000000
# 4 0.000000 0.000000 0.000000 0.078344 0.000000 0.000000
# 5 0.000000 0.000000 0.000000 0.000000 0.027477 0.000000
# 6 0.000000 0.000000 0.000000 0.000000 0.000000 0.045602
#
#
# Mechanical properties :
#
#
# Convention : Reuss Voigt Hill
#
# Bulk Modulus (GPa) = 32.69310 66.73842 49.71576
# Shear Modulus (GPa) = 21.05683 28.37004 24.71343
#
# Velocity S-wave (km/s) = 3.38552 3.92970 3.66772
# Velocity P-wave (km/s) = 5.75135 7.54437 6.70804
#
# Compressibility (1/GPa) = 0.03058749
#
# Stress axis : x y z
#
# Youngs Moduli (GPa) = 29.86989 92.36861 112.28411
#
# Poissons Ratio (x) = 0.42293 0.18539
# Poissons Ratio (y) = 0.13676 0.57061
# Poissons Ratio (z) = 0.04932 0.46940
#
# Static dielectric constant tensor:
#      x y z
#    x 1.609340 0.000000 0.000000 
#    y 0.000000 1.647260 0.000000 
#    z 0.000000 0.000000 1.599260 
# 
# From -- ./inp_files/25590.got.cif
#   From: 2010.05.17/outbox.cif.g08.bks.cpg/sg59_13_cif.got.tgz:25590.got - 2010.06.03 14:40:33.
