data_PCOD9450133
_publ_section_title
;
Structure prediction by ZEFSAII (Michael W. Deem and Ramdas Pophale) SiO2 
 PCOD9450133
Probable space group: P M M N
;
_chemical_formula_sum "Si O2"
_cell_formula_units_Z 48
_cell_length_a 9.018301
_cell_length_b 31.252656
_cell_length_c 10.374368
_cell_angle_alpha 90.000000
_cell_angle_beta 90.000000
_cell_angle_gamma 90.000000
_cell_volume 2923.972659
_symmetry_space_group_name_H-M "P M M N"
_symmetry_group_IT_number 59
_space_group.IT_coordinate_system_code '2'
_symmetry_cell_setting 'orthorhombic'
loop_
_space_group_symop_operation_xyz
x,y,z
1/2-x,1/2-y,z
1/2+x,-y,-z
-x,1/2+y,-z
-x,-y,-z
1/2+x,1/2+y,-z
1/2-x,y,z
x,1/2-y,z
loop_
_atom_site_type_symbol
_atom_site_label
_atom_site_fract_x
_atom_site_fract_y
_atom_site_fract_z
Si Si1 0.572610 0.109271 0.786388
Si Si2 0.572221 0.976927 0.121799
Si Si3 0.428185 0.526022 0.616229
Si Si4 0.427032 0.203449 0.492407
Si Si5 0.927253 0.117252 0.480117
Si Si6 0.927862 0.296436 0.775573
O O1 0.750000 0.102875 0.799003
O O2 0.488486 0.070944 0.855813
O O3 0.537721 0.108923 0.632180
O O4 0.535015 0.157367 0.835821
O O5 0.750000 0.976291 0.110089
O O6 0.531760 0.004252 0.249211
O O7 0.500000 0.000000 0.000000
O O8 0.500000 0.500000 0.500000
O O9 0.250000 0.524134 0.602885
O O10 0.471609 0.575559 0.600242
O O11 0.250000 0.200081 0.495853
O O12 0.466569 0.250000 0.434475
O O13 0.496259 0.160743 0.433869
O O14 0.490546 0.204088 0.638055
O O15 0.750000 0.122746 0.473632
O O16 0.750000 0.297926 0.752398
O O17 0.959919 0.250000 0.838942
#
# Coordination Sequence:
#
# PCOD9450133 Si02
#       6
#     8   8   8   8   8   8
#     4   9  16  28  47  69  96 127 159 198 242 286
#     4  11  23  36  51  71  98 132 167 204 248 295
#     4  10  20  34  52  74  97 126 163 203 244 288
#     4   9  16  24  36  60  94 126 156 192 235 283
#     4   9  17  29  46  68  94 124 159 198 241 288
#     4   8  14  25  41  62  91 126 158 190 235 287
#
# _framework density 16.416022000000002
#
# number of rings (size 3 to 8) (size 9 to 14) (size 15 to 20)
#    0.000    2.667    1.667    2.000    0.000    5.000 
#    0.000    0.000    0.000    0.000    0.000    1.167 
#    0.000    4.000    0.000    0.000    0.000    0.000 
#
# Total GULP energy -267205.275961 kJ/mol
# GULP energy per Si atom -5566.776583 kJ/mol
# Density = 1.637866 g / cm^3
# Si number density = 16.416022 Si / 1000 Ang^3
#
#
#
# Elastic Constant Matrix: (Units=GPa)
#
#
# Indices 1 2 3 4 5 6 
#
# 1 23.9229 53.7666 27.3010 0.0000 0.0000 0.0000
# 2 53.7666 209.8589 55.4014 0.0000 0.0000 0.0000
# 3 27.3010 55.4014 59.6038 0.0000 0.0000 0.0000
# 4 0.0000 0.0000 0.0000 14.2913 0.0000 0.0000
# 5 0.0000 0.0000 0.0000 0.0000 11.8050 0.0000
# 6 0.0000 0.0000 0.0000 0.0000 0.0000 31.8950
#
#
#
# Elastic Compliance Matrix: (Units=1/GPa)
#
#
# Indices 1 2 3 4 5 6 
#
# 1 0.158022 -0.028329 -0.046049 0.000000 0.000000 0.000000
# 2 -0.028329 0.011393 0.002386 0.000000 0.000000 0.000000
# 3 -0.046049 0.002386 0.035652 0.000000 0.000000 0.000000
# 4 0.000000 0.000000 0.000000 0.069973 0.000000 0.000000
# 5 0.000000 0.000000 0.000000 0.000000 0.084710 0.000000
# 6 0.000000 0.000000 0.000000 0.000000 0.000000 0.031353
#
#
# Mechanical properties :
#
#
# Convention : Reuss Voigt Hill
#
# Bulk Modulus (GPa) = 16.37112 62.92485 39.64798
# Shear Modulus (GPa) = 9.00173 22.05938 15.53055
#
# Velocity S-wave (km/s) = 2.34423 3.66973 3.07915
# Velocity P-wave (km/s) = 4.16191 7.50802 6.07009
#
# Compressibility (1/GPa) = 0.06108319
#
# Stress axis : x y z
#
# Youngs Moduli (GPa) = 6.32821 87.77109 28.04884
#
# Poissons Ratio (x) = 2.48649 1.29162
# Poissons Ratio (y) = 0.17927 -0.06693
# Poissons Ratio (z) = 0.29141 -0.20942
#
# Static dielectric constant tensor:
#      x y z
#    x 1.546700 0.000000 0.000000 
#    y 0.000000 1.616500 0.000000 
#    z 0.000000 0.000000 1.511140 
# 
# From -- ./inp_files/14520.got.cif
#   From: 2010.05.17/outbox.cif.g08.bks.cpg/sg59_8_cif.got.tgz:14520.got - 2010.06.03 14:40:33.
