data_PCOD9450653
_publ_section_title
;
Structure prediction by ZEFSAII (Michael W. Deem and Ramdas Pophale) SiO2 
 PCOD9450653
Probable space group: P M M N
;
_chemical_formula_sum "Si O2"
_cell_formula_units_Z 64
_cell_length_a 19.029052
_cell_length_b 14.026191
_cell_length_c 12.063851
_cell_angle_alpha 90.000000
_cell_angle_beta 90.000000
_cell_angle_gamma 90.000000
_cell_volume 3219.903573
_symmetry_space_group_name_H-M "P M M N"
_symmetry_group_IT_number 59
_space_group.IT_coordinate_system_code '2'
_symmetry_cell_setting 'orthorhombic'
loop_
_space_group_symop_operation_xyz
x,y,z
1/2-x,1/2-y,z
1/2+x,-y,-z
-x,1/2+y,-z
-x,-y,-z
1/2+x,1/2+y,-z
1/2-x,y,z
x,1/2-y,z
loop_
_atom_site_type_symbol
_atom_site_label
_atom_site_fract_x
_atom_site_fract_y
_atom_site_fract_z
Si Si1 0.919195 0.971317 0.021396
Si Si2 0.670944 0.021979 0.693064
Si Si3 0.946535 0.636634 0.460126
Si Si4 0.123632 0.642507 0.106629
Si Si5 0.832592 0.018434 0.446992
Si Si6 0.423696 0.361613 0.198368
Si Si7 0.552397 0.137089 0.340604
Si Si8 0.967569 0.641891 0.211238
O O1 0.906610 0.890739 0.927436
O O2 0.873683 0.063887 0.990433
O O3 0.916590 0.926686 0.142702
O O4 0.000000 0.000000 0.000000
O O5 0.750000 0.983168 0.691498
O O6 0.657818 0.062866 0.570522
O O7 0.619700 0.935862 0.727172
O O8 0.664708 0.101583 0.787758
O O9 0.936542 0.750000 0.470417
O O10 0.872747 0.582007 0.460774
O O11 0.978336 0.614657 0.338815
O O12 0.000109 0.609243 0.557699
O O13 0.142966 0.750000 0.075862
O O14 0.042802 0.642862 0.150351
O O15 0.750000 0.011071 0.423038
O O16 0.876798 0.078896 0.358612
O O17 0.409316 0.250000 0.220309
O O18 0.505662 0.378103 0.230318
O O19 0.566231 0.250000 0.348981
O O20 0.940058 0.750000 0.209305
#
# Coordination Sequence:
#
# PCOD9450653 Si02
#       8
#     8   8   8   8   8   8   8   8
#     4   9  18  30  52  81 112 140 175 228 281 324
#     4  10  21  34  51  80 112 147 180 222 284 339
#     4  10  20  34  57  83 112 149 187 231 278 327
#     4   9  18  32  50  77 109 141 179 223 272 325
#     4  11  23  35  53  79 115 153 184 226 273 329
#     4  10  20  35  56  83 111 142 179 228 281 334
#     4  10  21  36  57  83 110 146 188 230 279 328
#     4   9  17  30  52  82 110 141 182 231 279 321
#
# _framework density 19.876372
#
# number of rings (size 3 to 8) (size 9 to 14) (size 15 to 20)
#    0.000    2.250    1.250    1.500    5.250    3.000 
#    0.000    2.500    0.000    3.000    0.000    3.500 
#    0.000    0.000    0.000    0.000    0.000    0.000 
#
# Total GULP energy -357039.403159 kJ/mol
# GULP energy per Si atom -5578.740674 kJ/mol
# Density = 1.983113 g / cm^3
# Si number density = 19.876372 Si / 1000 Ang^3
#
#
#
# Elastic Constant Matrix: (Units=GPa)
#
#
# Indices 1 2 3 4 5 6 
#
# 1 68.9901 24.0402 -6.5619 0.0000 0.0000 0.0000
# 2 24.0402 86.2622 21.3904 0.0000 0.0000 0.0000
# 3 -6.5619 21.3904 48.9393 0.0000 0.0000 0.0000
# 4 0.0000 0.0000 0.0000 20.8891 0.0000 0.0000
# 5 0.0000 0.0000 0.0000 0.0000 16.6901 0.0000
# 6 0.0000 0.0000 0.0000 0.0000 0.0000 11.6877
#
#
#
# Elastic Compliance Matrix: (Units=1/GPa)
#
#
# Indices 1 2 3 4 5 6 
#
# 1 0.017037 -0.005960 0.004889 0.000000 0.000000 0.000000
# 2 -0.005960 0.015087 -0.007393 0.000000 0.000000 0.000000
# 3 0.004889 -0.007393 0.024321 0.000000 0.000000 0.000000
# 4 0.000000 0.000000 0.000000 0.047872 0.000000 0.000000
# 5 0.000000 0.000000 0.000000 0.000000 0.059916 0.000000
# 6 0.000000 0.000000 0.000000 0.000000 0.000000 0.085560
#
#
# Mechanical properties :
#
#
# Convention : Reuss Voigt Hill
#
# Bulk Modulus (GPa) = 25.30632 31.32544 28.31588
# Shear Modulus (GPa) = 17.86399 20.87491 19.36945
#
# Velocity S-wave (km/s) = 3.00118 3.24425 3.12508
# Velocity P-wave (km/s) = 4.97684 5.46149 5.22479
#
# Compressibility (1/GPa) = 0.03951581
#
# Stress axis : x y z
#
# Youngs Moduli (GPa) = 58.69634 66.28234 41.11745
#
# Poissons Ratio (x) = 0.39507 -0.20104
# Poissons Ratio (y) = 0.34985 0.30400
# Poissons Ratio (z) = -0.28700 0.49005
#
# Static dielectric constant tensor:
#      x y z
#    x 1.687830 0.000000 0.000000 
#    y 0.000000 1.733300 0.000000 
#    z 0.000000 0.000000 1.762140 
# 
# From -- ./inp_files/17882.got.cif
#   From: 2010.05.17/outbox.cif.g08.bks.cpg/sg59_9_cif.got.tgz:17882.got - 2010.06.03 14:40:33.
