data_PCOD9450613
_publ_section_title
;
Structure prediction by ZEFSAII (Michael W. Deem and Ramdas Pophale) SiO2 
 PCOD9450613
Probable space group: P M M N
;
_chemical_formula_sum "Si O2"
_cell_formula_units_Z 56
_cell_length_a 8.721075
_cell_length_b 24.932511
_cell_length_c 15.088940
_cell_angle_alpha 90.000000
_cell_angle_beta 90.000000
_cell_angle_gamma 90.000000
_cell_volume 3280.913438
_symmetry_space_group_name_H-M "P M M N"
_symmetry_group_IT_number 59
_space_group.IT_coordinate_system_code '2'
_symmetry_cell_setting 'orthorhombic'
loop_
_space_group_symop_operation_xyz
x,y,z
1/2-x,1/2-y,z
1/2+x,-y,-z
-x,1/2+y,-z
-x,-y,-z
1/2+x,1/2+y,-z
1/2-x,y,z
x,1/2-y,z
loop_
_atom_site_type_symbol
_atom_site_label
_atom_site_fract_x
_atom_site_fract_y
_atom_site_fract_z
Si Si1 0.067154 0.357858 0.795699
Si Si2 0.565729 0.250000 0.713534
Si Si3 0.434643 0.868803 0.538225
Si Si4 0.563962 0.250000 0.507087
Si Si5 0.432576 0.925819 0.056915
Si Si6 0.566583 0.933693 0.371191
Si Si7 0.567630 0.548622 0.674894
Si Si8 0.067778 0.963876 0.867436
O O1 0.250000 0.354306 0.804796
O O2 0.033699 0.403191 0.721244
O O3 0.999350 0.302692 0.759905
O O4 0.991587 0.375654 0.887605
O O5 0.750000 0.250000 0.716798
O O6 0.518043 0.250000 0.610333
O O7 0.250000 0.870417 0.538502
O O8 0.485316 0.806476 0.535139
O O9 0.494316 0.899182 0.450375
O O10 0.499110 0.901580 0.621087
O O11 0.750000 0.250000 0.505065
O O12 0.250000 0.932452 0.067745
O O13 0.515971 0.977481 0.099150
O O14 0.464801 0.925861 0.951878
O O15 0.750000 0.936350 0.382760
O O16 0.499427 0.993383 0.365672
O O17 0.750000 0.547778 0.666758
O O18 0.517996 0.550365 0.777475
O O19 0.250000 0.964584 0.850511
#
# Coordination Sequence:
#
# PCOD9450613 Si02
#       8
#     8   4   8   4   8   8   8   8
#     4  11  22  35  55  83 117 151 187 228 281 335
#     4  11  21  37  59  82 111 146 193 235 280 334
#     4  11  22  39  59  80 110 146 188 235 283 336
#     4   9  20  37  59  82 103 140 187 231 276 326
#     4  10  20  34  56  83 112 145 182 225 276 332
#     4  11  22  36  54  81 115 151 186 227 278 335
#     4  12  24  37  55  82 114 151 190 231 282 336
#     4  10  20  35  55  82 112 145 183 226 275 329
#
# _framework density 17.068415999999999
#
# number of rings (size 3 to 8) (size 9 to 14) (size 15 to 20)
#    0.000    1.286    2.857    4.071    0.000    2.857 
#    0.000    1.429    0.000    0.857    0.000    2.000 
#    0.000    0.000    0.000    0.000    0.000    0.000 
#
# Total GULP energy -312916.715340 kJ/mol
# GULP energy per Si atom -5587.798488 kJ/mol
# Density = 1.702957 g / cm^3
# Si number density = 17.068416 Si / 1000 Ang^3
#
#
#
# Elastic Constant Matrix: (Units=GPa)
#
#
# Indices 1 2 3 4 5 6 
#
# 1 65.9949 41.8484 35.9490 0.0000 0.0000 0.0000
# 2 41.8484 139.5089 60.2831 0.0000 0.0000 0.0000
# 3 35.9490 60.2831 85.4348 0.0000 0.0000 0.0000
# 4 0.0000 0.0000 0.0000 27.9933 0.0000 0.0000
# 5 0.0000 0.0000 0.0000 0.0000 29.9786 0.0000
# 6 0.0000 0.0000 0.0000 0.0000 0.0000 23.4807
#
#
#
# Elastic Compliance Matrix: (Units=1/GPa)
#
#
# Indices 1 2 3 4 5 6 
#
# 1 0.020804 -0.003536 -0.006259 0.000000 0.000000 0.000000
# 2 -0.003536 0.010913 -0.006212 0.000000 0.000000 0.000000
# 3 -0.006259 -0.006212 0.018722 0.000000 0.000000 0.000000
# 4 0.000000 0.000000 0.000000 0.035723 0.000000 0.000000
# 5 0.000000 0.000000 0.000000 0.000000 0.033357 0.000000
# 6 0.000000 0.000000 0.000000 0.000000 0.000000 0.042588
#
#
# Mechanical properties :
#
#
# Convention : Reuss Voigt Hill
#
# Bulk Modulus (GPa) = 54.27540 63.01104 58.64322
# Shear Modulus (GPa) = 24.96704 26.48107 25.72406
#
# Velocity S-wave (km/s) = 3.82876 3.94314 3.88637
# Velocity P-wave (km/s) = 7.17033 7.59790 7.38721
#
# Compressibility (1/GPa) = 0.01842455
#
# Stress axis : x y z
#
# Youngs Moduli (GPa) = 48.06684 91.63222 53.41331
#
# Poissons Ratio (x) = 0.32403 0.33431
# Poissons Ratio (y) = 0.16997 0.33183
# Poissons Ratio (z) = 0.30084 0.56926
#
# Static dielectric constant tensor:
#      x y z
#    x 1.570120 0.000000 0.000000 
#    y 0.000000 1.571460 0.000000 
#    z 0.000000 0.000000 1.575490 
# 
# From -- ./inp_files/21199.got.cif
#   From: 2010.05.17/outbox.cif.g08.bks.cpg/sg59_11_cif.got.tgz:21199.got - 2010.06.03 14:40:33.
