data_PCOD9450584
_publ_section_title
;
Structure prediction by ZEFSAII (Michael W. Deem and Ramdas Pophale) SiO2 
 PCOD9450584
Probable space group: P M M N
;
_chemical_formula_sum "Si O2"
_cell_formula_units_Z 64
_cell_length_a 9.093886
_cell_length_b 18.756106
_cell_length_c 21.498079
_cell_angle_alpha 90.000000
_cell_angle_beta 90.000000
_cell_angle_gamma 90.000000
_cell_volume 3666.838973
_symmetry_space_group_name_H-M "P M M N"
_symmetry_group_IT_number 59
_space_group.IT_coordinate_system_code '2'
_symmetry_cell_setting 'orthorhombic'
loop_
_space_group_symop_operation_xyz
x,y,z
1/2-x,1/2-y,z
1/2+x,-y,-z
-x,1/2+y,-z
-x,-y,-z
1/2+x,1/2+y,-z
1/2-x,y,z
x,1/2-y,z
loop_
_atom_site_type_symbol
_atom_site_label
_atom_site_fract_x
_atom_site_fract_y
_atom_site_fract_z
Si Si1 0.422829 0.333705 0.616182
Si Si2 0.576629 0.959407 0.190033
Si Si3 0.073506 0.609820 0.754845
Si Si4 0.073605 0.423119 0.493060
Si Si5 0.925168 0.832381 0.877961
Si Si6 0.425286 0.831778 0.254328
Si Si7 0.926595 0.166056 0.382956
Si Si8 0.574926 0.036480 0.058918
O O1 0.250000 0.344531 0.630373
O O2 0.444682 0.250000 0.602291
O O3 0.460251 0.379159 0.555828
O O4 0.515192 0.351474 0.677240
O O5 0.750000 0.945035 0.197160
O O6 0.488310 0.889155 0.206815
O O7 0.539222 0.026099 0.235212
O O8 0.550714 0.988300 0.120530
O O9 0.250000 0.617855 0.764676
O O10 0.037934 0.638442 0.686508
O O11 0.990107 0.651479 0.809431
O O12 0.250000 0.429167 0.487617
O O13 0.000000 0.500000 0.500000
O O14 0.008974 0.380299 0.434501
O O15 0.750000 0.844820 0.877819
O O16 0.952638 0.750000 0.893894
O O17 0.003469 0.887448 0.924374
O O18 0.250000 0.833302 0.254077
O O19 0.473645 0.750000 0.241830
O O20 0.750000 0.158366 0.391035
O O21 0.962501 0.250000 0.388384
O O22 0.750000 0.043667 0.050232
O O23 0.500000 0.000000 0.000000
#
# Coordination Sequence:
#
# PCOD9450584 Si02
#       8
#     8   8   8   8   8   8   8   8
#     4   9  19  37  58  75  97 136 180 223 274 331
#     4   9  19  35  56  82 111 145 182 220 266 322
#     4   9  19  35  56  82 112 146 184 225 274 331
#     4  11  24  39  55  77 106 141 184 231 279 333
#     4  10  20  34  55  85 118 150 188 232 274 322
#     4  10  21  35  54  82 111 138 176 228 279 325
#     4  10  21  37  57  81 111 146 181 224 280 336
#     4  10  21  38  60  85 114 151 190 229 276 326
#
# _framework density 17.453726
#
# number of rings (size 3 to 8) (size 9 to 14) (size 15 to 20)
#    0.000    2.250    0.000    3.000    1.750    7.000 
#    0.000    1.875    0.000    0.750    0.000    0.000 
#    0.000    0.000    0.000    0.000    0.000    0.000 
#
# Total GULP energy -357283.238343 kJ/mol
# GULP energy per Si atom -5582.550599 kJ/mol
# Density = 1.741400 g / cm^3
# Si number density = 17.453726 Si / 1000 Ang^3
#
#
#
# Elastic Constant Matrix: (Units=GPa)
#
#
# Indices 1 2 3 4 5 6 
#
# 1 68.6232 77.1918 64.2807 0.0000 0.0000 0.0000
# 2 77.1918 129.7128 87.0110 0.0000 0.0000 0.0000
# 3 64.2807 87.0110 89.1131 0.0000 0.0000 0.0000
# 4 0.0000 0.0000 0.0000 24.6305 0.0000 0.0000
# 5 0.0000 0.0000 0.0000 0.0000 34.3729 0.0000
# 6 0.0000 0.0000 0.0000 0.0000 0.0000 32.1819
#
#
#
# Elastic Compliance Matrix: (Units=1/GPa)
#
#
# Indices 1 2 3 4 5 6 
#
# 1 0.056805 -0.018312 -0.023095 0.000000 0.000000 0.000000
# 2 -0.018312 0.028248 -0.014372 0.000000 0.000000 0.000000
# 3 -0.023095 -0.014372 0.041914 0.000000 0.000000 0.000000
# 4 0.000000 0.000000 0.000000 0.040600 0.000000 0.000000
# 5 0.000000 0.000000 0.000000 0.000000 0.029093 0.000000
# 6 0.000000 0.000000 0.000000 0.000000 0.000000 0.031073
#
#
# Mechanical properties :
#
#
# Convention : Reuss Voigt Hill
#
# Bulk Modulus (GPa) = 64.90260 82.71291 73.80776
# Shear Modulus (GPa) = 14.51687 22.16811 18.34249
#
# Velocity S-wave (km/s) = 2.88711 3.56772 3.24531
# Velocity P-wave (km/s) = 6.95558 8.02896 7.51147
#
# Compressibility (1/GPa) = 0.01540770
#
# Stress axis : x y z
#
# Youngs Moduli (GPa) = 17.60417 35.40124 23.85836
#
# Poissons Ratio (x) = 0.64828 0.55101
# Poissons Ratio (y) = 0.32237 0.34289
# Poissons Ratio (z) = 0.40657 0.50879
#
# Static dielectric constant tensor:
#      x y z
#    x 1.583750 0.000000 0.000000 
#    y 0.000000 1.584060 0.000000 
#    z 0.000000 0.000000 1.565350 
# 
# From -- ./inp_files/29400.got.cif
#   From: 2010.05.17/outbox.cif.g08.bks.cpg/sg59_15_cif.got.tgz:29400.got - 2010.06.03 14:40:33.
