data_PCOD9450122
_publ_section_title
;
Structure prediction by ZEFSAII (Michael W. Deem and Ramdas Pophale) SiO2 
 PCOD9450122
Probable space group: P M M N
;
_chemical_formula_sum "Si O2"
_cell_formula_units_Z 64
_cell_length_a 7.463525
_cell_length_b 16.762524
_cell_length_c 23.466589
_cell_angle_alpha 90.000000
_cell_angle_beta 90.000000
_cell_angle_gamma 90.000000
_cell_volume 2935.846681
_symmetry_space_group_name_H-M "P M M N"
_symmetry_group_IT_number 59
_space_group.IT_coordinate_system_code '2'
_symmetry_cell_setting 'orthorhombic'
loop_
_space_group_symop_operation_xyz
x,y,z
1/2-x,1/2-y,z
1/2+x,-y,-z
-x,1/2+y,-z
-x,-y,-z
1/2+x,1/2+y,-z
1/2-x,y,z
x,1/2-y,z
loop_
_atom_site_type_symbol
_atom_site_label
_atom_site_fract_x
_atom_site_fract_y
_atom_site_fract_z
Si Si1 0.032900 0.576919 0.581476
Si Si2 0.456004 0.492583 0.880960
Si Si3 0.960311 0.006053 0.752226
Si Si4 0.032816 0.161788 0.947638
Si Si5 0.454009 0.913160 0.359526
Si Si6 0.465597 0.837805 0.695475
Si Si7 0.468763 0.661383 0.469825
Si Si8 0.539214 0.337720 0.081978
O O1 0.250000 0.568984 0.581241
O O2 0.987999 0.642452 0.629725
O O3 0.971832 0.600771 0.518674
O O4 0.952415 0.495409 0.604634
O O5 0.250000 0.498153 0.901327
O O6 0.457051 0.479877 0.813500
O O7 0.533332 0.415400 0.913094
O O8 0.537757 0.580043 0.892997
O O9 0.750000 0.022780 0.757146
O O10 0.977720 0.913866 0.732617
O O11 0.034860 0.061181 0.700957
O O12 0.250000 0.161725 0.945288
O O13 0.974019 0.250000 0.926952
O O14 0.978290 0.155713 0.013684
O O15 0.250000 0.886715 0.348340
O O16 0.536028 0.854190 0.405924
O O17 0.250000 0.836569 0.698784
O O18 0.531392 0.750000 0.712352
O O19 0.250000 0.656229 0.467700
O O20 0.514838 0.750000 0.488725
O O21 0.750000 0.335368 0.097519
O O22 0.464672 0.250000 0.098326
#
# Coordination Sequence:
#
# PCOD9450122 Si02
#       8
#     8   8   8   8   8   8   8   8
#     4   9  16  27  47  72  92 114 149 190 232 286
#     4  10  20  34  52  73  99 133 169 204 243 285
#     4  10  21  34  47  67  95 127 167 207 240 281
#     4   9  18  33  53  77 103 130 162 200 243 291
#     4   9  18  32  47  64  90 123 154 189 237 285
#     4   9  17  30  48  69  94 124 157 195 241 293
#     4   9  16  27  46  70  92 115 148 191 236 284
#     4   9  18  32  51  77 106 131 156 190 235 289
#
# _framework density 21.799502
#
# number of rings (size 3 to 8) (size 9 to 14) (size 15 to 20)
#    0.000    2.750    0.000    1.500    0.000    3.750 
#    0.000    1.875    0.000    3.000    0.000    0.000 
#    0.000    0.000    0.000    0.000    0.000    0.000 
#
# Total GULP energy -356928.675267 kJ/mol
# GULP energy per Si atom -5577.010551 kJ/mol
# Density = 2.174989 g / cm^3
# Si number density = 21.799502 Si / 1000 Ang^3
#
#
#
# Elastic Constant Matrix: (Units=GPa)
#
#
# Indices 1 2 3 4 5 6 
#
# 1 65.5367 2.4528 -11.0151 0.0000 0.0000 0.0000
# 2 2.4528 69.9862 26.8486 0.0000 0.0000 0.0000
# 3 -11.0151 26.8486 66.9659 0.0000 0.0000 0.0000
# 4 0.0000 0.0000 0.0000 9.2026 0.0000 0.0000
# 5 0.0000 0.0000 0.0000 0.0000 25.9531 0.0000
# 6 0.0000 0.0000 0.0000 0.0000 0.0000 -3.0836
#
#
#
# Elastic Compliance Matrix: (Units=1/GPa)
#
#
# Indices 1 2 3 4 5 6 
#
# 1 0.015891 -0.001843 0.003353 0.000000 0.000000 0.000000
# 2 -0.001843 0.017099 -0.007159 0.000000 0.000000 0.000000
# 3 0.003353 -0.007159 0.018355 0.000000 0.000000 0.000000
# 4 0.000000 0.000000 0.000000 0.108665 0.000000 0.000000
# 5 0.000000 0.000000 0.000000 0.000000 0.038531 0.000000
# 6 0.000000 0.000000 0.000000 0.000000 0.000000 -0.324296
#
#
# Mechanical properties :
#
#
# Convention : Reuss Voigt Hill
#
# Bulk Modulus (GPa) = 24.97069 26.56239 25.76654
# Shear Modulus (GPa) = -49.45232 18.69457 -15.37888
#
# Velocity S-wave (km/s) = -4.76805 2.93160 -2.65895
# Velocity P-wave (km/s) = 4.33968 4.86522 1.55524
#
# Compressibility (1/GPa) = 0.04004695
#
# Stress axis : x y z
#
# Youngs Moduli (GPa) = 62.92811 58.48131 54.48193
#
# Poissons Ratio (x) = 0.10779 -0.18267
# Poissons Ratio (y) = 0.11599 0.39003
# Poissons Ratio (z) = -0.21099 0.41866
#
# Static dielectric constant tensor:
#      x y z
#    x 1.829810 0.000000 0.000000 
#    y 0.000000 1.825840 0.000000 
#    z 0.000000 0.000000 1.772780 
# 
# From -- ./inp_files/29431.got.cif
#   From: 2010.05.17/outbox.cif.g08.bks.cpg/sg59_15_cif.got.tgz:29431.got - 2010.06.03 14:40:33.
