data_PCOD9450808
_publ_section_title
;
Structure prediction by ZEFSAII (Michael W. Deem and Ramdas Pophale) SiO2 
 PCOD9450808
Probable space group: P M M N
;
_chemical_formula_sum "Si O2"
_cell_formula_units_Z 64
_cell_length_a 8.836747
_cell_length_b 23.036635
_cell_length_c 18.003790
_cell_angle_alpha 90.000000
_cell_angle_beta 90.000000
_cell_angle_gamma 90.000000
_cell_volume 3665.012000
_symmetry_space_group_name_H-M "P M M N"
_symmetry_group_IT_number 59
_space_group.IT_coordinate_system_code '2'
_symmetry_cell_setting 'orthorhombic'
loop_
_space_group_symop_operation_xyz
x,y,z
1/2-x,1/2-y,z
1/2+x,-y,-z
-x,1/2+y,-z
-x,-y,-z
1/2+x,1/2+y,-z
1/2-x,y,z
x,1/2-y,z
loop_
_atom_site_type_symbol
_atom_site_label
_atom_site_fract_x
_atom_site_fract_y
_atom_site_fract_z
Si Si1 0.930266 0.520911 0.077943
Si Si2 0.930784 0.949443 0.662276
Si Si3 0.568030 0.414500 0.651593
Si Si4 0.569824 0.684136 0.937850
Si Si5 0.568658 0.580018 0.827366
Si Si6 0.430415 0.853010 0.093671
Si Si7 0.069223 0.314581 0.754305
Si Si8 0.930547 0.063818 0.488451
O O1 0.750000 0.526840 0.071547
O O2 0.977125 0.472993 0.137623
O O3 0.005164 0.581860 0.098105
O O4 0.000000 0.500000 0.000000
O O5 0.750000 0.950075 0.650261
O O6 0.963340 0.918237 0.739935
O O7 0.006431 0.918700 0.591613
O O8 0.976712 0.018026 0.667460
O O9 0.750000 0.411649 0.660797
O O10 0.493634 0.367167 0.704662
O O11 0.530681 0.402832 0.564624
O O12 0.750000 0.678363 0.952810
O O13 0.540365 0.750000 0.913632
O O14 0.531512 0.637254 0.874781
O O15 0.483920 0.671563 0.014427
O O16 0.750000 0.569114 0.835740
O O17 0.250000 0.853001 0.097831
O O18 0.499509 0.819579 0.163532
O O19 0.250000 0.319768 0.759538
O O20 0.032649 0.250000 0.724242
O O21 0.750000 0.059817 0.485405
O O22 0.000000 0.000000 0.500000
#
# Coordination Sequence:
#
# PCOD9450808 Si02
#       8
#     8   8   8   8   8   8   8   8
#     4  12  23  36  55  80 109 140 175 221 273 327
#     4   9  18  32  52  81 111 140 176 219 267 322
#     4   9  18  33  53  78 108 140 177 219 267 324
#     4  10  21  37  56  76 102 140 184 228 271 314
#     4  10  20  35  55  79 110 145 180 221 269 321
#     4  12  24  38  57  79 105 141 182 225 273 326
#     4  11  24  39  55  78 108 143 185 231 276 324
#     4   9  17  30  51  79 109 139 169 207 256 314
#
# _framework density 17.462425
#
# number of rings (size 3 to 8) (size 9 to 14) (size 15 to 20)
#    0.000    1.750    1.250    4.875    0.000    6.750 
#    0.000    0.000    0.000    0.750    0.000    1.750 
#    0.000    0.000    0.000    0.000    0.000    0.000 
#
# Total GULP energy -357239.708609 kJ/mol
# GULP energy per Si atom -5581.870447 kJ/mol
# Density = 1.742268 g / cm^3
# Si number density = 17.462425 Si / 1000 Ang^3
#
#
#
# Elastic Constant Matrix: (Units=GPa)
#
#
# Indices 1 2 3 4 5 6 
#
# 1 47.3466 29.7823 45.4076 0.0000 0.0000 0.0000
# 2 29.7823 81.0919 38.1546 0.0000 0.0000 0.0000
# 3 45.4076 38.1546 131.7220 0.0000 0.0000 0.0000
# 4 0.0000 0.0000 0.0000 10.4740 0.0000 0.0000
# 5 0.0000 0.0000 0.0000 0.0000 32.0220 0.0000
# 6 0.0000 0.0000 0.0000 0.0000 0.0000 18.6093
#
#
#
# Elastic Compliance Matrix: (Units=1/GPa)
#
#
# Indices 1 2 3 4 5 6 
#
# 1 0.036042 -0.008558 -0.009946 0.000000 0.000000 0.000000
# 2 -0.008558 0.016309 -0.001774 0.000000 0.000000 0.000000
# 3 -0.009946 -0.001774 0.011534 0.000000 0.000000 0.000000
# 4 0.000000 0.000000 0.000000 0.095474 0.000000 0.000000
# 5 0.000000 0.000000 0.000000 0.000000 0.031229 0.000000
# 6 0.000000 0.000000 0.000000 0.000000 0.000000 0.053737
#
#
# Mechanical properties :
#
#
# Convention : Reuss Voigt Hill
#
# Bulk Modulus (GPa) = 42.86185 54.09439 48.47812
# Shear Modulus (GPa) = 17.08484 22.00879 19.54682
#
# Velocity S-wave (km/s) = 3.13130 3.55399 3.34932
# Velocity P-wave (km/s) = 6.13774 6.91997 6.54056
#
# Compressibility (1/GPa) = 0.02333077
#
# Stress axis : x y z
#
# Youngs Moduli (GPa) = 27.74518 61.31454 86.69850
#
# Poissons Ratio (x) = 0.52470 0.86229
# Poissons Ratio (y) = 0.23743 0.15382
# Poissons Ratio (z) = 0.27595 0.10878
#
# Static dielectric constant tensor:
#      x y z
#    x 1.598700 0.000000 0.000000 
#    y 0.000000 1.569850 0.000000 
#    z 0.000000 0.000000 1.578180 
# 
# From -- ./inp_files/26222.got.cif
#   From: 2010.05.17/outbox.cif.g08.bks.cpg/sg59_14_cif.got.tgz:26222.got - 2010.06.03 14:40:33.
