data_PCOD9450511
_publ_section_title
;
Structure prediction by ZEFSAII (Michael W. Deem and Ramdas Pophale) SiO2 
 PCOD9450511
Probable space group: P M M N
;
_chemical_formula_sum "Si O2"
_cell_formula_units_Z 64
_cell_length_a 19.474190
_cell_length_b 9.180191
_cell_length_c 20.446614
_cell_angle_alpha 90.000000
_cell_angle_beta 90.000000
_cell_angle_gamma 90.000000
_cell_volume 3655.379890
_symmetry_space_group_name_H-M "P M M N"
_symmetry_group_IT_number 59
_space_group.IT_coordinate_system_code '2'
_symmetry_cell_setting 'orthorhombic'
loop_
_space_group_symop_operation_xyz
x,y,z
1/2-x,1/2-y,z
1/2+x,-y,-z
-x,1/2+y,-z
-x,-y,-z
1/2+x,1/2+y,-z
1/2-x,y,z
x,1/2-y,z
loop_
_atom_site_type_symbol
_atom_site_label
_atom_site_fract_x
_atom_site_fract_y
_atom_site_fract_z
Si Si1 0.332353 0.421151 0.329589
Si Si2 0.166667 0.583017 0.460881
Si Si3 0.899654 0.420556 0.034566
Si Si4 0.053826 0.078603 0.091886
Si Si5 0.329637 0.420777 0.850174
Si Si6 0.067142 0.924319 0.231391
Si Si7 0.085024 0.075396 0.722099
Si Si8 0.830317 0.074067 0.392069
O O1 0.250000 0.440366 0.324072
O O2 0.347498 0.250000 0.324319
O O3 0.354094 0.482420 0.400674
O O4 0.371610 0.509943 0.274049
O O5 0.250000 0.586184 0.461722
O O6 0.143489 0.750000 0.450257
O O7 0.147384 0.534049 0.533936
O O8 0.887902 0.250000 0.022993
O O9 0.846619 0.487695 0.085706
O O10 0.974511 0.436832 0.068878
O O11 0.902616 0.507009 0.966583
O O12 0.068656 0.250000 0.098522
O O13 0.064580 0.996356 0.159915
O O14 0.250000 0.433833 0.832064
O O15 0.344669 0.250000 0.863449
O O16 0.376204 0.467220 0.789142
O O17 0.072669 0.750000 0.225359
O O18 0.995123 0.957565 0.267932
O O19 0.092769 0.250000 0.714752
O O20 0.121385 0.996547 0.661936
O O21 0.750000 0.031361 0.382561
O O22 0.832736 0.250000 0.388325
#
# Coordination Sequence:
#
# PCOD9450511 Si02
#       8
#     8   8   8   8   8   8   8   8
#     4  10  21  37  58  84 110 136 172 221 277 335
#     4   8  15  31  54  78 105 139 180 223 269 323
#     4  10  20  34  55  81 107 138 179 224 266 316
#     4  10  20  35  57  81 107 139 176 220 269 319
#     4  10  20  35  54  77 111 151 187 227 272 316
#     4  11  22  37  58  82 110 144 182 224 269 323
#     4  10  21  35  52  77 110 147 187 226 267 320
#     4   9  18  32  52  79 110 145 185 229 273 317
#
# _framework density 17.50844
#
# number of rings (size 3 to 8) (size 9 to 14) (size 15 to 20)
#    0.000    2.250    1.250    2.625    0.000    4.750 
#    0.000    2.500    0.000    3.750    0.000    0.000 
#    0.000    0.000    0.000    0.000    0.000    0.000 
#
# Total GULP energy -357118.876741 kJ/mol
# GULP energy per Si atom -5579.982449 kJ/mol
# Density = 1.746859 g / cm^3
# Si number density = 17.508440 Si / 1000 Ang^3
#
#
#
# Elastic Constant Matrix: (Units=GPa)
#
#
# Indices 1 2 3 4 5 6 
#
# 1 37.6220 40.3771 38.9491 0.0000 0.0000 0.0000
# 2 40.3771 81.3299 72.9428 0.0000 0.0000 0.0000
# 3 38.9491 72.9428 137.3894 0.0000 0.0000 0.0000
# 4 0.0000 0.0000 0.0000 38.7064 0.0000 0.0000
# 5 0.0000 0.0000 0.0000 0.0000 22.0615 0.0000
# 6 0.0000 0.0000 0.0000 0.0000 0.0000 25.3205
#
#
#
# Elastic Compliance Matrix: (Units=1/GPa)
#
#
# Indices 1 2 3 4 5 6 
#
# 1 0.057233 -0.026463 -0.002176 0.000000 0.000000 0.000000
# 2 -0.026463 0.035708 -0.011456 0.000000 0.000000 0.000000
# 3 -0.002176 -0.011456 0.013978 0.000000 0.000000 0.000000
# 4 0.000000 0.000000 0.000000 0.025836 0.000000 0.000000
# 5 0.000000 0.000000 0.000000 0.000000 0.045328 0.000000
# 6 0.000000 0.000000 0.000000 0.000000 0.000000 0.039494
#
#
# Mechanical properties :
#
#
# Convention : Reuss Voigt Hill
#
# Bulk Modulus (GPa) = 37.41129 62.31993 49.86561
# Shear Modulus (GPa) = 16.30389 24.15582 20.22985
#
# Velocity S-wave (km/s) = 3.05487 3.71842 3.40286
# Velocity P-wave (km/s) = 5.81867 7.35575 6.63189
#
# Compressibility (1/GPa) = 0.02672990
#
# Stress axis : x y z
#
# Youngs Moduli (GPa) = 17.47231 28.00486 71.54280
#
# Poissons Ratio (x) = 0.74109 0.15565
# Poissons Ratio (y) = 0.46237 0.81960
# Poissons Ratio (z) = 0.03801 0.32083
#
# Static dielectric constant tensor:
#      x y z
#    x 1.585930 0.000000 0.000000 
#    y 0.000000 1.583480 0.000000 
#    z 0.000000 0.000000 1.575770 
# 
# From -- ./inp_files/28196.got.cif
#   From: 2010.05.17/outbox.cif.g08.bks.cpg/sg59_15_cif.got.tgz:28196.got - 2010.06.03 14:40:33.
