data_PCOD9450143
_publ_section_title
;
Structure prediction by ZEFSAII (Michael W. Deem and Ramdas Pophale) SiO2 
 PCOD9450143
Probable space group: P M M N
;
_chemical_formula_sum "Si O2"
_cell_formula_units_Z 64
_cell_length_a 17.385350
_cell_length_b 9.564587
_cell_length_c 20.729972
_cell_angle_alpha 90.000000
_cell_angle_beta 90.000000
_cell_angle_gamma 90.000000
_cell_volume 3447.056292
_symmetry_space_group_name_H-M "P M M N"
_symmetry_group_IT_number 59
_space_group.IT_coordinate_system_code '2'
_symmetry_cell_setting 'orthorhombic'
loop_
_space_group_symop_operation_xyz
x,y,z
1/2-x,1/2-y,z
1/2+x,-y,-z
-x,1/2+y,-z
-x,-y,-z
1/2+x,1/2+y,-z
1/2-x,y,z
x,1/2-y,z
loop_
_atom_site_type_symbol
_atom_site_label
_atom_site_fract_x
_atom_site_fract_y
_atom_site_fract_z
Si Si1 0.659666 0.906459 0.831197
Si Si2 0.938141 0.084852 0.083936
Si Si3 0.430408 0.086089 0.530905
Si Si4 0.341762 0.404368 0.402666
Si Si5 0.155581 0.908840 0.287079
Si Si6 0.406452 0.585224 0.060376
Si Si7 0.340816 0.915125 0.788126
Si Si8 0.840753 0.581862 0.341026
O O1 0.750000 0.892786 0.818174
O O2 0.626930 0.750000 0.836176
O O3 0.627334 0.994584 0.771368
O O4 0.649936 0.995914 0.895545
O O5 0.961065 0.250000 0.086130
O O6 0.889270 0.053288 0.147610
O O7 0.893154 0.068708 0.016138
O O8 0.010890 0.982941 0.077342
O O9 0.451715 0.250000 0.536895
O O10 0.364763 0.075828 0.476306
O O11 0.395080 0.039296 0.599166
O O12 0.500000 0.000000 0.500000
O O13 0.250000 0.403236 0.397539
O O14 0.369957 0.250000 0.381996
O O15 0.370239 0.522907 0.354242
O O16 0.250000 0.907314 0.286176
O O17 0.129879 0.750000 0.279909
O O18 0.404040 0.750000 0.075587
O O19 0.250000 0.938918 0.800829
O O20 0.350703 0.750000 0.773990
O O21 0.362116 0.005529 0.725503
O O22 0.750000 0.550381 0.354470
O O23 0.846448 0.750000 0.334177
#
# Coordination Sequence:
#
# PCOD9450143 Si02
#       8
#     8   8   8   8   8   8   8   8
#     4  10  20  34  52  75 105 140 177 217 263 316
#     4   9  19  36  55  76 107 144 179 219 269 325
#     4  10  21  36  53  76 107 140 173 215 265 317
#     4   9  17  32  54  75  96 131 177 216 256 311
#     4   9  17  30  49  74 102 129 163 210 256 299
#     4  10  20  34  54  78 105 141 183 225 268 318
#     4   9  18  34  57  84 110 138 177 224 272 324
#     4   9  18  35  58  81 106 139 179 222 267 316
#
# _framework density 18.566566000000002
#
# number of rings (size 3 to 8) (size 9 to 14) (size 15 to 20)
#    0.000    2.625    0.000    1.500    0.000    6.250 
#    2.250    1.250    0.000    5.250    0.000    0.000 
#    0.000    0.000    0.000    0.000    0.000    0.000 
#
# Total GULP energy -356710.301730 kJ/mol
# GULP energy per Si atom -5573.598465 kJ/mol
# Density = 1.852431 g / cm^3
# Si number density = 18.566566 Si / 1000 Ang^3
#
#
#
# Elastic Constant Matrix: (Units=GPa)
#
#
# Indices 1 2 3 4 5 6 
#
# 1 19.4243 25.0600 41.6757 0.0000 0.0000 0.0000
# 2 25.0600 104.1615 78.5019 0.0000 0.0000 0.0000
# 3 41.6757 78.5019 148.0843 0.0000 0.0000 0.0000
# 4 0.0000 0.0000 0.0000 33.9060 0.0000 0.0000
# 5 0.0000 0.0000 0.0000 0.0000 17.4321 0.0000
# 6 0.0000 0.0000 0.0000 0.0000 0.0000 22.7231
#
#
#
# Elastic Compliance Matrix: (Units=1/GPa)
#
#
# Indices 1 2 3 4 5 6 
#
# 1 0.132368 -0.006279 -0.033924 0.000000 0.000000 0.000000
# 2 -0.006279 0.016286 -0.006866 0.000000 0.000000 0.000000
# 3 -0.033924 -0.006866 0.019940 0.000000 0.000000 0.000000
# 4 0.000000 0.000000 0.000000 0.029493 0.000000 0.000000
# 5 0.000000 0.000000 0.000000 0.000000 0.057365 0.000000
# 6 0.000000 0.000000 0.000000 0.000000 0.000000 0.044008
#
#
# Mechanical properties :
#
#
# Convention : Reuss Voigt Hill
#
# Bulk Modulus (GPa) = 13.43086 62.46058 37.94572
# Shear Modulus (GPa) = 11.94975 23.24107 17.59541
#
# Velocity S-wave (km/s) = 2.53971 3.54187 3.08180
# Velocity P-wave (km/s) = 3.98118 7.10218 5.75720
#
# Compressibility (1/GPa) = 0.07445538
#
# Stress axis : x y z
#
# Youngs Moduli (GPa) = 7.55468 61.40236 50.15007
#
# Poissons Ratio (x) = 0.38556 1.70129
# Poissons Ratio (y) = 0.04744 0.34435
# Poissons Ratio (z) = 0.25628 0.42161
#
# Static dielectric constant tensor:
#      x y z
#    x 1.670610 0.000000 0.000000 
#    y 0.000000 1.644600 0.000000 
#    z 0.000000 0.000000 1.631220 
# 
# From -- ./inp_files/28265.got.cif
#   From: 2010.05.17/outbox.cif.g08.bks.cpg/sg59_15_cif.got.tgz:28265.got - 2010.06.03 14:40:33.
