data_PCOD9450762
_publ_section_title
;
Structure prediction by ZEFSAII (Michael W. Deem and Ramdas Pophale) SiO2 
 PCOD9450762
Probable space group: P M M N
;
_chemical_formula_sum "Si O2"
_cell_formula_units_Z 56
_cell_length_a 19.174094
_cell_length_b 9.253400
_cell_length_c 18.177936
_cell_angle_alpha 90.000000
_cell_angle_beta 90.000000
_cell_angle_gamma 90.000000
_cell_volume 3225.230500
_symmetry_space_group_name_H-M "P M M N"
_symmetry_group_IT_number 59
_space_group.IT_coordinate_system_code '2'
_symmetry_cell_setting 'orthorhombic'
loop_
_space_group_symop_operation_xyz
x,y,z
1/2-x,1/2-y,z
1/2+x,-y,-z
-x,1/2+y,-z
-x,-y,-z
1/2+x,1/2+y,-z
1/2-x,y,z
x,1/2-y,z
loop_
_atom_site_type_symbol
_atom_site_label
_atom_site_fract_x
_atom_site_fract_y
_atom_site_fract_z
Si Si1 0.426722 0.576952 0.796689
Si Si2 0.167443 0.422496 0.379809
Si Si3 0.088545 0.077069 0.230372
Si Si4 0.333398 0.078955 0.677314
Si Si5 0.830604 0.076457 0.901664
Si Si6 0.334801 0.583972 0.528489
Si Si7 0.067981 0.923213 0.967296
O O1 0.415361 0.750000 0.790104
O O2 0.506337 0.545899 0.772917
O O3 0.373859 0.493106 0.744581
O O4 0.419659 0.536440 0.882553
O O5 0.250000 0.451485 0.367036
O O6 0.160483 0.250000 0.391714
O O7 0.123626 0.463331 0.307887
O O8 0.144330 0.506423 0.452857
O O9 0.097041 0.250000 0.221306
O O10 0.127289 0.998225 0.163826
O O11 0.250000 0.057009 0.685193
O O12 0.346204 0.250000 0.673670
O O13 0.356104 0.003086 0.601131
O O14 0.750000 0.031806 0.900800
O O15 0.833612 0.250000 0.892255
O O16 0.867787 0.042475 0.979000
O O17 0.250000 0.583543 0.528247
O O18 0.358176 0.750000 0.531549
O O19 0.056721 0.750000 0.968743
O O20 0.000000 0.000000 0.000000
#
# Coordination Sequence:
#
# PCOD9450762 Si02
#       7
#     8   8   8   8   8   8   8
#     4  10  21  36  56  81 108 142 182 222 269 327
#     4   9  17  30  50  76 107 142 178 219 266 315
#     4  10  20  35  54  79 110 145 184 222 267 322
#     4  10  21  37  57  81 108 138 177 225 274 324
#     4  10  21  35  53  80 111 143 181 226 275 324
#     4   9  17  31  53  79 106 138 177 221 269 320
#     4  10  20  36  57  79 106 143 183 224 270 323
#
# _framework density 17.363099999999999
#
# number of rings (size 3 to 8) (size 9 to 14) (size 15 to 20)
#    0.000    2.286    1.429    1.286    0.000    5.714 
#    0.000    3.571    0.000    0.000    0.000    0.000 
#    0.000    0.000    0.000    0.000    0.000    0.000 
#
# Total GULP energy -312492.771072 kJ/mol
# GULP energy per Si atom -5580.228055 kJ/mol
# Density = 1.732358 g / cm^3
# Si number density = 17.363100 Si / 1000 Ang^3
#
#
#
# Elastic Constant Matrix: (Units=GPa)
#
#
# Indices 1 2 3 4 5 6 
#
# 1 68.9016 51.8306 70.4293 0.0000 0.0000 0.0000
# 2 51.8306 59.7478 81.2544 0.0000 0.0000 0.0000
# 3 70.4293 81.2544 195.0484 0.0000 0.0000 0.0000
# 4 0.0000 0.0000 0.0000 33.2730 0.0000 0.0000
# 5 0.0000 0.0000 0.0000 0.0000 26.1238 0.0000
# 6 0.0000 0.0000 0.0000 0.0000 0.0000 21.9850
#
#
#
# Elastic Compliance Matrix: (Units=1/GPa)
#
#
# Indices 1 2 3 4 5 6 
#
# 1 0.041773 -0.036276 0.000029 0.000000 0.000000 0.000000
# 2 -0.036276 0.070115 -0.016110 0.000000 0.000000 0.000000
# 3 0.000029 -0.016110 0.011828 0.000000 0.000000 0.000000
# 4 0.000000 0.000000 0.000000 0.030054 0.000000 0.000000
# 5 0.000000 0.000000 0.000000 0.000000 0.038279 0.000000
# 6 0.000000 0.000000 0.000000 0.000000 0.000000 0.045486
#
#
# Mechanical properties :
#
#
# Convention : Reuss Voigt Hill
#
# Bulk Modulus (GPa) = 52.63079 81.19181 66.91130
# Shear Modulus (GPa) = 14.34374 24.28860 19.31617
#
# Velocity S-wave (km/s) = 2.87732 3.74420 3.33901
# Velocity P-wave (km/s) = 6.43555 8.09658 7.31338
#
# Compressibility (1/GPa) = 0.01900029
#
# Stress axis : x y z
#
# Youngs Moduli (GPa) = 23.93915 14.26220 84.54594
#
# Poissons Ratio (x) = 0.51738 -0.00242
# Poissons Ratio (y) = 0.86842 1.36206
# Poissons Ratio (z) = -0.00069 0.22977
#
# Static dielectric constant tensor:
#      x y z
#    x 1.572610 0.000000 0.000000 
#    y 0.000000 1.580090 0.000000 
#    z 0.000000 0.000000 1.567710 
# 
# From -- ./inp_files/28037.got.cif
#   From: 2010.05.17/outbox.cif.g08.bks.cpg/sg59_15_cif.got.tgz:28037.got - 2010.06.03 14:40:33.
