data_PCOD9450252
_publ_section_title
;
Structure prediction by ZEFSAII (Michael W. Deem and Ramdas Pophale) SiO2 
 PCOD9450252
Probable space group: P M M N
;
_chemical_formula_sum "Si O2"
_cell_formula_units_Z 40
_cell_length_a 8.957049
_cell_length_b 20.619267
_cell_length_c 11.791640
_cell_angle_alpha 90.000000
_cell_angle_beta 90.000000
_cell_angle_gamma 90.000000
_cell_volume 2177.771872
_symmetry_space_group_name_H-M "P M M N"
_symmetry_group_IT_number 59
_space_group.IT_coordinate_system_code '2'
_symmetry_cell_setting 'orthorhombic'
loop_
_space_group_symop_operation_xyz
x,y,z
1/2-x,1/2-y,z
1/2+x,-y,-z
-x,1/2+y,-z
-x,-y,-z
1/2+x,1/2+y,-z
1/2-x,y,z
x,1/2-y,z
loop_
_atom_site_type_symbol
_atom_site_label
_atom_site_fract_x
_atom_site_fract_y
_atom_site_fract_z
Si Si1 0.927955 0.449703 0.410601
Si Si2 0.578846 0.327253 0.752631
Si Si3 0.923021 0.402786 0.967105
Si Si4 0.072221 0.326563 0.517631
Si Si5 0.578607 0.962070 0.828741
O O1 0.750000 0.452228 0.420536
O O2 0.000000 0.500000 0.500000
O O3 0.987705 0.377412 0.438264
O O4 0.980873 0.466691 0.283889
O O5 0.750000 0.352336 0.737139
O O6 0.585797 0.250000 0.754646
O O7 0.522697 0.351916 0.873583
O O8 0.478671 0.345050 0.645337
O O9 0.750000 0.388993 0.995536
O O10 0.926776 0.470504 0.897939
O O11 0.016151 0.410043 0.081426
O O12 0.250000 0.333467 0.505780
O O13 0.034632 0.250000 0.499695
O O14 0.750000 0.948844 0.797594
#
# Coordination Sequence:
#
# PCOD9450252 Si02
#       5
#     8   8   8   8   8
#     4  12  24  38  58  83 112 145 185 230 275 327
#     4   9  17  31  53  79 106 138 177 219 264 317
#     4   9  18  33  52  75 104 137 173 217 267 318
#     4  10  21  37  57  82 113 147 184 227 275 327
#     4  10  20  34  53  77 105 138 177 221 269 319
#
# _framework density 18.367397
#
# number of rings (size 3 to 8) (size 9 to 14) (size 15 to 20)
#    0.000    2.000    0.000    4.200    0.000    4.400 
#    0.000    1.000    0.000    3.600    0.000    0.000 
#    0.000    0.000    0.000    0.000    0.000    0.000 
#
# Total GULP energy -223220.542059 kJ/mol
# GULP energy per Si atom -5580.513551 kJ/mol
# Density = 1.832559 g / cm^3
# Si number density = 18.367397 Si / 1000 Ang^3
#
#
#
# Elastic Constant Matrix: (Units=GPa)
#
#
# Indices 1 2 3 4 5 6 
#
# 1 106.8776 30.7272 39.4612 0.0000 0.0000 0.0000
# 2 30.7272 28.8490 11.7695 0.0000 0.0000 0.0000
# 3 39.4612 11.7695 75.8803 0.0000 0.0000 0.0000
# 4 0.0000 0.0000 0.0000 26.7242 0.0000 0.0000
# 5 0.0000 0.0000 0.0000 0.0000 35.2095 0.0000
# 6 0.0000 0.0000 0.0000 0.0000 0.0000 25.2909
#
#
#
# Elastic Compliance Matrix: (Units=1/GPa)
#
#
# Indices 1 2 3 4 5 6 
#
# 1 0.015637 -0.014239 -0.005924 0.000000 0.000000 0.000000
# 2 -0.014239 0.049970 -0.000346 0.000000 0.000000 0.000000
# 3 -0.005924 -0.000346 0.016313 0.000000 0.000000 0.000000
# 4 0.000000 0.000000 0.000000 0.037419 0.000000 0.000000
# 5 0.000000 0.000000 0.000000 0.000000 0.028401 0.000000
# 6 0.000000 0.000000 0.000000 0.000000 0.000000 0.039540
#
#
# Mechanical properties :
#
#
# Convention : Reuss Voigt Hill
#
# Bulk Modulus (GPa) = 24.44761 41.72475 33.08618
# Shear Modulus (GPa) = 20.66703 26.08819 23.37761
#
# Velocity S-wave (km/s) = 3.35804 3.77285 3.57147
# Velocity P-wave (km/s) = 5.32677 6.46105 5.92114
#
# Compressibility (1/GPa) = 0.04090379
#
# Stress axis : x y z
#
# Youngs Moduli (GPa) = 63.95027 20.01202 61.30151
#
# Poissons Ratio (x) = 0.28494 0.36312
# Poissons Ratio (y) = 0.91056 0.02121
# Poissons Ratio (z) = 0.37881 0.00692
#
# Static dielectric constant tensor:
#      x y z
#    x 1.632680 0.000000 0.000000 
#    y 0.000000 1.656200 0.000000 
#    z 0.000000 0.000000 1.620540 
# 
# From -- ./inp_files/14050.got.cif
#   From: 2010.05.17/outbox.cif.g08.bks.cpg/sg59_8_cif.got.tgz:14050.got - 2010.06.03 14:40:33.
