data_PCOD9450076
_publ_section_title
;
Structure prediction by ZEFSAII (Michael W. Deem and Ramdas Pophale) SiO2 
 PCOD9450076
Probable space group: P M M N
;
_chemical_formula_sum "Si O2"
_cell_formula_units_Z 64
_cell_length_a 14.580526
_cell_length_b 7.815987
_cell_length_c 27.437223
_cell_angle_alpha 90.000000
_cell_angle_beta 90.000000
_cell_angle_gamma 90.000000
_cell_volume 3126.778904
_symmetry_space_group_name_H-M "P M M N"
_symmetry_group_IT_number 59
_space_group.IT_coordinate_system_code '2'
_symmetry_cell_setting 'orthorhombic'
loop_
_space_group_symop_operation_xyz
x,y,z
1/2-x,1/2-y,z
1/2+x,-y,-z
-x,1/2+y,-z
-x,-y,-z
1/2+x,1/2+y,-z
1/2-x,y,z
x,1/2-y,z
loop_
_atom_site_type_symbol
_atom_site_label
_atom_site_fract_x
_atom_site_fract_y
_atom_site_fract_z
Si Si1 0.852020 0.048178 0.663231
Si Si2 0.445394 0.050243 0.239198
Si Si3 0.351583 0.546088 0.875316
Si Si4 0.013915 0.044406 0.056036
Si Si5 0.145128 0.040877 0.138884
Si Si6 0.644945 0.957677 0.482069
Si Si7 0.649236 0.552573 0.235855
Si Si8 0.972740 0.045649 0.576685
O O1 0.750000 0.974174 0.656785
O O2 0.845828 0.250000 0.652155
O O3 0.927549 0.975365 0.625977
O O4 0.885543 0.031779 0.718428
O O5 0.423766 0.250000 0.239508
O O6 0.417224 0.986577 0.185107
O O7 0.553037 0.028556 0.250936
O O8 0.250000 0.525373 0.896245
O O9 0.366316 0.750000 0.865973
O O10 0.427400 0.483599 0.912338
O O11 0.353893 0.458754 0.822912
O O12 0.014631 0.250000 0.058082
O O13 0.101800 0.984788 0.087295
O O14 0.000000 0.000000 0.000000
O O15 0.250000 0.985486 0.145221
O O16 0.144548 0.250000 0.138632
O O17 0.750000 0.016440 0.476812
O O18 0.645916 0.750000 0.481284
O O19 0.572021 0.019496 0.441273
O O20 0.599636 0.012389 0.533222
O O21 0.750000 0.480001 0.250080
O O22 0.647352 0.750000 0.251217
O O23 0.984159 0.250000 0.581976
#
# Coordination Sequence:
#
# PCOD9450076 Si02
#       8
#     8   8   8   8   8   8   8   8
#     4  10  21  36  53  77 111 147 183 226 276 327
#     4  11  21  36  58  81 106 140 182 224 266 318
#     4   9  17  32  53  74  98 129 166 207 252 305
#     4  10  20  34  50  73 102 134 169 208 258 314
#     4   9  18  34  54  75 101 134 171 210 256 311
#     4   9  17  30  51  79 108 140 184 234 278 323
#     4  10  20  34  55  82 107 131 165 211 261 314
#     4   9  18  33  52  75 108 149 187 225 274 328
#
# _framework density 20.468349
#
# number of rings (size 3 to 8) (size 9 to 14) (size 15 to 20)
#    0.000    2.375    1.250    1.500    0.000    3.750 
#    0.000    0.625    0.000    3.750    0.000    0.000 
#    0.000    0.000    0.000    0.000    0.000    0.000 
#
# Total GULP energy -356871.352662 kJ/mol
# GULP energy per Si atom -5576.114885 kJ/mol
# Density = 2.042176 g / cm^3
# Si number density = 20.468349 Si / 1000 Ang^3
#
#
#
# Elastic Constant Matrix: (Units=GPa)
#
#
# Indices 1 2 3 4 5 6 
#
# 1 117.7638 -3.9217 25.4975 0.0000 0.0000 0.0000
# 2 -3.9217 15.5832 -8.0033 0.0000 0.0000 0.0000
# 3 25.4975 -8.0033 72.0501 0.0000 0.0000 0.0000
# 4 0.0000 0.0000 0.0000 19.6545 0.0000 0.0000
# 5 0.0000 0.0000 0.0000 0.0000 17.6190 0.0000
# 6 0.0000 0.0000 0.0000 0.0000 0.0000 14.0595
#
#
#
# Elastic Compliance Matrix: (Units=1/GPa)
#
#
# Indices 1 2 3 4 5 6 
#
# 1 0.009203 0.000682 -0.003181 0.000000 0.000000 0.000000
# 2 0.000682 0.068104 0.007324 0.000000 0.000000 0.000000
# 3 -0.003181 0.007324 0.015818 0.000000 0.000000 0.000000
# 4 0.000000 0.000000 0.000000 0.050879 0.000000 0.000000
# 5 0.000000 0.000000 0.000000 0.000000 0.056757 0.000000
# 6 0.000000 0.000000 0.000000 0.000000 0.000000 0.071126
#
#
# Mechanical properties :
#
#
# Convention : Reuss Voigt Hill
#
# Bulk Modulus (GPa) = 9.72994 25.83803 17.78398
# Shear Modulus (GPa) = 16.86359 23.05491 19.95925
#
# Velocity S-wave (km/s) = 2.87346 3.35978 3.12609
# Velocity P-wave (km/s) = 3.97152 5.26324 4.66233
#
# Compressibility (1/GPa) = 0.10277558
#
# Stress axis : x y z
#
# Youngs Moduli (GPa) = 108.65982 14.68333 63.21731
#
# Poissons Ratio (x) = -0.01002 0.20110
# Poissons Ratio (y) = -0.07414 -0.46297
# Poissons Ratio (z) = 0.34565 -0.10753
#
# Static dielectric constant tensor:
#      x y z
#    x 1.763020 0.000000 0.000000 
#    y 0.000000 1.777540 0.000000 
#    z 0.000000 0.000000 1.702640 
# 
# From -- ./inp_files/32102.got.cif
#   From: 2010.05.17/outbox.cif.g08.bks.cpg/sg59_17_cif.got.tgz:32102.got - 2010.06.03 14:40:33.
