data_PCOD9450241
_publ_section_title
;
Structure prediction by ZEFSAII (Michael W. Deem and Ramdas Pophale) SiO2 
 PCOD9450241
Probable space group: P M M N
;
_chemical_formula_sum "Si O2"
_cell_formula_units_Z 64
_cell_length_a 20.828077
_cell_length_b 8.485621
_cell_length_c 20.523735
_cell_angle_alpha 90.000000
_cell_angle_beta 90.000000
_cell_angle_gamma 90.000000
_cell_volume 3627.347840
_symmetry_space_group_name_H-M "P M M N"
_symmetry_group_IT_number 59
_space_group.IT_coordinate_system_code '2'
_symmetry_cell_setting 'orthorhombic'
loop_
_space_group_symop_operation_xyz
x,y,z
1/2-x,1/2-y,z
1/2+x,-y,-z
-x,1/2+y,-z
-x,-y,-z
1/2+x,1/2+y,-z
1/2-x,y,z
x,1/2-y,z
loop_
_atom_site_type_symbol
_atom_site_label
_atom_site_fract_x
_atom_site_fract_y
_atom_site_fract_z
Si Si1 0.317586 0.061662 0.425055
Si Si2 0.319990 0.936414 0.278686
Si Si3 0.960214 0.437854 0.937375
Si Si4 0.543384 0.560164 0.706022
Si Si5 0.821554 0.440471 0.120194
Si Si6 0.454008 0.940536 0.818905
Si Si7 0.322267 0.438538 0.027837
Si Si8 0.454835 0.438423 0.444076
O O1 0.250000 0.030121 0.458709
O O2 0.320832 0.250000 0.410313
O O3 0.381603 0.019733 0.462237
O O4 0.317687 0.973769 0.356023
O O5 0.250000 0.994824 0.252631
O O6 0.322578 0.750000 0.267415
O O7 0.388878 0.009384 0.261034
O O8 0.961507 0.250000 0.938870
O O9 0.998319 0.501089 0.875076
O O10 0.885840 0.492368 0.938556
O O11 0.000000 0.500000 0.000000
O O12 0.544675 0.750000 0.703842
O O13 0.484272 0.507216 0.750517
O O14 0.536916 0.504642 0.630908
O O15 0.750000 0.480473 0.144906
O O16 0.824658 0.250000 0.113381
O O17 0.881642 0.491775 0.163985
O O18 0.828003 0.512959 0.048160
O O19 0.454178 0.750000 0.819479
O O20 0.250000 0.490959 0.049382
O O21 0.324467 0.250000 0.033453
O O22 0.500000 0.500000 0.500000
O O23 0.461270 0.250000 0.442065
#
# Coordination Sequence:
#
# PCOD9450241 Si02
#       8
#     8   8   8   8   8   8   8   8
#     4   8  14  26  44  65  90 121 158 197 236 284
#     4   9  16  26  43  68  95 122 156 200 244 286
#     4  12  23  35  53  77 105 136 170 209 254 303
#     4   9  19  34  50  70  98 133 170 204 247 301
#     4   9  17  30  51  77 100 126 164 210 258 304
#     4  10  20  35  54  75 101 133 169 213 258 306
#     4  10  20  34  53  77 105 136 172 214 256 300
#     4   9  17  29  47  71  97 127 163 203 247 296
#
# _framework density 17.643744999999999
#
# number of rings (size 3 to 8) (size 9 to 14) (size 15 to 20)
#    0.000    2.500    1.250    2.625    0.000    4.000 
#    0.000    0.625    0.000    1.500    0.000    1.750 
#    0.000    0.000    0.000    0.000    0.000    0.000 
#
# Total GULP energy -356379.867208 kJ/mol
# GULP energy per Si atom -5568.435425 kJ/mol
# Density = 1.760359 g / cm^3
# Si number density = 17.643745 Si / 1000 Ang^3
#
#
#
# Elastic Constant Matrix: (Units=GPa)
#
#
# Indices 1 2 3 4 5 6 
#
# 1 169.9914 18.4237 55.9377 0.0000 0.0000 0.0000
# 2 18.4237 7.2722 7.9018 0.0000 0.0000 0.0000
# 3 55.9377 7.9018 56.5172 0.0000 0.0000 0.0000
# 4 0.0000 0.0000 0.0000 15.6707 0.0000 0.0000
# 5 0.0000 0.0000 0.0000 0.0000 25.2361 0.0000
# 6 0.0000 0.0000 0.0000 0.0000 0.0000 24.9981
#
#
#
# Elastic Compliance Matrix: (Units=1/GPa)
#
#
# Indices 1 2 3 4 5 6 
#
# 1 0.010374 -0.017834 -0.007774 0.000000 0.000000 0.000000
# 2 -0.017834 0.192801 -0.009305 0.000000 0.000000 0.000000
# 3 -0.007774 -0.009305 0.026689 0.000000 0.000000 0.000000
# 4 0.000000 0.000000 0.000000 0.063813 0.000000 0.000000
# 5 0.000000 0.000000 0.000000 0.000000 0.039626 0.000000
# 6 0.000000 0.000000 0.000000 0.000000 0.000000 0.040003
#
#
# Mechanical properties :
#
#
# Convention : Reuss Voigt Hill
#
# Bulk Modulus (GPa) = 6.24852 44.25638 25.25245
# Shear Modulus (GPa) = 10.07097 23.28215 16.67656
#
# Velocity S-wave (km/s) = 2.39172 3.63653 3.07772
# Velocity P-wave (km/s) = 3.34310 6.53990 5.19358
#
# Compressibility (1/GPa) = 0.16003782
#
# Stress axis : x y z
#
# Youngs Moduli (GPa) = 96.39904 5.18670 37.46897
#
# Poissons Ratio (x) = 0.09250 0.29128
# Poissons Ratio (y) = 1.71917 0.34865
# Poissons Ratio (z) = 0.74939 0.04826
#
# Static dielectric constant tensor:
#      x y z
#    x 1.666920 0.000000 0.000000 
#    y 0.000000 1.615310 0.000000 
#    z 0.000000 0.000000 1.587660 
# 
# From -- ./inp_files/31021.got.cif
#   From: 2010.05.17/outbox.cif.g08.bks.cpg/sg59_16_cif.got.tgz:31021.got - 2010.06.03 14:40:33.
