data_PCOD9450093
_publ_section_title
;
Structure prediction by ZEFSAII (Michael W. Deem and Ramdas Pophale) SiO2 
 PCOD9450093
Probable space group: P M M N
;
_chemical_formula_sum "Si O2"
_cell_formula_units_Z 64
_cell_length_a 8.756274
_cell_length_b 14.081847
_cell_length_c 23.528062
_cell_angle_alpha 90.000000
_cell_angle_beta 90.000000
_cell_angle_gamma 90.000000
_cell_volume 2901.116174
_symmetry_space_group_name_H-M "P M M N"
_symmetry_group_IT_number 59
_space_group.IT_coordinate_system_code '2'
_symmetry_cell_setting 'orthorhombic'
loop_
_space_group_symop_operation_xyz
x,y,z
1/2-x,1/2-y,z
1/2+x,-y,-z
-x,1/2+y,-z
-x,-y,-z
1/2+x,1/2+y,-z
1/2-x,y,z
x,1/2-y,z
loop_
_atom_site_type_symbol
_atom_site_label
_atom_site_fract_x
_atom_site_fract_y
_atom_site_fract_z
Si Si1 0.565715 0.358348 0.647605
Si Si2 0.575924 0.891138 0.932878
Si Si3 0.424301 0.864675 0.591712
Si Si4 0.577224 0.118173 0.951872
Si Si5 0.432590 0.935028 0.816567
Si Si6 0.930767 0.850662 0.164358
Si Si7 0.925056 0.634312 0.474454
Si Si8 0.430742 0.049383 0.298170
O O1 0.750000 0.358548 0.644694
O O2 0.515630 0.250000 0.660180
O O3 0.501633 0.387387 0.585884
O O4 0.518985 0.439430 0.691930
O O5 0.750000 0.857485 0.934579
O O6 0.578916 0.004188 0.945358
O O7 0.504732 0.881244 0.870305
O O8 0.476335 0.854355 0.985330
O O9 0.250000 0.896005 0.601281
O O10 0.426045 0.750000 0.591291
O O11 0.483466 0.897668 0.530108
O O12 0.529419 0.900188 0.642695
O O13 0.750000 0.149049 0.940311
O O14 0.462757 0.151090 0.903099
O O15 0.250000 0.933981 0.822666
O O16 0.490336 0.045527 0.818253
O O17 0.483370 0.902362 0.754425
O O18 0.750000 0.851650 0.175445
O O19 0.993985 0.750000 0.187853
O O20 0.750000 0.602120 0.476591
O O21 0.924036 0.750000 0.476806
O O22 0.250000 0.051353 0.287645
#
# Coordination Sequence:
#
# PCOD9450093 Si02
#       8
#     8   8   8   8   8   8   8   8
#     4   9  19  36  55  77 110 150 187 223 266 319
#     4   9  16  28  47  69  94 124 159 202 251 302
#     4  10  21  38  60  83 107 137 174 221 278 335
#     4   9  16  26  44  71  97 122 157 201 250 301
#     4  10  20  34  51  72 101 137 179 223 262 309
#     4   9  18  32  49  71 102 140 178 216 260 309
#     4   9  17  31  54  83 111 139 175 221 273 328
#     4  11  23  37  55  80 109 144 187 231 273 321
#
# _framework density 22.060476000000001
#
# number of rings (size 3 to 8) (size 9 to 14) (size 15 to 20)
#    0.000    2.500    0.000    2.250    0.000    8.000 
#    0.000    0.000    0.000    0.750    0.000    0.000 
#    0.000    0.000    0.000    0.000    0.000    0.000 
#
# Total GULP energy -357342.805616 kJ/mol
# GULP energy per Si atom -5583.481338 kJ/mol
# Density = 2.201027 g / cm^3
# Si number density = 22.060476 Si / 1000 Ang^3
#
#
#
# Elastic Constant Matrix: (Units=GPa)
#
#
# Indices 1 2 3 4 5 6 
#
# 1 37.4063 -3.7555 9.7700 0.0000 0.0000 0.0000
# 2 -3.7555 50.5547 -9.1699 0.0000 0.0000 0.0000
# 3 9.7700 -9.1699 120.3561 0.0000 0.0000 0.0000
# 4 0.0000 0.0000 0.0000 -92.8430 0.0000 0.0000
# 5 0.0000 0.0000 0.0000 0.0000 28.8949 0.0000
# 6 0.0000 0.0000 0.0000 0.0000 0.0000 3.0540
#
#
#
# Elastic Compliance Matrix: (Units=1/GPa)
#
#
# Indices 1 2 3 4 5 6 
#
# 1 0.027449 0.001658 -0.002102 0.000000 0.000000 0.000000
# 2 0.001658 0.020158 0.001401 0.000000 0.000000 0.000000
# 3 -0.002102 0.001401 0.008586 0.000000 0.000000 0.000000
# 4 0.000000 0.000000 0.000000 -0.010771 0.000000 0.000000
# 5 0.000000 0.000000 0.000000 0.000000 0.034608 0.000000
# 6 0.000000 0.000000 0.000000 0.000000 0.000000 0.327439
#
#
# Mechanical properties :
#
#
# Convention : Reuss Voigt Hill
#
# Bulk Modulus (GPa) = 17.20955 22.44513 19.82734
# Shear Modulus (GPa) = 11.76682 1.91936 6.84309
#
# Velocity S-wave (km/s) = 2.31203 0.93377 1.76315
# Velocity P-wave (km/s) = 3.86592 3.37032 3.62659
#
# Compressibility (1/GPa) = 0.05810727
#
# Stress axis : x y z
#
# Youngs Moduli (GPa) = 36.43130 49.60839 116.46790
#
# Poissons Ratio (x) = -0.08224 0.24480
# Poissons Ratio (y) = -0.06040 -0.16320
# Poissons Ratio (z) = 0.07657 -0.06951
#
# Static dielectric constant tensor:
#      x y z
#    x 1.748180 0.000000 0.000000 
#    y 0.000000 1.833330 0.000000 
#    z 0.000000 0.000000 1.763220 
# 
# From -- ./inp_files/29449.got.cif
#   From: 2010.05.17/outbox.cif.g08.bks.cpg/sg59_15_cif.got.tgz:29449.got - 2010.06.03 14:40:33.
