data_PCOD9450144
_publ_section_title
;
Structure prediction by ZEFSAII (Michael W. Deem and Ramdas Pophale) SiO2 
 PCOD9450144
Probable space group: P M M N
;
_chemical_formula_sum "Si O2"
_cell_formula_units_Z 64
_cell_length_a 9.364513
_cell_length_b 15.757605
_cell_length_c 21.071602
_cell_angle_alpha 90.000000
_cell_angle_beta 90.000000
_cell_angle_gamma 90.000000
_cell_volume 3109.373990
_symmetry_space_group_name_H-M "P M M N"
_symmetry_group_IT_number 59
_space_group.IT_coordinate_system_code '2'
_symmetry_cell_setting 'orthorhombic'
loop_
_space_group_symop_operation_xyz
x,y,z
1/2-x,1/2-y,z
1/2+x,-y,-z
-x,1/2+y,-z
-x,-y,-z
1/2+x,1/2+y,-z
1/2-x,y,z
x,1/2-y,z
loop_
_atom_site_type_symbol
_atom_site_label
_atom_site_fract_x
_atom_site_fract_y
_atom_site_fract_z
Si Si1 0.919493 0.649134 0.835623
Si Si2 0.090182 0.652019 0.084449
Si Si3 0.078334 0.416412 0.025524
Si Si4 0.413732 0.593534 0.570906
Si Si5 0.912622 0.609408 0.449537
Si Si6 0.413980 0.145565 0.795871
Si Si7 0.917481 0.352333 0.290152
Si Si8 0.910416 0.149523 0.674658
O O1 0.750000 0.640682 0.825965
O O2 0.950408 0.750000 0.844059
O O3 0.955870 0.602757 0.901324
O O4 0.000013 0.619009 0.772658
O O5 0.250000 0.614617 0.076281
O O6 0.108975 0.750000 0.101590
O O7 0.002457 0.614171 0.143215
O O8 0.995034 0.650270 0.021561
O O9 0.250000 0.417588 0.018153
O O10 0.000000 0.500000 0.000000
O O11 0.250000 0.626209 0.566105
O O12 0.408461 0.492881 0.557787
O O13 0.514362 0.631260 0.516484
O O14 0.465873 0.610064 0.642395
O O15 0.750000 0.640607 0.444947
O O16 0.010054 0.639427 0.391758
O O17 0.250000 0.117836 0.798008
O O18 0.411110 0.250000 0.796153
O O19 0.492878 0.116016 0.732098
O O20 0.750000 0.372585 0.283211
O O21 0.932108 0.250000 0.294284
O O22 0.750000 0.113290 0.673550
O O23 0.897623 0.250000 0.686545
#
# Coordination Sequence:
#
# PCOD9450144 Si02
#       8
#     8   8   8   8   8   8   8   8
#     4   9  19  37  60  84 111 144 183 228 279 335
#     4  10  20  35  57  83 109 141 184 229 274 330
#     4  11  23  39  57  80 114 151 186 231 282 334
#     4   9  19  36  54  76 109 144 180 223 272 329
#     4  10  20  34  53  76 106 145 186 228 273 328
#     4   9  17  31  52  77 105 136 173 218 265 315
#     4   9  18  34  58  85 110 139 179 227 277 331
#     4  10  20  34  52  75 105 141 181 227 276 323
#
# _framework density 20.582920999999999
#
# number of rings (size 3 to 8) (size 9 to 14) (size 15 to 20)
#    0.000    2.375    0.000    2.250    0.000    6.000 
#    2.250    2.500    0.000    0.000    0.000    0.000 
#    0.000    0.000    0.000    0.000    0.000    0.000 
#
# Total GULP energy -357179.226307 kJ/mol
# GULP energy per Si atom -5580.925411 kJ/mol
# Density = 2.053607 g / cm^3
# Si number density = 20.582921 Si / 1000 Ang^3
#
#
#
# Elastic Constant Matrix: (Units=GPa)
#
#
# Indices 1 2 3 4 5 6 
#
# 1 148.1206 20.1774 109.1155 0.0000 0.0000 0.0000
# 2 20.1774 18.4795 21.2638 0.0000 0.0000 0.0000
# 3 109.1155 21.2638 219.3037 0.0000 0.0000 0.0000
# 4 0.0000 0.0000 0.0000 -224.4845 0.0000 0.0000
# 5 0.0000 0.0000 0.0000 0.0000 41.8233 0.0000
# 6 0.0000 0.0000 0.0000 0.0000 0.0000 10.4145
#
#
#
# Elastic Compliance Matrix: (Units=1/GPa)
#
#
# Indices 1 2 3 4 5 6 
#
# 1 0.011335 -0.006626 -0.004997 0.000000 0.000000 0.000000
# 2 -0.006626 0.064783 -0.002984 0.000000 0.000000 0.000000
# 3 -0.004997 -0.002984 0.007336 0.000000 0.000000 0.000000
# 4 0.000000 0.000000 0.000000 -0.004455 0.000000 0.000000
# 5 0.000000 0.000000 0.000000 0.000000 0.023910 0.000000
# 6 0.000000 0.000000 0.000000 0.000000 0.000000 0.096020
#
#
# Mechanical properties :
#
#
# Convention : Reuss Voigt Hill
#
# Bulk Modulus (GPa) = 18.43732 76.33523 47.38628
# Shear Modulus (GPa) = 20.30654 -18.75953 0.77351
#
# Velocity S-wave (km/s) = 3.14438 -3.02224 0.61369
# Velocity P-wave (km/s) = 4.70743 4.99886 4.85533
#
# Compressibility (1/GPa) = 0.05423781
#
# Stress axis : x y z
#
# Youngs Moduli (GPa) = 88.21926 15.43609 136.31838
#
# Poissons Ratio (x) = 0.10229 0.68125
# Poissons Ratio (y) = 0.58458 0.40683
# Poissons Ratio (z) = 0.44087 0.04607
#
# Static dielectric constant tensor:
#      x y z
#    x 1.722590 0.000000 0.000000 
#    y 0.000000 1.799080 0.000000 
#    z 0.000000 0.000000 1.708520 
# 
# From -- ./inp_files/26306.got.cif
#   From: 2010.05.17/outbox.cif.g08.bks.cpg/sg59_14_cif.got.tgz:26306.got - 2010.06.03 14:40:33.
