data_PCOD9450848
_publ_section_title
;
Structure prediction by ZEFSAII (Michael W. Deem and Ramdas Pophale) SiO2 
 PCOD9450848
Probable space group: P M M N
;
_chemical_formula_sum "Si O2"
_cell_formula_units_Z 56
_cell_length_a 8.703169
_cell_length_b 15.674180
_cell_length_c 21.218544
_cell_angle_alpha 90.000000
_cell_angle_beta 90.000000
_cell_angle_gamma 90.000000
_cell_volume 2894.528475
_symmetry_space_group_name_H-M "P M M N"
_symmetry_group_IT_number 59
_space_group.IT_coordinate_system_code '2'
_symmetry_cell_setting 'orthorhombic'
loop_
_space_group_symop_operation_xyz
x,y,z
1/2-x,1/2-y,z
1/2+x,-y,-z
-x,1/2+y,-z
-x,-y,-z
1/2+x,1/2+y,-z
1/2-x,y,z
x,1/2-y,z
loop_
_atom_site_type_symbol
_atom_site_label
_atom_site_fract_x
_atom_site_fract_y
_atom_site_fract_z
Si Si1 0.936197 0.658742 0.100450
Si Si2 0.565594 0.474662 0.152590
Si Si3 0.433858 0.086869 0.029709
Si Si4 0.932624 0.515051 0.711769
Si Si5 0.066876 0.845026 0.618064
Si Si6 0.064696 0.152731 0.651478
Si Si7 0.565566 0.905140 0.490388
O O1 0.750000 0.657754 0.105606
O O2 0.991378 0.750000 0.126046
O O3 0.988164 0.571127 0.133265
O O4 0.971710 0.653154 0.025726
O O5 0.750000 0.473913 0.152226
O O6 0.505499 0.410096 0.098967
O O7 0.502348 0.456980 0.221516
O O8 0.250000 0.082520 0.034975
O O9 0.500000 0.000000 0.000000
O O10 0.750000 0.515288 0.714200
O O11 0.990177 0.580651 0.658634
O O12 0.991967 0.420545 0.694246
O O13 0.250000 0.858256 0.617795
O O14 0.034307 0.750000 0.643278
O O15 0.004706 0.851068 0.547090
O O16 0.250000 0.147556 0.657557
O O17 0.018499 0.250000 0.666084
O O18 0.026265 0.130693 0.578672
O O19 0.750000 0.906680 0.495350
O O20 0.500000 0.000000 0.500000
#
# Coordination Sequence:
#
# PCOD9450848 Si02
#       7
#     8   8   8   8   8   8   8
#     4   8  15  29  52  82 110 139 179 226 276 332
#     4  10  20  35  56  78 108 149 190 234 284 345
#     4   9  16  29  51  77 105 138 177 221 271 328
#     4  12  25  40  60  85 117 157 200 249 299 357
#     4  11  24  42  64  88 116 152 196 248 304 360
#     4  10  22  40  61  85 118 159 199 240 291 354
#     4  11  21  36  62  92 121 154 194 241 297 354
#
# _framework density 19.346848000000001
#
# number of rings (size 3 to 8) (size 9 to 14) (size 15 to 20)
#    0.000    1.857    1.429    4.286    0.000    3.143 
#    0.000    2.143    0.000   17.571    0.000    0.000 
#    0.000    0.000    0.000    0.000    0.000    0.000 
#
# Total GULP energy -312564.171657 kJ/mol
# GULP energy per Si atom -5581.503065 kJ/mol
# Density = 1.930281 g / cm^3
# Si number density = 19.346848 Si / 1000 Ang^3
#
#
#
# Elastic Constant Matrix: (Units=GPa)
#
#
# Indices 1 2 3 4 5 6 
#
# 1 56.1614 13.6117 18.7697 0.0000 0.0000 0.0000
# 2 13.6117 51.1392 -16.6281 0.0000 0.0000 0.0000
# 3 18.7697 -16.6281 68.0296 0.0000 0.0000 0.0000
# 4 0.0000 0.0000 0.0000 11.3530 0.0000 0.0000
# 5 0.0000 0.0000 0.0000 0.0000 33.9726 0.0000
# 6 0.0000 0.0000 0.0000 0.0000 0.0000 13.8836
#
#
#
# Elastic Compliance Matrix: (Units=1/GPa)
#
#
# Indices 1 2 3 4 5 6 
#
# 1 0.022755 -0.008797 -0.008428 0.000000 0.000000 0.000000
# 2 -0.008797 0.024644 0.008451 0.000000 0.000000 0.000000
# 3 -0.008428 0.008451 0.019090 0.000000 0.000000 0.000000
# 4 0.000000 0.000000 0.000000 0.088083 0.000000 0.000000
# 5 0.000000 0.000000 0.000000 0.000000 0.029436 0.000000
# 6 0.000000 0.000000 0.000000 0.000000 0.000000 0.072027
#
#
# Mechanical properties :
#
#
# Convention : Reuss Voigt Hill
#
# Bulk Modulus (GPa) = 20.43346 22.98188 21.70767
# Shear Modulus (GPa) = 17.24749 22.48029 19.86389
#
# Velocity S-wave (km/s) = 2.98902 3.41245 3.20773
# Velocity P-wave (km/s) = 4.74309 5.23747 4.99640
#
# Compressibility (1/GPa) = 0.04893933
#
# Stress axis : x y z
#
# Youngs Moduli (GPa) = 43.94669 40.57823 52.38214
#
# Poissons Ratio (x) = 0.35697 0.44150
# Poissons Ratio (y) = 0.38661 -0.44267
# Poissons Ratio (z) = 0.37040 -0.34291
#
# Static dielectric constant tensor:
#      x y z
#    x 1.646650 0.000000 0.000000 
#    y 0.000000 1.685390 0.000000 
#    z 0.000000 0.000000 1.672930 
# 
# From -- ./inp_files/29066.got.cif
#   From: 2010.05.17/outbox.cif.g08.bks.cpg/sg59_15_cif.got.tgz:29066.got - 2010.06.03 14:40:33.
