data_PCOD9450442
_publ_section_title
;
Structure prediction by ZEFSAII (Michael W. Deem and Ramdas Pophale) SiO2 
 PCOD9450442
Probable space group: P M M N
;
_chemical_formula_sum "Si O2"
_cell_formula_units_Z 48
_cell_length_a 9.766251
_cell_length_b 7.544744
_cell_length_c 29.680466
_cell_angle_alpha 90.000000
_cell_angle_beta 90.000000
_cell_angle_gamma 90.000000
_cell_volume 2186.971409
_symmetry_space_group_name_H-M "P M M N"
_symmetry_group_IT_number 59
_space_group.IT_coordinate_system_code '2'
_symmetry_cell_setting 'orthorhombic'
loop_
_space_group_symop_operation_xyz
x,y,z
1/2-x,1/2-y,z
1/2+x,-y,-z
-x,1/2+y,-z
-x,-y,-z
1/2+x,1/2+y,-z
1/2-x,y,z
x,1/2-y,z
loop_
_atom_site_type_symbol
_atom_site_label
_atom_site_fract_x
_atom_site_fract_y
_atom_site_fract_z
Si Si1 0.908346 0.537614 0.456114
Si Si2 0.750000 0.468747 0.066540
Si Si3 0.405212 0.460077 0.711433
Si Si4 0.090913 0.967086 0.371142
Si Si5 0.600378 0.964067 0.791891
Si Si6 0.750000 0.038813 0.963538
Si Si7 0.474976 0.040433 0.109324
O O1 0.750000 0.471298 0.458372
O O2 0.898362 0.750000 0.451934
O O3 0.000000 0.500000 0.500000
O O4 0.997082 0.475247 0.413260
O O5 0.750000 0.250000 0.065671
O O6 0.619033 0.531840 0.093624
O O7 0.750000 0.527944 0.014593
O O8 0.250000 0.532096 0.709150
O O9 0.394492 0.250000 0.703247
O O10 0.511011 0.527700 0.673687
O O11 0.476669 0.484464 0.759612
O O12 0.250000 0.024451 0.373472
O O13 0.094297 0.750000 0.371350
O O14 0.750000 0.025604 0.775121
O O15 0.603947 0.750000 0.792402
O O16 0.580326 0.029034 0.843206
O O17 0.750000 0.250000 0.965942
O O18 0.877231 0.982106 0.933299
O O19 0.490622 0.250000 0.116664
#
# Coordination Sequence:
#
# PCOD9450442 Si02
#       7
#     8   4   8   8   8   4   8
#     4  10  20  34  54  81 113 149 190 235 279 326
#     4   9  20  35  57  83 107 139 183 223 262 317
#     4  10  21  36  56  83 112 141 175 220 274 327
#     4   9  17  32  55  80 108 146 187 223 269 330
#     4  10  21  37  57  80 104 138 184 223 261 319
#     4  11  21  35  55  85 113 137 175 225 270 313
#     4  10  20  38  59  78 105 145 183 216 263 326
#
# _framework density 21.948162
#
# number of rings (size 3 to 8) (size 9 to 14) (size 15 to 20)
#    0.000    2.167    0.833    2.250    1.167    5.000 
#    0.000    2.083    0.000    5.000    0.000    0.000 
#    0.000    0.000    0.000    0.000    0.000    0.000 
#
# Total GULP energy -268033.289274 kJ/mol
# GULP energy per Si atom -5584.026860 kJ/mol
# Density = 2.189821 g / cm^3
# Si number density = 21.948162 Si / 1000 Ang^3
#
#
#
# Elastic Constant Matrix: (Units=GPa)
#
#
# Indices 1 2 3 4 5 6 
#
# 1 223.1871 12.7228 64.9581 0.0000 0.0000 0.0000
# 2 12.7228 43.6026 10.4270 0.0000 0.0000 0.0000
# 3 64.9581 10.4270 106.9769 0.0000 0.0000 0.0000
# 4 0.0000 0.0000 0.0000 16.5621 0.0000 0.0000
# 5 0.0000 0.0000 0.0000 0.0000 35.7011 0.0000
# 6 0.0000 0.0000 0.0000 0.0000 0.0000 13.8045
#
#
#
# Elastic Compliance Matrix: (Units=1/GPa)
#
#
# Indices 1 2 3 4 5 6 
#
# 1 0.005471 -0.000821 -0.003242 0.000000 0.000000 0.000000
# 2 -0.000821 0.023605 -0.001802 0.000000 0.000000 0.000000
# 3 -0.003242 -0.001802 0.011492 0.000000 0.000000 0.000000
# 4 0.000000 0.000000 0.000000 0.060379 0.000000 0.000000
# 5 0.000000 0.000000 0.000000 0.000000 0.028010 0.000000
# 6 0.000000 0.000000 0.000000 0.000000 0.000000 0.072440
#
#
# Mechanical properties :
#
#
# Convention : Reuss Voigt Hill
#
# Bulk Modulus (GPa) = 34.67721 61.10915 47.89318
# Shear Modulus (GPa) = 22.44769 32.25746 27.35257
#
# Velocity S-wave (km/s) = 3.20153 3.83784 3.53404
# Velocity P-wave (km/s) = 5.43142 6.89504 6.20653
#
# Compressibility (1/GPa) = 0.02883738
#
# Stress axis : x y z
#
# Youngs Moduli (GPa) = 182.78428 42.36400 87.01651
#
# Poissons Ratio (x) = 0.03478 0.28211
# Poissons Ratio (y) = 0.15008 0.15682
# Poissons Ratio (z) = 0.59259 0.07635
#
# Static dielectric constant tensor:
#      x y z
#    x 1.734380 0.000000 0.000000 
#    y 0.000000 1.845310 0.000000 
#    z 0.000000 0.000000 1.768970 
# 
# From -- ./inp_files/32973.got.cif
#   From: 2010.05.17/outbox.cif.g08.bks.cpg/sg59_17_cif.got.tgz:32973.got - 2010.06.03 14:40:33.
