data_PCOD9450059
_publ_section_title
;
Structure prediction by ZEFSAII (Michael W. Deem and Ramdas Pophale) SiO2 
 PCOD9450059
Probable space group: P M M N
;
_chemical_formula_sum "Si O2"
_cell_formula_units_Z 48
_cell_length_a 29.292016
_cell_length_b 7.506609
_cell_length_c 10.353290
_cell_angle_alpha 90.000000
_cell_angle_beta 90.000000
_cell_angle_gamma 90.000000
_cell_volume 2276.519826
_symmetry_space_group_name_H-M "P M M N"
_symmetry_group_IT_number 59
_space_group.IT_coordinate_system_code '2'
_symmetry_cell_setting 'orthorhombic'
loop_
_space_group_symop_operation_xyz
x,y,z
1/2-x,1/2-y,z
1/2+x,-y,-z
-x,1/2+y,-z
-x,-y,-z
1/2+x,1/2+y,-z
1/2-x,y,z
x,1/2-y,z
loop_
_atom_site_type_symbol
_atom_site_label
_atom_site_fract_x
_atom_site_fract_y
_atom_site_fract_z
Si Si1 0.106625 0.465682 0.729814
Si Si2 0.006145 0.464058 0.652249
Si Si3 0.250000 0.033597 0.353467
Si Si4 0.346189 0.465679 0.468729
Si Si5 0.587109 0.041359 0.766501
Si Si6 0.750000 0.455951 0.947972
Si Si7 0.650027 0.039887 0.995229
O O1 0.105968 0.250000 0.728616
O O2 0.137867 0.524776 0.609813
O O3 0.126897 0.522058 0.866215
O O4 0.054992 0.528738 0.703168
O O5 0.006339 0.250000 0.665019
O O6 0.962577 0.534611 0.731618
O O7 0.000000 0.500000 0.500000
O O8 0.250000 0.250000 0.346644
O O9 0.204147 0.976714 0.426360
O O10 0.250000 0.964487 0.207441
O O11 0.346767 0.250000 0.467538
O O12 0.382295 0.526703 0.361695
O O13 0.579868 0.250000 0.796315
O O14 0.616691 0.964017 0.884373
O O15 0.750000 0.250000 0.992288
O O16 0.798482 0.535737 0.992271
O O17 0.655232 0.250000 0.964015
#
# Coordination Sequence:
#
# PCOD9450059 Si02
#       7
#     8   8   4   8   8   4   8
#     4  10  22  38  55  81 117 150 184 229 279 332
#     4  10  20  35  57  85 113 145 186 231 280 333
#     4  10  20  33  56  86 110 138 184 233 276 332
#     4  10  20  35  55  82 112 142 182 229 276 327
#     4  10  20  35  58  84 110 144 187 230 274 329
#     4  10  20  37  58  80 110 146 186 231 278 330
#     4  10  22  38  56  81 113 148 187 231 278 332
#
# _framework density 21.084814999999999
#
# number of rings (size 3 to 8) (size 9 to 14) (size 15 to 20)
#    0.000    2.000    3.333    0.000    0.000    4.000 
#    0.000    0.833    0.000    0.000    0.000    0.000 
#    0.000    0.000    0.000    0.000    0.000    0.000 
#
# Total GULP energy -268115.933485 kJ/mol
# GULP energy per Si atom -5585.748614 kJ/mol
# Density = 2.103683 g / cm^3
# Si number density = 21.084815 Si / 1000 Ang^3
#
#
#
# Elastic Constant Matrix: (Units=GPa)
#
#
# Indices 1 2 3 4 5 6 
#
# 1 200.4971 0.1076 77.6096 0.0000 0.0000 0.0000
# 2 0.1076 54.5227 -15.1813 0.0000 0.0000 0.0000
# 3 77.6096 -15.1813 137.0361 0.0000 0.0000 0.0000
# 4 0.0000 0.0000 0.0000 22.7090 0.0000 0.0000
# 5 0.0000 0.0000 0.0000 0.0000 34.4723 0.0000
# 6 0.0000 0.0000 0.0000 0.0000 0.0000 13.3501
#
#
#
# Elastic Compliance Matrix: (Units=1/GPa)
#
#
# Indices 1 2 3 4 5 6 
#
# 1 0.006447 -0.001062 -0.003769 0.000000 0.000000 0.000000
# 2 -0.001062 0.019100 0.002717 0.000000 0.000000 0.000000
# 3 -0.003769 0.002717 0.009733 0.000000 0.000000 0.000000
# 4 0.000000 0.000000 0.000000 0.044035 0.000000 0.000000
# 5 0.000000 0.000000 0.000000 0.000000 0.029009 0.000000
# 6 0.000000 0.000000 0.000000 0.000000 0.000000 0.074906
#
#
# Mechanical properties :
#
#
# Convention : Reuss Voigt Hill
#
# Bulk Modulus (GPa) = 32.20351 57.45863 44.83107
# Shear Modulus (GPa) = 25.27708 36.07428 30.67568
#
# Velocity S-wave (km/s) = 3.46617 4.14081 3.81841
# Velocity P-wave (km/s) = 5.59692 7.08322 6.38348
#
# Compressibility (1/GPa) = 0.03105252
#
# Stress axis : x y z
#
# Youngs Moduli (GPa) = 155.10908 52.35672 102.74417
#
# Poissons Ratio (x) = 0.05561 0.38724
# Poissons Ratio (y) = 0.16475 -0.27920
# Poissons Ratio (z) = 0.58460 -0.14228
#
# Static dielectric constant tensor:
#      x y z
#    x 1.773520 0.000000 0.000000 
#    y 0.000000 1.810230 0.000000 
#    z 0.000000 0.000000 1.684880 
# 
# From -- ./inp_files/6394.got.cif
#   From: 2010.05.17/outbox.cif.g08.bks.cpg/sg59_4_cif.got.tgz:6394.got - 2010.06.03 14:40:33.
