data_PCOD9450263
_publ_section_title
;
Structure prediction by ZEFSAII (Michael W. Deem and Ramdas Pophale) SiO2 
 PCOD9450263
Probable space group: P M M N
;
_chemical_formula_sum "Si O2"
_cell_formula_units_Z 64
_cell_length_a 9.033384
_cell_length_b 14.092369
_cell_length_c 26.622616
_cell_angle_alpha 90.000000
_cell_angle_beta 90.000000
_cell_angle_gamma 90.000000
_cell_volume 3389.106422
_symmetry_space_group_name_H-M "P M M N"
_symmetry_group_IT_number 59
_space_group.IT_coordinate_system_code '2'
_symmetry_cell_setting 'orthorhombic'
loop_
_space_group_symop_operation_xyz
x,y,z
1/2-x,1/2-y,z
1/2+x,-y,-z
-x,1/2+y,-z
-x,-y,-z
1/2+x,1/2+y,-z
1/2-x,y,z
x,1/2-y,z
loop_
_atom_site_type_symbol
_atom_site_label
_atom_site_fract_x
_atom_site_fract_y
_atom_site_fract_z
Si Si1 0.920364 0.635177 0.917525
Si Si2 0.926961 0.859287 0.123704
Si Si3 0.927441 0.964555 0.621653
Si Si4 0.926238 0.044023 0.178319
Si Si5 0.080567 0.865778 0.019312
Si Si6 0.421845 0.636006 0.526990
Si Si7 0.073716 0.138586 0.579474
Si Si8 0.928129 0.860302 0.725525
O O1 0.750000 0.604888 0.912477
O O2 0.923251 0.750000 0.916893
O O3 0.014736 0.598264 0.870888
O O4 0.987367 0.603534 0.970882
O O5 0.750000 0.862885 0.114623
O O6 0.966438 0.750000 0.134850
O O7 0.008183 0.890141 0.072600
O O8 0.961447 0.933506 0.167521
O O9 0.750000 0.966550 0.616601
O O10 0.966078 0.911075 0.673142
O O11 0.998930 0.909797 0.574617
O O12 0.994226 0.069947 0.618758
O O13 0.750000 0.054603 0.181873
O O14 0.001214 0.086144 0.227533
O O15 0.250000 0.897859 0.015660
O O16 0.080893 0.750000 0.018154
O O17 0.250000 0.605850 0.523568
O O18 0.424879 0.750000 0.532565
O O19 0.507039 0.614040 0.475337
O O20 0.250000 0.123939 0.579505
O O21 0.044579 0.250000 0.588437
O O22 0.750000 0.862555 0.730542
O O23 0.974233 0.750000 0.724834
#
# Coordination Sequence:
#
# PCOD9450263 Si02
#       8
#     8   8   8   8   8   8   8   8
#     4  10  20  34  53  77 109 148 182 215 265 329
#     4   9  19  37  57  77 106 142 177 215 265 325
#     4  11  22  37  59  84 113 150 192 237 283 335
#     4  11  23  37  57  83 107 137 180 229 276 320
#     4   9  17  30  51  80 110 139 176 222 266 312
#     4  10  20  34  55  85 120 156 194 236 282 334
#     4  10  21  37  57  83 118 157 194 233 278 330
#     4  10  23  43  63  83 110 144 180 221 274 332
#
# _framework density 18.884034
#
# number of rings (size 3 to 8) (size 9 to 14) (size 15 to 20)
#    0.000    2.000    0.000    3.375    0.000    8.500 
#    0.000    0.625    0.000    2.250    0.000    0.000 
#    0.000    0.000    0.000    0.000    0.000    0.000 
#
# Total GULP energy -357710.417545 kJ/mol
# GULP energy per Si atom -5589.225274 kJ/mol
# Density = 1.884105 g / cm^3
# Si number density = 18.884034 Si / 1000 Ang^3
#
#
#
# Elastic Constant Matrix: (Units=GPa)
#
#
# Indices 1 2 3 4 5 6 
#
# 1 68.3232 50.3882 58.7788 0.0000 0.0000 0.0000
# 2 50.3882 105.6562 80.0047 0.0000 0.0000 0.0000
# 3 58.7788 80.0047 128.0442 0.0000 0.0000 0.0000
# 4 0.0000 0.0000 0.0000 34.3596 0.0000 0.0000
# 5 0.0000 0.0000 0.0000 0.0000 32.5279 0.0000
# 6 0.0000 0.0000 0.0000 0.0000 0.0000 26.9435
#
#
#
# Elastic Compliance Matrix: (Units=1/GPa)
#
#
# Indices 1 2 3 4 5 6 
#
# 1 0.026324 -0.006461 -0.008047 0.000000 0.000000 0.000000
# 2 -0.006461 0.019549 -0.009249 0.000000 0.000000 0.000000
# 3 -0.008047 -0.009249 0.017283 0.000000 0.000000 0.000000
# 4 0.000000 0.000000 0.000000 0.029104 0.000000 0.000000
# 5 0.000000 0.000000 0.000000 0.000000 0.030743 0.000000
# 6 0.000000 0.000000 0.000000 0.000000 0.000000 0.037115
#
#
# Mechanical properties :
#
#
# Convention : Reuss Voigt Hill
#
# Bulk Modulus (GPa) = 63.92902 75.59633 69.76268
# Shear Modulus (GPa) = 23.49111 26.28966 24.89038
#
# Velocity S-wave (km/s) = 3.53082 3.73522 3.63445
# Velocity P-wave (km/s) = 7.10980 7.66298 7.39156
#
# Compressibility (1/GPa) = 0.01564235
#
# Stress axis : x y z
#
# Youngs Moduli (GPa) = 37.98785 51.15265 57.86010
#
# Poissons Ratio (x) = 0.33047 0.46563
# Poissons Ratio (y) = 0.24542 0.53516
# Poissons Ratio (z) = 0.30571 0.47312
#
# Static dielectric constant tensor:
#      x y z
#    x 1.630350 0.000000 0.000000 
#    y 0.000000 1.705690 0.000000 
#    z 0.000000 0.000000 1.598780 
# 
# From -- ./inp_files/31589.got.cif
#   From: 2010.05.17/outbox.cif.g08.bks.cpg/sg59_16_cif.got.tgz:31589.got - 2010.06.03 14:40:33.
