data_PCOD9450704
_publ_section_title
;
Structure prediction by ZEFSAII (Michael W. Deem and Ramdas Pophale) SiO2 
 PCOD9450704
Probable space group: P M M N
;
_chemical_formula_sum "Si O2"
_cell_formula_units_Z 56
_cell_length_a 7.929255
_cell_length_b 30.152773
_cell_length_c 12.834153
_cell_angle_alpha 90.000000
_cell_angle_beta 90.000000
_cell_angle_gamma 90.000000
_cell_volume 3068.505141
_symmetry_space_group_name_H-M "P M M N"
_symmetry_group_IT_number 59
_space_group.IT_coordinate_system_code '2'
_symmetry_cell_setting 'orthorhombic'
loop_
_space_group_symop_operation_xyz
x,y,z
1/2-x,1/2-y,z
1/2+x,-y,-z
-x,1/2+y,-z
-x,-y,-z
1/2+x,1/2+y,-z
1/2-x,y,z
x,1/2-y,z
loop_
_atom_site_type_symbol
_atom_site_label
_atom_site_fract_x
_atom_site_fract_y
_atom_site_fract_z
Si Si1 0.045736 0.799060 0.282204
Si Si2 0.052743 0.951591 0.173263
Si Si3 0.046555 0.953352 0.552395
Si Si4 0.456233 0.608487 0.368523
Si Si5 0.946864 0.450734 0.211133
Si Si6 0.052453 0.106350 0.020744
Si Si7 0.451890 0.201212 0.960164
O O1 0.250000 0.799457 0.282193
O O2 0.990067 0.750000 0.317306
O O3 0.987360 0.841260 0.348239
O O4 0.988769 0.804676 0.162666
O O5 0.250000 0.960739 0.190416
O O6 0.990926 0.922165 0.270867
O O7 0.032539 0.923519 0.068250
O O8 0.963938 0.998990 0.169830
O O9 0.250000 0.951737 0.556552
O O10 0.987867 0.914428 0.475256
O O11 0.984089 0.950107 0.670866
O O12 0.000000 0.000000 0.500000
O O13 0.250000 0.608656 0.368027
O O14 0.750000 0.439067 0.214213
O O15 0.031995 0.417204 0.131240
O O16 0.250000 0.107779 0.993426
O O17 0.985364 0.156801 0.016577
O O18 0.250000 0.202907 0.974430
O O19 0.520053 0.250000 0.990452
#
# Coordination Sequence:
#
# PCOD9450704 Si02
#       7
#     8   8   8   8   8   8   8
#     4   9  16  28  49  76 102 128 159 195 244 305
#     4  11  20  33  53  75 104 136 166 205 252 301
#     4  10  20  35  53  72  97 130 169 210 248 292
#     4   9  17  30  50  75 102 130 158 200 250 292
#     4  11  23  36  51  72 101 137 177 213 247 294
#     4  11  22  35  52  74 104 136 169 206 252 306
#     4   9  18  32  50  73 100 129 162 203 250 297
#
# _framework density 18.249929000000002
#
# number of rings (size 3 to 8) (size 9 to 14) (size 15 to 20)
#    0.000    2.000    2.857    1.714    0.000    1.143 
#    0.000    0.714    0.000    0.857    0.000    2.000 
#    0.000    0.000    0.000    0.000    0.000    0.000 
#
# Total GULP energy -312497.708771 kJ/mol
# GULP energy per Si atom -5580.316228 kJ/mol
# Density = 1.820839 g / cm^3
# Si number density = 18.249929 Si / 1000 Ang^3
#
#
#
# Elastic Constant Matrix: (Units=GPa)
#
#
# Indices 1 2 3 4 5 6 
#
# 1 17.2249 -3.3890 -4.8494 0.0000 0.0000 0.0000
# 2 -3.3890 171.0472 67.5433 0.0000 0.0000 0.0000
# 3 -4.8494 67.5433 98.1157 0.0000 0.0000 0.0000
# 4 0.0000 0.0000 0.0000 23.2166 0.0000 0.0000
# 5 0.0000 0.0000 0.0000 0.0000 9.1278 0.0000
# 6 0.0000 0.0000 0.0000 0.0000 0.0000 6.2514
#
#
#
# Elastic Compliance Matrix: (Units=1/GPa)
#
#
# Indices 1 2 3 4 5 6 
#
# 1 0.058875 0.000024 0.002893 0.000000 0.000000 0.000000
# 2 0.000024 0.008029 -0.005526 0.000000 0.000000 0.000000
# 3 0.002893 -0.005526 0.014139 0.000000 0.000000 0.000000
# 4 0.000000 0.000000 0.000000 0.043073 0.000000 0.000000
# 5 0.000000 0.000000 0.000000 0.000000 0.109555 0.000000
# 6 0.000000 0.000000 0.000000 0.000000 0.000000 0.159964
#
#
# Mechanical properties :
#
#
# Convention : Reuss Voigt Hill
#
# Bulk Modulus (GPa) = 13.18814 44.99974 29.09394
# Shear Modulus (GPa) = 11.78893 22.85803 17.32348
#
# Velocity S-wave (km/s) = 2.54435 3.54291 3.08431
# Velocity P-wave (km/s) = 3.98419 6.43796 5.35355
#
# Compressibility (1/GPa) = 0.07582568
#
# Stress axis : x y z
#
# Youngs Moduli (GPa) = 16.98521 124.54997 70.72560
#
# Poissons Ratio (x) = -0.00298 -0.20464
# Poissons Ratio (y) = -0.00041 0.39083
# Poissons Ratio (z) = -0.04915 0.68826
#
# Static dielectric constant tensor:
#      x y z
#    x 1.640840 0.000000 0.000000 
#    y 0.000000 1.647260 0.000000 
#    z 0.000000 0.000000 1.601490 
# 
# From -- ./inp_files/21719.got.cif
#   From: 2010.05.17/outbox.cif.g08.bks.cpg/sg59_11_cif.got.tgz:21719.got - 2010.06.03 14:40:33.
