data_PCOD9450196
_publ_section_title
;
Structure prediction by ZEFSAII (Michael W. Deem and Ramdas Pophale) SiO2 
 PCOD9450196
Probable space group: P M M N
;
_chemical_formula_sum "Si O2"
_cell_formula_units_Z 48
_cell_length_a 7.802218
_cell_length_b 10.658524
_cell_length_c 29.730633
_cell_angle_alpha 90.000000
_cell_angle_beta 90.000000
_cell_angle_gamma 90.000000
_cell_volume 2472.403240
_symmetry_space_group_name_H-M "P M M N"
_symmetry_group_IT_number 59
_space_group.IT_coordinate_system_code '2'
_symmetry_cell_setting 'orthorhombic'
loop_
_space_group_symop_operation_xyz
x,y,z
1/2-x,1/2-y,z
1/2+x,-y,-z
-x,1/2+y,-z
-x,-y,-z
1/2+x,1/2+y,-z
1/2-x,y,z
x,1/2-y,z
loop_
_atom_site_type_symbol
_atom_site_label
_atom_site_fract_x
_atom_site_fract_y
_atom_site_fract_z
Si Si1 0.543454 0.250000 0.949418
Si Si2 0.045350 0.107441 0.806231
Si Si3 0.040361 0.107562 0.362921
Si Si4 0.955778 0.610009 0.534163
Si Si5 0.042812 0.250000 0.054328
Si Si6 0.545321 0.002242 0.899256
Si Si7 0.955006 0.107551 0.704273
O O1 0.750000 0.250000 0.944894
O O2 0.476571 0.125263 0.924835
O O3 0.501609 0.250000 0.001897
O O4 0.250000 0.111205 0.806598
O O5 0.980017 0.250000 0.815017
O O6 0.987120 0.018748 0.846438
O O7 0.988400 0.072447 0.756111
O O8 0.250000 0.106070 0.362194
O O9 0.989046 0.250000 0.350375
O O10 0.986036 0.085103 0.414586
O O11 0.978953 0.998502 0.329670
O O12 0.750000 0.615816 0.535902
O O13 0.017741 0.750000 0.520849
O O14 0.000000 0.500000 0.500000
O O15 0.250000 0.250000 0.057720
O O16 0.977338 0.375020 0.078873
O O17 0.750000 0.001498 0.905820
O O18 0.750000 0.113526 0.698139
O O19 0.022557 0.250000 0.697243
#
# Coordination Sequence:
#
# PCOD9450196 Si02
#       7
#     4   8   8   8   4   8   8
#     4  10  20  34  56  78 100 134 170 202 241 290
#     4  10  20  34  53  76 100 130 167 206 250 298
#     4   8  15  30  50  72  99 131 168 209 253 302
#     4   9  18  32  50  74 105 139 177 219 260 308
#     4  10  22  36  52  78 108 132 162 204 247 292
#     4  10  20  36  55  76 102 133 168 205 243 291
#     4   9  17  30  51  75  96 123 163 209 251 297
#
# _framework density 19.414307999999998
#
# number of rings (size 3 to 8) (size 9 to 14) (size 15 to 20)
#    0.000    2.667    0.833    2.000    0.000    3.000 
#    1.500    2.500    0.000    3.000    0.000    0.000 
#    0.000    0.000    0.000    0.000    0.000    0.000 
#
# Total GULP energy -267764.024064 kJ/mol
# GULP energy per Si atom -5578.417168 kJ/mol
# Density = 1.937012 g / cm^3
# Si number density = 19.414308 Si / 1000 Ang^3
#
#
#
# Elastic Constant Matrix: (Units=GPa)
#
#
# Indices 1 2 3 4 5 6 
#
# 1 21.0282 11.8683 -3.3832 0.0000 0.0000 0.0000
# 2 11.8683 185.8290 130.7391 0.0000 0.0000 0.0000
# 3 -3.3832 130.7391 151.6308 0.0000 0.0000 0.0000
# 4 0.0000 0.0000 0.0000 40.6539 0.0000 0.0000
# 5 0.0000 0.0000 0.0000 0.0000 22.7903 0.0000
# 6 0.0000 0.0000 0.0000 0.0000 0.0000 7.2220
#
#
#
# Elastic Compliance Matrix: (Units=1/GPa)
#
#
# Indices 1 2 3 4 5 6 
#
# 1 0.055672 -0.011260 0.010951 0.000000 0.000000 0.000000
# 2 -0.011260 0.015957 -0.014009 0.000000 0.000000 0.000000
# 3 0.010951 -0.014009 0.018918 0.000000 0.000000 0.000000
# 4 0.000000 0.000000 0.000000 0.024598 0.000000 0.000000
# 5 0.000000 0.000000 0.000000 0.000000 0.043878 0.000000
# 6 0.000000 0.000000 0.000000 0.000000 0.000000 0.138465
#
#
# Mechanical properties :
#
#
# Convention : Reuss Voigt Hill
#
# Bulk Modulus (GPa) = 16.15250 70.77072 43.46161
# Shear Modulus (GPa) = 14.41909 28.75084 21.58497
#
# Velocity S-wave (km/s) = 2.72822 3.85243 3.33799
# Velocity P-wave (km/s) = 4.27343 7.50469 6.10666
#
# Compressibility (1/GPa) = 0.06190990
#
# Stress axis : x y z
#
# Youngs Moduli (GPa) = 17.96235 62.66981 52.85845
#
# Poissons Ratio (x) = 0.70565 -0.57883
# Poissons Ratio (y) = 0.20225 0.74051
# Poissons Ratio (z) = -0.19670 0.87796
#
# Static dielectric constant tensor:
#      x y z
#    x 1.707890 0.000000 0.000000 
#    y 0.000000 1.697640 0.000000 
#    z 0.000000 0.000000 1.643120 
# 
# From -- ./inp_files/32957.got.cif
#   From: 2010.05.17/outbox.cif.g08.bks.cpg/sg59_17_cif.got.tgz:32957.got - 2010.06.03 14:40:33.
