data_PCOD9450705
_publ_section_title
;
Structure prediction by ZEFSAII (Michael W. Deem and Ramdas Pophale) SiO2 
 PCOD9450705
Probable space group: P M M N
;
_chemical_formula_sum "Si O2"
_cell_formula_units_Z 40
_cell_length_a 8.792124
_cell_length_b 26.753725
_cell_length_c 9.733005
_cell_angle_alpha 90.000000
_cell_angle_beta 90.000000
_cell_angle_gamma 90.000000
_cell_volume 2289.417561
_symmetry_space_group_name_H-M "P M M N"
_symmetry_group_IT_number 59
_space_group.IT_coordinate_system_code '2'
_symmetry_cell_setting 'orthorhombic'
loop_
_space_group_symop_operation_xyz
x,y,z
1/2-x,1/2-y,z
1/2+x,-y,-z
-x,1/2+y,-z
-x,-y,-z
1/2+x,1/2+y,-z
1/2-x,y,z
x,1/2-y,z
loop_
_atom_site_type_symbol
_atom_site_label
_atom_site_fract_x
_atom_site_fract_y
_atom_site_fract_z
Si Si1 0.424636 0.750000 0.835151
Si Si2 0.931005 0.442419 0.656327
Si Si3 0.425023 0.750000 0.169645
Si Si4 0.930971 0.855010 0.161887
Si Si5 0.067624 0.548894 0.665817
Si Si6 0.935134 0.141769 0.142680
O O1 0.250000 0.750000 0.786126
O O2 0.490089 0.804320 0.798649
O O3 0.424549 0.750000 0.002193
O O4 0.750000 0.437800 0.673764
O O5 0.966732 0.439460 0.493667
O O6 0.013162 0.398937 0.739354
O O7 0.985989 0.497210 0.703343
O O8 0.250000 0.750000 0.214853
O O9 0.506699 0.698871 0.211126
O O10 0.750000 0.853536 0.153796
O O11 0.999506 0.864060 0.009934
O O12 0.250000 0.541709 0.676526
O O13 0.024167 0.595257 0.761729
O O14 0.750000 0.144215 0.133165
#
# Coordination Sequence:
#
# PCOD9450705 Si02
#       6
#     4   8   4   8   8   8
#     4   7  12  25  48  73  96 124 154 192 246 301
#     4  10  20  35  53  73 101 138 174 211 260 311
#     4   9  17  33  54  75 102 136 170 206 252 299
#     4  11  21  33  52  79 107 135 169 208 251 302
#     4   9  19  35  54  75  99 132 175 218 260 307
#     4   9  17  32  53  76 102 131 167 211 257 304
#
# _framework density 17.471692000000001
#
# number of rings (size 3 to 8) (size 9 to 14) (size 15 to 20)
#    0.000    2.600    0.000    3.900    0.000    2.400 
#    0.000    1.000    0.000    3.600    0.000    2.800 
#    0.000    0.000    0.000    0.000    0.000    0.000 
#
# Total GULP energy -222997.202725 kJ/mol
# GULP energy per Si atom -5574.930068 kJ/mol
# Density = 1.743193 g / cm^3
# Si number density = 17.471692 Si / 1000 Ang^3
#
#
#
# Elastic Constant Matrix: (Units=GPa)
#
#
# Indices 1 2 3 4 5 6 
#
# 1 61.1283 67.5941 33.2234 0.0000 0.0000 0.0000
# 2 67.5941 191.6874 71.7129 0.0000 0.0000 0.0000
# 3 33.2234 71.7129 44.9564 0.0000 0.0000 0.0000
# 4 0.0000 0.0000 0.0000 -91.5219 0.0000 0.0000
# 5 0.0000 0.0000 0.0000 0.0000 16.5600 0.0000
# 6 0.0000 0.0000 0.0000 0.0000 0.0000 24.4183
#
#
#
# Elastic Compliance Matrix: (Units=1/GPa)
#
#
# Indices 1 2 3 4 5 6 
#
# 1 0.029569 -0.005584 -0.012944 0.000000 0.000000 0.000000
# 2 -0.005584 0.013992 -0.018193 0.000000 0.000000 0.000000
# 3 -0.012944 -0.018193 0.060831 0.000000 0.000000 0.000000
# 4 0.000000 0.000000 0.000000 -0.010926 0.000000 0.000000
# 5 0.000000 0.000000 0.000000 0.000000 0.060386 0.000000
# 6 0.000000 0.000000 0.000000 0.000000 0.000000 0.040953
#
#
# Mechanical properties :
#
#
# Convention : Reuss Voigt Hill
#
# Bulk Modulus (GPa) = 32.31120 71.42590 51.86855
# Shear Modulus (GPa) = 17.94912 -1.75927 8.09493
#
# Velocity S-wave (km/s) = 3.20867 -1.00454 2.15481
# Velocity P-wave (km/s) = 5.67988 6.29478 5.99522
#
# Compressibility (1/GPa) = 0.03094902
#
# Stress axis : x y z
#
# Youngs Moduli (GPa) = 33.81895 71.46775 16.43900
#
# Poissons Ratio (x) = 0.39910 0.21279
# Poissons Ratio (y) = 0.18885 0.29908
# Poissons Ratio (z) = 0.43776 1.30023
#
# Static dielectric constant tensor:
#      x y z
#    x 1.588940 0.000000 0.000000 
#    y 0.000000 1.606530 0.000000 
#    z 0.000000 0.000000 1.567750 
# 
# From -- ./inp_files/5924.got.cif
#   From: 2010.05.17/outbox.cif.g08.bks.cpg/sg59_3_cif.got.tgz:5924.got - 2010.06.03 14:40:33.
