data_PCOD9450537
_publ_section_title
;
Structure prediction by ZEFSAII (Michael W. Deem and Ramdas Pophale) SiO2 
 PCOD9450537
Probable space group: P M M N
;
_chemical_formula_sum "Si O2"
_cell_formula_units_Z 64
_cell_length_a 8.493044
_cell_length_b 28.616282
_cell_length_c 13.507026
_cell_angle_alpha 90.000000
_cell_angle_beta 90.000000
_cell_angle_gamma 90.000000
_cell_volume 3282.738713
_symmetry_space_group_name_H-M "P M M N"
_symmetry_group_IT_number 59
_space_group.IT_coordinate_system_code '2'
_symmetry_cell_setting 'orthorhombic'
loop_
_space_group_symop_operation_xyz
x,y,z
1/2-x,1/2-y,z
1/2+x,-y,-z
-x,1/2+y,-z
-x,-y,-z
1/2+x,1/2+y,-z
1/2-x,y,z
x,1/2-y,z
loop_
_atom_site_type_symbol
_atom_site_label
_atom_site_fract_x
_atom_site_fract_y
_atom_site_fract_z
Si Si1 0.442027 0.695558 0.622586
Si Si2 0.059865 0.547646 0.721999
Si Si3 0.559655 0.696688 0.004354
Si Si4 0.062028 0.557459 0.286735
Si Si5 0.940578 0.139484 0.182060
Si Si6 0.439749 0.946798 0.503959
Si Si7 0.066896 0.806558 0.404520
Si Si8 0.436949 0.148777 0.793965
O O1 0.250000 0.693727 0.619080
O O2 0.486306 0.750000 0.633432
O O3 0.492205 0.667197 0.718882
O O4 0.494095 0.678479 0.513436
O O5 0.250000 0.544583 0.722056
O O6 0.011364 0.585483 0.803362
O O7 0.012013 0.568552 0.613822
O O8 0.995618 0.495295 0.732005
O O9 0.750000 0.697259 0.005671
O O10 0.504720 0.750000 0.990360
O O11 0.504649 0.664321 0.914800
O O12 0.503888 0.676534 0.109850
O O13 0.250000 0.557082 0.286168
O O14 0.007350 0.573063 0.398086
O O15 0.001368 0.596219 0.211851
O O16 0.750000 0.141100 0.179790
O O17 0.250000 0.945084 0.502921
O O18 0.500000 0.000000 0.500000
O O19 0.250000 0.821332 0.397739
O O20 0.062321 0.750000 0.404921
O O21 0.982947 0.825461 0.307624
O O22 0.250000 0.146759 0.800040
#
# Coordination Sequence:
#
# PCOD9450537 Si02
#       8
#     8   8   8   8   8   8   8   8
#     4   8  15  29  51  81 115 146 175 216 276 337
#     4   9  18  33  53  81 117 152 184 224 275 332
#     4  10  23  43  62  80 108 146 186 234 290 339
#     4  10  20  34  55  82 112 149 191 234 276 328
#     4  10  20  34  59  88 112 144 188 231 275 332
#     4   8  15  28  48  74 107 146 181 217 263 317
#     4   9  18  33  55  83 114 146 180 223 277 339
#     4  11  23  38  57  80 109 148 191 235 287 340
#
# _framework density 19.495918
#
# number of rings (size 3 to 8) (size 9 to 14) (size 15 to 20)
#    0.000    2.625    0.000    2.250    1.750    3.500 
#    0.000    1.250    0.000    0.750    0.000    0.000 
#    0.000    0.000    0.000    0.000    0.000    0.000 
#
# Total GULP energy -356928.191300 kJ/mol
# GULP energy per Si atom -5577.002989 kJ/mol
# Density = 1.945154 g / cm^3
# Si number density = 19.495918 Si / 1000 Ang^3
#
#
#
# Elastic Constant Matrix: (Units=GPa)
#
#
# Indices 1 2 3 4 5 6 
#
# 1 12.6135 18.9091 17.0546 0.0000 0.0000 0.0000
# 2 18.9091 70.1498 35.6156 0.0000 0.0000 0.0000
# 3 17.0546 35.6156 92.0141 0.0000 0.0000 0.0000
# 4 0.0000 0.0000 0.0000 38.0660 0.0000 0.0000
# 5 0.0000 0.0000 0.0000 0.0000 -23.8401 0.0000
# 6 0.0000 0.0000 0.0000 0.0000 0.0000 22.5830
#
#
#
# Elastic Compliance Matrix: (Units=1/GPa)
#
#
# Indices 1 2 3 4 5 6 
#
# 1 0.147821 -0.032279 -0.014904 0.000000 0.000000 0.000000
# 2 -0.032279 0.024790 -0.003613 0.000000 0.000000 0.000000
# 3 -0.014904 -0.003613 0.015029 0.000000 0.000000 0.000000
# 4 0.000000 0.000000 0.000000 0.026270 0.000000 0.000000
# 5 0.000000 0.000000 0.000000 0.000000 -0.041946 0.000000
# 6 0.000000 0.000000 0.000000 0.000000 0.000000 0.044281
#
#
# Mechanical properties :
#
#
# Convention : Reuss Voigt Hill
#
# Bulk Modulus (GPa) = 11.62132 35.32621 23.47376
# Shear Modulus (GPa) = 14.42922 14.24165 14.33543
#
# Velocity S-wave (km/s) = 2.72346 2.70570 2.71459
# Velocity P-wave (km/s) = 3.98290 5.28396 4.67887
#
# Compressibility (1/GPa) = 0.08604876
#
# Stress axis : x y z
#
# Youngs Moduli (GPa) = 6.76494 40.33855 66.53926
#
# Poissons Ratio (x) = 1.30207 0.99172
# Poissons Ratio (y) = 0.21836 0.24039
# Poissons Ratio (z) = 0.10083 0.14573
#
# Static dielectric constant tensor:
#      x y z
#    x 1.677340 0.000000 0.000000 
#    y 0.000000 1.691710 0.000000 
#    z 0.000000 0.000000 1.692740 
# 
# From -- ./inp_files/15034.got.cif
#   From: 2010.05.17/outbox.cif.g08.bks.cpg/sg59_8_cif.got.tgz:15034.got - 2010.06.03 14:40:33.
