data_PCOD9450908
_publ_section_title
;
Structure prediction by ZEFSAII (Michael W. Deem and Ramdas Pophale) SiO2 
 PCOD9450908
Probable space group: P M M N
;
_chemical_formula_sum "Si O2"
_cell_formula_units_Z 56
_cell_length_a 15.131038
_cell_length_b 26.751576
_cell_length_c 7.047532
_cell_angle_alpha 90.000000
_cell_angle_beta 90.000000
_cell_angle_gamma 90.000000
_cell_volume 2852.693752
_symmetry_space_group_name_H-M "P M M N"
_symmetry_group_IT_number 59
_space_group.IT_coordinate_system_code '2'
_symmetry_cell_setting 'orthorhombic'
loop_
_space_group_symop_operation_xyz
x,y,z
1/2-x,1/2-y,z
1/2+x,-y,-z
-x,1/2+y,-z
-x,-y,-z
1/2+x,1/2+y,-z
1/2-x,y,z
x,1/2-y,z
loop_
_atom_site_type_symbol
_atom_site_label
_atom_site_fract_x
_atom_site_fract_y
_atom_site_fract_z
Si Si1 0.850933 0.373237 0.411609
Si Si2 0.586381 0.025405 0.228929
Si Si3 0.847752 0.193383 0.040645
Si Si4 0.527676 0.307992 0.685237
Si Si5 0.350222 0.359783 0.779917
Si Si6 0.153752 0.049779 0.505762
Si Si7 0.894869 0.552757 0.924933
O O1 0.750000 0.368958 0.488167
O O2 0.869612 0.429625 0.344618
O O3 0.855151 0.342821 0.216115
O O4 0.924804 0.347913 0.545881
O O5 0.498139 0.046528 0.129939
O O6 0.578748 0.981968 0.387894
O O7 0.632315 0.994444 0.057002
O O8 0.750000 0.187476 0.953502
O O9 0.854312 0.250000 0.113259
O O10 0.919873 0.186124 0.881584
O O11 0.537928 0.250000 0.620451
O O12 0.426363 0.320253 0.735182
O O13 0.250000 0.341021 0.809596
O O14 0.350007 0.395564 0.595555
O O15 0.375227 0.397184 0.954617
O O16 0.250000 0.028168 0.561084
O O17 0.148454 0.051488 0.280903
#
# Coordination Sequence:
#
# PCOD9450908 Si02
#       7
#     8   8   8   8   8   8   8
#     4  11  22  36  57  85 119 155 190 233 285 344
#     4  10  21  34  53  87 119 149 194 236 276 338
#     4   9  19  36  57  82 111 145 188 233 280 342
#     4  11  23  39  60  83 110 147 190 240 298 352
#     4  10  22  39  59  85 112 145 195 244 290 347
#     4  10  20  35  56  82 115 152 188 229 277 335
#     4  10  20  37  59  79 112 157 192 231 286 340
#
# _framework density 19.630568
#
# number of rings (size 3 to 8) (size 9 to 14) (size 15 to 20)
#    0.000    1.857    0.000    3.857    0.000    6.857 
#    0.000    1.429    0.000    0.000    0.000    4.000 
#    0.000    0.000    0.000    0.000    0.000    0.000 
#
# Total GULP energy -312141.756873 kJ/mol
# GULP energy per Si atom -5573.959944 kJ/mol
# Density = 1.958589 g / cm^3
# Si number density = 19.630568 Si / 1000 Ang^3
#
#
#
# Elastic Constant Matrix: (Units=GPa)
#
#
# Indices 1 2 3 4 5 6 
#
# 1 95.0664 17.4305 13.3600 0.0000 0.0000 0.0000
# 2 17.4305 40.1568 9.0402 0.0000 0.0000 0.0000
# 3 13.3600 9.0402 65.1603 0.0000 0.0000 0.0000
# 4 0.0000 0.0000 0.0000 -8.3244 0.0000 0.0000
# 5 0.0000 0.0000 0.0000 0.0000 48.7132 0.0000
# 6 0.0000 0.0000 0.0000 0.0000 0.0000 32.5541
#
#
#
# Elastic Compliance Matrix: (Units=1/GPa)
#
#
# Indices 1 2 3 4 5 6 
#
# 1 0.011616 -0.004651 -0.001736 0.000000 0.000000 0.000000
# 2 -0.004651 0.027568 -0.002871 0.000000 0.000000 0.000000
# 3 -0.001736 -0.002871 0.016101 0.000000 0.000000 0.000000
# 4 0.000000 0.000000 0.000000 -0.120129 0.000000 0.000000
# 5 0.000000 0.000000 0.000000 0.000000 0.020528 0.000000
# 6 0.000000 0.000000 0.000000 0.000000 0.000000 0.030718
#
#
# Mechanical properties :
#
#
# Convention : Reuss Voigt Hill
#
# Bulk Modulus (GPa) = 27.19791 31.11610 29.15700
# Shear Modulus (GPa) = 291.12908 25.29210 158.21059
#
# Velocity S-wave (km/s) = 12.19122 3.59333 8.98716
# Velocity P-wave (km/s) = 14.56203 5.75337 11.07145
#
# Compressibility (1/GPa) = 0.03676754
#
# Stress axis : x y z
#
# Youngs Moduli (GPa) = 86.08995 36.27449 62.10761
#
# Poissons Ratio (x) = 0.16872 0.10784
# Poissons Ratio (y) = 0.40041 0.17831
# Poissons Ratio (z) = 0.14948 0.10415
#
# Static dielectric constant tensor:
#      x y z
#    x 1.800390 0.000000 0.000000 
#    y 0.000000 0.916380 0.000000 
#    z 0.000000 0.000000 1.658080 
# 
# From -- ./inp_files/2312.got.cif
#   From: 2010.05.17/outbox.cif.g08.bks.cpg/sg59_2_cif.got.tgz:2312.got - 2010.06.03 14:40:33.
