data_PCOD9450530
_publ_section_title
;
Structure prediction by ZEFSAII (Michael W. Deem and Ramdas Pophale) SiO2 
 PCOD9450530
Probable space group: P M M N
;
_chemical_formula_sum "Si O2"
_cell_formula_units_Z 64
_cell_length_a 19.763122
_cell_length_b 8.762629
_cell_length_c 21.064973
_cell_angle_alpha 90.000000
_cell_angle_beta 90.000000
_cell_angle_gamma 90.000000
_cell_volume 3647.966848
_symmetry_space_group_name_H-M "P M M N"
_symmetry_group_IT_number 59
_space_group.IT_coordinate_system_code '2'
_symmetry_cell_setting 'orthorhombic'
loop_
_space_group_symop_operation_xyz
x,y,z
1/2-x,1/2-y,z
1/2+x,-y,-z
-x,1/2+y,-z
-x,-y,-z
1/2+x,1/2+y,-z
1/2-x,y,z
x,1/2-y,z
loop_
_atom_site_type_symbol
_atom_site_label
_atom_site_fract_x
_atom_site_fract_y
_atom_site_fract_z
Si Si1 0.327859 0.931856 0.009739
Si Si2 0.967584 0.934158 0.183913
Si Si3 0.672621 0.932437 0.636690
Si Si4 0.035737 0.932761 0.562439
Si Si5 0.173946 0.066436 0.868879
Si Si6 0.461985 0.932960 0.314952
Si Si7 0.539722 0.568391 0.939602
Si Si8 0.826362 0.432544 0.496781
O O1 0.250000 0.965096 0.027356
O O2 0.338179 0.750000 0.011890
O O3 0.383032 0.014207 0.052767
O O4 0.337052 0.989253 0.937356
O O5 0.972416 0.750000 0.179494
O O6 0.888236 0.975053 0.176608
O O7 0.001417 0.981211 0.249986
O O8 0.006470 0.005405 0.124361
O O9 0.750000 0.976897 0.653009
O O10 0.667448 0.750000 0.639659
O O11 0.614569 0.006660 0.679167
O O12 0.660865 0.985688 0.563981
O O13 0.027303 0.750000 0.563476
O O14 0.115132 0.969543 0.553081
O O15 0.000000 0.000000 0.500000
O O16 0.002819 0.002992 0.624845
O O17 0.250000 0.026220 0.846897
O O18 0.171993 0.250000 0.877988
O O19 0.461378 0.750000 0.318061
O O20 0.535186 0.750000 0.941705
O O21 0.500000 0.500000 0.000000
O O22 0.750000 0.470326 0.476148
O O23 0.829689 0.250000 0.508467
#
# Coordination Sequence:
#
# PCOD9450530 Si02
#       8
#     8   8   8   8   8   8   8   8
#     4  10  20  34  55  85 117 147 185 234 283 334
#     4  10  22  39  57  81 114 151 192 236 281 335
#     4  10  20  34  55  82 109 140 184 236 284 335
#     4  11  21  34  56  83 112 145 185 234 282 331
#     4   9  17  32  56  82 108 143 187 234 282 332
#     4  11  23  38  56  81 115 154 191 229 280 340
#     4  12  23  36  58  85 114 148 187 232 284 336
#     4   9  18  33  54  80 109 143 184 230 281 334
#
# _framework density 17.544018999999999
#
# number of rings (size 3 to 8) (size 9 to 14) (size 15 to 20)
#    0.000    1.750    2.500    2.625    0.000    3.000 
#    0.000    1.250    0.000    1.500    0.000    0.000 
#    0.000    0.000    0.000    0.000    0.000    0.000 
#
# Total GULP energy -357296.106884 kJ/mol
# GULP energy per Si atom -5582.751670 kJ/mol
# Density = 1.750409 g / cm^3
# Si number density = 17.544019 Si / 1000 Ang^3
#
#
#
# Elastic Constant Matrix: (Units=GPa)
#
#
# Indices 1 2 3 4 5 6 
#
# 1 160.7773 51.4253 84.4969 0.0000 0.0000 0.0000
# 2 51.4253 43.4183 40.5562 0.0000 0.0000 0.0000
# 3 84.4969 40.5562 118.8629 0.0000 0.0000 0.0000
# 4 0.0000 0.0000 0.0000 24.2122 0.0000 0.0000
# 5 0.0000 0.0000 0.0000 0.0000 28.8625 0.0000
# 6 0.0000 0.0000 0.0000 0.0000 0.0000 26.8603
#
#
#
# Elastic Compliance Matrix: (Units=1/GPa)
#
#
# Indices 1 2 3 4 5 6 
#
# 1 0.011983 -0.009153 -0.005395 0.000000 0.000000 0.000000
# 2 -0.009153 0.040798 -0.007413 0.000000 0.000000 0.000000
# 3 -0.005395 -0.007413 0.014778 0.000000 0.000000 0.000000
# 4 0.000000 0.000000 0.000000 0.041302 0.000000 0.000000
# 5 0.000000 0.000000 0.000000 0.000000 0.034647 0.000000
# 6 0.000000 0.000000 0.000000 0.000000 0.000000 0.037230
#
#
# Mechanical properties :
#
#
# Convention : Reuss Voigt Hill
#
# Bulk Modulus (GPa) = 42.31075 75.11282 58.71178
# Shear Modulus (GPa) = 21.50177 25.75900 23.63038
#
# Velocity S-wave (km/s) = 3.50464 3.83593 3.67402
# Velocity P-wave (km/s) = 6.36757 7.90734 7.17886
#
# Compressibility (1/GPa) = 0.02363466
#
# Stress axis : x y z
#
# Youngs Moduli (GPa) = 83.45160 24.51123 67.66815
#
# Poissons Ratio (x) = 0.22435 0.36509
# Poissons Ratio (y) = 0.76384 0.50166
# Poissons Ratio (z) = 0.45025 0.18171
#
# Static dielectric constant tensor:
#      x y z
#    x 1.636180 0.000000 0.000000 
#    y 0.000000 1.587850 0.000000 
#    z 0.000000 0.000000 1.548740 
# 
# From -- ./inp_files/30656.got.cif
#   From: 2010.05.17/outbox.cif.g08.bks.cpg/sg59_16_cif.got.tgz:30656.got - 2010.06.03 14:40:33.
