data_PCOD9450140
_publ_section_title
;
Structure prediction by ZEFSAII (Michael W. Deem and Ramdas Pophale) SiO2 
 PCOD9450140
Probable space group: P M M N
;
_chemical_formula_sum "Si O2"
_cell_formula_units_Z 56
_cell_length_a 20.658197
_cell_length_b 9.370134
_cell_length_c 16.410810
_cell_angle_alpha 90.000000
_cell_angle_beta 90.000000
_cell_angle_gamma 90.000000
_cell_volume 3176.641708
_symmetry_space_group_name_H-M "P M M N"
_symmetry_group_IT_number 59
_space_group.IT_coordinate_system_code '2'
_symmetry_cell_setting 'orthorhombic'
loop_
_space_group_symop_operation_xyz
x,y,z
1/2-x,1/2-y,z
1/2+x,-y,-z
-x,1/2+y,-z
-x,-y,-z
1/2+x,1/2+y,-z
1/2-x,y,z
x,1/2-y,z
loop_
_atom_site_type_symbol
_atom_site_label
_atom_site_fract_x
_atom_site_fract_y
_atom_site_fract_z
Si Si1 0.250000 0.919486 0.479664
Si Si2 0.140201 0.582976 0.347851
Si Si3 0.503979 0.918686 0.414969
Si Si4 0.410279 0.582142 0.056724
Si Si5 0.390076 0.423397 0.716672
Si Si6 0.250000 0.077454 0.651437
Si Si7 0.673122 0.586295 0.814466
Si Si8 0.940754 0.919103 0.105864
O O1 0.250000 0.750000 0.498167
O O2 0.312961 0.949984 0.424039
O O3 0.250000 0.009020 0.561972
O O4 0.151624 0.750000 0.326644
O O5 0.065338 0.566490 0.371199
O O6 0.157376 0.484765 0.272069
O O7 0.514412 0.750000 0.430300
O O8 0.561111 0.970624 0.355039
O O9 0.500000 0.000000 0.500000
O O10 0.397189 0.750000 0.049719
O O11 0.360494 0.504515 0.115468
O O12 0.481747 0.565598 0.096761
O O13 0.411415 0.508079 0.968554
O O14 0.392689 0.250000 0.716525
O O15 0.316292 0.464966 0.697220
O O16 0.415429 0.467098 0.805773
O O17 0.250000 0.250000 0.644659
O O18 0.750000 0.585013 0.825329
O O19 0.650225 0.750000 0.816802
O O20 0.926058 0.750000 0.096155
#
# Coordination Sequence:
#
# PCOD9450140 Si02
#       8
#     4   8   8   8   8   4   8   8
#     4  10  20  34  52  75 104 139 176 219 272 329
#     4  10  20  35  55  77 106 144 182 223 276 334
#     4  10  20  34  53  79 109 142 182 228 278 325
#     4  10  20  35  58  84 111 144 177 221 279 331
#     4   9  18  34  54  77 105 140 182 224 266 316
#     4  10  20  34  54  75 100 139 182 221 262 313
#     4  11  23  37  54  81 113 145 183 226 273 328
#     4   9  18  36  59  81 108 142 184 229 271 325
#
# _framework density 17.628679999999999
#
# number of rings (size 3 to 8) (size 9 to 14) (size 15 to 20)
#    0.000    2.143    0.714    2.571    0.000    4.857 
#    1.286    1.429    0.000    0.000    0.000    0.000 
#    0.000    0.000    0.000    0.000    0.000    0.000 
#
# Total GULP energy -312588.977821 kJ/mol
# GULP energy per Si atom -5581.946033 kJ/mol
# Density = 1.758856 g / cm^3
# Si number density = 17.628680 Si / 1000 Ang^3
#
#
#
# Elastic Constant Matrix: (Units=GPa)
#
#
# Indices 1 2 3 4 5 6 
#
# 1 93.2843 47.2200 74.9894 0.0000 0.0000 0.0000
# 2 47.2200 70.6209 70.6174 0.0000 0.0000 0.0000
# 3 74.9894 70.6174 161.6825 0.0000 0.0000 0.0000
# 4 0.0000 0.0000 0.0000 30.7206 0.0000 0.0000
# 5 0.0000 0.0000 0.0000 0.0000 25.0085 0.0000
# 6 0.0000 0.0000 0.0000 0.0000 0.0000 15.7366
#
#
#
# Elastic Compliance Matrix: (Units=1/GPa)
#
#
# Indices 1 2 3 4 5 6 
#
# 1 0.018782 -0.006831 -0.005728 0.000000 0.000000 0.000000
# 2 -0.006831 0.027624 -0.008897 0.000000 0.000000 0.000000
# 3 -0.005728 -0.008897 0.012727 0.000000 0.000000 0.000000
# 4 0.000000 0.000000 0.000000 0.032551 0.000000 0.000000
# 5 0.000000 0.000000 0.000000 0.000000 0.039986 0.000000
# 6 0.000000 0.000000 0.000000 0.000000 0.000000 0.063546
#
#
# Mechanical properties :
#
#
# Convention : Reuss Voigt Hill
#
# Bulk Modulus (GPa) = 61.64394 79.02680 70.33537
# Shear Modulus (GPa) = 20.53079 23.14388 21.83734
#
# Velocity S-wave (km/s) = 3.41636 3.62726 3.52339
# Velocity P-wave (km/s) = 7.11378 7.90371 7.51913
#
# Compressibility (1/GPa) = 0.01622220
#
# Stress axis : x y z
#
# Youngs Moduli (GPa) = 53.24199 36.20011 78.57047
#
# Poissons Ratio (x) = 0.24729 0.45003
# Poissons Ratio (y) = 0.36370 0.69904
# Poissons Ratio (z) = 0.30495 0.32207
#
# Static dielectric constant tensor:
#      x y z
#    x 1.597240 0.000000 0.000000 
#    y 0.000000 1.588510 0.000000 
#    z 0.000000 0.000000 1.565450 
# 
# From -- ./inp_files/24388.got.cif
#   From: 2010.05.17/outbox.cif.g08.bks.cpg/sg59_13_cif.got.tgz:24388.got - 2010.06.03 14:40:33.
