data_PCOD9450689
_publ_section_title
;
Structure prediction by ZEFSAII (Michael W. Deem and Ramdas Pophale) SiO2 
 PCOD9450689
Probable space group: P M M N
;
_chemical_formula_sum "Si O2"
_cell_formula_units_Z 58
_cell_length_a 29.623076
_cell_length_b 7.458100
_cell_length_c 12.325127
_cell_angle_alpha 90.000000
_cell_angle_beta 90.000000
_cell_angle_gamma 90.000000
_cell_volume 2723.013271
_symmetry_space_group_name_H-M "P M M N"
_symmetry_group_IT_number 59
_space_group.IT_coordinate_system_code '2'
_symmetry_cell_setting 'orthorhombic'
loop_
_space_group_symop_operation_xyz
x,y,z
1/2-x,1/2-y,z
1/2+x,-y,-z
-x,1/2+y,-z
-x,-y,-z
1/2+x,1/2+y,-z
1/2-x,y,z
x,1/2-y,z
loop_
_atom_site_type_symbol
_atom_site_label
_atom_site_fract_x
_atom_site_fract_y
_atom_site_fract_z
Si Si1 0.053107 0.460847 0.619971
Si Si2 0.197648 0.535805 0.548168
Si Si3 0.111139 0.950352 0.182909
Si Si4 0.549989 0.466795 0.624306
Si Si5 0.699386 0.544263 0.698776
Si Si6 0.139575 0.543171 0.744461
Si Si7 0.750000 0.750000 0.977831
Si Si8 0.833425 0.472461 0.014403
O O1 0.051027 0.250000 0.638812
O O2 0.068917 0.489243 0.495360
O O3 0.087757 0.535973 0.707438
O O4 0.001864 0.531440 0.627132
O O5 0.250000 0.508667 0.577039
O O6 0.190004 0.750000 0.535214
O O7 0.190294 0.456428 0.429526
O O8 0.167043 0.461135 0.643980
O O9 0.093421 0.750000 0.163760
O O10 0.078284 0.035519 0.272784
O O11 0.159661 0.944135 0.242156
O O12 0.125250 0.023105 0.066153
O O13 0.550408 0.250000 0.628671
O O14 0.750000 0.471966 0.715184
O O15 0.699592 0.750000 0.737788
O O16 0.154007 0.750000 0.746940
O O17 0.152255 0.477097 0.863050
O O18 0.789812 0.589856 0.983162
O O19 0.827176 0.250000 0.006874
#
# Coordination Sequence:
#
# PCOD9450689 Si02
#       8
#     8   8   8   8   8   8   2   8
#     4  10  20  34  58  90 121 153 197 251 308 371
#     4   9  18  33  52  74 103 144 186 227 284 351
#     4  10  21  38  59  79 110 153 198 248 296 363
#     4   9  19  37  59  86 119 158 199 244 309 375
#     4  10  21  33  48  76 112 143 179 233 293 354
#     4  10  21  38  58  81 116 154 197 249 297 364
#     4  12  26  44  68  90 122 168 210 272 296 360
#     4  10  25  44  64  91 121 163 214 254 309 363
#
# _framework density 21.299931999999998
#
# number of rings (size 3 to 8) (size 9 to 14) (size 15 to 20)
#    0.000    2.207    0.000    1.862    3.862    5.793 
#    0.000    0.690    0.000    0.000    0.000    0.000 
#    0.000    0.000    0.000    0.000    0.000    0.000 
#
# Total GULP energy -323094.255303 kJ/mol
# GULP energy per Si atom -5570.590609 kJ/mol
# Density = 2.125145 g / cm^3
# Si number density = 21.299932 Si / 1000 Ang^3
#
#
#
# Elastic Constant Matrix: (Units=GPa)
#
#
# Indices 1 2 3 4 5 6 
#
# 1 35.6903 3.2823 28.6804 0.0000 0.0000 0.0000
# 2 3.2823 81.2290 5.4920 0.0000 0.0000 0.0000
# 3 28.6804 5.4920 91.1585 0.0000 0.0000 0.0000
# 4 0.0000 0.0000 0.0000 126.5844 0.0000 0.0000
# 5 0.0000 0.0000 0.0000 0.0000 -3.8388 0.0000
# 6 0.0000 0.0000 0.0000 0.0000 0.0000 22.5474
#
#
#
# Elastic Compliance Matrix: (Units=1/GPa)
#
#
# Indices 1 2 3 4 5 6 
#
# 1 0.037542 -0.000721 -0.011768 0.000000 0.000000 0.000000
# 2 -0.000721 0.012375 -0.000519 0.000000 0.000000 0.000000
# 3 -0.011768 -0.000519 0.014704 0.000000 0.000000 0.000000
# 4 0.000000 0.000000 0.000000 0.007900 0.000000 0.000000
# 5 0.000000 0.000000 0.000000 0.000000 -0.260499 0.000000
# 6 0.000000 0.000000 0.000000 0.000000 0.000000 0.044351
#
#
# Mechanical properties :
#
#
# Convention : Reuss Voigt Hill
#
# Bulk Modulus (GPa) = 25.90365 31.44303 28.67334
# Shear Modulus (GPa) = -47.73542 40.43347 -3.65097
#
# Velocity S-wave (km/s) = -4.73917 4.36166 -1.31065
# Velocity P-wave (km/s) = 4.21408 6.33716 3.34672
#
# Compressibility (1/GPa) = 0.03860460
#
# Stress axis : x y z
#
# Youngs Moduli (GPa) = 26.63699 80.80749 68.01045
#
# Poissons Ratio (x) = 0.05829 0.80035
# Poissons Ratio (y) = 0.01921 0.03527
# Poissons Ratio (z) = 0.31346 0.04191
#
# Static dielectric constant tensor:
#      x y z
#    x 1.764870 0.000000 0.000000 
#    y 0.000000 1.803090 0.000000 
#    z 0.000000 0.000000 1.800180 
# 
# From -- ./inp_files/18935.got.cif
#   From: 2010.05.17/outbox.cif.g08.bks.cpg/sg59_10_cif.got.tgz:18935.got - 2010.06.03 14:40:33.
