data_PCOD9450229
_publ_section_title
;
Structure prediction by ZEFSAII (Michael W. Deem and Ramdas Pophale) SiO2 
 PCOD9450229
Probable space group: P M M N
;
_chemical_formula_sum "Si O2"
_cell_formula_units_Z 64
_cell_length_a 8.433893
_cell_length_b 20.365353
_cell_length_c 20.943962
_cell_angle_alpha 90.000000
_cell_angle_beta 90.000000
_cell_angle_gamma 90.000000
_cell_volume 3597.318328
_symmetry_space_group_name_H-M "P M M N"
_symmetry_group_IT_number 59
_space_group.IT_coordinate_system_code '2'
_symmetry_cell_setting 'orthorhombic'
loop_
_space_group_symop_operation_xyz
x,y,z
1/2-x,1/2-y,z
1/2+x,-y,-z
-x,1/2+y,-z
-x,-y,-z
1/2+x,1/2+y,-z
1/2-x,y,z
x,1/2-y,z
loop_
_atom_site_type_symbol
_atom_site_label
_atom_site_fract_x
_atom_site_fract_y
_atom_site_fract_z
Si Si1 0.441830 0.575269 0.180656
Si Si2 0.558443 0.174478 0.929126
Si Si3 0.943077 0.575120 0.821552
Si Si4 0.940140 0.572957 0.322361
Si Si5 0.058443 0.325335 0.569778
Si Si6 0.560016 0.574215 0.676669
Si Si7 0.058338 0.174472 0.069479
Si Si8 0.439715 0.825353 0.570978
O O1 0.250000 0.576305 0.182250
O O2 0.496238 0.626004 0.126737
O O3 0.490953 0.500237 0.165687
O O4 0.501836 0.591338 0.251491
O O5 0.750000 0.173539 0.929726
O O6 0.507387 0.250000 0.918050
O O7 0.499075 0.154495 0.999168
O O8 0.750000 0.576525 0.822437
O O9 0.992476 0.591617 0.749094
O O10 0.998771 0.625827 0.875079
O O11 0.750000 0.572148 0.322626
O O12 0.995874 0.624776 0.375513
O O13 0.000803 0.499568 0.336510
O O14 0.250000 0.325858 0.569279
O O15 0.006606 0.250000 0.581780
O O16 0.999849 0.344498 0.499419
O O17 0.750000 0.573451 0.676131
O O18 0.500091 0.625634 0.624923
O O19 0.250000 0.173754 0.069643
O O20 0.007045 0.250000 0.080382
O O21 0.250000 0.825961 0.570692
O O22 0.493742 0.750000 0.582602
#
# Coordination Sequence:
#
# PCOD9450229 Si02
#       8
#     8   8   8   8   8   8   8   8
#     4   9  18  33  50  68  95 130 164 198 240 295
#     4   9  18  32  48  68  96 128 161 198 242 293
#     4   8  16  31  49  69  93 123 161 201 239 285
#     4  10  20  34  53  77 104 131 164 211 257 296
#     4   9  19  36  55  75 101 134 170 206 249 303
#     4  10  20  35  55  76 102 137 172 206 248 304
#     4   9  17  30  48  69  93 121 156 199 242 285
#     4  10  21  36  54  78 106 133 166 211 255 294
#
# _framework density 17.791031
#
# number of rings (size 3 to 8) (size 9 to 14) (size 15 to 20)
#    0.000    2.750    0.000    1.875    0.000    4.250 
#    0.000    4.375    0.000    1.500    0.000    0.000 
#    0.000    0.000    0.000    0.000    0.000    0.000 
#
# Total GULP energy -356907.143274 kJ/mol
# GULP energy per Si atom -5576.674114 kJ/mol
# Density = 1.775054 g / cm^3
# Si number density = 17.791031 Si / 1000 Ang^3
#
#
#
# Elastic Constant Matrix: (Units=GPa)
#
#
# Indices 1 2 3 4 5 6 
#
# 1 14.3724 21.0974 24.7245 0.0000 0.0000 0.0000
# 2 21.0974 119.7244 139.0400 0.0000 0.0000 0.0000
# 3 24.7245 139.0400 191.7230 0.0000 0.0000 0.0000
# 4 0.0000 0.0000 0.0000 45.3955 0.0000 0.0000
# 5 0.0000 0.0000 0.0000 0.0000 27.8254 0.0000
# 6 0.0000 0.0000 0.0000 0.0000 0.0000 10.3338
#
#
#
# Elastic Compliance Matrix: (Units=1/GPa)
#
#
# Indices 1 2 3 4 5 6 
#
# 1 0.093870 -0.015737 -0.000693 0.000000 0.000000 0.000000
# 2 -0.015737 0.055574 -0.038274 0.000000 0.000000 0.000000
# 3 -0.000693 -0.038274 0.033062 0.000000 0.000000 0.000000
# 4 0.000000 0.000000 0.000000 0.022029 0.000000 0.000000
# 5 0.000000 0.000000 0.000000 0.000000 0.035938 0.000000
# 6 0.000000 0.000000 0.000000 0.000000 0.000000 0.096769
#
#
# Mechanical properties :
#
#
# Convention : Reuss Voigt Hill
#
# Bulk Modulus (GPa) = 13.68007 77.28263 45.48135
# Shear Modulus (GPa) = 10.61538 26.10816 18.36177
#
# Velocity S-wave (km/s) = 2.44533 3.83494 3.21609
# Velocity P-wave (km/s) = 3.95966 7.94622 6.27779
#
# Compressibility (1/GPa) = 0.07309905
#
# Stress axis : x y z
#
# Youngs Moduli (GPa) = 10.65306 17.99400 30.24640
#
# Poissons Ratio (x) = 0.28317 0.02096
# Poissons Ratio (y) = 0.16764 1.15764
# Poissons Ratio (z) = 0.00738 0.68870
#
# Static dielectric constant tensor:
#      x y z
#    x 1.609010 0.000000 0.000000 
#    y 0.000000 1.603320 0.000000 
#    z 0.000000 0.000000 1.582940 
# 
# From -- ./inp_files/26260.got.cif
#   From: 2010.05.17/outbox.cif.g08.bks.cpg/sg59_14_cif.got.tgz:26260.got - 2010.06.03 14:40:33.
