data_PCOD9450032
_publ_section_title
;
Structure prediction by ZEFSAII (Michael W. Deem and Ramdas Pophale) SiO2 
 PCOD9450032
Probable space group: P M M N
;
_chemical_formula_sum "Si O2"
_cell_formula_units_Z 64
_cell_length_a 7.657799
_cell_length_b 24.072489
_cell_length_c 16.001929
_cell_angle_alpha 90.000000
_cell_angle_beta 90.000000
_cell_angle_gamma 90.000000
_cell_volume 2949.832111
_symmetry_space_group_name_H-M "P M M N"
_symmetry_group_IT_number 59
_space_group.IT_coordinate_system_code '2'
_symmetry_cell_setting 'orthorhombic'
loop_
_space_group_symop_operation_xyz
x,y,z
1/2-x,1/2-y,z
1/2+x,-y,-z
-x,1/2+y,-z
-x,-y,-z
1/2+x,1/2+y,-z
1/2-x,y,z
x,1/2-y,z
loop_
_atom_site_type_symbol
_atom_site_label
_atom_site_fract_x
_atom_site_fract_y
_atom_site_fract_z
Si Si1 0.959015 0.812448 0.970392
Si Si2 0.039822 0.882394 0.633333
Si Si3 0.960545 0.381970 0.692200
Si Si4 0.536056 0.185348 0.529413
Si Si5 0.956841 0.881576 0.127626
Si Si6 0.540171 0.508024 0.723213
Si Si7 0.959121 0.186485 0.209388
Si Si8 0.441380 0.496246 0.097051
O O1 0.750000 0.809387 0.976664
O O2 0.030875 0.750000 0.969561
O O3 0.001311 0.838744 0.881214
O O4 0.020391 0.844787 0.051089
O O5 0.250000 0.878459 0.631975
O O6 0.978681 0.852203 0.549197
O O7 0.972111 0.848209 0.713268
O O8 0.997651 0.946180 0.653175
O O9 0.750000 0.383525 0.688319
O O10 0.020995 0.345679 0.614010
O O11 0.022526 0.446493 0.695974
O O12 0.014743 0.356378 0.781151
O O13 0.750000 0.186025 0.529149
O O14 0.481394 0.250000 0.523870
O O15 0.750000 0.893317 0.116936
O O16 0.058577 0.939136 0.122902
O O17 0.750000 0.504904 0.732535
O O18 0.470374 0.526122 0.816373
O O19 0.750000 0.189251 0.217138
O O20 0.026784 0.250000 0.210841
O O21 0.250000 0.470033 0.092061
O O22 0.500000 0.500000 0.000000
#
# Coordination Sequence:
#
# PCOD9450032 Si02
#       8
#     8   8   8   8   8   8   8   8
#     4   9  19  34  50  71 102 141 180 215 264 329
#     4  10  20  33  54  83 109 138 179 227 274 329
#     4   9  19  37  57  78 107 143 183 226 274 331
#     4   9  18  35  60  86 110 139 179 229 284 335
#     4  10  20  34  53  77 106 141 179 225 275 321
#     4   9  20  36  51  74 110 147 180 219 270 325
#     4   9  18  32  49  72 103 136 173 222 274 322
#     4  10  21  36  54  77 108 145 185 228 270 320
#
# _framework density 21.696151
#
# number of rings (size 3 to 8) (size 9 to 14) (size 15 to 20)
#    0.000    2.625    0.000    1.875    1.750    6.500 
#    0.000    0.625    0.000    1.875    0.000    0.000 
#    0.000    0.000    0.000    0.000    0.000    0.000 
#
# Total GULP energy -356828.687170 kJ/mol
# GULP energy per Si atom -5575.448237 kJ/mol
# Density = 2.164677 g / cm^3
# Si number density = 21.696151 Si / 1000 Ang^3
#
#
#
# Elastic Constant Matrix: (Units=GPa)
#
#
# Indices 1 2 3 4 5 6 
#
# 1 43.0497 2.7811 4.1391 0.0000 0.0000 0.0000
# 2 2.7811 64.4554 54.1033 0.0000 0.0000 0.0000
# 3 4.1391 54.1033 174.8152 0.0000 0.0000 0.0000
# 4 0.0000 0.0000 0.0000 37.8360 0.0000 0.0000
# 5 0.0000 0.0000 0.0000 0.0000 17.2969 0.0000
# 6 0.0000 0.0000 0.0000 0.0000 0.0000 15.8861
#
#
#
# Elastic Compliance Matrix: (Units=1/GPa)
#
#
# Indices 1 2 3 4 5 6 
#
# 1 0.023308 -0.000733 -0.000325 0.000000 0.000000 0.000000
# 2 -0.000733 0.020983 -0.006477 0.000000 0.000000 0.000000
# 3 -0.000325 -0.006477 0.007732 0.000000 0.000000 0.000000
# 4 0.000000 0.000000 0.000000 0.026430 0.000000 0.000000
# 5 0.000000 0.000000 0.000000 0.000000 0.057814 0.000000
# 6 0.000000 0.000000 0.000000 0.000000 0.000000 0.062948
#
#
# Mechanical properties :
#
#
# Convention : Reuss Voigt Hill
#
# Bulk Modulus (GPa) = 27.06081 44.92969 35.99525
# Shear Modulus (GPa) = 22.06522 28.95693 25.51108
#
# Velocity S-wave (km/s) = 3.19252 3.65726 3.43276
# Velocity P-wave (km/s) = 5.10777 6.21189 5.68669
#
# Compressibility (1/GPa) = 0.03695380
#
# Stress axis : x y z
#
# Youngs Moduli (GPa) = 42.90454 47.65865 129.32553
#
# Poissons Ratio (x) = 0.03492 0.04204
# Poissons Ratio (y) = 0.03144 0.83758
# Poissons Ratio (z) = 0.01395 0.30866
#
# Static dielectric constant tensor:
#      x y z
#    x 0.744930 0.000000 0.000000 
#    y 0.000000 1.790110 0.000000 
#    z 0.000000 0.000000 1.828570 
# 
# From -- ./inp_files/21460.got.cif
#   From: 2010.05.17/outbox.cif.g08.bks.cpg/sg59_11_cif.got.tgz:21460.got - 2010.06.03 14:40:33.
