data_PCOD9450380
_publ_section_title
;
Structure prediction by ZEFSAII (Michael W. Deem and Ramdas Pophale) SiO2 
 PCOD9450380
Probable space group: P M M N
;
_chemical_formula_sum "Si O2"
_cell_formula_units_Z 64
_cell_length_a 7.525182
_cell_length_b 18.619094
_cell_length_c 21.619663
_cell_angle_alpha 90.000000
_cell_angle_beta 90.000000
_cell_angle_gamma 90.000000
_cell_volume 3029.175758
_symmetry_space_group_name_H-M "P M M N"
_symmetry_group_IT_number 59
_space_group.IT_coordinate_system_code '2'
_symmetry_cell_setting 'orthorhombic'
loop_
_space_group_symop_operation_xyz
x,y,z
1/2-x,1/2-y,z
1/2+x,-y,-z
-x,1/2+y,-z
-x,-y,-z
1/2+x,1/2+y,-z
1/2-x,y,z
x,1/2-y,z
loop_
_atom_site_type_symbol
_atom_site_label
_atom_site_fract_x
_atom_site_fract_y
_atom_site_fract_z
Si Si1 0.960430 0.169102 0.375413
Si Si2 0.533320 0.333886 0.134494
Si Si3 0.536717 0.333125 0.999647
Si Si4 0.967490 0.916812 0.255085
Si Si5 0.461125 0.331937 0.864804
Si Si6 0.460479 0.415593 0.500172
Si Si7 0.467948 0.918034 0.743819
Si Si8 0.967431 0.667107 0.378172
O O1 0.750000 0.175721 0.364849
O O2 0.033026 0.250000 0.381705
O O3 0.030335 0.126487 0.315840
O O4 0.980882 0.123588 0.437720
O O5 0.750000 0.334669 0.135100
O O6 0.481776 0.250000 0.140626
O O7 0.474221 0.380104 0.192744
O O8 0.476400 0.361605 0.066466
O O9 0.750000 0.332317 0.001294
O O10 0.474338 0.250000 0.997719
O O11 0.487132 0.364685 0.933230
O O12 0.750000 0.916917 0.254659
O O13 0.029051 0.879157 0.191877
O O14 0.022937 0.871811 0.315104
O O15 0.023803 0.999333 0.259342
O O16 0.250000 0.326266 0.855994
O O17 0.533557 0.250000 0.863685
O O18 0.500000 0.500000 0.500000
O O19 0.250000 0.407800 0.502324
O O20 0.530596 0.376224 0.561596
O O21 0.250000 0.917756 0.743556
O O22 0.750000 0.666527 0.378344
O O23 0.022747 0.750000 0.380240
#
# Coordination Sequence:
#
# PCOD9450380 Si02
#       8
#     8   8   8   8   8   8   8   8
#     4  10  20  34  54  80 107 134 167 208 251 296
#     4   8  13  23  41  64  88 117 156 197 234 277
#     4   8  14  25  42  63  86 114 150 192 236 283
#     4   9  16  26  42  65  92 120 154 197 240 282
#     4   9  16  26  42  64  88 115 149 191 239 288
#     4  11  22  36  55  78 105 136 169 206 251 301
#     4   9  16  27  45  70  98 126 159 201 245 286
#     4   9  17  30  49  72  96 124 161 201 237 280
#
# _framework density 21.127860999999999
#
# number of rings (size 3 to 8) (size 9 to 14) (size 15 to 20)
#    0.000    2.875    0.000    3.000    0.000    5.750 
#    0.000    0.625    0.000    4.500    0.000    3.500 
#    0.000    0.000    0.000    0.000    0.000    0.000 
#
# Total GULP energy -357137.050558 kJ/mol
# GULP energy per Si atom -5580.266415 kJ/mol
# Density = 2.107977 g / cm^3
# Si number density = 21.127861 Si / 1000 Ang^3
#
#
#
# Elastic Constant Matrix: (Units=GPa)
#
#
# Indices 1 2 3 4 5 6 
#
# 1 50.8617 2.3651 1.4283 0.0000 0.0000 0.0000
# 2 2.3651 169.7605 131.1074 0.0000 0.0000 0.0000
# 3 1.4283 131.1074 254.1853 0.0000 0.0000 0.0000
# 4 0.0000 0.0000 0.0000 -41.6562 0.0000 0.0000
# 5 0.0000 0.0000 0.0000 0.0000 18.8960 0.0000
# 6 0.0000 0.0000 0.0000 0.0000 0.0000 3.6669
#
#
#
# Elastic Compliance Matrix: (Units=1/GPa)
#
#
# Indices 1 2 3 4 5 6 
#
# 1 0.019674 -0.000314 0.000051 0.000000 0.000000 0.000000
# 2 -0.000314 0.009796 -0.005051 0.000000 0.000000 0.000000
# 3 0.000051 -0.005051 0.006539 0.000000 0.000000 0.000000
# 4 0.000000 0.000000 0.000000 -0.024006 0.000000 0.000000
# 5 0.000000 0.000000 0.000000 0.000000 0.052921 0.000000
# 6 0.000000 0.000000 0.000000 0.000000 0.000000 0.272708
#
#
# Mechanical properties :
#
#
# Convention : Reuss Voigt Hill
#
# Bulk Modulus (GPa) = 39.39710 82.73433 61.06572
# Shear Modulus (GPa) = 14.01662 18.84181 16.42921
#
# Velocity S-wave (km/s) = 2.57849 2.98954 2.79159
# Velocity P-wave (km/s) = 5.24902 7.15265 6.27346
#
# Compressibility (1/GPa) = 0.02538258
#
# Stress axis : x y z
#
# Youngs Moduli (GPa) = 50.82776 102.08394 152.92696
#
# Poissons Ratio (x) = 0.03202 -0.00784
# Poissons Ratio (y) = 0.01594 0.77242
# Poissons Ratio (z) = -0.00260 0.51561
#
# Static dielectric constant tensor:
#      x y z
#    x 1.827640 0.000000 0.000000 
#    y 0.000000 1.713750 0.000000 
#    z 0.000000 0.000000 1.751170 
# 
# From -- ./inp_files/29586.got.cif
#   From: 2010.05.17/outbox.cif.g08.bks.cpg/sg59_15_cif.got.tgz:29586.got - 2010.06.03 14:40:33.
