data_PCOD9450722
_publ_section_title
;
Structure prediction by ZEFSAII (Michael W. Deem and Ramdas Pophale) SiO2 
 PCOD9450722
Probable space group: P M M N
;
_chemical_formula_sum "Si O2"
_cell_formula_units_Z 48
_cell_length_a 21.498420
_cell_length_b 18.247168
_cell_length_c 5.200525
_cell_angle_alpha 90.000000
_cell_angle_beta 90.000000
_cell_angle_gamma 90.000000
_cell_volume 2040.089413
_symmetry_space_group_name_H-M "P M M N"
_symmetry_group_IT_number 59
_space_group.IT_coordinate_system_code '2'
_symmetry_cell_setting 'orthorhombic'
loop_
_space_group_symop_operation_xyz
x,y,z
1/2-x,1/2-y,z
1/2+x,-y,-z
-x,1/2+y,-z
-x,-y,-z
1/2+x,1/2+y,-z
1/2-x,y,z
x,1/2-y,z
loop_
_atom_site_type_symbol
_atom_site_label
_atom_site_fract_x
_atom_site_fract_y
_atom_site_fract_z
Si Si1 0.401797 0.887479 0.823847
Si Si2 0.316281 0.443684 0.425598
Si Si3 0.500032 0.827760 0.470175
Si Si4 0.321449 0.603487 0.304896
Si Si5 0.936691 0.551260 0.212369
Si Si6 0.385060 0.330166 0.176000
O O1 0.453191 0.833863 0.707882
O O2 0.350958 0.890530 0.590154
O O3 0.437630 0.965852 0.860713
O O4 0.366750 0.865298 0.085329
O O5 0.250000 0.447480 0.565856
O O6 0.319125 0.515948 0.248886
O O7 0.376650 0.448350 0.601127
O O8 0.322517 0.368799 0.269151
O O9 0.487434 0.750000 0.328975
O O10 0.503201 0.908022 0.336407
O O11 0.569089 0.821836 0.582883
O O12 0.250000 0.630571 0.297497
O O13 0.918360 0.608470 0.993459
O O14 0.377560 0.250000 0.055509
#
# Coordination Sequence:
#
# PCOD9450722 Si02
#       6
#     8   8   8   8   8   8
#     4  11  22  38  65  93 117 157 204 244 295 365
#     4   9  19  35  53  78 114 153 195 242 294 351
#     4  10  23  39  57  84 121 158 195 247 304 359
#     4  10  21  39  63  92 121 150 193 251 304 351
#     4  10  20  36  56  86 115 155 200 249 295 343
#     4  10  20  35  53  77 115 156 196 243 297 346
#
# _framework density 23.528379000000001
#
# number of rings (size 3 to 8) (size 9 to 14) (size 15 to 20)
#    0.000    2.000    1.667    1.500    2.333    3.000 
#    0.000    0.000    0.000    3.000    0.000    0.000 
#    0.000    0.000    0.000    0.000    0.000    0.000 
#
# Total GULP energy -267613.539677 kJ/mol
# GULP energy per Si atom -5575.282077 kJ/mol
# Density = 2.347483 g / cm^3
# Si number density = 23.528379 Si / 1000 Ang^3
#
#
#
# Elastic Constant Matrix: (Units=GPa)
#
#
# Indices 1 2 3 4 5 6 
#
# 1 85.8936 11.6135 8.4284 0.0000 0.0000 0.0000
# 2 11.6135 40.3372 -5.0552 0.0000 0.0000 0.0000
# 3 8.4284 -5.0552 63.5373 0.0000 0.0000 0.0000
# 4 0.0000 0.0000 0.0000 9.0603 0.0000 0.0000
# 5 0.0000 0.0000 0.0000 0.0000 13.9240 0.0000
# 6 0.0000 0.0000 0.0000 0.0000 0.0000 41.9044
#
#
#
# Elastic Compliance Matrix: (Units=1/GPa)
#
#
# Indices 1 2 3 4 5 6 
#
# 1 0.012346 -0.003798 -0.001940 0.000000 0.000000 0.000000
# 2 -0.003798 0.026209 0.002589 0.000000 0.000000 0.000000
# 3 -0.001940 0.002589 0.016202 0.000000 0.000000 0.000000
# 4 0.000000 0.000000 0.000000 0.110371 0.000000 0.000000
# 5 0.000000 0.000000 0.000000 0.000000 0.071819 0.000000
# 6 0.000000 0.000000 0.000000 0.000000 0.000000 0.023864
#
#
# Mechanical properties :
#
#
# Convention : Reuss Voigt Hill
#
# Bulk Modulus (GPa) = 20.63558 24.41571 22.52565
# Shear Modulus (GPa) = 17.65153 24.62982 21.14068
#
# Velocity S-wave (km/s) = 2.74199 3.23896 3.00078
# Velocity P-wave (km/s) = 4.33754 4.93837 4.64767
#
# Compressibility (1/GPa) = 0.04845998
#
# Stress axis : x y z
#
# Youngs Moduli (GPa) = 80.99695 38.15501 61.72039
#
# Poissons Ratio (x) = 0.14490 0.11973
# Poissons Ratio (y) = 0.30760 -0.15980
# Poissons Ratio (z) = 0.15713 -0.09878
#
# Static dielectric constant tensor:
#      x y z
#    x 1.906230 0.000000 0.000000 
#    y 0.000000 2.001180 0.000000 
#    z 0.000000 0.000000 1.994710 
# 
# From -- ./inp_files/2860.got.cif
#   From: 2010.05.17/outbox.cif.g08.bks.cpg/sg59_2_cif.got.tgz:2860.got - 2010.06.03 14:40:33.
