data_PCOD9450287
_publ_section_title
;
Structure prediction by ZEFSAII (Michael W. Deem and Ramdas Pophale) SiO2 
 PCOD9450287
Probable space group: P M M N
;
_chemical_formula_sum "Si O2"
_cell_formula_units_Z 64
_cell_length_a 12.580008
_cell_length_b 13.636873
_cell_length_c 20.809013
_cell_angle_alpha 90.000000
_cell_angle_beta 90.000000
_cell_angle_gamma 90.000000
_cell_volume 3569.827204
_symmetry_space_group_name_H-M "P M M N"
_symmetry_group_IT_number 59
_space_group.IT_coordinate_system_code '2'
_symmetry_cell_setting 'orthorhombic'
loop_
_space_group_symop_operation_xyz
x,y,z
1/2-x,1/2-y,z
1/2+x,-y,-z
-x,1/2+y,-z
-x,-y,-z
1/2+x,1/2+y,-z
1/2-x,y,z
x,1/2-y,z
loop_
_atom_site_type_symbol
_atom_site_label
_atom_site_fract_x
_atom_site_fract_y
_atom_site_fract_z
Si Si1 0.481008 0.494488 0.287554
Si Si2 0.872110 0.042194 0.579717
Si Si3 0.967945 0.859850 0.512218
Si Si4 0.129036 0.860689 0.631093
Si Si5 0.878217 0.637198 0.821559
Si Si6 0.628984 0.503764 0.941352
Si Si7 0.934660 0.866069 0.059356
Si Si8 0.629344 0.633586 0.207351
O O1 0.402698 0.524114 0.345881
O O2 0.577093 0.435795 0.320521
O O3 0.421491 0.421276 0.239399
O O4 0.536947 0.580598 0.247368
O O5 0.750000 0.076791 0.573673
O O6 0.965799 0.110381 0.550927
O O7 0.886472 0.942419 0.537151
O O8 0.923454 0.750000 0.507390
O O9 0.057981 0.860991 0.567454
O O10 0.250000 0.884930 0.615362
O O11 0.125145 0.750000 0.657664
O O12 0.750000 0.638582 0.819723
O O13 0.915003 0.750000 0.823160
O O14 0.909887 0.576795 0.885028
O O15 0.750000 0.475936 0.927837
O O16 0.553976 0.409229 0.943069
O O17 0.623522 0.566849 0.006690
O O18 0.927879 0.750000 0.044619
O O19 0.890075 0.881214 0.131137
O O20 0.750000 0.600073 0.223326
O O21 0.624391 0.750000 0.219037
#
# Coordination Sequence:
#
# PCOD9450287 Si02
#       8
#     8   8   8   8   8   8   8   8
#     4  11  20  34  51  77 110 145 181 220 266 321
#     4  10  21  35  55  81 111 143 179 222 270 323
#     4   9  19  36  56  78 105 137 177 222 269 320
#     4   9  17  30  51  76 100 131 172 217 267 320
#     4  10  20  34  53  78 109 143 178 220 272 329
#     4  10  20  35  57  84 111 142 182 231 282 331
#     4  10  20  36  58  83 109 143 187 235 280 328
#     4  10  21  37  56  77 105 145 191 233 273 320
#
# _framework density 17.928038999999998
#
# number of rings (size 3 to 8) (size 9 to 14) (size 15 to 20)
#    0.000    2.125    1.250    2.250    0.000    3.500 
#    0.000    0.625    0.000    1.125    0.000    0.000 
#    0.000    0.000    0.000    0.000    0.000    0.000 
#
# Total GULP energy -356825.730480 kJ/mol
# GULP energy per Si atom -5575.402039 kJ/mol
# Density = 1.788723 g / cm^3
# Si number density = 17.928039 Si / 1000 Ang^3
#
#
#
# Elastic Constant Matrix: (Units=GPa)
#
#
# Indices 1 2 3 4 5 6 
#
# 1 42.9779 -4.1445 -7.3591 0.0000 0.0000 0.0000
# 2 -4.1445 29.8269 -7.1186 0.0000 0.0000 0.0000
# 3 -7.3591 -7.1186 48.9508 0.0000 0.0000 0.0000
# 4 0.0000 0.0000 0.0000 26.3628 0.0000 0.0000
# 5 0.0000 0.0000 0.0000 0.0000 10.4156 0.0000
# 6 0.0000 0.0000 0.0000 0.0000 0.0000 19.3996
#
#
#
# Elastic Compliance Matrix: (Units=1/GPa)
#
#
# Indices 1 2 3 4 5 6 
#
# 1 0.024434 0.004425 0.004317 0.000000 0.000000 0.000000
# 2 0.004425 0.035534 0.005833 0.000000 0.000000 0.000000
# 3 0.004317 0.005833 0.021926 0.000000 0.000000 0.000000
# 4 0.000000 0.000000 0.000000 0.037932 0.000000 0.000000
# 5 0.000000 0.000000 0.000000 0.000000 0.096010 0.000000
# 6 0.000000 0.000000 0.000000 0.000000 0.000000 0.051547
#
#
# Mechanical properties :
#
#
# Convention : Reuss Voigt Hill
#
# Bulk Modulus (GPa) = 9.00549 9.39012 9.19780
# Shear Modulus (GPa) = 18.16546 20.59411 19.37978
#
# Velocity S-wave (km/s) = 3.18660 3.39294 3.29139
# Velocity P-wave (km/s) = 4.30967 4.53855 4.42559
#
# Compressibility (1/GPa) = 0.11104339
#
# Stress axis : x y z
#
# Youngs Moduli (GPa) = 40.92704 28.14228 45.60820
#
# Poissons Ratio (x) = -0.12454 -0.19688
# Poissons Ratio (y) = -0.18112 -0.26602
# Poissons Ratio (z) = -0.17668 -0.16415
#
# Static dielectric constant tensor:
#      x y z
#    x 1.599620 0.000000 0.000000 
#    y 0.000000 1.625200 0.000000 
#    z 0.000000 0.000000 1.614770 
# 
# From -- ./inp_files/27098.got.cif
#   From: 2010.05.17/outbox.cif.g08.bks.cpg/sg59_14_cif.got.tgz:27098.got - 2010.06.03 14:40:33.
