data_PCOD9450169
_publ_section_title
;
Structure prediction by ZEFSAII (Michael W. Deem and Ramdas Pophale) SiO2 
 PCOD9450169
Probable space group: P M M N
;
_chemical_formula_sum "Si O2"
_cell_formula_units_Z 64
_cell_length_a 8.603672
_cell_length_b 21.204829
_cell_length_c 20.224871
_cell_angle_alpha 90.000000
_cell_angle_beta 90.000000
_cell_angle_gamma 90.000000
_cell_volume 3689.813200
_symmetry_space_group_name_H-M "P M M N"
_symmetry_group_IT_number 59
_space_group.IT_coordinate_system_code '2'
_symmetry_cell_setting 'orthorhombic'
loop_
_space_group_symop_operation_xyz
x,y,z
1/2-x,1/2-y,z
1/2+x,-y,-z
-x,1/2+y,-z
-x,-y,-z
1/2+x,1/2+y,-z
1/2-x,y,z
x,1/2-y,z
loop_
_atom_site_type_symbol
_atom_site_label
_atom_site_fract_x
_atom_site_fract_y
_atom_site_fract_z
Si Si1 0.061866 0.130755 0.176712
Si Si2 0.565024 0.440690 0.958439
Si Si3 0.936743 0.485568 0.683420
Si Si4 0.065404 0.488331 0.824257
Si Si5 0.437643 0.365572 0.321746
Si Si6 0.938339 0.820358 0.536345
Si Si7 0.936441 0.059696 0.540821
Si Si8 0.061999 0.320324 0.035059
O O1 0.250000 0.128727 0.178221
O O2 0.008511 0.155265 0.248753
O O3 0.016223 0.169077 0.111831
O O4 0.002408 0.059241 0.169261
O O5 0.250000 0.555987 0.040727
O O6 0.503848 0.447882 0.883906
O O7 0.500000 0.500000 0.000000
O O8 0.508391 0.376364 0.992144
O O9 0.750000 0.481481 0.691387
O O10 0.973248 0.559852 0.672526
O O11 0.983489 0.448688 0.617475
O O12 0.015806 0.465289 0.751537
O O13 0.250000 0.490814 0.829949
O O14 0.250000 0.359285 0.321680
O O15 0.492459 0.331245 0.387752
O O16 0.750000 0.824602 0.536016
O O17 0.982364 0.750000 0.514722
O O18 0.003310 0.876192 0.491585
O O19 0.750000 0.057672 0.538307
O O20 0.000000 0.000000 0.500000
O O21 0.250000 0.324845 0.032015
O O22 0.016432 0.250000 0.013825
#
# Coordination Sequence:
#
# PCOD9450169 Si02
#       8
#     8   8   8   8   8   8   8   8
#     4   9  17  31  51  75 110 149 185 222 262 319
#     4  12  23  37  58  82 110 147 188 230 276 325
#     4   9  18  34  54  77 107 142 179 225 276 332
#     4  11  21  33  54  84 112 139 176 229 282 328
#     4   8  14  28  48  73 105 143 184 218 258 313
#     4  10  20  34  52  77 112 151 189 228 273 327
#     4  11  21  35  57  81 109 144 186 231 278 327
#     4  10  21  36  55  81 113 150 189 228 274 327
#
# _framework density 17.345051999999999
#
# number of rings (size 3 to 8) (size 9 to 14) (size 15 to 20)
#    0.000    2.000    2.500    3.375    0.000    2.000 
#    0.000    2.500    0.000    0.750    0.000    5.250 
#    0.000    0.000    0.000    0.000    0.000    0.000 
#
# Total GULP energy -357142.507553 kJ/mol
# GULP energy per Si atom -5580.351681 kJ/mol
# Density = 1.730557 g / cm^3
# Si number density = 17.345052 Si / 1000 Ang^3
#
#
#
# Elastic Constant Matrix: (Units=GPa)
#
#
# Indices 1 2 3 4 5 6 
#
# 1 28.8611 27.3889 34.4493 0.0000 0.0000 0.0000
# 2 27.3889 106.4419 68.9758 0.0000 0.0000 0.0000
# 3 34.4493 68.9758 128.0746 0.0000 0.0000 0.0000
# 4 0.0000 0.0000 0.0000 22.0654 0.0000 0.0000
# 5 0.0000 0.0000 0.0000 0.0000 26.0410 0.0000
# 6 0.0000 0.0000 0.0000 0.0000 0.0000 21.0047
#
#
#
# Elastic Compliance Matrix: (Units=1/GPa)
#
#
# Indices 1 2 3 4 5 6 
#
# 1 0.054147 -0.006904 -0.010846 0.000000 0.000000 0.000000
# 2 -0.006904 0.015312 -0.006389 0.000000 0.000000 0.000000
# 3 -0.010846 -0.006389 0.014166 0.000000 0.000000 0.000000
# 4 0.000000 0.000000 0.000000 0.045320 0.000000 0.000000
# 5 0.000000 0.000000 0.000000 0.000000 0.038401 0.000000
# 6 0.000000 0.000000 0.000000 0.000000 0.000000 0.047608
#
#
# Mechanical properties :
#
#
# Convention : Reuss Voigt Hill
#
# Bulk Modulus (GPa) = 28.29185 58.33394 43.31290
# Shear Modulus (GPa) = 18.18086 22.65980 20.42033
#
# Velocity S-wave (km/s) = 3.24108 3.61835 3.43490
# Velocity P-wave (km/s) = 5.50933 7.15270 6.38412
#
# Compressibility (1/GPa) = 0.03534587
#
# Stress axis : x y z
#
# Youngs Moduli (GPa) = 18.46828 65.31002 70.59081
#
# Poissons Ratio (x) = 0.45093 0.76562
# Poissons Ratio (y) = 0.12751 0.45101
# Poissons Ratio (z) = 0.20031 0.41727
#
# Static dielectric constant tensor:
#      x y z
#    x 1.590620 0.000000 0.000000 
#    y 0.000000 1.567440 0.000000 
#    z 0.000000 0.000000 1.606930 
# 
# From -- ./inp_files/29582.got.cif
#   From: 2010.05.17/outbox.cif.g08.bks.cpg/sg59_15_cif.got.tgz:29582.got - 2010.06.03 14:40:33.
