data_PCOD9450801
_publ_section_title
;
Structure prediction by ZEFSAII (Michael W. Deem and Ramdas Pophale) SiO2 
 PCOD9450801
Probable space group: P M M N
;
_chemical_formula_sum "Si O2"
_cell_formula_units_Z 48
_cell_length_a 9.134733
_cell_length_b 14.604222
_cell_length_c 15.909208
_cell_angle_alpha 90.000000
_cell_angle_beta 90.000000
_cell_angle_gamma 90.000000
_cell_volume 2122.378531
_symmetry_space_group_name_H-M "P M M N"
_symmetry_group_IT_number 59
_space_group.IT_coordinate_system_code '2'
_symmetry_cell_setting 'orthorhombic'
loop_
_space_group_symop_operation_xyz
x,y,z
1/2-x,1/2-y,z
1/2+x,-y,-z
-x,1/2+y,-z
-x,-y,-z
1/2+x,1/2+y,-z
1/2-x,y,z
x,1/2-y,z
loop_
_atom_site_type_symbol
_atom_site_label
_atom_site_fract_x
_atom_site_fract_y
_atom_site_fract_z
Si Si1 0.915945 0.639665 0.804049
Si Si2 0.582025 0.637975 0.467500
Si Si3 0.917543 0.362606 0.702143
Si Si4 0.418211 0.862224 0.636597
Si Si5 0.413097 0.145774 0.863011
Si Si6 0.075102 0.905000 0.976142
O O1 0.750000 0.604825 0.816669
O O2 0.906955 0.750000 0.798405
O O3 0.987328 0.607905 0.716844
O O4 0.017070 0.619834 0.884159
O O5 0.750000 0.607860 0.472826
O O6 0.582554 0.750000 0.468029
O O7 0.507715 0.610113 0.380186
O O8 0.490345 0.608746 0.548864
O O9 0.750000 0.393197 0.697781
O O10 0.913472 0.250000 0.702877
O O11 0.994764 0.397380 0.787350
O O12 0.250000 0.891805 0.643587
O O13 0.418046 0.750000 0.636669
O O14 0.250000 0.104926 0.875569
O O15 0.391707 0.250000 0.835177
O O16 0.504781 0.152172 0.948207
O O17 0.250000 0.903755 0.979527
O O18 0.000000 0.000000 0.000000
#
# Coordination Sequence:
#
# PCOD9450801 Si02
#       6
#     8   8   8   8   8   8
#     4  10  20  35  55  79 107 138 173 214 260 310
#     4   9  15  23  37  61  96 135 170 207 254 303
#     4   9  16  26  42  67  99 134 171 210 253 302
#     4   9  16  26  42  67  99 134 171 210 253 302
#     4  10  20  35  55  79 107 138 173 214 260 310
#     4  12  25  40  57  77 103 135 173 216 263 314
#
# _framework density 22.616135
#
# number of rings (size 3 to 8) (size 9 to 14) (size 15 to 20)
#    0.000    2.167    0.000    4.500    0.000   10.000 
#    0.000    0.000    0.000    0.000    0.000    1.167 
#    0.000    0.000    0.000    0.000    0.000    0.000 
#
# Total GULP energy -268294.358057 kJ/mol
# GULP energy per Si atom -5589.465793 kJ/mol
# Density = 2.256466 g / cm^3
# Si number density = 22.616135 Si / 1000 Ang^3
#
#
#
# Elastic Constant Matrix: (Units=GPa)
#
#
# Indices 1 2 3 4 5 6 
#
# 1 242.2297 0.5275 107.5828 0.0000 0.0000 0.0000
# 2 0.5275 35.7830 -2.2161 0.0000 0.0000 0.0000
# 3 107.5828 -2.2161 189.6434 0.0000 0.0000 0.0000
# 4 0.0000 0.0000 0.0000 2.7756 0.0000 0.0000
# 5 0.0000 0.0000 0.0000 0.0000 43.7691 0.0000
# 6 0.0000 0.0000 0.0000 0.0000 0.0000 10.0505
#
#
#
# Elastic Compliance Matrix: (Units=1/GPa)
#
#
# Indices 1 2 3 4 5 6 
#
# 1 0.005522 -0.000276 -0.003136 0.000000 0.000000 0.000000
# 2 -0.000276 0.027980 0.000483 0.000000 0.000000 0.000000
# 3 -0.003136 0.000483 0.007057 0.000000 0.000000 0.000000
# 4 0.000000 0.000000 0.000000 0.360283 0.000000 0.000000
# 5 0.000000 0.000000 0.000000 0.000000 0.022847 0.000000
# 6 0.000000 0.000000 0.000000 0.000000 0.000000 0.099498
#
#
# Mechanical properties :
#
#
# Convention : Reuss Voigt Hill
#
# Bulk Modulus (GPa) = 28.81548 75.49382 52.15465
# Shear Modulus (GPa) = 9.24880 35.43650 22.34265
#
# Velocity S-wave (km/s) = 2.02444 3.96266 3.14651
# Velocity P-wave (km/s) = 4.27004 7.37495 6.02591
#
# Compressibility (1/GPa) = 0.03470357
#
# Stress axis : x y z
#
# Youngs Moduli (GPa) = 181.10997 35.73956 141.69426
#
# Poissons Ratio (x) = 0.00985 0.44428
# Poissons Ratio (y) = 0.04991 -0.06848
# Poissons Ratio (z) = 0.56787 -0.01727
#
# Static dielectric constant tensor:
#      x y z
#    x 1.838200 0.000000 0.000000 
#    y 0.000000 1.486720 0.000000 
#    z 0.000000 0.000000 1.828840 
# 
# From -- ./inp_files/20351.got.cif
#   From: 2010.05.17/outbox.cif.g08.bks.cpg/sg59_11_cif.got.tgz:20351.got - 2010.06.03 14:40:33.
