data_PCOD9450191
_publ_section_title
;
Structure prediction by ZEFSAII (Michael W. Deem and Ramdas Pophale) SiO2 
 PCOD9450191
Probable space group: P M M N
;
_chemical_formula_sum "Si O2"
_cell_formula_units_Z 48
_cell_length_a 7.735848
_cell_length_b 15.515827
_cell_length_c 19.770757
_cell_angle_alpha 90.000000
_cell_angle_beta 90.000000
_cell_angle_gamma 90.000000
_cell_volume 2373.045988
_symmetry_space_group_name_H-M "P M M N"
_symmetry_group_IT_number 59
_space_group.IT_coordinate_system_code '2'
_symmetry_cell_setting 'orthorhombic'
loop_
_space_group_symop_operation_xyz
x,y,z
1/2-x,1/2-y,z
1/2+x,-y,-z
-x,1/2+y,-z
-x,-y,-z
1/2+x,1/2+y,-z
1/2-x,y,z
x,1/2-y,z
loop_
_atom_site_type_symbol
_atom_site_label
_atom_site_fract_x
_atom_site_fract_y
_atom_site_fract_z
Si Si1 0.541620 0.059689 0.435006
Si Si2 0.046875 0.432787 0.679538
Si Si3 0.452219 0.519074 0.171208
Si Si4 0.457385 0.250000 0.630991
Si Si5 0.538486 0.842216 0.895353
Si Si6 0.541014 0.250000 0.472587
Si Si7 0.955249 0.591568 0.034170
O O1 0.750000 0.066027 0.431560
O O2 0.477607 0.158337 0.442541
O O3 0.500000 0.000000 0.500000
O O4 0.476044 0.008181 0.369000
O O5 0.250000 0.428360 0.662599
O O6 0.972023 0.338844 0.662043
O O7 0.031556 0.452860 0.758397
O O8 0.250000 0.507439 0.183531
O O9 0.523086 0.427236 0.143735
O O10 0.472621 0.586926 0.109677
O O11 0.250000 0.250000 0.642250
O O12 0.492510 0.250000 0.551398
O O13 0.750000 0.846539 0.895783
O O14 0.487341 0.750000 0.865791
O O15 0.484250 0.846122 0.974244
O O16 0.750000 0.250000 0.467250
O O17 0.750000 0.601082 0.040894
O O18 0.000000 0.500000 0.000000
#
# Coordination Sequence:
#
# PCOD9450191 Si02
#       7
#     8   8   8   4   8   4   8
#     4  10  20  35  57  82 110 143 179 223 271 323
#     4  10  21  37  55  77 107 141 178 219 265 322
#     4  10  20  34  53  75 105 141 175 216 267 318
#     4  10  20  36  58  80 102 137 182 223 266 324
#     4   8  15  30  52  76 100 131 173 215 253 302
#     4  10  20  34  56  86 112 137 174 225 280 324
#     4   9  16  29  52  76 100 133 171 213 259 308
#
# _framework density 20.227167000000001
#
# number of rings (size 3 to 8) (size 9 to 14) (size 15 to 20)
#    0.000    2.500    1.667    2.000    0.000    1.333 
#    3.000    0.000    0.000   17.000    0.000    0.000 
#    0.000    0.000    0.000    0.000    0.000    0.000 
#
# Total GULP energy -267483.986991 kJ/mol
# GULP energy per Si atom -5572.583062 kJ/mol
# Density = 2.018113 g / cm^3
# Si number density = 20.227167 Si / 1000 Ang^3
#
#
#
# Elastic Constant Matrix: (Units=GPa)
#
#
# Indices 1 2 3 4 5 6 
#
# 1 16.6905 7.8351 -16.1135 0.0000 0.0000 0.0000
# 2 7.8351 171.1592 74.4273 0.0000 0.0000 0.0000
# 3 -16.1135 74.4273 125.4912 0.0000 0.0000 0.0000
# 4 0.0000 0.0000 0.0000 19.9397 0.0000 0.0000
# 5 0.0000 0.0000 0.0000 0.0000 24.7198 0.0000
# 6 0.0000 0.0000 0.0000 0.0000 0.0000 5.8285
#
#
#
# Elastic Compliance Matrix: (Units=1/GPa)
#
#
# Indices 1 2 3 4 5 6 
#
# 1 0.081699 -0.011187 0.017125 0.000000 0.000000 0.000000
# 2 -0.011187 0.009405 -0.007014 0.000000 0.000000 0.000000
# 3 0.017125 -0.007014 0.014328 0.000000 0.000000 0.000000
# 4 0.000000 0.000000 0.000000 0.050151 0.000000 0.000000
# 5 0.000000 0.000000 0.000000 0.000000 0.040453 0.000000
# 6 0.000000 0.000000 0.000000 0.000000 0.000000 0.171570
#
#
# Mechanical properties :
#
#
# Convention : Reuss Voigt Hill
#
# Bulk Modulus (GPa) = 9.68248 49.51541 29.59895
# Shear Modulus (GPa) = 12.37061 26.57707 19.47384
#
# Velocity S-wave (km/s) = 2.47571 3.62875 3.10620
# Velocity P-wave (km/s) = 3.60131 6.48767 5.24687
#
# Compressibility (1/GPa) = 0.10327928
#
# Stress axis : x y z
#
# Youngs Moduli (GPa) = 12.24012 106.33036 69.79534
#
# Poissons Ratio (x) = 1.18947 -1.19524
# Poissons Ratio (y) = 0.13692 0.48956
# Poissons Ratio (z) = -0.20961 0.74582
#
# Static dielectric constant tensor:
#      x y z
#    x 1.734870 0.000000 0.000000 
#    y 0.000000 1.764720 0.000000 
#    z 0.000000 0.000000 1.682990 
# 
# From -- ./inp_files/25571.got.cif
#   From: 2010.05.17/outbox.cif.g08.bks.cpg/sg59_13_cif.got.tgz:25571.got - 2010.06.03 14:40:33.
