data_PCOD9450269
_publ_section_title
;
Structure prediction by ZEFSAII (Michael W. Deem and Ramdas Pophale) SiO2 
 PCOD9450269
Probable space group: P M M N
;
_chemical_formula_sum "Si O2"
_cell_formula_units_Z 56
_cell_length_a 19.797335
_cell_length_b 8.657942
_cell_length_c 18.194327
_cell_angle_alpha 90.000000
_cell_angle_beta 90.000000
_cell_angle_gamma 90.000000
_cell_volume 3118.583667
_symmetry_space_group_name_H-M "P M M N"
_symmetry_group_IT_number 59
_space_group.IT_coordinate_system_code '2'
_symmetry_cell_setting 'orthorhombic'
loop_
_space_group_symop_operation_xyz
x,y,z
1/2-x,1/2-y,z
1/2+x,-y,-z
-x,1/2+y,-z
-x,-y,-z
1/2+x,1/2+y,-z
1/2-x,y,z
x,1/2-y,z
loop_
_atom_site_type_symbol
_atom_site_label
_atom_site_fract_x
_atom_site_fract_y
_atom_site_fract_z
Si Si1 0.577522 0.067272 0.291851
Si Si2 0.828802 0.563825 0.585483
Si Si3 0.172083 0.936961 0.999512
Si Si4 0.830005 0.934708 0.418485
Si Si5 0.916441 0.564852 0.131035
Si Si6 0.571107 0.437400 0.873092
Si Si7 0.570073 0.434965 0.705332
O O1 0.577347 0.250000 0.281427
O O2 0.627673 0.019432 0.356592
O O3 0.596306 0.987456 0.214552
O O4 0.502415 0.009305 0.311281
O O5 0.750000 0.523026 0.595661
O O6 0.833833 0.750000 0.590148
O O7 0.848615 0.519721 0.502041
O O8 0.875188 0.488256 0.646714
O O9 0.250000 0.987467 0.005492
O O10 0.171758 0.750000 0.999913
O O11 0.125184 0.991743 0.067271
O O12 0.136663 0.994209 0.925325
O O13 0.750000 0.963038 0.409911
O O14 0.840578 0.750000 0.411823
O O15 0.914198 0.750000 0.127227
O O16 0.993590 0.513908 0.111802
O O17 0.571193 0.250000 0.875484
O O18 0.588074 0.481652 0.789234
O O19 0.563071 0.250000 0.704242
#
# Coordination Sequence:
#
# PCOD9450269 Si02
#       7
#     8   8   8   8   8   8   8
#     4  11  22  36  56  81 108 138 176 222 270 319
#     4   9  19  36  56  79 109 144 180 219 267 319
#     4  10  20  34  53  78 107 136 170 214 261 309
#     4   9  19  37  58  78 105 142 180 220 268 319
#     4  10  20  36  56  76 103 138 176 216 259 313
#     4   8  17  34  54  76 102 136 176 216 259 306
#     4  10  20  35  56  82 110 141 181 223 265 316
#
# _framework density 17.956869999999999
#
# number of rings (size 3 to 8) (size 9 to 14) (size 15 to 20)
#    0.000    2.429    0.000    4.286    0.000    3.143 
#    0.000    6.429    0.000    0.000    0.000    0.000 
#    0.000    0.000    0.000    0.000    0.000    0.000 
#
# Total GULP energy -312515.383717 kJ/mol
# GULP energy per Si atom -5580.631852 kJ/mol
# Density = 1.791600 g / cm^3
# Si number density = 17.956870 Si / 1000 Ang^3
#
#
#
# Elastic Constant Matrix: (Units=GPa)
#
#
# Indices 1 2 3 4 5 6 
#
# 1 80.7036 26.9869 67.4689 0.0000 0.0000 0.0000
# 2 26.9869 27.7532 19.2732 0.0000 0.0000 0.0000
# 3 67.4689 19.2732 86.8344 0.0000 0.0000 0.0000
# 4 0.0000 0.0000 0.0000 25.5647 0.0000 0.0000
# 5 0.0000 0.0000 0.0000 0.0000 80.4897 0.0000
# 6 0.0000 0.0000 0.0000 0.0000 0.0000 25.5918
#
#
#
# Elastic Compliance Matrix: (Units=1/GPa)
#
#
# Indices 1 2 3 4 5 6 
#
# 1 0.045177 -0.023116 -0.029971 0.000000 0.000000 0.000000
# 2 -0.023116 0.054426 0.005881 0.000000 0.000000 0.000000
# 3 -0.029971 0.005881 0.033498 0.000000 0.000000 0.000000
# 4 0.000000 0.000000 0.000000 0.039116 0.000000 0.000000
# 5 0.000000 0.000000 0.000000 0.000000 0.012424 0.000000
# 6 0.000000 0.000000 0.000000 0.000000 0.000000 0.039075
#
#
# Mechanical properties :
#
#
# Convention : Reuss Voigt Hill
#
# Bulk Modulus (GPa) = 25.84781 46.97214 36.40998
# Shear Modulus (GPa) = 15.10457 31.76673 23.43565
#
# Velocity S-wave (km/s) = 2.90342 4.21058 3.61655
# Velocity P-wave (km/s) = 5.06611 7.06072 6.14488
#
# Compressibility (1/GPa) = 0.03868799
#
# Stress axis : x y z
#
# Youngs Moduli (GPa) = 22.13503 18.37362 29.85248
#
# Poissons Ratio (x) = 0.42473 0.89472
# Poissons Ratio (y) = 0.51168 -0.17556
# Poissons Ratio (z) = 0.66341 -0.10806
#
# Static dielectric constant tensor:
#      x y z
#    x 1.595150 0.000000 0.000000 
#    y 0.000000 1.607490 0.000000 
#    z 0.000000 0.000000 1.599510 
# 
# From -- ./inp_files/24250.got.cif
#   From: 2010.05.17/outbox.cif.g08.bks.cpg/sg59_13_cif.got.tgz:24250.got - 2010.06.03 14:40:33.
