data_PCOD9450641
_publ_section_title
;
Structure prediction by ZEFSAII (Michael W. Deem and Ramdas Pophale) SiO2 
 PCOD9450641
Probable space group: P M M N
;
_chemical_formula_sum "Si O2"
_cell_formula_units_Z 56
_cell_length_a 14.072373
_cell_length_b 13.619363
_cell_length_c 11.845130
_cell_angle_alpha 90.000000
_cell_angle_beta 90.000000
_cell_angle_gamma 90.000000
_cell_volume 2270.199192
_symmetry_space_group_name_H-M "P M M N"
_symmetry_group_IT_number 59
_space_group.IT_coordinate_system_code '2'
_symmetry_cell_setting 'orthorhombic'
loop_
_space_group_symop_operation_xyz
x,y,z
1/2-x,1/2-y,z
1/2+x,-y,-z
-x,1/2+y,-z
-x,-y,-z
1/2+x,1/2+y,-z
1/2-x,y,z
x,1/2-y,z
loop_
_atom_site_type_symbol
_atom_site_label
_atom_site_fract_x
_atom_site_fract_y
_atom_site_fract_z
Si Si1 0.357736 0.637332 0.336700
Si Si2 0.145965 0.865003 0.607753
Si Si3 0.637649 0.860900 0.402369
Si Si4 0.459436 0.866598 0.997519
Si Si5 0.569833 0.990963 0.826124
Si Si6 0.933032 0.632246 0.640371
Si Si7 0.646716 0.866933 0.151864
O O1 0.250000 0.608073 0.304614
O O2 0.371168 0.750000 0.302333
O O3 0.362084 0.632603 0.471582
O O4 0.433981 0.571926 0.273805
O O5 0.250000 0.908733 0.637470
O O6 0.150966 0.750000 0.639866
O O7 0.043754 0.897308 0.651666
O O8 0.750000 0.852039 0.421847
O O9 0.595173 0.750000 0.397202
O O10 0.599051 0.906779 0.517764
O O11 0.630577 0.906660 0.278177
O O12 0.435738 0.750000 0.985323
O O13 0.557966 0.874675 0.069136
O O14 0.392359 0.938039 0.072591
O O15 0.486847 0.925386 0.884503
O O16 0.621867 0.908341 0.749860
O O17 0.925230 0.750000 0.638315
O O18 0.750000 0.902469 0.109415
O O19 0.655726 0.750000 0.168773
#
# Coordination Sequence:
#
# PCOD9450641 Si02
#       7
#     8   8   8   8   8   8   8
#     4   9  19  37  59  83 114 150 190 238 288 345
#     4   8  16  33  56  82 115 157 198 236 286 351
#     4   8  15  29  50  80 117 152 184 222 281 357
#     4  10  22  40  58  77 108 149 192 243 295 342
#     4  11  23  36  56  85 112 145 194 244 295 358
#     4  10  20  34  56  85 121 157 191 239 302 362
#     4   8  15  31  55  78 102 140 187 226 269 336
#
# _framework density 24.667438000000001
#
# number of rings (size 3 to 8) (size 9 to 14) (size 15 to 20)
#    0.000    2.857    0.000    2.571    2.000    1.714 
#    0.000    0.714    0.000    5.143    0.000    8.000 
#    0.000    0.000    0.000    0.000    0.000    0.000 
#
# Total GULP energy -311837.747766 kJ/mol
# GULP energy per Si atom -5568.531210 kJ/mol
# Density = 2.461129 g / cm^3
# Si number density = 24.667438 Si / 1000 Ang^3
#
#
#
# Elastic Constant Matrix: (Units=GPa)
#
#
# Indices 1 2 3 4 5 6 
#
# 1 98.1917 21.0182 35.5245 0.0000 0.0000 0.0000
# 2 21.0182 117.6089 6.7529 0.0000 0.0000 0.0000
# 3 35.5245 6.7529 92.4213 0.0000 0.0000 0.0000
# 4 0.0000 0.0000 0.0000 9.5299 0.0000 0.0000
# 5 0.0000 0.0000 0.0000 0.0000 6.1200 0.0000
# 6 0.0000 0.0000 0.0000 0.0000 0.0000 18.4561
#
#
#
# Elastic Compliance Matrix: (Units=1/GPa)
#
#
# Indices 1 2 3 4 5 6 
#
# 1 0.012249 -0.001927 -0.004567 0.000000 0.000000 0.000000
# 2 -0.001927 0.008842 0.000095 0.000000 0.000000 0.000000
# 3 -0.004567 0.000095 0.012569 0.000000 0.000000 0.000000
# 4 0.000000 0.000000 0.000000 0.104933 0.000000 0.000000
# 5 0.000000 0.000000 0.000000 0.000000 0.163399 0.000000
# 6 0.000000 0.000000 0.000000 0.000000 0.000000 0.054183
#
#
# Mechanical properties :
#
#
# Convention : Reuss Voigt Hill
#
# Bulk Modulus (GPa) = 47.93839 48.31255 48.12547
# Shear Modulus (GPa) = 13.30047 23.14962 18.22504
#
# Velocity S-wave (km/s) = 2.32457 3.06677 2.72109
# Velocity P-wave (km/s) = 5.16535 5.67170 5.42444
#
# Compressibility (1/GPa) = 0.02086011
#
# Stress axis : x y z
#
# Youngs Moduli (GPa) = 81.63903 113.10078 79.56265
#
# Poissons Ratio (x) = 0.21792 0.36340
# Poissons Ratio (y) = 0.15730 -0.00753
# Poissons Ratio (z) = 0.37288 -0.01070
#
# Static dielectric constant tensor:
#      x y z
#    x 2.074180 0.000000 0.000000 
#    y 0.000000 2.035700 0.000000 
#    z 0.000000 0.000000 1.958050 
# 
# From -- ./inp_files/16966.got.cif
#   From: 2010.05.17/outbox.cif.g08.bks.cpg/sg59_9_cif.got.tgz:16966.got - 2010.06.03 14:40:33.
