data_PCOD9450457
_publ_section_title
;
Structure prediction by ZEFSAII (Michael W. Deem and Ramdas Pophale) SiO2 
 PCOD9450457
Probable space group: P M M N
;
_chemical_formula_sum "Si O2"
_cell_formula_units_Z 40
_cell_length_a 26.004237
_cell_length_b 8.889721
_cell_length_c 9.417503
_cell_angle_alpha 90.000000
_cell_angle_beta 90.000000
_cell_angle_gamma 90.000000
_cell_volume 2177.048046
_symmetry_space_group_name_H-M "P M M N"
_symmetry_group_IT_number 59
_space_group.IT_coordinate_system_code '2'
_symmetry_cell_setting 'orthorhombic'
loop_
_space_group_symop_operation_xyz
x,y,z
1/2-x,1/2-y,z
1/2+x,-y,-z
-x,1/2+y,-z
-x,-y,-z
1/2+x,1/2+y,-z
1/2-x,y,z
x,1/2-y,z
loop_
_atom_site_type_symbol
_atom_site_label
_atom_site_fract_x
_atom_site_fract_y
_atom_site_fract_z
Si Si1 0.941378 0.569719 0.853304
Si Si2 0.250000 0.431652 0.847245
Si Si3 0.349872 0.068774 0.662682
Si Si4 0.750000 0.070707 0.839810
Si Si5 0.843813 0.568846 0.665812
Si Si6 0.059357 0.570324 0.840094
O O1 0.940360 0.750000 0.877005
O O2 0.899026 0.533985 0.735462
O O3 0.999716 0.528459 0.811462
O O4 0.928665 0.490235 0.001990
O O5 0.250000 0.250000 0.863732
O O6 0.199308 0.473639 0.757958
O O7 0.250000 0.506014 0.001022
O O8 0.354022 0.250000 0.666188
O O9 0.342084 0.024348 0.499037
O O10 0.400986 0.999728 0.729883
O O11 0.750000 0.250000 0.843390
O O12 0.700285 0.009873 0.756506
O O13 0.836252 0.750000 0.673727
O O14 0.063440 0.750000 0.838082
#
# Coordination Sequence:
#
# PCOD9450457 Si02
#       6
#     8   4   8   4   8   8
#     4   9  19  36  57  80 108 146 189 227 265 318
#     4  10  21  38  58  78 104 140 181 220 262 320
#     4  10  21  37  58  82 107 141 184 225 267 321
#     4  12  25  38  56  84 112 138 175 224 276 322
#     4  10  21  39  60  80 107 145 186 223 264 322
#     4  10  20  34  54  82 114 145 180 226 276 321
#
# _framework density 18.373502999999999
#
# number of rings (size 3 to 8) (size 9 to 14) (size 15 to 20)
#    0.000    2.000    0.000    3.300    0.000   10.400 
#    0.000    1.000    0.000    0.000    0.000    0.000 
#    0.000    0.000    0.000    0.000    0.000    0.000 
#
# Total GULP energy -223461.840407 kJ/mol
# GULP energy per Si atom -5586.546010 kJ/mol
# Density = 1.833168 g / cm^3
# Si number density = 18.373503 Si / 1000 Ang^3
#
#
#
# Elastic Constant Matrix: (Units=GPa)
#
#
# Indices 1 2 3 4 5 6 
#
# 1 125.1063 49.1023 116.4493 0.0000 0.0000 0.0000
# 2 49.1023 27.4090 59.1697 0.0000 0.0000 0.0000
# 3 116.4493 59.1697 195.0841 0.0000 0.0000 0.0000
# 4 0.0000 0.0000 0.0000 15.4022 0.0000 0.0000
# 5 0.0000 0.0000 0.0000 0.0000 -20.2172 0.0000
# 6 0.0000 0.0000 0.0000 0.0000 0.0000 31.1503
#
#
#
# Elastic Compliance Matrix: (Units=1/GPa)
#
#
# Indices 1 2 3 4 5 6 
#
# 1 0.028153 -0.041006 -0.004368 0.000000 0.000000 0.000000
# 2 -0.041006 0.165407 -0.025691 0.000000 0.000000 0.000000
# 3 -0.004368 -0.025691 0.015525 0.000000 0.000000 0.000000
# 4 0.000000 0.000000 0.000000 0.064926 0.000000 0.000000
# 5 0.000000 0.000000 0.000000 0.000000 -0.049463 0.000000
# 6 0.000000 0.000000 0.000000 0.000000 0.000000 0.032102
#
#
# Mechanical properties :
#
#
# Convention : Reuss Voigt Hill
#
# Bulk Modulus (GPa) = 14.93536 88.56022 51.74779
# Shear Modulus (GPa) = 11.87368 13.45893 12.66631
#
# Velocity S-wave (km/s) = 2.54488 2.70944 2.62845
# Velocity P-wave (km/s) = 4.09654 7.62186 6.11859
#
# Compressibility (1/GPa) = 0.06695520
#
# Stress axis : x y z
#
# Youngs Moduli (GPa) = 35.52028 6.04569 64.41064
#
# Poissons Ratio (x) = 0.24791 0.28132
# Poissons Ratio (y) = 1.45655 1.65479
# Poissons Ratio (z) = 0.15514 0.15532
#
# Static dielectric constant tensor:
#      x y z
#    x 1.623500 0.000000 0.000000 
#    y 0.000000 1.613500 0.000000 
#    z 0.000000 0.000000 1.595530 
# 
# From -- ./inp_files/12418.got.cif
#   From: 2010.05.17/outbox.cif.g08.bks.cpg/sg59_7_cif.got.tgz:12418.got - 2010.06.03 14:40:33.
