data_PCOD9450300
_publ_section_title
;
Structure prediction by ZEFSAII (Michael W. Deem and Ramdas Pophale) SiO2 
 PCOD9450300
Probable space group: P M M N
;
_chemical_formula_sum "Si O2"
_cell_formula_units_Z 56
_cell_length_a 8.825671
_cell_length_b 21.535252
_cell_length_c 16.986411
_cell_angle_alpha 90.000000
_cell_angle_beta 90.000000
_cell_angle_gamma 90.000000
_cell_volume 3228.489067
_symmetry_space_group_name_H-M "P M M N"
_symmetry_group_IT_number 59
_space_group.IT_coordinate_system_code '2'
_symmetry_cell_setting 'orthorhombic'
loop_
_space_group_symop_operation_xyz
x,y,z
1/2-x,1/2-y,z
1/2+x,-y,-z
-x,1/2+y,-z
-x,-y,-z
1/2+x,1/2+y,-z
1/2-x,y,z
x,1/2-y,z
loop_
_atom_site_type_symbol
_atom_site_label
_atom_site_fract_x
_atom_site_fract_y
_atom_site_fract_z
Si Si1 0.424095 0.176415 0.354232
Si Si2 0.931126 0.477255 0.625043
Si Si3 0.069114 0.179040 0.042687
Si Si4 0.569634 0.093354 0.470176
Si Si5 0.930859 0.439762 0.955465
Si Si6 0.570095 0.519113 0.203774
Si Si7 0.927896 0.128174 0.197238
O O1 0.250000 0.155385 0.347148
O O2 0.428907 0.250000 0.346389
O O3 0.492106 0.154586 0.436965
O O4 0.521278 0.146825 0.284277
O O5 0.750000 0.484763 0.632850
O O6 0.960870 0.423368 0.560892
O O7 0.001318 0.538262 0.583859
O O8 0.005216 0.467218 0.709728
O O9 0.250000 0.173636 0.034084
O O10 0.025044 0.250000 0.021918
O O11 0.023107 0.165619 0.132971
O O12 0.990058 0.124196 0.993578
O O13 0.750000 0.095061 0.458906
O O14 0.750000 0.442740 0.961984
O O15 0.985191 0.444740 0.865381
O O16 0.000000 0.500000 0.000000
O O17 0.750000 0.531007 0.201036
O O18 0.547183 0.445497 0.187867
O O19 0.750000 0.140737 0.185795
#
# Coordination Sequence:
#
# PCOD9450300 Si02
#       7
#     8   8   8   8   8   8   8
#     4  11  23  36  52  77 111 151 190 228 275 331
#     4  10  20  34  55  81 109 141 178 226 278 327
#     4  11  24  41  61  85 116 154 194 237 287 345
#     4  10  20  34  53  79 108 142 183 223 271 326
#     4  12  24  39  61  87 116 152 193 239 290 342
#     4  11  22  36  57  86 117 149 187 234 286 337
#     4  11  22  35  55  83 115 152 191 231 280 338
#
# _framework density 17.345576000000001
#
# number of rings (size 3 to 8) (size 9 to 14) (size 15 to 20)
#    0.000    1.143    2.857    4.286    0.000    6.857 
#    0.000    0.000    0.000    0.857    0.000    4.000 
#    0.000    0.000    0.000    0.000    0.000    0.000 
#
# Total GULP energy -312925.656086 kJ/mol
# GULP energy per Si atom -5587.958144 kJ/mol
# Density = 1.730610 g / cm^3
# Si number density = 17.345576 Si / 1000 Ang^3
#
#
#
# Elastic Constant Matrix: (Units=GPa)
#
#
# Indices 1 2 3 4 5 6 
#
# 1 81.9225 43.4381 39.9924 0.0000 0.0000 0.0000
# 2 43.4381 76.6032 39.2943 0.0000 0.0000 0.0000
# 3 39.9924 39.2943 102.9782 0.0000 0.0000 0.0000
# 4 0.0000 0.0000 0.0000 20.9204 0.0000 0.0000
# 5 0.0000 0.0000 0.0000 0.0000 33.7409 0.0000
# 6 0.0000 0.0000 0.0000 0.0000 0.0000 25.0456
#
#
#
# Elastic Compliance Matrix: (Units=1/GPa)
#
#
# Indices 1 2 3 4 5 6 
#
# 1 0.018690 -0.008548 -0.003997 0.000000 0.000000 0.000000
# 2 -0.008548 0.020141 -0.004366 0.000000 0.000000 0.000000
# 3 -0.003997 -0.004366 0.012929 0.000000 0.000000 0.000000
# 4 0.000000 0.000000 0.000000 0.047800 0.000000 0.000000
# 5 0.000000 0.000000 0.000000 0.000000 0.029638 0.000000
# 6 0.000000 0.000000 0.000000 0.000000 0.000000 0.039927
#
#
# Mechanical properties :
#
#
# Convention : Reuss Voigt Hill
#
# Bulk Modulus (GPa) = 55.74459 56.32816 56.03638
# Shear Modulus (GPa) = 23.93192 25.19330 24.56261
#
# Velocity S-wave (km/s) = 3.71848 3.81522 3.76716
# Velocity P-wave (km/s) = 7.11643 7.20780 7.16226
#
# Compressibility (1/GPa) = 0.01793896
#
# Stress axis : x y z
#
# Youngs Moduli (GPa) = 53.50366 49.64997 77.34695
#
# Poissons Ratio (x) = 0.42442 0.30913
# Poissons Ratio (y) = 0.45736 0.33767
# Poissons Ratio (z) = 0.21384 0.21675
#
# Static dielectric constant tensor:
#      x y z
#    x 1.583590 0.000000 0.000000 
#    y 0.000000 1.585700 0.000000 
#    z 0.000000 0.000000 1.578460 
# 
# From -- ./inp_files/20987.got.cif
#   From: 2010.05.17/outbox.cif.g08.bks.cpg/sg59_11_cif.got.tgz:20987.got - 2010.06.03 14:40:33.
