data_PCOD9450731
_publ_section_title
;
Structure prediction by ZEFSAII (Michael W. Deem and Ramdas Pophale) SiO2 
 PCOD9450731
Probable space group: P M M N
;
_chemical_formula_sum "Si O2"
_cell_formula_units_Z 64
_cell_length_a 20.027407
_cell_length_b 7.603324
_cell_length_c 21.169470
_cell_angle_alpha 90.000000
_cell_angle_beta 90.000000
_cell_angle_gamma 90.000000
_cell_volume 3223.578172
_symmetry_space_group_name_H-M "P M M N"
_symmetry_group_IT_number 59
_space_group.IT_coordinate_system_code '2'
_symmetry_cell_setting 'orthorhombic'
loop_
_space_group_symop_operation_xyz
x,y,z
1/2-x,1/2-y,z
1/2+x,-y,-z
-x,1/2+y,-z
-x,-y,-z
1/2+x,1/2+y,-z
1/2-x,y,z
x,1/2-y,z
loop_
_atom_site_type_symbol
_atom_site_label
_atom_site_fract_x
_atom_site_fract_y
_atom_site_fract_z
Si Si1 0.074880 0.033601 0.792139
Si Si2 0.945977 0.960427 0.349271
Si Si3 0.577592 0.961043 0.484736
Si Si4 0.600655 0.537633 0.619774
Si Si5 0.674819 0.958067 0.101421
Si Si6 0.675802 0.537669 0.741803
Si Si7 0.922517 0.040928 0.986322
Si Si8 0.567102 0.459175 0.847166
O O1 0.074479 0.250000 0.791549
O O2 0.077028 0.974277 0.719219
O O3 0.134483 0.973039 0.837610
O O4 0.004678 0.974705 0.823064
O O5 0.936786 0.750000 0.348614
O O6 0.911064 0.029052 0.413616
O O7 0.025223 0.992964 0.358399
O O8 0.586347 0.750000 0.482513
O O9 0.613496 0.027040 0.548267
O O10 0.500000 0.000000 0.500000
O O11 0.604222 0.750000 0.617822
O O12 0.650412 0.473788 0.673639
O O13 0.750000 0.029596 0.093301
O O14 0.681072 0.750000 0.111946
O O15 0.627696 0.976530 0.040123
O O16 0.750000 0.474051 0.756418
O O17 0.677357 0.750000 0.739216
O O18 0.622338 0.488998 0.794438
O O19 0.914447 0.250000 0.986356
O O20 0.910784 0.970715 0.915444
O O21 0.000000 0.000000 0.000000
O O22 0.558297 0.250000 0.854957
#
# Coordination Sequence:
#
# PCOD9450731 Si02
#       8
#     8   8   8   8   8   8   8   8
#     4   9  16  30  51  75 101 128 162 203 249 297
#     4   9  15  25  45  69  93 121 157 201 245 287
#     4   8  14  23  38  63  90 118 151 194 242 287
#     4   9  16  27  42  62  93 125 159 200 245 292
#     4  10  21  38  58  79 106 139 171 205 253 309
#     4  10  21  34  47  67  98 135 172 208 249 301
#     4  11  22  37  58  81 107 135 170 211 254 305
#     4  10  20  35  54  74  98 128 165 209 252 296
#
# _framework density 19.853712999999999
#
# number of rings (size 3 to 8) (size 9 to 14) (size 15 to 20)
#    0.000    2.500    2.500    0.375    0.000    2.000 
#    0.000    3.125    0.000    0.750    0.000    5.250 
#    0.000    0.000    0.000   10.375    0.000   10.000 
#
# Total GULP energy -356770.177189 kJ/mol
# GULP energy per Si atom -5574.534019 kJ/mol
# Density = 1.980853 g / cm^3
# Si number density = 19.853713 Si / 1000 Ang^3
#
#
#
# Elastic Constant Matrix: (Units=GPa)
#
#
# Indices 1 2 3 4 5 6 
#
# 1 117.4124 -2.1563 80.6268 0.0000 0.0000 0.0000
# 2 -2.1563 40.6238 6.7052 0.0000 0.0000 0.0000
# 3 80.6268 6.7052 199.1562 0.0000 0.0000 0.0000
# 4 0.0000 0.0000 0.0000 11.4390 0.0000 0.0000
# 5 0.0000 0.0000 0.0000 0.0000 16.6522 0.0000
# 6 0.0000 0.0000 0.0000 0.0000 0.0000 11.4496
#
#
#
# Elastic Compliance Matrix: (Units=1/GPa)
#
#
# Indices 1 2 3 4 5 6 
#
# 1 0.011879 0.001432 -0.004857 0.000000 0.000000 0.000000
# 2 0.001432 0.024926 -0.001419 0.000000 0.000000 0.000000
# 3 -0.004857 -0.001419 0.007035 0.000000 0.000000 0.000000
# 4 0.000000 0.000000 0.000000 0.087420 0.000000 0.000000
# 5 0.000000 0.000000 0.000000 0.000000 0.060052 0.000000
# 6 0.000000 0.000000 0.000000 0.000000 0.000000 0.087339
#
#
# Mechanical properties :
#
#
# Convention : Reuss Voigt Hill
#
# Bulk Modulus (GPa) = 29.28054 58.61598 43.94826
# Shear Modulus (GPa) = 16.68198 26.04259 21.36228
#
# Velocity S-wave (km/s) = 2.90184 3.62570 3.28378
# Velocity P-wave (km/s) = 5.09978 6.86408 6.04663
#
# Compressibility (1/GPa) = 0.03415237
#
# Stress axis : x y z
#
# Youngs Moduli (GPa) = 84.18398 40.11817 142.13883
#
# Poissons Ratio (x) = -0.05746 0.69040
# Poissons Ratio (y) = -0.12057 0.20170
# Poissons Ratio (z) = 0.40890 0.05693
#
# Static dielectric constant tensor:
#      x y z
#    x 1.666360 0.000000 0.000000 
#    y 0.000000 2.071840 0.000000 
#    z 0.000000 0.000000 1.745400 
# 
# From -- ./inp_files/29670.got.cif
#   From: 2010.05.17/outbox.cif.g08.bks.cpg/sg59_15_cif.got.tgz:29670.got - 2010.06.03 14:40:33.
