data_PCOD9450989
_publ_section_title
;
Structure prediction by ZEFSAII (Michael W. Deem and Ramdas Pophale) SiO2 
 PCOD9450989
Probable space group: P M M N
;
_chemical_formula_sum "Si O2"
_cell_formula_units_Z 40
_cell_length_a 8.405987
_cell_length_b 9.316630
_cell_length_c 26.693574
_cell_angle_alpha 90.000000
_cell_angle_beta 90.000000
_cell_angle_gamma 90.000000
_cell_volume 2090.519812
_symmetry_space_group_name_H-M "P M M N"
_symmetry_group_IT_number 59
_space_group.IT_coordinate_system_code '2'
_symmetry_cell_setting 'orthorhombic'
loop_
_space_group_symop_operation_xyz
x,y,z
1/2-x,1/2-y,z
1/2+x,-y,-z
-x,1/2+y,-z
-x,-y,-z
1/2+x,1/2+y,-z
1/2-x,y,z
x,1/2-y,z
loop_
_atom_site_type_symbol
_atom_site_label
_atom_site_fract_x
_atom_site_fract_y
_atom_site_fract_z
Si Si1 0.944416 0.415197 0.745752
Si Si2 0.059935 0.584496 0.951898
Si Si3 0.557390 0.584251 0.646280
Si Si4 0.558063 0.583686 0.844437
Si Si5 0.559273 0.915709 0.451229
O O1 0.750000 0.415816 0.745944
O O2 0.995721 0.250000 0.742429
O O3 0.994842 0.506217 0.697379
O O4 0.996406 0.490226 0.797282
O O5 0.250000 0.582614 0.951369
O O6 0.004656 0.750000 0.955462
O O7 0.998749 0.528321 0.898374
O O8 0.000000 0.500000 0.000000
O O9 0.750000 0.584250 0.645884
O O10 0.504630 0.750000 0.644597
O O11 0.499382 0.496608 0.598321
O O12 0.750000 0.583692 0.844372
O O13 0.505205 0.750000 0.839016
O O14 0.750000 0.915134 0.451656
O O15 0.503582 0.750000 0.451775
O O16 0.500000 0.000000 0.500000
#
# Coordination Sequence:
#
# PCOD9450989 Si02
#       5
#     8   8   8   8   8
#     4   9  17  30  51  79 108 139 177 220 265 313
#     4  10  21  36  54  77 105 138 177 220 267 320
#     4  10  20  35  57  84 112 144 183 223 264 314
#     4   9  17  31  51  74 102 137 176 218 264 315
#     4  11  24  40  58  82 111 143 181 224 270 321
#
# _framework density 19.133997999999998
#
# number of rings (size 3 to 8) (size 9 to 14) (size 15 to 20)
#    0.000    2.200    0.000    3.000    0.000    9.600 
#    0.000    3.000    0.000    3.600    0.000    0.000 
#    0.000    0.000    0.000    0.000    0.000    0.000 
#
# Total GULP energy -223379.460071 kJ/mol
# GULP energy per Si atom -5584.486502 kJ/mol
# Density = 1.909045 g / cm^3
# Si number density = 19.133998 Si / 1000 Ang^3
#
#
#
# Elastic Constant Matrix: (Units=GPa)
#
#
# Indices 1 2 3 4 5 6 
#
# 1 11.2551 22.5764 24.7520 0.0000 0.0000 0.0000
# 2 22.5764 164.4139 124.8764 0.0000 0.0000 0.0000
# 3 24.7520 124.8764 231.5910 0.0000 0.0000 0.0000
# 4 0.0000 0.0000 0.0000 42.5032 0.0000 0.0000
# 5 0.0000 0.0000 0.0000 0.0000 29.7597 0.0000
# 6 0.0000 0.0000 0.0000 0.0000 0.0000 19.5606
#
#
#
# Elastic Compliance Matrix: (Units=1/GPa)
#
#
# Indices 1 2 3 4 5 6 
#
# 1 0.129331 -0.012296 -0.007192 0.000000 0.000000 0.000000
# 2 -0.012296 0.011470 -0.004871 0.000000 0.000000 0.000000
# 3 -0.007192 -0.004871 0.007713 0.000000 0.000000 0.000000
# 4 0.000000 0.000000 0.000000 0.023528 0.000000 0.000000
# 5 0.000000 0.000000 0.000000 0.000000 0.033602 0.000000
# 6 0.000000 0.000000 0.000000 0.000000 0.000000 0.051123
#
#
# Mechanical properties :
#
#
# Convention : Reuss Voigt Hill
#
# Bulk Modulus (GPa) = 10.02050 83.51885 46.76968
# Shear Modulus (GPa) = 14.76013 34.03504 24.39759
#
# Velocity S-wave (km/s) = 2.78044 4.22213 3.57472
# Velocity P-wave (km/s) = 3.94413 8.21661 6.44472
#
# Compressibility (1/GPa) = 0.09979542
#
# Stress axis : x y z
#
# Youngs Moduli (GPa) = 7.73211 87.18440 129.65290
#
# Poissons Ratio (x) = 1.07204 0.93251
# Poissons Ratio (y) = 0.09508 0.63148
# Poissons Ratio (z) = 0.05561 0.42463
#
# Static dielectric constant tensor:
#      x y z
#    x 1.664740 0.000000 0.000000 
#    y 0.000000 1.659960 0.000000 
#    z 0.000000 0.000000 1.631140 
# 
# From -- ./inp_files/31124.got.cif
#   From: 2010.05.17/outbox.cif.g08.bks.cpg/sg59_16_cif.got.tgz:31124.got - 2010.06.03 14:40:33.
