data_PCOD9450509
_publ_section_title
;
Structure prediction by ZEFSAII (Michael W. Deem and Ramdas Pophale) SiO2 
 PCOD9450509
Probable space group: P M M N
;
_chemical_formula_sum "Si O2"
_cell_formula_units_Z 48
_cell_length_a 17.368617
_cell_length_b 9.506059
_cell_length_c 15.536205
_cell_angle_alpha 90.000000
_cell_angle_beta 90.000000
_cell_angle_gamma 90.000000
_cell_volume 2565.137721
_symmetry_space_group_name_H-M "P M M N"
_symmetry_group_IT_number 59
_space_group.IT_coordinate_system_code '2'
_symmetry_cell_setting 'orthorhombic'
loop_
_space_group_symop_operation_xyz
x,y,z
1/2-x,1/2-y,z
1/2+x,-y,-z
-x,1/2+y,-z
-x,-y,-z
1/2+x,1/2+y,-z
1/2-x,y,z
x,1/2-y,z
loop_
_atom_site_type_symbol
_atom_site_label
_atom_site_fract_x
_atom_site_fract_y
_atom_site_fract_z
Si Si1 0.434974 0.414149 0.836704
Si Si2 0.338297 0.583575 0.973630
Si Si3 0.121521 0.086590 0.334827
Si Si4 0.120524 0.913655 0.166804
Si Si5 0.838027 0.414209 0.497151
Si Si6 0.064126 0.914012 0.667690
O O1 0.414468 0.250000 0.835648
O O2 0.395157 0.493053 0.915703
O O3 0.527774 0.424176 0.842506
O O4 0.412000 0.491018 0.748157
O O5 0.250000 0.563866 0.945688
O O6 0.357350 0.750000 0.966452
O O7 0.345182 0.546807 0.074477
O O8 0.143533 0.250000 0.334238
O O9 0.028241 0.077965 0.340221
O O10 0.144899 0.009485 0.246622
O O11 0.152783 0.006392 0.417868
O O12 0.139651 0.750000 0.184467
O O13 0.750000 0.423144 0.466165
O O14 0.854272 0.250000 0.518022
O O15 0.895308 0.457883 0.420879
O O16 0.084382 0.750000 0.683620
#
# Coordination Sequence:
#
# PCOD9450509 Si02
#       6
#     8   8   8   8   8   8
#     4  10  20  34  55  81 107 136 172 219 268 310
#     4  10  21  36  54  76 104 140 178 215 258 312
#     4  10  20  34  55  81 107 136 172 219 268 310
#     4   9  19  36  56  78 105 139 179 217 256 310
#     4  10  21  36  54  76 104 140 178 215 258 312
#     4   9  19  36  56  78 105 139 179 217 256 310
#
# _framework density 18.712444999999999
#
# number of rings (size 3 to 8) (size 9 to 14) (size 15 to 20)
#    0.000    2.333    0.000    2.000    0.000    4.667 
#    0.000    3.333    0.000    0.000    0.000    0.000 
#    0.000    0.000    0.000    0.000    0.000    0.000 
#
# Total GULP energy -268041.189862 kJ/mol
# GULP energy per Si atom -5584.191455 kJ/mol
# Density = 1.866985 g / cm^3
# Si number density = 18.712445 Si / 1000 Ang^3
#
#
#
# Elastic Constant Matrix: (Units=GPa)
#
#
# Indices 1 2 3 4 5 6 
#
# 1 24.3998 23.7318 22.4603 0.0000 0.0000 0.0000
# 2 23.7318 64.0731 46.0243 0.0000 0.0000 0.0000
# 3 22.4603 46.0243 84.8037 0.0000 0.0000 0.0000
# 4 0.0000 0.0000 0.0000 28.5261 0.0000 0.0000
# 5 0.0000 0.0000 0.0000 0.0000 -53.0741 0.0000
# 6 0.0000 0.0000 0.0000 0.0000 0.0000 9.1057
#
#
#
# Elastic Compliance Matrix: (Units=1/GPa)
#
#
# Indices 1 2 3 4 5 6 
#
# 1 0.066474 -0.019625 -0.006955 0.000000 0.000000 0.000000
# 2 -0.019625 0.031373 -0.011829 0.000000 0.000000 0.000000
# 3 -0.006955 -0.011829 0.020054 0.000000 0.000000 0.000000
# 4 0.000000 0.000000 0.000000 0.035056 0.000000 0.000000
# 5 0.000000 0.000000 0.000000 0.000000 -0.018842 0.000000
# 6 0.000000 0.000000 0.000000 0.000000 0.000000 0.109821
#
#
# Mechanical properties :
#
#
# Convention : Reuss Voigt Hill
#
# Bulk Modulus (GPa) = 24.34111 39.74548 32.04330
# Shear Modulus (GPa) = 14.95002 2.31556 8.63279
#
# Velocity S-wave (km/s) = 2.82961 1.11361 2.15021
# Velocity P-wave (km/s) = 4.86948 4.78955 4.82968
#
# Compressibility (1/GPa) = 0.04108276
#
# Stress axis : x y z
#
# Youngs Moduli (GPa) = 15.04347 31.87466 49.86656
#
# Poissons Ratio (x) = 0.62556 0.34680
# Poissons Ratio (y) = 0.29524 0.58986
# Poissons Ratio (z) = 0.10462 0.37704
#
# Static dielectric constant tensor:
#      x y z
#    x 1.643650 0.000000 0.000000 
#    y 0.000000 1.626820 0.000000 
#    z 0.000000 0.000000 1.610460 
# 
# From -- ./inp_files/20284.got.cif
#   From: 2010.05.17/outbox.cif.g08.bks.cpg/sg59_11_cif.got.tgz:20284.got - 2010.06.03 14:40:33.
