data_PCOD9450091
_publ_section_title
;
Structure prediction by ZEFSAII (Michael W. Deem and Ramdas Pophale) SiO2 
 PCOD9450091
Probable space group: P M M N
;
_chemical_formula_sum "Si O2"
_cell_formula_units_Z 64
_cell_length_a 8.667097
_cell_length_b 20.580715
_cell_length_c 20.613705
_cell_angle_alpha 90.000000
_cell_angle_beta 90.000000
_cell_angle_gamma 90.000000
_cell_volume 3676.970727
_symmetry_space_group_name_H-M "P M M N"
_symmetry_group_IT_number 59
_space_group.IT_coordinate_system_code '2'
_symmetry_cell_setting 'orthorhombic'
loop_
_space_group_symop_operation_xyz
x,y,z
1/2-x,1/2-y,z
1/2+x,-y,-z
-x,1/2+y,-z
-x,-y,-z
1/2+x,1/2+y,-z
1/2-x,y,z
x,1/2-y,z
loop_
_atom_site_type_symbol
_atom_site_label
_atom_site_fract_x
_atom_site_fract_y
_atom_site_fract_z
Si Si1 0.564004 0.325004 0.075028
Si Si2 0.937456 0.572631 0.322491
Si Si3 0.065122 0.924244 0.681457
Si Si4 0.933504 0.572213 0.823878
Si Si5 0.935969 0.674548 0.576545
Si Si6 0.438223 0.175758 0.571747
Si Si7 0.934990 0.570694 0.174353
Si Si8 0.936055 0.175413 0.924922
O O1 0.750000 0.329890 0.079592
O O2 0.522274 0.250000 0.089627
O O3 0.488868 0.375344 0.123940
O O4 0.521332 0.337949 0.999939
O O5 0.750000 0.574496 0.324094
O O6 0.982974 0.498161 0.336326
O O7 0.993709 0.624178 0.375319
O O8 0.983444 0.587583 0.248368
O O9 0.250000 0.923147 0.686228
O O10 0.996866 0.910198 0.752474
O O11 0.009137 0.873541 0.628193
O O12 0.750000 0.569429 0.821996
O O13 0.999022 0.500749 0.840279
O O14 0.750000 0.669484 0.579944
O O15 0.976239 0.750000 0.589278
O O16 0.983122 0.659606 0.502226
O O17 0.250000 0.175427 0.572697
O O18 0.485868 0.250000 0.585985
O O19 0.750000 0.566948 0.173176
O O20 0.992309 0.624076 0.123986
O O21 0.750000 0.172065 0.921044
O O22 0.981449 0.250000 0.910051
#
# Coordination Sequence:
#
# PCOD9450091 Si02
#       8
#     8   8   8   8   8   8   8   8
#     4   9  19  37  58  78 103 135 170 211 259 308
#     4   8  16  30  47  71 101 130 165 208 250 295
#     4  10  20  34  51  72 101 134 166 205 252 302
#     4  11  22  36  55  77 103 135 171 213 258 307
#     4   9  18  32  50  73  99 128 166 209 249 295
#     4   8  14  27  48  72  99 130 163 203 250 296
#     4  10  20  34  53  78 108 139 174 216 257 303
#     4   9  19  36  56  78 106 139 173 210 255 307
#
# _framework density 17.405632000000001
#
# number of rings (size 3 to 8) (size 9 to 14) (size 15 to 20)
#    0.000    2.750    0.000    4.125    0.000    3.250 
#    0.000    2.500    0.000    3.750    0.000    0.000 
#    0.000    0.000    0.000    0.000    0.000    0.000 
#
# Total GULP energy -356918.862513 kJ/mol
# GULP energy per Si atom -5576.857227 kJ/mol
# Density = 1.736602 g / cm^3
# Si number density = 17.405632 Si / 1000 Ang^3
#
#
#
# Elastic Constant Matrix: (Units=GPa)
#
#
# Indices 1 2 3 4 5 6 
#
# 1 42.8584 52.7833 52.6972 0.0000 0.0000 0.0000
# 2 52.7833 154.6213 145.3711 0.0000 0.0000 0.0000
# 3 52.6972 145.3711 158.9182 0.0000 0.0000 0.0000
# 4 0.0000 0.0000 0.0000 43.2561 0.0000 0.0000
# 5 0.0000 0.0000 0.0000 0.0000 19.4827 0.0000
# 6 0.0000 0.0000 0.0000 0.0000 0.0000 23.3745
#
#
#
# Elastic Compliance Matrix: (Units=1/GPa)
#
#
# Indices 1 2 3 4 5 6 
#
# 1 0.040958 -0.008664 -0.005656 0.000000 0.000000 0.000000
# 2 -0.008664 0.048038 -0.041070 0.000000 0.000000 0.000000
# 3 -0.005656 -0.041070 0.045737 0.000000 0.000000 0.000000
# 4 0.000000 0.000000 0.000000 0.023118 0.000000 0.000000
# 5 0.000000 0.000000 0.000000 0.000000 0.051328 0.000000
# 6 0.000000 0.000000 0.000000 0.000000 0.000000 0.042782
#
#
# Mechanical properties :
#
#
# Convention : Reuss Voigt Hill
#
# Bulk Modulus (GPa) = 41.74938 95.34456 68.54697
# Shear Modulus (GPa) = 13.48708 24.25909 18.87308
#
# Velocity S-wave (km/s) = 2.78667 3.73735 3.29646
# Velocity P-wave (km/s) = 5.86449 8.57441 7.34550
#
# Compressibility (1/GPa) = 0.02395245
#
# Stress axis : x y z
#
# Youngs Moduli (GPa) = 24.41552 20.81669 21.86405
#
# Poissons Ratio (x) = 0.18036 0.12366
# Poissons Ratio (y) = 0.21154 0.89796
# Poissons Ratio (z) = 0.13809 0.85495
#
# Static dielectric constant tensor:
#      x y z
#    x 1.585680 0.000000 0.000000 
#    y 0.000000 1.573360 0.000000 
#    z 0.000000 0.000000 1.574510 
# 
# From -- ./inp_files/29455.got.cif
#   From: 2010.05.17/outbox.cif.g08.bks.cpg/sg59_15_cif.got.tgz:29455.got - 2010.06.03 14:40:33.
