data_PCOD9450015
_publ_section_title
;
Structure prediction by ZEFSAII (Michael W. Deem and Ramdas Pophale) SiO2 
 PCOD9450015
Probable space group: P M M N
;
_chemical_formula_sum "Si O2"
_cell_formula_units_Z 64
_cell_length_a 8.777840
_cell_length_b 18.333471
_cell_length_c 22.191371
_cell_angle_alpha 90.000000
_cell_angle_beta 90.000000
_cell_angle_gamma 90.000000
_cell_volume 3571.219057
_symmetry_space_group_name_H-M "P M M N"
_symmetry_group_IT_number 59
_space_group.IT_coordinate_system_code '2'
_symmetry_cell_setting 'orthorhombic'
loop_
_space_group_symop_operation_xyz
x,y,z
1/2-x,1/2-y,z
1/2+x,-y,-z
-x,1/2+y,-z
-x,-y,-z
1/2+x,1/2+y,-z
1/2-x,y,z
x,1/2-y,z
loop_
_atom_site_type_symbol
_atom_site_label
_atom_site_fract_x
_atom_site_fract_y
_atom_site_fract_z
Si Si1 0.566268 0.089377 0.373512
Si Si2 0.933709 0.920636 0.390493
Si Si3 0.433989 0.666127 0.502666
Si Si4 0.433459 0.669516 0.873067
Si Si5 0.933889 0.834835 0.269402
Si Si6 0.932019 0.049107 0.818205
Si Si7 0.431551 0.396315 0.245018
Si Si8 0.567076 0.479792 0.064469
O O1 0.750000 0.091392 0.368864
O O2 0.520324 0.135796 0.431838
O O3 0.497375 0.116933 0.311013
O O4 0.520010 0.004947 0.383265
O O5 0.750000 0.918694 0.394148
O O6 0.980187 0.874532 0.331588
O O7 0.000912 0.884198 0.450021
O O8 0.250000 0.663695 0.500053
O O9 0.482577 0.750000 0.494603
O O10 0.250000 0.667336 0.869495
O O11 0.479628 0.750000 0.894345
O O12 0.498976 0.654433 0.806745
O O13 0.480919 0.602040 0.915159
O O14 0.750000 0.839158 0.265476
O O15 0.977555 0.750000 0.270029
O O16 0.005175 0.879493 0.214414
O O17 0.750000 0.052149 0.824117
O O18 0.970875 0.979140 0.775999
O O19 0.005879 0.032483 0.882822
O O20 0.250000 0.389401 0.245323
O O21 0.750000 0.482688 0.062841
O O22 0.500000 0.500000 0.000000
#
# Coordination Sequence:
#
# PCOD9450015 Si02
#       8
#     8   8   8   8   8   8   8   8
#     4  10  20  35  55  76 102 140 182 222 269 330
#     4  10  20  35  56  77 100 136 182 227 273 329
#     4  10  22  37  51  72 103 137 175 223 277 331
#     4   9  19  36  58  83 112 148 187 225 268 320
#     4  10  20  34  54  80 108 139 179 227 279 331
#     4  10  20  35  55  80 111 144 180 221 267 324
#     4  10  20  33  53  82 111 139 175 222 272 322
#     4  10  20  36  60  86 114 150 190 229 270 319
#
# _framework density 17.921050999999999
#
# number of rings (size 3 to 8) (size 9 to 14) (size 15 to 20)
#    0.000    2.125    1.250    1.875    0.000    4.750 
#    0.000    1.875    0.000    2.250    0.000    0.000 
#    0.000    0.000    0.000    0.000    0.000    0.000 
#
# Total GULP energy -357329.612661 kJ/mol
# GULP energy per Si atom -5583.275198 kJ/mol
# Density = 1.788026 g / cm^3
# Si number density = 17.921051 Si / 1000 Ang^3
#
#
#
# Elastic Constant Matrix: (Units=GPa)
#
#
# Indices 1 2 3 4 5 6 
#
# 1 11.3992 12.6101 24.1181 0.0000 0.0000 0.0000
# 2 12.6101 61.7817 31.2468 0.0000 0.0000 0.0000
# 3 24.1181 31.2468 137.5457 0.0000 0.0000 0.0000
# 4 0.0000 0.0000 0.0000 17.2995 0.0000 0.0000
# 5 0.0000 0.0000 0.0000 0.0000 34.1074 0.0000
# 6 0.0000 0.0000 0.0000 0.0000 0.0000 19.5446
#
#
#
# Elastic Compliance Matrix: (Units=1/GPa)
#
#
# Indices 1 2 3 4 5 6 
#
# 1 0.160250 -0.020898 -0.023352 0.000000 0.000000 0.000000
# 2 -0.020898 0.021012 -0.001109 0.000000 0.000000 0.000000
# 3 -0.023352 -0.001109 0.011617 0.000000 0.000000 0.000000
# 4 0.000000 0.000000 0.000000 0.057805 0.000000 0.000000
# 5 0.000000 0.000000 0.000000 0.000000 0.029319 0.000000
# 6 0.000000 0.000000 0.000000 0.000000 0.000000 0.051165
#
#
# Mechanical properties :
#
#
# Convention : Reuss Voigt Hill
#
# Bulk Modulus (GPa) = 9.78838 38.51964 24.15401
# Shear Modulus (GPa) = 10.96636 23.70710 17.33673
#
# Velocity S-wave (km/s) = 2.47640 3.64106 3.11367
# Velocity P-wave (km/s) = 3.69466 6.26236 5.14139
#
# Compressibility (1/GPa) = 0.10216191
#
# Stress axis : x y z
#
# Youngs Moduli (GPa) = 6.24025 47.59108 86.08126
#
# Poissons Ratio (x) = 0.99455 2.01016
# Poissons Ratio (y) = 0.13041 0.09547
# Poissons Ratio (z) = 0.14572 0.05278
#
# Static dielectric constant tensor:
#      x y z
#    x 1.602720 0.000000 0.000000 
#    y 0.000000 1.615470 0.000000 
#    z 0.000000 0.000000 1.574010 
# 
# From -- ./inp_files/29384.got.cif
#   From: 2010.05.17/outbox.cif.g08.bks.cpg/sg59_15_cif.got.tgz:29384.got - 2010.06.03 14:40:33.
