data_PCOD9450534
_publ_section_title
;
Structure prediction by ZEFSAII (Michael W. Deem and Ramdas Pophale) SiO2 
 PCOD9450534
Probable space group: P M M N
;
_chemical_formula_sum "Si O2"
_cell_formula_units_Z 48
_cell_length_a 8.826681
_cell_length_b 31.342387
_cell_length_c 9.839861
_cell_angle_alpha 90.000000
_cell_angle_beta 90.000000
_cell_angle_gamma 90.000000
_cell_volume 2722.190184
_symmetry_space_group_name_H-M "P M M N"
_symmetry_group_IT_number 59
_space_group.IT_coordinate_system_code '2'
_symmetry_cell_setting 'orthorhombic'
loop_
_space_group_symop_operation_xyz
x,y,z
1/2-x,1/2-y,z
1/2+x,-y,-z
-x,1/2+y,-z
-x,-y,-z
1/2+x,1/2+y,-z
1/2-x,y,z
x,1/2-y,z
loop_
_atom_site_type_symbol
_atom_site_label
_atom_site_fract_x
_atom_site_fract_y
_atom_site_fract_z
Si Si1 0.569411 0.486043 0.354902
Si Si2 0.069531 0.137284 0.592553
Si Si3 0.569956 0.606196 0.701214
Si Si4 0.431433 0.870125 0.982194
Si Si5 0.567640 0.200654 0.797472
Si Si6 0.068967 0.935136 0.216787
O O1 0.500000 0.500000 0.500000
O O2 0.750000 0.487060 0.364091
O O3 0.512129 0.439110 0.317885
O O4 0.511609 0.520270 0.244671
O O5 0.250000 0.133005 0.612146
O O6 0.036750 0.134095 0.432891
O O7 0.009988 0.179492 0.666657
O O8 0.987817 0.097821 0.667847
O O9 0.750000 0.598891 0.705575
O O10 0.514172 0.627495 0.839502
O O11 0.250000 0.869312 0.961559
O O12 0.473164 0.829252 0.074300
O O13 0.466371 0.911758 0.074555
O O14 0.750000 0.197377 0.781753
O O15 0.527664 0.250000 0.816007
O O16 0.250000 0.939968 0.227110
#
# Coordination Sequence:
#
# PCOD9450534 Si02
#       6
#     8   8   8   8   8   8
#     4  12  23  35  55  81 111 149 193 238 281 326
#     4  10  20  34  55  82 112 144 182 228 276 329
#     4  11  23  37  54  80 114 151 189 230 279 332
#     4   9  20  37  57  82 112 147 186 229 282 335
#     4   9  19  38  63  87 110 140 182 229 278 340
#     4  10  20  36  57  80 109 148 192 234 275 327
#
# _framework density 17.632860000000001
#
# number of rings (size 3 to 8) (size 9 to 14) (size 15 to 20)
#    0.000    1.833    1.667    4.000    0.000    6.333 
#    0.000    0.833    0.000    3.000    0.000    0.000 
#    0.000    0.000    0.000    0.000    0.000    0.000 
#
# Total GULP energy -268070.421445 kJ/mol
# GULP energy per Si atom -5584.800447 kJ/mol
# Density = 1.759273 g / cm^3
# Si number density = 17.632860 Si / 1000 Ang^3
#
#
#
# Elastic Constant Matrix: (Units=GPa)
#
#
# Indices 1 2 3 4 5 6 
#
# 1 72.7024 43.5526 62.3013 0.0000 0.0000 0.0000
# 2 43.5526 109.0694 53.7617 0.0000 0.0000 0.0000
# 3 62.3013 53.7617 132.3654 0.0000 0.0000 0.0000
# 4 0.0000 0.0000 0.0000 14.7102 0.0000 0.0000
# 5 0.0000 0.0000 0.0000 0.0000 32.2975 0.0000
# 6 0.0000 0.0000 0.0000 0.0000 0.0000 23.6889
#
#
#
# Elastic Compliance Matrix: (Units=1/GPa)
#
#
# Indices 1 2 3 4 5 6 
#
# 1 0.025277 -0.005288 -0.009750 0.000000 0.000000 0.000000
# 2 -0.005288 0.012570 -0.002617 0.000000 0.000000 0.000000
# 3 -0.009750 -0.002617 0.013207 0.000000 0.000000 0.000000
# 4 0.000000 0.000000 0.000000 0.067980 0.000000 0.000000
# 5 0.000000 0.000000 0.000000 0.000000 0.030962 0.000000
# 6 0.000000 0.000000 0.000000 0.000000 0.000000 0.042214
#
#
# Mechanical properties :
#
#
# Convention : Reuss Voigt Hill
#
# Bulk Modulus (GPa) = 63.51017 70.37427 66.94222
# Shear Modulus (GPa) = 21.48082 24.44076 22.96079
#
# Velocity S-wave (km/s) = 3.49410 3.72706 3.61246
# Velocity P-wave (km/s) = 7.23703 7.64976 7.44625
#
# Compressibility (1/GPa) = 0.01574551
#
# Stress axis : x y z
#
# Youngs Moduli (GPa) = 39.56132 79.55693 75.72000
#
# Poissons Ratio (x) = 0.42067 0.73825
# Poissons Ratio (y) = 0.20919 0.19812
# Poissons Ratio (z) = 0.38571 0.20816
#
# Static dielectric constant tensor:
#      x y z
#    x 1.590890 0.000000 0.000000 
#    y 0.000000 1.587280 0.000000 
#    z 0.000000 0.000000 1.594940 
# 
# From -- ./inp_files/6267.got.cif
#   From: 2010.05.17/outbox.cif.g08.bks.cpg/sg59_4_cif.got.tgz:6267.got - 2010.06.03 14:40:33.
