data_PCOD9450976
_publ_section_title
;
Structure prediction by ZEFSAII (Michael W. Deem and Ramdas Pophale) SiO2 
 PCOD9450976
Probable space group: P M M N
;
_chemical_formula_sum "Si O2"
_cell_formula_units_Z 48
_cell_length_a 17.822481
_cell_length_b 11.803285
_cell_length_c 11.751599
_cell_angle_alpha 90.000000
_cell_angle_beta 90.000000
_cell_angle_gamma 90.000000
_cell_volume 2472.111288
_symmetry_space_group_name_H-M "P M M N"
_symmetry_group_IT_number 59
_space_group.IT_coordinate_system_code '2'
_symmetry_cell_setting 'orthorhombic'
loop_
_space_group_symop_operation_xyz
x,y,z
1/2-x,1/2-y,z
1/2+x,-y,-z
-x,1/2+y,-z
-x,-y,-z
1/2+x,1/2+y,-z
1/2-x,y,z
x,1/2-y,z
loop_
_atom_site_type_symbol
_atom_site_label
_atom_site_fract_x
_atom_site_fract_y
_atom_site_fract_z
Si Si1 0.334524 0.613915 0.538892
Si Si2 0.944638 0.386255 0.662583
Si Si3 0.163899 0.432287 0.963671
Si Si4 0.581429 0.481043 0.251067
Si Si5 0.331613 0.884036 0.139867
Si Si6 0.985613 0.624140 0.940100
O O1 0.250000 0.572034 0.516686
O O2 0.332571 0.750000 0.530660
O O3 0.394832 0.576011 0.444554
O O4 0.362215 0.579788 0.663603
O O5 0.951457 0.250000 0.659275
O O6 0.897922 0.417345 0.776209
O O7 0.024867 0.442945 0.675322
O O8 0.250000 0.391781 0.962550
O O9 0.127142 0.442207 0.839525
O O10 0.164449 0.558507 0.017460
O O11 0.104841 0.371306 0.047351
O O12 0.528772 0.394989 0.178480
O O13 0.250000 0.916404 0.189877
O O14 0.333128 0.750000 0.129933
O O15 0.010382 0.750000 0.986195
O O16 0.000000 0.500000 0.000000
#
# Coordination Sequence:
#
# PCOD9450976 Si02
#       6
#     8   8   8   8   8   8
#     4  10  21  37  58  83 112 147 190 243 301 357
#     4  10  20  35  57  83 113 150 195 243 295 351
#     4  10  21  36  54  81 117 156 195 235 290 352
#     4  11  21  36  56  88 114 153 188 246 293 357
#     4   9  17  31  53  82 115 151 194 241 288 342
#     4  10  22  38  58  84 117 158 199 243 294 352
#
# _framework density 19.416602000000001
#
# number of rings (size 3 to 8) (size 9 to 14) (size 15 to 20)
#    0.000    2.000    1.667    2.000    0.000    8.333 
#    0.000    1.667    0.000    1.500    0.000    0.000 
#    0.000    0.000    0.000    0.000    0.000    0.000 
#
# Total GULP energy -267324.329523 kJ/mol
# GULP energy per Si atom -5569.256865 kJ/mol
# Density = 1.937241 g / cm^3
# Si number density = 19.416602 Si / 1000 Ang^3
#
#
#
# Elastic Constant Matrix: (Units=GPa)
#
#
# Indices 1 2 3 4 5 6 
#
# 1 119.3224 16.9014 25.5066 0.0000 0.0000 0.0000
# 2 16.9014 62.5989 12.5551 0.0000 0.0000 0.0000
# 3 25.5066 12.5551 72.0973 0.0000 0.0000 0.0000
# 4 0.0000 0.0000 0.0000 4.7785 0.0000 0.0000
# 5 0.0000 0.0000 0.0000 0.0000 35.3112 0.0000
# 6 0.0000 0.0000 0.0000 0.0000 0.0000 19.7540
#
#
#
# Elastic Compliance Matrix: (Units=1/GPa)
#
#
# Indices 1 2 3 4 5 6 
#
# 1 0.009283 -0.001914 -0.002951 0.000000 0.000000 0.000000
# 2 -0.001914 0.016948 -0.002274 0.000000 0.000000 0.000000
# 3 -0.002951 -0.002274 0.015310 0.000000 0.000000 0.000000
# 4 0.000000 0.000000 0.000000 0.209272 0.000000 0.000000
# 5 0.000000 0.000000 0.000000 0.000000 0.028320 0.000000
# 6 0.000000 0.000000 0.000000 0.000000 0.000000 0.050623
#
#
# Mechanical properties :
#
#
# Convention : Reuss Voigt Hill
#
# Bulk Modulus (GPa) = 36.68090 40.43832 38.55961
# Shear Modulus (GPa) = 14.15950 25.23910 19.69930
#
# Velocity S-wave (km/s) = 2.70339 3.60929 3.18867
# Velocity P-wave (km/s) = 5.35508 6.18394 5.78438
#
# Compressibility (1/GPa) = 0.02726214
#
# Stress axis : x y z
#
# Youngs Moduli (GPa) = 107.72891 59.00507 65.31676
#
# Poissons Ratio (x) = 0.11296 0.19272
# Poissons Ratio (y) = 0.20624 0.14853
# Poissons Ratio (z) = 0.31787 0.13418
#
# Static dielectric constant tensor:
#      x y z
#    x 1.755850 0.000000 0.000000 
#    y 0.000000 1.699120 0.000000 
#    z 0.000000 0.000000 1.691710 
# 
# From -- ./inp_files/15758.got.cif
#   From: 2010.05.17/outbox.cif.g08.bks.cpg/sg59_8_cif.got.tgz:15758.got - 2010.06.03 14:40:33.
