data_PCOD9450490
_publ_section_title
;
Structure prediction by ZEFSAII (Michael W. Deem and Ramdas Pophale) SiO2 
 PCOD9450490
Probable space group: P M M N
;
_chemical_formula_sum "Si O2"
_cell_formula_units_Z 52
_cell_length_a 13.623658
_cell_length_b 9.326180
_cell_length_c 22.582606
_cell_angle_alpha 90.000000
_cell_angle_beta 90.000000
_cell_angle_gamma 90.000000
_cell_volume 2869.271097
_symmetry_space_group_name_H-M "P M M N"
_symmetry_group_IT_number 59
_space_group.IT_coordinate_system_code '2'
_symmetry_cell_setting 'orthorhombic'
loop_
_space_group_symop_operation_xyz
x,y,z
1/2-x,1/2-y,z
1/2+x,-y,-z
-x,1/2+y,-z
-x,-y,-z
1/2+x,1/2+y,-z
1/2-x,y,z
x,1/2-y,z
loop_
_atom_site_type_symbol
_atom_site_label
_atom_site_fract_x
_atom_site_fract_y
_atom_site_fract_z
Si Si1 0.041517 0.578574 0.361178
Si Si2 0.636594 0.078278 0.766026
Si Si3 0.642503 0.750000 0.948273
Si Si4 0.633912 0.079453 0.404112
Si Si5 0.030019 0.474060 0.121520
Si Si6 0.866736 0.250000 0.084071
Si Si7 0.132276 0.084105 0.473244
Si Si8 0.532436 0.250000 0.960692
O O1 0.035240 0.750000 0.371431
O O2 0.102134 0.554040 0.301214
O O3 0.092720 0.497539 0.415836
O O4 0.934204 0.506028 0.358365
O O5 0.750000 0.031602 0.774477
O O6 0.633940 0.250000 0.776403
O O7 0.560655 0.006863 0.811554
O O8 0.750000 0.750000 0.972327
O O9 0.618042 0.617414 0.906618
O O10 0.565688 0.750000 0.000800
O O11 0.750000 0.059749 0.393501
O O12 0.614108 0.250000 0.404399
O O13 0.610098 0.007574 0.467847
O O14 0.929330 0.384908 0.110400
O O15 0.030601 0.614580 0.081664
O O16 0.750000 0.250000 0.096402
O O17 0.885058 0.250000 0.012562
O O18 0.250000 0.089021 0.469036
O O19 0.097377 0.250000 0.477673
#
# Coordination Sequence:
#
# PCOD9450490 Si02
#       8
#     8   8   4   8   8   4   8   4
#     4  11  22  36  56  82 113 146 187 239 287 338
#     4  10  21  38  61  85 111 149 193 237 288 345
#     4  10  20  34  54  86 120 150 183 230 292 345
#     4  10  21  38  59  81 109 148 190 233 285 342
#     4  10  20  38  58  83 119 153 195 239 282 340
#     4  10  22  38  58  88 122 158 193 234 295 346
#     4  10  20  35  56  85 117 148 184 230 286 346
#     4  10  20  34  60  88 116 152 192 242 283 335
#
# _framework density 18.123069000000001
#
# number of rings (size 3 to 8) (size 9 to 14) (size 15 to 20)
#    0.000    2.000    0.769    4.615    0.000    5.538 
#    5.538    0.769    0.000    0.923    0.000    0.000 
#    0.000    0.000    0.000    0.000    0.000    0.000 
#
# Total GULP energy -290069.169284 kJ/mol
# GULP energy per Si atom -5578.253255 kJ/mol
# Density = 1.808182 g / cm^3
# Si number density = 18.123069 Si / 1000 Ang^3
#
#
#
# Elastic Constant Matrix: (Units=GPa)
#
#
# Indices 1 2 3 4 5 6 
#
# 1 103.4841 36.9274 40.8024 0.0000 0.0000 0.0000
# 2 36.9274 118.3903 43.6335 0.0000 0.0000 0.0000
# 3 40.8024 43.6335 72.3750 0.0000 0.0000 0.0000
# 4 0.0000 0.0000 0.0000 25.8224 0.0000 0.0000
# 5 0.0000 0.0000 0.0000 0.0000 6.7151 0.0000
# 6 0.0000 0.0000 0.0000 0.0000 0.0000 52.1002
#
#
#
# Elastic Compliance Matrix: (Units=1/GPa)
#
#
# Indices 1 2 3 4 5 6 
#
# 1 0.012685 -0.001698 -0.006128 0.000000 0.000000 0.000000
# 2 -0.001698 0.011087 -0.005727 0.000000 0.000000 0.000000
# 3 -0.006128 -0.005727 0.020724 0.000000 0.000000 0.000000
# 4 0.000000 0.000000 0.000000 0.038726 0.000000 0.000000
# 5 0.000000 0.000000 0.000000 0.000000 0.148919 0.000000
# 6 0.000000 0.000000 0.000000 0.000000 0.000000 0.019194
#
#
# Mechanical properties :
#
#
# Convention : Reuss Voigt Hill
#
# Bulk Modulus (GPa) = 57.50097 59.66400 58.58248
# Shear Modulus (GPa) = 17.59092 28.45328 23.02210
#
# Velocity S-wave (km/s) = 3.11888 3.96663 3.56802
# Velocity P-wave (km/s) = 6.69080 7.34655 7.02633
#
# Compressibility (1/GPa) = 0.01739101
#
# Stress axis : x y z
#
# Youngs Moduli (GPa) = 78.83064 90.19606 48.25328
#
# Poissons Ratio (x) = 0.15318 0.29568
# Poissons Ratio (y) = 0.13388 0.27633
# Poissons Ratio (z) = 0.48305 0.51652
#
# Static dielectric constant tensor:
#      x y z
#    x 1.649150 0.000000 0.000000 
#    y 0.000000 1.601020 0.000000 
#    z 0.000000 0.000000 1.603320 
# 
# From -- ./inp_files/30281.got.cif
#   From: 2010.05.17/outbox.cif.g08.bks.cpg/sg59_16_cif.got.tgz:30281.got - 2010.06.03 14:40:33.
