data_PCOD9450973
_publ_section_title
;
Structure prediction by ZEFSAII (Michael W. Deem and Ramdas Pophale) SiO2 
 PCOD9450973
Probable space group: P M M N
;
_chemical_formula_sum "Si O2"
_cell_formula_units_Z 48
_cell_length_a 9.346665
_cell_length_b 7.675853
_cell_length_c 35.248658
_cell_angle_alpha 90.000000
_cell_angle_beta 90.000000
_cell_angle_gamma 90.000000
_cell_volume 2528.866557
_symmetry_space_group_name_H-M "P M M N"
_symmetry_group_IT_number 59
_space_group.IT_coordinate_system_code '2'
_symmetry_cell_setting 'orthorhombic'
loop_
_space_group_symop_operation_xyz
x,y,z
1/2-x,1/2-y,z
1/2+x,-y,-z
-x,1/2+y,-z
-x,-y,-z
1/2+x,1/2+y,-z
1/2-x,y,z
x,1/2-y,z
loop_
_atom_site_type_symbol
_atom_site_label
_atom_site_fract_x
_atom_site_fract_y
_atom_site_fract_z
Si Si1 0.421507 0.250000 0.246648
Si Si2 0.582391 0.050377 0.812084
Si Si3 0.420457 0.044401 0.613072
Si Si4 0.087951 0.540985 0.462244
Si Si5 0.921168 0.250000 0.326515
Si Si6 0.914933 0.038559 0.111805
Si Si7 0.912708 0.540556 0.962088
O O1 0.250000 0.250000 0.252298
O O2 0.459205 0.417447 0.221007
O O3 0.499244 0.250000 0.286687
O O4 0.750000 0.016108 0.821420
O O5 0.569570 0.250000 0.799583
O O6 0.489682 0.021483 0.849626
O O7 0.250000 0.027784 0.605895
O O8 0.449711 0.250000 0.620219
O O9 0.505443 0.984619 0.575690
O O10 0.456687 0.920252 0.648264
O O11 0.250000 0.472536 0.464194
O O12 0.095293 0.750000 0.459790
O O13 0.000000 0.500000 0.500000
O O14 0.750000 0.250000 0.320441
O O15 0.750000 0.982479 0.109672
O O16 0.916654 0.250000 0.111842
O O17 0.003531 0.977224 0.075153
O O18 0.750000 0.473997 0.963932
O O19 0.905684 0.750000 0.959045
O O20 0.000000 0.500000 0.000000
#
# Coordination Sequence:
#
# PCOD9450973 Si02
#       7
#     4   8   8   8   4   8   8
#     4  10  22  40  60  86 120 150 186 240 292 346
#     4  10  21  38  61  87 115 151 192 234 286 344
#     4   9  19  37  57  79 112 150 190 239 289 339
#     4  10  21  35  53  80 113 149 190 238 289 340
#     4  10  22  38  60  86 112 150 194 234 288 352
#     4  10  20  35  57  83 112 148 189 236 290 344
#     4  10  21  36  55  79 110 150 193 237 284 334
#
# _framework density 18.980834000000002
#
# number of rings (size 3 to 8) (size 9 to 14) (size 15 to 20)
#    0.000    2.167    0.833    1.500    1.167    5.667 
#    0.000    0.000    0.000    0.000    0.000    0.000 
#    0.000    0.000    0.000    0.000    0.000    0.000 
#
# Total GULP energy -268096.961587 kJ/mol
# GULP energy per Si atom -5585.353366 kJ/mol
# Density = 1.893763 g / cm^3
# Si number density = 18.980834 Si / 1000 Ang^3
#
#
#
# Elastic Constant Matrix: (Units=GPa)
#
#
# Indices 1 2 3 4 5 6 
#
# 1 125.1997 50.7217 109.6960 0.0000 0.0000 0.0000
# 2 50.7217 72.5788 62.1483 0.0000 0.0000 0.0000
# 3 109.6960 62.1483 207.0502 0.0000 0.0000 0.0000
# 4 0.0000 0.0000 0.0000 22.1405 0.0000 0.0000
# 5 0.0000 0.0000 0.0000 0.0000 44.2560 0.0000
# 6 0.0000 0.0000 0.0000 0.0000 0.0000 17.9081
#
#
#
# Elastic Compliance Matrix: (Units=1/GPa)
#
#
# Indices 1 2 3 4 5 6 
#
# 1 0.016337 -0.005391 -0.007037 0.000000 0.000000 0.000000
# 2 -0.005391 0.020324 -0.003244 0.000000 0.000000 0.000000
# 3 -0.007037 -0.003244 0.009532 0.000000 0.000000 0.000000
# 4 0.000000 0.000000 0.000000 0.045166 0.000000 0.000000
# 5 0.000000 0.000000 0.000000 0.000000 0.022596 0.000000
# 6 0.000000 0.000000 0.000000 0.000000 0.000000 0.055841
#
#
# Mechanical properties :
#
#
# Convention : Reuss Voigt Hill
#
# Bulk Modulus (GPa) = 67.35138 94.44007 80.89573
# Shear Modulus (GPa) = 24.26128 29.01177 26.63653
#
# Velocity S-wave (km/s) = 3.57907 3.91382 3.75018
# Velocity P-wave (km/s) = 7.25538 8.38376 7.83990
#
# Compressibility (1/GPa) = 0.01484751
#
# Stress axis : x y z
#
# Youngs Moduli (GPa) = 61.20975 49.20371 104.91157
#
# Poissons Ratio (x) = 0.26528 0.73829
# Poissons Ratio (y) = 0.33000 0.34033
# Poissons Ratio (z) = 0.43075 0.15962
#
# Static dielectric constant tensor:
#      x y z
#    x 1.654360 0.000000 0.000000 
#    y 0.000000 1.684240 0.000000 
#    z 0.000000 0.000000 1.599880 
# 
# From -- ./inp_files/33050.got.cif
#   From: 2010.05.17/outbox.cif.g08.bks.cpg/sg59_17_cif.got.tgz:33050.got - 2010.06.03 14:40:33.
