data_PCOD9450419
_publ_section_title
;
Structure prediction by ZEFSAII (Michael W. Deem and Ramdas Pophale) SiO2 
 PCOD9450419
Probable space group: P M M N
;
_chemical_formula_sum "Si O2"
_cell_formula_units_Z 64
_cell_length_a 19.534160
_cell_length_b 18.297120
_cell_length_c 8.561994
_cell_angle_alpha 90.000000
_cell_angle_beta 90.000000
_cell_angle_gamma 90.000000
_cell_volume 3060.218217
_symmetry_space_group_name_H-M "P M M N"
_symmetry_group_IT_number 59
_space_group.IT_coordinate_system_code '2'
_symmetry_cell_setting 'orthorhombic'
loop_
_space_group_symop_operation_xyz
x,y,z
1/2-x,1/2-y,z
1/2+x,-y,-z
-x,1/2+y,-z
-x,-y,-z
1/2+x,1/2+y,-z
1/2-x,y,z
x,1/2-y,z
loop_
_atom_site_type_symbol
_atom_site_label
_atom_site_fract_x
_atom_site_fract_y
_atom_site_fract_z
Si Si1 0.671256 0.027961 0.381353
Si Si2 0.431251 0.909837 0.199552
Si Si3 0.040497 0.335881 0.618928
Si Si4 0.173350 0.547096 0.973461
Si Si5 0.173470 0.163098 0.802492
Si Si6 0.830351 0.333508 0.557755
Si Si7 0.072420 0.055554 0.380033
Si Si8 0.826667 0.604692 0.859948
O O1 0.750000 0.010980 0.427427
O O2 0.662763 0.115210 0.406564
O O3 0.619027 0.987705 0.494775
O O4 0.662320 0.013870 0.198247
O O5 0.495058 0.857588 0.231581
O O6 0.394293 0.911364 0.031896
O O7 0.372568 0.875263 0.310113
O O8 0.452652 0.991056 0.263084
O O9 0.033229 0.250000 0.581798
O O10 0.118237 0.352713 0.670331
O O11 0.022139 0.392243 0.479072
O O12 0.250000 0.582279 0.971489
O O13 0.177641 0.481379 0.098404
O O14 0.250000 0.132726 0.774572
O O15 0.178437 0.250000 0.804188
O O16 0.151986 0.140271 0.976625
O O17 0.750000 0.332733 0.599492
O O18 0.853274 0.250000 0.537905
O O19 0.119863 0.109684 0.278604
O O20 0.750000 0.630775 0.820303
#
# Coordination Sequence:
#
# PCOD9450419 Si02
#       8
#     8   8   8   8   8   8   8   8
#     4   9  17  31  54  82 111 141 175 218 263 308
#     4  10  20  36  54  76 106 141 179 218 262 315
#     4  11  23  38  55  76 105 140 177 220 268 315
#     4   9  17  31  53  81 108 136 173 214 255 304
#     4   9  19  36  55  75 103 140 178 216 264 319
#     4   9  17  31  52  77 106 141 178 217 264 316
#     4  10  20  34  54  81 107 138 176 217 262 316
#     4   9  17  31  54  81 106 132 167 214 262 310
#
# _framework density 20.913540000000001
#
# number of rings (size 3 to 8) (size 9 to 14) (size 15 to 20)
#    0.000    2.500    0.000    2.250    0.000    5.500 
#    0.000    9.375    0.000    4.500    0.000    0.000 
#    0.000    0.000    0.000    0.000    0.000    0.000 
#
# Total GULP energy -356716.969613 kJ/mol
# GULP energy per Si atom -5573.702650 kJ/mol
# Density = 2.086594 g / cm^3
# Si number density = 20.913540 Si / 1000 Ang^3
#
#
#
# Elastic Constant Matrix: (Units=GPa)
#
#
# Indices 1 2 3 4 5 6 
#
# 1 28.8405 8.1004 6.4339 0.0000 0.0000 0.0000
# 2 8.1004 80.1520 2.3947 0.0000 0.0000 0.0000
# 3 6.4339 2.3947 27.0182 0.0000 0.0000 0.0000
# 4 0.0000 0.0000 0.0000 16.6807 0.0000 0.0000
# 5 0.0000 0.0000 0.0000 0.0000 3695.5402 0.0000
# 6 0.0000 0.0000 0.0000 0.0000 0.0000 18.5746
#
#
#
# Elastic Compliance Matrix: (Units=1/GPa)
#
#
# Indices 1 2 3 4 5 6 
#
# 1 0.037595 -0.003541 -0.008639 0.000000 0.000000 0.000000
# 2 -0.003541 0.012843 -0.000295 0.000000 0.000000 0.000000
# 3 -0.008639 -0.000295 0.039095 0.000000 0.000000 0.000000
# 4 0.000000 0.000000 0.000000 0.059950 0.000000 0.000000
# 5 0.000000 0.000000 0.000000 0.000000 0.000271 0.000000
# 6 0.000000 0.000000 0.000000 0.000000 0.000000 0.053837
#
#
# Mechanical properties :
#
#
# Convention : Reuss Voigt Hill
#
# Bulk Modulus (GPa) = 15.48384 18.87428 17.17906
# Shear Modulus (GPa) = 19.99447 754.09788 387.04617
#
# Velocity S-wave (km/s) = 3.09537 19.00951 13.61879
# Velocity P-wave (km/s) = 4.49387 22.15536 15.98522
#
# Compressibility (1/GPa) = 0.06458346
#
# Stress axis : x y z
#
# Youngs Moduli (GPa) = 26.59901 77.86337 25.57842
#
# Poissons Ratio (x) = 0.27574 0.22097
# Poissons Ratio (y) = 0.09420 0.00754
# Poissons Ratio (z) = 0.22978 0.02297
#
# Static dielectric constant tensor:
#      x y z
#    x 1.829190 0.000000 0.000000 
#    y 0.000000 1.781580 0.000000 
#    z 0.000000 0.000000 1.735340 
# 
# From -- ./inp_files/11650.got.cif
#   From: 2010.05.17/outbox.cif.g08.bks.cpg/sg59_6_cif.got.tgz:11650.got - 2010.06.03 14:40:33.
