data_PCOD9450492
_publ_section_title
;
Structure prediction by ZEFSAII (Michael W. Deem and Ramdas Pophale) SiO2 
 PCOD9450492
Probable space group: P M M N
;
_chemical_formula_sum "Si O2"
_cell_formula_units_Z 48
_cell_length_a 24.207056
_cell_length_b 7.842025
_cell_length_c 13.106735
_cell_angle_alpha 90.000000
_cell_angle_beta 90.000000
_cell_angle_gamma 90.000000
_cell_volume 2488.082153
_symmetry_space_group_name_H-M "P M M N"
_symmetry_group_IT_number 59
_space_group.IT_coordinate_system_code '2'
_symmetry_cell_setting 'orthorhombic'
loop_
_space_group_symop_operation_xyz
x,y,z
1/2-x,1/2-y,z
1/2+x,-y,-z
-x,1/2+y,-z
-x,-y,-z
1/2+x,1/2+y,-z
1/2-x,y,z
x,1/2-y,z
loop_
_atom_site_type_symbol
_atom_site_label
_atom_site_fract_x
_atom_site_fract_y
_atom_site_fract_z
Si Si1 0.504746 0.545505 0.619176
Si Si2 0.109632 0.949767 0.704924
Si Si3 0.186530 0.541154 0.885004
Si Si4 0.687115 0.949829 0.477749
Si Si5 0.686383 0.042369 0.884291
Si Si6 0.626872 0.451690 0.682800
O O1 0.500000 0.500000 0.500000
O O2 0.505083 0.750000 0.625686
O O3 0.450429 0.477469 0.677371
O O4 0.562296 0.480878 0.663848
O O5 0.101045 0.750000 0.727385
O O6 0.143886 0.022109 0.800142
O O7 0.147809 0.962848 0.604805
O O8 0.250000 0.489990 0.862841
O O9 0.186424 0.750000 0.882894
O O10 0.172384 0.487592 0.000543
O O11 0.750000 0.015250 0.474883
O O12 0.687897 0.750000 0.452050
O O13 0.661209 0.969572 0.589665
O O14 0.750000 0.993685 0.863677
O O15 0.684711 0.250000 0.885780
O O16 0.647706 0.983233 0.792432
O O17 0.637829 0.250000 0.678866
#
# Coordination Sequence:
#
# PCOD9450492 Si02
#       6
#     8   8   8   8   8   8
#     4  11  22  36  53  75 105 143 182 222 267 314
#     4  10  20  34  55  79 102 135 179 221 263 316
#     4   8  14  28  52  80 106 131 166 217 269 313
#     4  11  23  35  50  76 109 139 168 214 272 322
#     4   8  15  29  51  79 107 134 169 216 266 314
#     4  11  21  34  54  78 104 139 181 220 260 311
#
# _framework density 19.291965999999999
#
# number of rings (size 3 to 8) (size 9 to 14) (size 15 to 20)
#    0.000    2.167    1.667    3.500    0.000    3.333 
#    0.000    0.833    0.000    2.000    0.000    7.000 
#    0.000    0.000    0.000    0.000    0.000    0.000 
#
# Total GULP energy -267937.022153 kJ/mol
# GULP energy per Si atom -5582.021295 kJ/mol
# Density = 1.924806 g / cm^3
# Si number density = 19.291966 Si / 1000 Ang^3
#
#
#
# Elastic Constant Matrix: (Units=GPa)
#
#
# Indices 1 2 3 4 5 6 
#
# 1 103.7874 -16.6676 54.8585 0.0000 0.0000 0.0000
# 2 -16.6676 23.6791 -14.0187 0.0000 0.0000 0.0000
# 3 54.8585 -14.0187 123.9606 0.0000 0.0000 0.0000
# 4 0.0000 0.0000 0.0000 -2.7111 0.0000 0.0000
# 5 0.0000 0.0000 0.0000 0.0000 24.4666 0.0000
# 6 0.0000 0.0000 0.0000 0.0000 0.0000 16.2486
#
#
#
# Elastic Compliance Matrix: (Units=1/GPa)
#
#
# Indices 1 2 3 4 5 6 
#
# 1 0.013413 0.006352 -0.005218 0.000000 0.000000 0.000000
# 2 0.006352 0.048270 0.002648 0.000000 0.000000 0.000000
# 3 -0.005218 0.002648 0.010675 0.000000 0.000000 0.000000
# 4 0.000000 0.000000 0.000000 -0.368847 0.000000 0.000000
# 5 0.000000 0.000000 0.000000 0.000000 0.040872 0.000000
# 6 0.000000 0.000000 0.000000 0.000000 0.000000 0.061544
#
#
# Mechanical properties :
#
#
# Convention : Reuss Voigt Hill
#
# Bulk Modulus (GPa) = 12.51192 33.30795 22.90993
# Shear Modulus (GPa) = -28.57200 22.75114 -2.91043
#
# Velocity S-wave (km/s) = -3.85259 3.43783 -1.22959
# Velocity P-wave (km/s) = 3.64559 5.74986 3.14409
#
# Compressibility (1/GPa) = 0.07992381
#
# Stress axis : x y z
#
# Youngs Moduli (GPa) = 74.55433 20.71672 93.67248
#
# Poissons Ratio (x) = -0.13160 0.48874
# Poissons Ratio (y) = -0.47360 -0.24801
# Poissons Ratio (z) = 0.38899 -0.05485
#
# Static dielectric constant tensor:
#      x y z
#    x 1.660640 0.000000 0.000000 
#    y 0.000000 1.719900 0.000000 
#    z 0.000000 0.000000 1.658700 
# 
# From -- ./inp_files/18614.got.cif
#   From: 2010.05.17/outbox.cif.g08.bks.cpg/sg59_10_cif.got.tgz:18614.got - 2010.06.03 14:40:33.
