data_PCOD9450460
_publ_section_title
;
Structure prediction by ZEFSAII (Michael W. Deem and Ramdas Pophale) SiO2 
 PCOD9450460
Probable space group: P M M N
;
_chemical_formula_sum "Si O2"
_cell_formula_units_Z 56
_cell_length_a 8.884601
_cell_length_b 23.641812
_cell_length_c 15.705873
_cell_angle_alpha 90.000000
_cell_angle_beta 90.000000
_cell_angle_gamma 90.000000
_cell_volume 3298.988257
_symmetry_space_group_name_H-M "P M M N"
_symmetry_group_IT_number 59
_space_group.IT_coordinate_system_code '2'
_symmetry_cell_setting 'orthorhombic'
loop_
_space_group_symop_operation_xyz
x,y,z
1/2-x,1/2-y,z
1/2+x,-y,-z
-x,1/2+y,-z
-x,-y,-z
1/2+x,1/2+y,-z
1/2-x,y,z
x,1/2-y,z
loop_
_atom_site_type_symbol
_atom_site_label
_atom_site_fract_x
_atom_site_fract_y
_atom_site_fract_z
Si Si1 0.428921 0.881773 0.336137
Si Si2 0.431077 0.184175 0.177866
Si Si3 0.429478 0.110404 0.341973
Si Si4 0.070211 0.003519 0.594839
Si Si5 0.422865 0.681377 0.000155
Si Si6 0.929698 0.816858 0.178018
Si Si7 0.572288 0.183508 0.489289
O O1 0.250000 0.891169 0.328448
O O2 0.510294 0.940105 0.359847
O O3 0.492802 0.853038 0.251541
O O4 0.454059 0.839878 0.416068
O O5 0.250000 0.183442 0.169723
O O6 0.475290 0.250000 0.193705
O O7 0.472888 0.144621 0.256910
O O8 0.502771 0.164427 0.089075
O O9 0.250000 0.100990 0.341035
O O10 0.474239 0.149020 0.422279
O O11 0.514353 0.051398 0.354087
O O12 0.250000 0.004150 0.587857
O O13 0.000000 0.000000 0.500000
O O14 0.250000 0.662815 0.005406
O O15 0.424851 0.750000 0.999199
O O16 0.512800 0.664812 0.084759
O O17 0.750000 0.822128 0.182740
O O18 0.967803 0.750000 0.188783
O O19 0.750000 0.174413 0.470032
O O20 0.540901 0.250000 0.484590
#
# Coordination Sequence:
#
# PCOD9450460 Si02
#       7
#     8   8   8   8   8   8   8
#     4  11  22  37  57  80 108 144 184 229 274 322
#     4   9  18  33  53  80 113 146 180 220 269 324
#     4  11  22  36  56  80 108 145 185 227 272 324
#     4  12  24  40  59  79 104 141 188 233 275 323
#     4   9  17  30  51  79 110 145 183 223 268 321
#     4  10  20  34  54  82 115 149 183 222 271 327
#     4  10  21  35  52  77 110 145 178 219 272 324
#
# _framework density 16.974900999999999
#
# number of rings (size 3 to 8) (size 9 to 14) (size 15 to 20)
#    0.000    1.714    1.429    3.857    0.000    5.714 
#    0.000    1.429    0.000    0.857    0.000    0.000 
#    0.000    0.000    0.000    0.000    0.000    0.000 
#
# Total GULP energy -312742.294048 kJ/mol
# GULP energy per Si atom -5584.683822 kJ/mol
# Density = 1.693627 g / cm^3
# Si number density = 16.974901 Si / 1000 Ang^3
#
#
#
# Elastic Constant Matrix: (Units=GPa)
#
#
# Indices 1 2 3 4 5 6 
#
# 1 78.8147 38.7556 53.1810 0.0000 0.0000 0.0000
# 2 38.7556 65.2082 32.3520 0.0000 0.0000 0.0000
# 3 53.1810 32.3520 119.2882 0.0000 0.0000 0.0000
# 4 0.0000 0.0000 0.0000 0.9009 0.0000 0.0000
# 5 0.0000 0.0000 0.0000 0.0000 25.9204 0.0000
# 6 0.0000 0.0000 0.0000 0.0000 0.0000 26.7565
#
#
#
# Elastic Compliance Matrix: (Units=1/GPa)
#
#
# Indices 1 2 3 4 5 6 
#
# 1 0.022414 -0.009664 -0.007372 0.000000 0.000000 0.000000
# 2 -0.009664 0.021887 -0.001627 0.000000 0.000000 0.000000
# 3 -0.007372 -0.001627 0.012111 0.000000 0.000000 0.000000
# 4 0.000000 0.000000 0.000000 1.109988 0.000000 0.000000
# 5 0.000000 0.000000 0.000000 0.000000 0.038580 0.000000
# 6 0.000000 0.000000 0.000000 0.000000 0.000000 0.037374
#
#
# Mechanical properties :
#
#
# Convention : Reuss Voigt Hill
#
# Bulk Modulus (GPa) = 52.39655 56.87649 54.63652
# Shear Modulus (GPa) = 3.88790 19.98373 11.93582
#
# Velocity S-wave (km/s) = 1.51504 3.43483 2.65456
# Velocity P-wave (km/s) = 5.83048 7.02209 6.45385
#
# Compressibility (1/GPa) = 0.01908523
#
# Stress axis : x y z
#
# Youngs Moduli (GPa) = 44.61421 45.68978 82.57053
#
# Poissons Ratio (x) = 0.44156 0.60869
# Poissons Ratio (y) = 0.43117 0.13437
# Poissons Ratio (z) = 0.32888 0.07435
#
# Static dielectric constant tensor:
#      x y z
#    x 1.566900 0.000000 0.000000 
#    y 0.000000 1.555800 0.000000 
#    z 0.000000 0.000000 1.550370 
# 
# From -- ./inp_files/20948.got.cif
#   From: 2010.05.17/outbox.cif.g08.bks.cpg/sg59_11_cif.got.tgz:20948.got - 2010.06.03 14:40:33.
