data_PCOD9450332
_publ_section_title
;
Structure prediction by ZEFSAII (Michael W. Deem and Ramdas Pophale) SiO2 
 PCOD9450332
Probable space group: P M M N
;
_chemical_formula_sum "Si O2"
_cell_formula_units_Z 56
_cell_length_a 8.755863
_cell_length_b 23.541030
_cell_length_c 15.726761
_cell_angle_alpha 90.000000
_cell_angle_beta 90.000000
_cell_angle_gamma 90.000000
_cell_volume 3241.631959
_symmetry_space_group_name_H-M "P M M N"
_symmetry_group_IT_number 59
_space_group.IT_coordinate_system_code '2'
_symmetry_cell_setting 'orthorhombic'
loop_
_space_group_symop_operation_xyz
x,y,z
1/2-x,1/2-y,z
1/2+x,-y,-z
-x,1/2+y,-z
-x,-y,-z
1/2+x,1/2+y,-z
1/2-x,y,z
x,1/2-y,z
loop_
_atom_site_type_symbol
_atom_site_label
_atom_site_fract_x
_atom_site_fract_y
_atom_site_fract_z
Si Si1 0.567579 0.370061 0.154053
Si Si2 0.567105 0.421190 0.667483
Si Si3 0.066511 0.133050 0.831575
Si Si4 0.066489 0.053821 0.303790
Si Si5 0.066781 0.938113 0.016873
Si Si6 0.933390 0.750000 0.882820
Si Si7 0.067119 0.063370 0.492686
Si Si8 0.064621 0.250000 0.919830
O O1 0.750000 0.365307 0.157847
O O2 0.510664 0.412224 0.227715
O O3 0.526244 0.397647 0.062752
O O4 0.494094 0.307767 0.159069
O O5 0.750000 0.419608 0.665486
O O6 0.501283 0.380834 0.739875
O O7 0.522736 0.486878 0.690619
O O8 0.502686 0.405906 0.574380
O O9 0.250000 0.131295 0.828389
O O10 0.016909 0.193622 0.870001
O O11 0.004978 0.086633 0.897665
O O12 0.250000 0.055535 0.292898
O O13 0.029617 0.081244 0.396158
O O14 0.250000 0.940440 0.024088
O O15 0.000000 0.000000 0.000000
O O16 0.750000 0.750000 0.881470
O O17 0.986358 0.750000 0.982014
O O18 0.250000 0.061522 0.499854
O O19 0.000000 0.000000 0.500000
O O20 0.250000 0.250000 0.922102
#
# Coordination Sequence:
#
# PCOD9450332 Si02
#       8
#     8   8   8   8   8   4   8   4
#     4  11  23  36  53  79 108 138 178 226 270 313
#     4  10  20  34  53  82 114 145 180 220 270 325
#     4  11  21  36  56  78 105 139 181 226 270 321
#     4   9  19  34  53  78 110 144 179 216 264 325
#     4  11  23  36  51  76 109 143 176 216 266 321
#     4  11  21  39  61  76  99 140 185 225 268 322
#     4   9  17  31  52  79 110 145 181 221 266 319
#     4   9  20  37  57  78  99 136 185 225 268 320
#
# _framework density 17.275248000000001
#
# number of rings (size 3 to 8) (size 9 to 14) (size 15 to 20)
#    0.000    1.857    1.429    4.071    0.000    7.429 
#    0.000    1.429    0.000    0.857    0.000    2.000 
#    0.000    0.000    0.000    0.000    0.000    0.000 
#
# Total GULP energy -312571.829602 kJ/mol
# GULP energy per Si atom -5581.639814 kJ/mol
# Density = 1.723593 g / cm^3
# Si number density = 17.275248 Si / 1000 Ang^3
#
#
#
# Elastic Constant Matrix: (Units=GPa)
#
#
# Indices 1 2 3 4 5 6 
#
# 1 39.8344 3.8798 14.9616 0.0000 0.0000 0.0000
# 2 3.8798 41.1591 -15.6435 0.0000 0.0000 0.0000
# 3 14.9616 -15.6435 69.5259 0.0000 0.0000 0.0000
# 4 0.0000 0.0000 0.0000 16.5724 0.0000 0.0000
# 5 0.0000 0.0000 0.0000 0.0000 33.8474 0.0000
# 6 0.0000 0.0000 0.0000 0.0000 0.0000 23.7371
#
#
#
# Elastic Compliance Matrix: (Units=1/GPa)
#
#
# Indices 1 2 3 4 5 6 
#
# 1 0.028393 -0.005466 -0.007340 0.000000 0.000000 0.000000
# 2 -0.005466 0.027620 0.007391 0.000000 0.000000 0.000000
# 3 -0.007340 0.007391 0.017626 0.000000 0.000000 0.000000
# 4 0.000000 0.000000 0.000000 0.060341 0.000000 0.000000
# 5 0.000000 0.000000 0.000000 0.000000 0.029544 0.000000
# 6 0.000000 0.000000 0.000000 0.000000 0.000000 0.042128
#
#
# Mechanical properties :
#
#
# Convention : Reuss Voigt Hill
#
# Bulk Modulus (GPa) = 15.92134 17.43501 16.67818
# Shear Modulus (GPa) = 21.05977 24.65281 22.85629
#
# Velocity S-wave (km/s) = 3.49531 3.78174 3.64134
# Velocity P-wave (km/s) = 5.05231 5.40214 5.23015
#
# Compressibility (1/GPa) = 0.06280877
#
# Stress axis : x y z
#
# Youngs Moduli (GPa) = 35.21974 36.20523 56.73559
#
# Poissons Ratio (x) = 0.19790 0.41644
# Poissons Ratio (y) = 0.19252 -0.41933
# Poissons Ratio (z) = 0.25851 -0.26759
#
# Static dielectric constant tensor:
#      x y z
#    x 1.577120 0.000000 0.000000 
#    y 0.000000 1.580850 0.000000 
#    z 0.000000 0.000000 1.587240 
# 
# From -- ./inp_files/21198.got.cif
#   From: 2010.05.17/outbox.cif.g08.bks.cpg/sg59_11_cif.got.tgz:21198.got - 2010.06.03 14:40:33.
