data_PCOD9450655
_publ_section_title
;
Structure prediction by ZEFSAII (Michael W. Deem and Ramdas Pophale) SiO2 
 PCOD9450655
Probable space group: P M M N
;
_chemical_formula_sum "Si O2"
_cell_formula_units_Z 48
_cell_length_a 8.824759
_cell_length_b 19.079761
_cell_length_c 15.150203
_cell_angle_alpha 90.000000
_cell_angle_beta 90.000000
_cell_angle_gamma 90.000000
_cell_volume 2550.904713
_symmetry_space_group_name_H-M "P M M N"
_symmetry_group_IT_number 59
_space_group.IT_coordinate_system_code '2'
_symmetry_cell_setting 'orthorhombic'
loop_
_space_group_symop_operation_xyz
x,y,z
1/2-x,1/2-y,z
1/2+x,-y,-z
-x,1/2+y,-z
-x,-y,-z
1/2+x,1/2+y,-z
1/2-x,y,z
x,1/2-y,z
loop_
_atom_site_type_symbol
_atom_site_label
_atom_site_fract_x
_atom_site_fract_y
_atom_site_fract_z
Si Si1 0.570286 0.401070 0.066465
Si Si2 0.071692 0.330393 0.222385
Si Si3 0.430522 0.950694 0.124279
Si Si4 0.567417 0.921843 0.311035
Si Si5 0.069795 0.923964 0.627449
Si Si6 0.067342 0.170091 0.526164
O O1 0.750000 0.394165 0.080125
O O2 0.482019 0.343671 0.122742
O O3 0.514741 0.476007 0.104575
O O4 0.539869 0.402977 0.961847
O O5 0.250000 0.345494 0.230921
O O6 0.045854 0.250000 0.248532
O O7 0.979483 0.381916 0.285340
O O8 0.250000 0.963666 0.128392
O O9 0.489396 0.920024 0.215973
O O10 0.750000 0.922904 0.299153
O O11 0.527576 0.858913 0.376926
O O12 0.523926 0.995196 0.358622
O O13 0.250000 0.922117 0.617326
O O14 0.995112 0.883771 0.545907
O O15 0.250000 0.169623 0.519409
O O16 0.015180 0.250000 0.511510
#
# Coordination Sequence:
#
# PCOD9450655 Si02
#       6
#     8   8   8   8   8   8
#     4  10  20  35  55  82 114 148 187 230 280 335
#     4  11  23  37  55  82 116 154 194 236 285 341
#     4  10  20  34  57  85 112 145 185 231 280 330
#     4  10  21  37  58  85 114 147 190 237 283 336
#     4  11  22  36  57  85 113 146 189 237 288 339
#     4  10  22  40  59  80 111 151 191 233 284 341
#
# _framework density 18.816853999999999
#
# number of rings (size 3 to 8) (size 9 to 14) (size 15 to 20)
#    0.000    1.667    1.667    3.000    0.000    7.000 
#    0.000    0.833    0.000    3.000    0.000    0.000 
#    0.000    0.000    0.000    0.000    0.000    0.000 
#
# Total GULP energy -268134.132049 kJ/mol
# GULP energy per Si atom -5586.127751 kJ/mol
# Density = 1.877403 g / cm^3
# Si number density = 18.816854 Si / 1000 Ang^3
#
#
#
# Elastic Constant Matrix: (Units=GPa)
#
#
# Indices 1 2 3 4 5 6 
#
# 1 12.4452 6.7545 12.8990 0.0000 0.0000 0.0000
# 2 6.7545 27.7684 9.5660 0.0000 0.0000 0.0000
# 3 12.8990 9.5660 100.4966 0.0000 0.0000 0.0000
# 4 0.0000 0.0000 0.0000 9.9180 0.0000 0.0000
# 5 0.0000 0.0000 0.0000 0.0000 36.4277 0.0000
# 6 0.0000 0.0000 0.0000 0.0000 0.0000 21.5670
#
#
#
# Elastic Compliance Matrix: (Units=1/GPa)
#
#
# Indices 1 2 3 4 5 6 
#
# 1 0.103602 -0.021319 -0.011268 0.000000 0.000000 0.000000
# 2 -0.021319 0.041620 -0.001225 0.000000 0.000000 0.000000
# 3 -0.011268 -0.001225 0.011514 0.000000 0.000000 0.000000
# 4 0.000000 0.000000 0.000000 0.100826 0.000000 0.000000
# 5 0.000000 0.000000 0.000000 0.000000 0.027452 0.000000
# 6 0.000000 0.000000 0.000000 0.000000 0.000000 0.046367
#
#
# Mechanical properties :
#
#
# Convention : Reuss Voigt Hill
#
# Bulk Modulus (GPa) = 11.22197 22.12766 16.67481
# Shear Modulus (GPa) = 11.66292 21.01526 16.33909
#
# Velocity S-wave (km/s) = 2.49230 3.34553 2.94993
# Velocity P-wave (km/s) = 3.77609 5.16802 4.52589
#
# Compressibility (1/GPa) = 0.08911094
#
# Stress axis : x y z
#
# Youngs Moduli (GPa) = 9.65231 24.02697 86.85421
#
# Poissons Ratio (x) = 0.51222 0.97870
# Poissons Ratio (y) = 0.20577 0.10643
# Poissons Ratio (z) = 0.10877 0.02944
#
# Static dielectric constant tensor:
#      x y z
#    x 1.629410 0.000000 0.000000 
#    y 0.000000 1.637340 0.000000 
#    z 0.000000 0.000000 1.658570 
# 
# From -- ./inp_files/20295.got.cif
#   From: 2010.05.17/outbox.cif.g08.bks.cpg/sg59_11_cif.got.tgz:20295.got - 2010.06.03 14:40:33.
