data_PCOD9450255
_publ_section_title
;
Structure prediction by ZEFSAII (Michael W. Deem and Ramdas Pophale) SiO2 
 PCOD9450255
Probable space group: P M M N
;
_chemical_formula_sum "Si O2"
_cell_formula_units_Z 56
_cell_length_a 8.589743
_cell_length_b 20.306768
_cell_length_c 16.429491
_cell_angle_alpha 90.000000
_cell_angle_beta 90.000000
_cell_angle_gamma 90.000000
_cell_volume 2865.794773
_symmetry_space_group_name_H-M "P M M N"
_symmetry_group_IT_number 59
_space_group.IT_coordinate_system_code '2'
_symmetry_cell_setting 'orthorhombic'
loop_
_space_group_symop_operation_xyz
x,y,z
1/2-x,1/2-y,z
1/2+x,-y,-z
-x,1/2+y,-z
-x,-y,-z
1/2+x,1/2+y,-z
1/2-x,y,z
x,1/2-y,z
loop_
_atom_site_type_symbol
_atom_site_label
_atom_site_fract_x
_atom_site_fract_y
_atom_site_fract_z
Si Si1 0.935584 0.325846 0.996012
Si Si2 0.562404 0.675485 0.475620
Si Si3 0.059922 0.456424 0.253469
Si Si4 0.436275 0.911064 0.332510
Si Si5 0.939690 0.823292 0.664765
Si Si6 0.066489 0.172034 0.817797
Si Si7 0.564712 0.545851 0.928749
O O1 0.750000 0.330254 0.004767
O O2 0.984114 0.250000 0.011070
O O3 0.981196 0.342237 0.902834
O O4 0.016592 0.379162 0.052838
O O5 0.750000 0.673241 0.471602
O O6 0.514639 0.750000 0.451033
O O7 0.495992 0.621517 0.415117
O O8 0.517732 0.666423 0.570009
O O9 0.250000 0.455087 0.252613
O O10 0.013183 0.513857 0.315530
O O11 0.005993 0.384465 0.281637
O O12 0.008580 0.472773 0.161722
O O13 0.250000 0.909042 0.331948
O O14 0.498941 0.868684 0.256771
O O15 0.750000 0.822852 0.667344
O O16 0.991837 0.750000 0.689963
O O17 0.250000 0.158773 0.827468
O O18 0.047376 0.250000 0.801388
O O19 0.750000 0.540118 0.929988
O O20 0.500000 0.500000 0.000000
#
# Coordination Sequence:
#
# PCOD9450255 Si02
#       7
#     8   8   8   8   8   8   8
#     4  10  21  37  56  79 109 142 177 223 280 337
#     4   9  18  33  54  79 105 136 176 218 258 307
#     4   9  20  35  51  77 107 135 174 223 269 314
#     4  11  21  32  49  76 112 146 174 211 264 323
#     4   8  15  32  57  79 101 133 174 221 269 312
#     4  10  20  34  53  77 105 139 183 229 266 310
#     4  11  22  37  58  81 109 145 186 232 279 330
#
# _framework density 19.540825999999999
#
# number of rings (size 3 to 8) (size 9 to 14) (size 15 to 20)
#    0.000    2.286    0.000    3.857    0.000    6.000 
#    0.000    3.571    0.000    2.571    0.000    0.000 
#    0.000    0.000    0.000    0.000    0.000    0.000 
#
# Total GULP energy -312684.448457 kJ/mol
# GULP energy per Si atom -5583.650865 kJ/mol
# Density = 1.949635 g / cm^3
# Si number density = 19.540826 Si / 1000 Ang^3
#
#
#
# Elastic Constant Matrix: (Units=GPa)
#
#
# Indices 1 2 3 4 5 6 
#
# 1 24.7412 20.1448 13.5851 0.0000 0.0000 0.0000
# 2 20.1448 104.3732 61.8011 0.0000 0.0000 0.0000
# 3 13.5851 61.8011 73.6398 0.0000 0.0000 0.0000
# 4 0.0000 0.0000 0.0000 31.5740 0.0000 0.0000
# 5 0.0000 0.0000 0.0000 0.0000 20.0856 0.0000
# 6 0.0000 0.0000 0.0000 0.0000 0.0000 26.9039
#
#
#
# Elastic Compliance Matrix: (Units=1/GPa)
#
#
# Indices 1 2 3 4 5 6 
#
# 1 0.048125 -0.008014 -0.002153 0.000000 0.000000 0.000000
# 2 -0.008014 0.020379 -0.015625 0.000000 0.000000 0.000000
# 3 -0.002153 -0.015625 0.027089 0.000000 0.000000 0.000000
# 4 0.000000 0.000000 0.000000 0.031672 0.000000 0.000000
# 5 0.000000 0.000000 0.000000 0.000000 0.049787 0.000000
# 6 0.000000 0.000000 0.000000 0.000000 0.000000 0.037169
#
#
# Mechanical properties :
#
#
# Convention : Reuss Voigt Hill
#
# Bulk Modulus (GPa) = 22.72117 43.75737 33.23927
# Shear Modulus (GPa) = 17.82689 22.86092 20.34390
#
# Velocity S-wave (km/s) = 3.02369 3.42410 3.23010
# Velocity P-wave (km/s) = 4.88293 6.17041 5.56404
#
# Compressibility (1/GPa) = 0.04401181
#
# Stress axis : x y z
#
# Youngs Moduli (GPa) = 20.77903 49.06924 36.91471
#
# Poissons Ratio (x) = 0.39324 0.07946
# Poissons Ratio (y) = 0.16652 0.57678
# Poissons Ratio (z) = 0.04473 0.76669
#
# Static dielectric constant tensor:
#      x y z
#    x 1.658690 0.000000 0.000000 
#    y 0.000000 1.696250 0.000000 
#    z 0.000000 0.000000 1.665070 
# 
# From -- ./inp_files/20953.got.cif
#   From: 2010.05.17/outbox.cif.g08.bks.cpg/sg59_11_cif.got.tgz:20953.got - 2010.06.03 14:40:33.
