data_PCOD9450033
_publ_section_title
;
Structure prediction by ZEFSAII (Michael W. Deem and Ramdas Pophale) SiO2 
 PCOD9450033
Probable space group: P M M N
;
_chemical_formula_sum "Si O2"
_cell_formula_units_Z 48
_cell_length_a 12.700538
_cell_length_b 17.714284
_cell_length_c 9.936949
_cell_angle_alpha 90.000000
_cell_angle_beta 90.000000
_cell_angle_gamma 90.000000
_cell_volume 2235.624098
_symmetry_space_group_name_H-M "P M M N"
_symmetry_group_IT_number 59
_space_group.IT_coordinate_system_code '2'
_symmetry_cell_setting 'orthorhombic'
loop_
_space_group_symop_operation_xyz
x,y,z
1/2-x,1/2-y,z
1/2+x,-y,-z
-x,1/2+y,-z
-x,-y,-z
1/2+x,1/2+y,-z
1/2-x,y,z
x,1/2-y,z
loop_
_atom_site_type_symbol
_atom_site_label
_atom_site_fract_x
_atom_site_fract_y
_atom_site_fract_z
Si Si1 0.428013 0.534242 0.211631
Si Si2 0.865205 0.838004 0.020023
Si Si3 0.362616 0.839548 0.677122
Si Si4 0.926004 0.076704 0.074780
Si Si5 0.939122 0.570455 0.565009
Si Si6 0.061965 0.162100 0.677932
O O1 0.539576 0.495597 0.163788
O O2 0.380801 0.470886 0.310843
O O3 0.457428 0.612172 0.286963
O O4 0.377110 0.553051 0.067779
O O5 0.750000 0.866638 0.979855
O O6 0.873684 0.750000 0.979645
O O7 0.874845 0.839397 0.182213
O O8 0.963209 0.882510 0.959823
O O9 0.250000 0.864687 0.615566
O O10 0.368122 0.750000 0.668776
O O11 0.363082 0.867448 0.831194
O O12 0.468075 0.874925 0.617006
O O13 0.884855 0.618040 0.446695
O O14 0.000000 0.500000 0.500000
O O15 0.040782 0.250000 0.646085
#
# Coordination Sequence:
#
# PCOD9450033 Si02
#       6
#     8   8   8   8   8   8
#     4   8  16  29  46  70  99 132 170 206 250 312
#     4   9  17  29  49  77 103 132 173 214 257 313
#     4  10  20  33  54  83 109 140 183 225 269 323
#     4   9  16  31  50  72 105 140 169 212 265 311
#     4   9  17  32  51  72 101 134 172 217 263 314
#     4   9  16  28  49  72  95 129 169 212 261 306
#
# _framework density 21.470514000000001
#
# number of rings (size 3 to 8) (size 9 to 14) (size 15 to 20)
#    0.000    3.000    0.000    1.000    0.000    0.667 
#    0.000   30.000    0.000   23.000    0.000   35.000 
#    0.000    0.000    0.000    0.000    0.000    0.000 
#
# Total GULP energy -267262.220831 kJ/mol
# GULP energy per Si atom -5567.962934 kJ/mol
# Density = 2.142165 g / cm^3
# Si number density = 21.470514 Si / 1000 Ang^3
#
#
#
# Elastic Constant Matrix: (Units=GPa)
#
#
# Indices 1 2 3 4 5 6 
#
# 1 76.1019 21.7308 1.1779 0.0000 0.0000 0.0000
# 2 21.7308 116.8584 24.6539 0.0000 0.0000 0.0000
# 3 1.1779 24.6539 73.1528 0.0000 0.0000 0.0000
# 4 0.0000 0.0000 0.0000 43.2740 0.0000 0.0000
# 5 0.0000 0.0000 0.0000 0.0000 10.3004 0.0000
# 6 0.0000 0.0000 0.0000 0.0000 0.0000 -4.4365
#
#
#
# Elastic Compliance Matrix: (Units=1/GPa)
#
#
# Indices 1 2 3 4 5 6 
#
# 1 0.013910 -0.002734 0.000697 0.000000 0.000000 0.000000
# 2 -0.002734 0.009750 -0.003242 0.000000 0.000000 0.000000
# 3 0.000697 -0.003242 0.014751 0.000000 0.000000 0.000000
# 4 0.000000 0.000000 0.000000 0.023109 0.000000 0.000000
# 5 0.000000 0.000000 0.000000 0.000000 0.097084 0.000000
# 6 0.000000 0.000000 0.000000 0.000000 0.000000 -0.225401
#
#
# Mechanical properties :
#
#
# Convention : Reuss Voigt Hill
#
# Bulk Modulus (GPa) = 35.90070 40.13759 38.01915
# Shear Modulus (GPa) = -106.48157 24.39760 -41.04198
#
# Velocity S-wave (km/s) = -7.04996 3.37461 -4.37687
# Velocity P-wave (km/s) = 7.03648 5.82399 2.79224
#
# Compressibility (1/GPa) = 0.02785461
#
# Stress axis : x y z
#
# Youngs Moduli (GPa) = 71.89009 102.56750 67.79045
#
# Poissons Ratio (x) = 0.28040 -0.04728
# Poissons Ratio (y) = 0.19654 0.21976
# Poissons Ratio (z) = -0.05013 0.33250
#
# Static dielectric constant tensor:
#      x y z
#    x 1.799370 0.000000 0.000000 
#    y 0.000000 1.799470 0.000000 
#    z 0.000000 0.000000 1.880050 
# 
# From -- ./inp_files/17032.got.cif
#   From: 2010.05.17/outbox.cif.g08.bks.cpg/sg59_9_cif.got.tgz:17032.got - 2010.06.03 14:40:33.
