data_PCOD9450094
_publ_section_title
;
Structure prediction by ZEFSAII (Michael W. Deem and Ramdas Pophale) SiO2 
 PCOD9450094
Probable space group: P M M N
;
_chemical_formula_sum "Si O2"
_cell_formula_units_Z 56
_cell_length_a 9.208309
_cell_length_b 14.880382
_cell_length_c 20.683843
_cell_angle_alpha 90.000000
_cell_angle_beta 90.000000
_cell_angle_gamma 90.000000
_cell_volume 2834.165436
_symmetry_space_group_name_H-M "P M M N"
_symmetry_group_IT_number 59
_space_group.IT_coordinate_system_code '2'
_symmetry_cell_setting 'orthorhombic'
loop_
_space_group_symop_operation_xyz
x,y,z
1/2-x,1/2-y,z
1/2+x,-y,-z
-x,1/2+y,-z
-x,-y,-z
1/2+x,1/2+y,-z
1/2-x,y,z
x,1/2-y,z
loop_
_atom_site_type_symbol
_atom_site_label
_atom_site_fract_x
_atom_site_fract_y
_atom_site_fract_z
Si Si1 0.087231 0.380565 0.460529
Si Si2 0.575521 0.647977 0.900072
Si Si3 0.075617 0.965052 0.163427
Si Si4 0.580028 0.143634 0.965961
Si Si5 0.076910 0.151532 0.313269
Si Si6 0.923290 0.537242 0.291805
Si Si7 0.085501 0.590587 0.418922
O O1 0.250000 0.355968 0.480138
O O2 0.055309 0.341080 0.390494
O O3 0.088397 0.487099 0.443971
O O4 0.981822 0.359428 0.519492
O O5 0.750000 0.648598 0.903858
O O6 0.527086 0.750000 0.884478
O O7 0.536985 0.569576 0.850131
O O8 0.512296 0.623216 0.970301
O O9 0.250000 0.959258 0.174371
O O10 0.040947 0.912055 0.097601
O O11 0.989653 0.927685 0.224669
O O12 0.750000 0.125891 0.979981
O O13 0.564096 0.250000 0.952859
O O14 0.250000 0.133054 0.302295
O O15 0.044563 0.250000 0.284252
O O16 0.982877 0.065667 0.294314
O O17 0.750000 0.539383 0.293351
O O18 0.989447 0.587893 0.354248
O O19 0.250000 0.618131 0.404478
#
# Coordination Sequence:
#
# PCOD9450094 Si02
#       7
#     8   8   8   8   8   8   8
#     4   8  14  25  44  69  91 114 150 195 239 282
#     4   9  18  32  51  76 104 134 167 202 244 300
#     4  10  20  34  51  72 102 138 173 208 252 309
#     4   9  18  33  54  78 101 127 163 211 263 307
#     4   9  18  33  51  70  97 134 170 204 249 306
#     4  11  22  33  47  70  99 131 170 213 253 296
#     4   9  16  28  46  66  90 120 154 194 242 294
#
# _framework density 19.758904000000001
#
# number of rings (size 3 to 8) (size 9 to 14) (size 15 to 20)
#    0.000    2.714    0.000    3.000    0.000    5.429 
#    0.000    1.429    0.000    0.857    0.000    0.000 
#    0.000    0.000    0.000    0.000    0.000    0.000 
#
# Total GULP energy -312291.631770 kJ/mol
# GULP energy per Si atom -5576.636282 kJ/mol
# Density = 1.971393 g / cm^3
# Si number density = 19.758904 Si / 1000 Ang^3
#
#
#
# Elastic Constant Matrix: (Units=GPa)
#
#
# Indices 1 2 3 4 5 6 
#
# 1 65.9022 6.5422 54.2772 0.0000 0.0000 0.0000
# 2 6.5422 16.4379 4.6399 0.0000 0.0000 0.0000
# 3 54.2772 4.6399 98.8277 0.0000 0.0000 0.0000
# 4 0.0000 0.0000 0.0000 1.1942 0.0000 0.0000
# 5 0.0000 0.0000 0.0000 0.0000 34.5637 0.0000
# 6 0.0000 0.0000 0.0000 0.0000 0.0000 8.3135
#
#
#
# Elastic Compliance Matrix: (Units=1/GPa)
#
#
# Indices 1 2 3 4 5 6 
#
# 1 0.028483 -0.007013 -0.015314 0.000000 0.000000 0.000000
# 2 -0.007013 0.063379 0.000876 0.000000 0.000000 0.000000
# 3 -0.015314 0.000876 0.018488 0.000000 0.000000 0.000000
# 4 0.000000 0.000000 0.000000 0.837352 0.000000 0.000000
# 5 0.000000 0.000000 0.000000 0.000000 0.028932 0.000000
# 6 0.000000 0.000000 0.000000 0.000000 0.000000 0.120286
#
#
# Mechanical properties :
#
#
# Convention : Reuss Voigt Hill
#
# Bulk Modulus (GPa) = 14.82628 34.67630 24.75129
# Shear Modulus (GPa) = 4.30180 16.52818 10.41499
#
# Velocity S-wave (km/s) = 1.47712 2.89536 2.29836
# Velocity P-wave (km/s) = 3.22940 5.36333 4.42687
#
# Compressibility (1/GPa) = 0.06744779
#
# Stress axis : x y z
#
# Youngs Moduli (GPa) = 35.10912 15.77809 54.08935
#
# Poissons Ratio (x) = 0.11066 0.82831
# Poissons Ratio (y) = 0.24624 -0.04739
# Poissons Ratio (z) = 0.53765 -0.01383
#
# Static dielectric constant tensor:
#      x y z
#    x 1.670160 0.000000 0.000000 
#    y 0.000000 1.751770 0.000000 
#    z 0.000000 0.000000 1.693400 
# 
# From -- ./inp_files/29047.got.cif
#   From: 2010.05.17/outbox.cif.g08.bks.cpg/sg59_15_cif.got.tgz:29047.got - 2010.06.03 14:40:33.
