data_PCOD9450707
_publ_section_title
;
Structure prediction by ZEFSAII (Michael W. Deem and Ramdas Pophale) SiO2 
 PCOD9450707
Probable space group: P M M N
;
_chemical_formula_sum "Si O2"
_cell_formula_units_Z 48
_cell_length_a 8.192797
_cell_length_b 21.521723
_cell_length_c 15.417823
_cell_angle_alpha 90.000000
_cell_angle_beta 90.000000
_cell_angle_gamma 90.000000
_cell_volume 2718.518464
_symmetry_space_group_name_H-M "P M M N"
_symmetry_group_IT_number 59
_space_group.IT_coordinate_system_code '2'
_symmetry_cell_setting 'orthorhombic'
loop_
_space_group_symop_operation_xyz
x,y,z
1/2-x,1/2-y,z
1/2+x,-y,-z
-x,1/2+y,-z
-x,-y,-z
1/2+x,1/2+y,-z
1/2-x,y,z
x,1/2-y,z
loop_
_atom_site_type_symbol
_atom_site_label
_atom_site_fract_x
_atom_site_fract_y
_atom_site_fract_z
Si Si1 0.946201 0.044620 0.422904
Si Si2 0.559827 0.844464 0.806108
Si Si3 0.553684 0.447243 0.931354
Si Si4 0.444996 0.817726 0.613747
Si Si5 0.444851 0.979482 0.772334
Si Si6 0.054816 0.816418 0.995705
O O1 0.750000 0.047895 0.424653
O O2 0.007861 0.116586 0.425239
O O3 0.991770 0.016273 0.328801
O O4 0.000000 0.000000 0.500000
O O5 0.750000 0.828604 0.803674
O O6 0.478060 0.822608 0.716800
O O7 0.535042 0.918592 0.807995
O O8 0.481035 0.819428 0.893414
O O9 0.750000 0.446739 0.930714
O O10 0.490024 0.465134 0.836263
O O11 0.500000 0.500000 0.000000
O O12 0.491425 0.379710 0.961562
O O13 0.250000 0.817337 0.600431
O O14 0.509127 0.750000 0.583718
O O15 0.250000 0.968230 0.776669
O O16 0.250000 0.816920 0.007374
O O17 0.991153 0.750000 0.029209
#
# Coordination Sequence:
#
# PCOD9450707 Si02
#       6
#     8   8   8   8   8   8
#     4   9  19  34  54  78 102 131 167 210 259 308
#     4  11  20  29  46  74 104 133 168 208 253 304
#     4  11  21  33  53  77 102 135 176 217 254 300
#     4   9  18  33  51  71 101 138 169 201 251 313
#     4  10  20  35  53  74 102 136 173 212 258 311
#     4  10  21  35  49  67  99 141 176 209 255 307
#
# _framework density 17.656676000000001
#
# number of rings (size 3 to 8) (size 9 to 14) (size 15 to 20)
#    0.000    2.000    1.667    4.000    0.000    6.667 
#    0.000    0.000    0.000    1.000    0.000    7.000 
#    0.000    0.000    0.000    0.000    0.000    0.000 
#
# Total GULP energy -267670.018367 kJ/mol
# GULP energy per Si atom -5576.458716 kJ/mol
# Density = 1.761649 g / cm^3
# Si number density = 17.656676 Si / 1000 Ang^3
#
#
#
# Elastic Constant Matrix: (Units=GPa)
#
#
# Indices 1 2 3 4 5 6 
#
# 1 17.9072 10.0552 5.6304 0.0000 0.0000 0.0000
# 2 10.0552 173.1679 80.0215 0.0000 0.0000 0.0000
# 3 5.6304 80.0215 86.0560 0.0000 0.0000 0.0000
# 4 0.0000 0.0000 0.0000 68.5421 0.0000 0.0000
# 5 0.0000 0.0000 0.0000 0.0000 24.7027 0.0000
# 6 0.0000 0.0000 0.0000 0.0000 0.0000 17.0420
#
#
#
# Elastic Compliance Matrix: (Units=1/GPa)
#
#
# Indices 1 2 3 4 5 6 
#
# 1 0.057791 -0.002820 -0.001159 0.000000 0.000000 0.000000
# 2 -0.002820 0.010263 -0.009359 0.000000 0.000000 0.000000
# 3 -0.001159 -0.009359 0.020399 0.000000 0.000000 0.000000
# 4 0.000000 0.000000 0.000000 0.014590 0.000000 0.000000
# 5 0.000000 0.000000 0.000000 0.000000 0.040481 0.000000
# 6 0.000000 0.000000 0.000000 0.000000 0.000000 0.058679
#
#
# Mechanical properties :
#
#
# Convention : Reuss Voigt Hill
#
# Bulk Modulus (GPa) = 16.18711 52.06059 34.12385
# Shear Modulus (GPa) = 20.04232 34.15228 27.09730
#
# Velocity S-wave (km/s) = 3.37280 4.40277 3.92175
# Velocity P-wave (km/s) = 4.93511 7.44277 6.31467
#
# Compressibility (1/GPa) = 0.06177757
#
# Stress axis : x y z
#
# Youngs Moduli (GPa) = 17.30364 97.43325 49.02185
#
# Poissons Ratio (x) = 0.27479 0.05680
# Poissons Ratio (y) = 0.04880 0.45881
# Poissons Ratio (z) = 0.02005 0.91190
#
# Static dielectric constant tensor:
#      x y z
#    x 1.616890 0.000000 0.000000 
#    y 0.000000 1.673090 0.000000 
#    z 0.000000 0.000000 1.575910 
# 
# From -- ./inp_files/20716.got.cif
#   From: 2010.05.17/outbox.cif.g08.bks.cpg/sg59_11_cif.got.tgz:20716.got - 2010.06.03 14:40:33.
