data_PCOD9450721
_publ_section_title
;
Structure prediction by ZEFSAII (Michael W. Deem and Ramdas Pophale) SiO2 
 PCOD9450721
Probable space group: P M M N
;
_chemical_formula_sum "Si O2"
_cell_formula_units_Z 56
_cell_length_a 13.491302
_cell_length_b 21.863297
_cell_length_c 10.137761
_cell_angle_alpha 90.000000
_cell_angle_beta 90.000000
_cell_angle_gamma 90.000000
_cell_volume 2990.278008
_symmetry_space_group_name_H-M "P M M N"
_symmetry_group_IT_number 59
_space_group.IT_coordinate_system_code '2'
_symmetry_cell_setting 'orthorhombic'
loop_
_space_group_symop_operation_xyz
x,y,z
1/2-x,1/2-y,z
1/2+x,-y,-z
-x,1/2+y,-z
-x,-y,-z
1/2+x,1/2+y,-z
1/2-x,y,z
x,1/2-y,z
loop_
_atom_site_type_symbol
_atom_site_label
_atom_site_fract_x
_atom_site_fract_y
_atom_site_fract_z
Si Si1 0.632209 0.434205 0.513347
Si Si2 0.008652 0.875314 0.259890
Si Si3 0.363334 0.611768 0.763815
Si Si4 0.865451 0.177452 0.980758
Si Si5 0.026221 0.995277 0.847588
Si Si6 0.367865 0.058986 0.356426
Si Si7 0.133059 0.180321 0.527453
O O1 0.750000 0.430987 0.508391
O O2 0.591613 0.398044 0.637542
O O3 0.594513 0.400670 0.381633
O O4 0.609409 0.506302 0.533356
O O5 0.064214 0.846010 0.135524
O O6 0.933154 0.834428 0.344080
O O7 0.958412 0.937838 0.211272
O O8 0.250000 0.630955 0.746337
O O9 0.376487 0.545404 0.828969
O O10 0.405236 0.656318 0.875613
O O11 0.750000 0.155180 0.966198
O O12 0.862435 0.250000 0.976138
O O13 0.937394 0.960656 0.766670
O O14 0.000000 0.000000 0.000000
O O15 0.250000 0.053469 0.323286
O O16 0.382570 0.125993 0.420302
O O17 0.250000 0.177632 0.560786
O O18 0.111393 0.250000 0.481262
#
# Coordination Sequence:
#
# PCOD9450721 Si02
#       7
#     8   8   8   8   8   8   8
#     4   9  18  33  57  87 112 136 175 229 284 333
#     4  11  20  35  59  82 113 142 182 231 280 331
#     4  10  20  35  53  77 111 145 179 220 273 328
#     4  10  21  37  55  75 106 148 184 218 272 340
#     4  11  21  34  54  85 113 142 181 228 278 338
#     4   9  19  36  58  83 113 146 183 231 283 332
#     4  10  21  37  57  81 110 149 195 236 276 324
#
# _framework density 18.727356
#
# number of rings (size 3 to 8) (size 9 to 14) (size 15 to 20)
#    0.000    2.000    1.429    2.571    0.000    5.143 
#    0.000    3.571    0.000    3.429    0.000    0.000 
#    0.000    0.000    0.000    0.000    0.000    0.000 
#
# Total GULP energy -312029.134886 kJ/mol
# GULP energy per Si atom -5571.948837 kJ/mol
# Density = 1.868473 g / cm^3
# Si number density = 18.727356 Si / 1000 Ang^3
#
#
#
# Elastic Constant Matrix: (Units=GPa)
#
#
# Indices 1 2 3 4 5 6 
#
# 1 52.3538 27.9340 3.2924 0.0000 0.0000 0.0000
# 2 27.9340 103.9588 37.3459 0.0000 0.0000 0.0000
# 3 3.2924 37.3459 91.3079 0.0000 0.0000 0.0000
# 4 0.0000 0.0000 0.0000 20.8791 0.0000 0.0000
# 5 0.0000 0.0000 0.0000 0.0000 16.1724 0.0000
# 6 0.0000 0.0000 0.0000 0.0000 0.0000 24.9222
#
#
#
# Elastic Compliance Matrix: (Units=1/GPa)
#
#
# Indices 1 2 3 4 5 6 
#
# 1 0.022592 -0.006773 0.001956 0.000000 0.000000 0.000000
# 2 -0.006773 0.013307 -0.005198 0.000000 0.000000 0.000000
# 3 0.001956 -0.005198 0.013008 0.000000 0.000000 0.000000
# 4 0.000000 0.000000 0.000000 0.047895 0.000000 0.000000
# 5 0.000000 0.000000 0.000000 0.000000 0.061834 0.000000
# 6 0.000000 0.000000 0.000000 0.000000 0.000000 0.040125
#
#
# Mechanical properties :
#
#
# Convention : Reuss Voigt Hill
#
# Bulk Modulus (GPa) = 34.63268 42.75165 38.69217
# Shear Modulus (GPa) = 21.88996 24.33129 23.11062
#
# Velocity S-wave (km/s) = 3.42259 3.60840 3.51673
# Velocity P-wave (km/s) = 5.84398 6.34341 6.09881
#
# Compressibility (1/GPa) = 0.02887446
#
# Stress axis : x y z
#
# Youngs Moduli (GPa) = 44.26422 75.15115 76.87819
#
# Poissons Ratio (x) = 0.50899 -0.15034
# Poissons Ratio (y) = 0.29980 0.39963
# Poissons Ratio (z) = -0.08656 0.39066
#
# Static dielectric constant tensor:
#      x y z
#    x 1.700960 0.000000 0.000000 
#    y 0.000000 1.648940 0.000000 
#    z 0.000000 0.000000 1.854160 
# 
# From -- ./inp_files/9342.got.cif
#   From: 2010.05.17/outbox.cif.g08.bks.cpg/sg59_5_cif.got.tgz:9342.got - 2010.06.03 14:40:33.
