data_PCOD9450844
_publ_section_title
;
Structure prediction by ZEFSAII (Michael W. Deem and Ramdas Pophale) SiO2 
 PCOD9450844
Probable space group: P M M N
;
_chemical_formula_sum "Si O2"
_cell_formula_units_Z 56
_cell_length_a 8.618147
_cell_length_b 14.774441
_cell_length_c 24.377323
_cell_angle_alpha 90.000000
_cell_angle_beta 90.000000
_cell_angle_gamma 90.000000
_cell_volume 3103.923203
_symmetry_space_group_name_H-M "P M M N"
_symmetry_group_IT_number 59
_space_group.IT_coordinate_system_code '2'
_symmetry_cell_setting 'orthorhombic'
loop_
_space_group_symop_operation_xyz
x,y,z
1/2-x,1/2-y,z
1/2+x,-y,-z
-x,1/2+y,-z
-x,-y,-z
1/2+x,1/2+y,-z
1/2-x,y,z
x,1/2-y,z
loop_
_atom_site_type_symbol
_atom_site_label
_atom_site_fract_x
_atom_site_fract_y
_atom_site_fract_z
Si Si1 0.436268 0.648612 0.596506
Si Si2 0.062270 0.144465 0.742437
Si Si3 0.439571 0.458715 0.632802
Si Si4 0.933963 0.429690 0.853335
Si Si5 0.433251 0.356541 0.523632
Si Si6 0.565580 0.446187 0.053285
Si Si7 0.072383 0.250000 0.035850
Si Si8 0.071739 0.250000 0.904592
O O1 0.250000 0.651876 0.600520
O O2 0.496611 0.750000 0.609282
O O3 0.489796 0.563648 0.632783
O O4 0.479863 0.627643 0.533430
O O5 0.250000 0.143952 0.744084
O O6 0.012998 0.250000 0.747686
O O7 0.011627 0.100483 0.684836
O O8 0.999803 0.084373 0.792400
O O9 0.250000 0.456863 0.632561
O O10 0.489495 0.414010 0.575365
O O11 0.750000 0.439483 0.851872
O O12 0.006401 0.507815 0.890840
O O13 0.983453 0.337710 0.883924
O O14 0.250000 0.375073 0.515161
O O15 0.448384 0.250000 0.537067
O O16 0.750000 0.452684 0.050435
O O17 0.511463 0.342433 0.052231
O O18 0.500000 0.500000 0.000000
O O19 0.250000 0.250000 0.055982
O O20 0.077034 0.250000 0.969844
O O21 0.250000 0.250000 0.883484
#
# Coordination Sequence:
#
# PCOD9450844 Si02
#       8
#     8   8   8   8   8   8   4   4
#     4   9  17  29  46  69  98 131 168 208 259 316
#     4  10  20  35  56  77 101 135 179 226 274 326
#     4   9  17  30  49  72  97 131 172 216 262 316
#     4  12  24  38  58  84 116 150 187 231 281 335
#     4   9  16  27  45  70  99 128 165 208 256 314
#     4  12  24  39  61  89 120 155 194 233 279 334
#     4  11  23  39  61  91 124 154 188 233 284 333
#     4  11  21  35  59  87 118 154 190 227 272 331
#
# _framework density 18.041684
#
# number of rings (size 3 to 8) (size 9 to 14) (size 15 to 20)
#    0.000    1.714    2.143    3.857    0.000    2.286 
#    0.000    1.429    1.571    1.714    0.000    0.000 
#    0.000    0.000    0.000    0.000    0.000    0.000 
#
# Total GULP energy -312602.113097 kJ/mol
# GULP energy per Si atom -5582.180591 kJ/mol
# Density = 1.800062 g / cm^3
# Si number density = 18.041684 Si / 1000 Ang^3
#
#
#
# Elastic Constant Matrix: (Units=GPa)
#
#
# Indices 1 2 3 4 5 6 
#
# 1 61.8633 31.5855 16.5935 0.0000 0.0000 0.0000
# 2 31.5855 115.5978 53.2135 0.0000 0.0000 0.0000
# 3 16.5935 53.2135 63.9365 0.0000 0.0000 0.0000
# 4 0.0000 0.0000 0.0000 38.5529 0.0000 0.0000
# 5 0.0000 0.0000 0.0000 0.0000 22.9256 0.0000
# 6 0.0000 0.0000 0.0000 0.0000 0.0000 22.9517
#
#
#
# Elastic Compliance Matrix: (Units=1/GPa)
#
#
# Indices 1 2 3 4 5 6 
#
# 1 0.018823 -0.004692 -0.000980 0.000000 0.000000 0.000000
# 2 -0.004692 0.015193 -0.011427 0.000000 0.000000 0.000000
# 3 -0.000980 -0.011427 0.025406 0.000000 0.000000 0.000000
# 4 0.000000 0.000000 0.000000 0.025938 0.000000 0.000000
# 5 0.000000 0.000000 0.000000 0.000000 0.043619 0.000000
# 6 0.000000 0.000000 0.000000 0.000000 0.000000 0.043570
#
#
# Mechanical properties :
#
#
# Convention : Reuss Voigt Hill
#
# Bulk Modulus (GPa) = 39.64615 49.35361 44.49988
# Shear Modulus (GPa) = 23.23899 26.21972 24.72935
#
# Velocity S-wave (km/s) = 3.59287 3.81633 3.70628
# Velocity P-wave (km/s) = 6.26371 6.84353 6.56003
#
# Compressibility (1/GPa) = 0.02522313
#
# Stress axis : x y z
#
# Youngs Moduli (GPa) = 53.12609 65.81964 39.36135
#
# Poissons Ratio (x) = 0.30882 0.03858
# Poissons Ratio (y) = 0.24927 0.44979
# Poissons Ratio (z) = 0.05207 0.75214
#
# Static dielectric constant tensor:
#      x y z
#    x 1.615760 0.000000 0.000000 
#    y 0.000000 1.636670 0.000000 
#    z 0.000000 0.000000 1.602490 
# 
# From -- ./inp_files/29187.got.cif
#   From: 2010.05.17/outbox.cif.g08.bks.cpg/sg59_15_cif.got.tgz:29187.got - 2010.06.03 14:40:33.
