data_PCOD9450987
_publ_section_title
;
Structure prediction by ZEFSAII (Michael W. Deem and Ramdas Pophale) SiO2 
 PCOD9450987
Probable space group: P M M N
;
_chemical_formula_sum "Si O2"
_cell_formula_units_Z 56
_cell_length_a 24.350838
_cell_length_b 7.566831
_cell_length_c 13.709628
_cell_angle_alpha 90.000000
_cell_angle_beta 90.000000
_cell_angle_gamma 90.000000
_cell_volume 2526.117902
_symmetry_space_group_name_H-M "P M M N"
_symmetry_group_IT_number 59
_space_group.IT_coordinate_system_code '2'
_symmetry_cell_setting 'orthorhombic'
loop_
_space_group_symop_operation_xyz
x,y,z
1/2-x,1/2-y,z
1/2+x,-y,-z
-x,1/2+y,-z
-x,-y,-z
1/2+x,1/2+y,-z
1/2-x,y,z
x,1/2-y,z
loop_
_atom_site_type_symbol
_atom_site_label
_atom_site_fract_x
_atom_site_fract_y
_atom_site_fract_z
Si Si1 0.631210 0.460593 0.562075
Si Si2 0.250000 0.966780 0.364463
Si Si3 0.585684 0.033341 0.354042
Si Si4 0.034899 0.036994 0.285791
Si Si5 0.309394 0.545675 0.764907
Si Si6 0.337600 0.043242 0.978910
Si Si7 0.551756 0.961835 0.933994
Si Si8 0.250000 0.538036 0.139191
O O1 0.636949 0.250000 0.551290
O O2 0.692661 0.526430 0.586789
O O3 0.604980 0.525817 0.461078
O O4 0.586902 0.492458 0.647039
O O5 0.250000 0.750000 0.365999
O O6 0.250000 0.021679 0.250792
O O7 0.583636 0.250000 0.352389
O O8 0.524183 0.973754 0.326466
O O9 0.634055 0.974181 0.280323
O O10 0.031639 0.250000 0.282372
O O11 0.044496 0.971158 0.175798
O O12 0.250000 0.465881 0.736705
O O13 0.307720 0.750000 0.732767
O O14 0.313549 0.541853 0.881888
O O15 0.341734 0.250000 0.954374
O O16 0.395992 0.966505 0.008550
O O17 0.301169 0.024532 0.075273
O O18 0.559501 0.750000 0.926462
O O19 0.500000 0.000000 0.000000
O O20 0.250000 0.750000 0.139765
#
# Coordination Sequence:
#
# PCOD9450987 Si02
#       8
#     8   4   8   8   8   8   8   4
#     4  10  20  36  58  83 110 144 185 232 282 329
#     4   9  20  35  54  81 110 136 175 231 278 321
#     4   9  19  34  57  84 111 143 184 234 280 327
#     4  10  20  37  56  80 114 149 186 230 279 333
#     4  10  20  35  57  84 111 147 192 231 278 341
#     4  11  22  36  54  80 112 146 182 228 282 329
#     4  10  22  37  56  81 112 149 186 230 284 336
#     4  11  21  35  54  77 104 144 185 221 268 327
#
# _framework density 22.168403999999999
#
# number of rings (size 3 to 8) (size 9 to 14) (size 15 to 20)
#    0.000    2.000    0.714    2.786    1.000    2.857 
#    0.000    2.500    0.000    0.000    0.000    0.000 
#    0.000    0.000    0.000    0.000    0.000    0.000 
#
# Total GULP energy -312831.487854 kJ/mol
# GULP energy per Si atom -5586.276569 kJ/mol
# Density = 2.211795 g / cm^3
# Si number density = 22.168404 Si / 1000 Ang^3
#
#
#
# Elastic Constant Matrix: (Units=GPa)
#
#
# Indices 1 2 3 4 5 6 
#
# 1 191.7290 -2.9363 41.9114 0.0000 0.0000 0.0000
# 2 -2.9363 50.6818 -3.5620 0.0000 0.0000 0.0000
# 3 41.9114 -3.5620 88.5802 0.0000 0.0000 0.0000
# 4 0.0000 0.0000 0.0000 6.6259 0.0000 0.0000
# 5 0.0000 0.0000 0.0000 0.0000 19.0082 0.0000
# 6 0.0000 0.0000 0.0000 0.0000 0.0000 14.7098
#
#
#
# Elastic Compliance Matrix: (Units=1/GPa)
#
#
# Indices 1 2 3 4 5 6 
#
# 1 0.005818 0.000144 -0.002747 0.000000 0.000000 0.000000
# 2 0.000144 0.019790 0.000728 0.000000 0.000000 0.000000
# 3 -0.002747 0.000728 0.012618 0.000000 0.000000 0.000000
# 4 0.000000 0.000000 0.000000 0.150923 0.000000 0.000000
# 5 0.000000 0.000000 0.000000 0.000000 0.052609 0.000000
# 6 0.000000 0.000000 0.000000 0.000000 0.000000 0.067982
#
#
# Mechanical properties :
#
#
# Convention : Reuss Voigt Hill
#
# Bulk Modulus (GPa) = 29.00552 44.64635 36.82594
# Shear Modulus (GPa) = 15.38540 27.77398 21.57969
#
# Velocity S-wave (km/s) = 2.63729 3.54342 3.12339
# Velocity P-wave (km/s) = 4.73142 6.07655 5.44568
#
# Compressibility (1/GPa) = 0.03447620
#
# Stress axis : x y z
#
# Youngs Moduli (GPa) = 171.86777 50.52944 79.25005
#
# Poissons Ratio (x) = -0.00728 0.21771
# Poissons Ratio (y) = -0.02475 -0.05767
# Poissons Ratio (z) = 0.47215 -0.03677
#
# Static dielectric constant tensor:
#      x y z
#    x 1.775950 0.000000 0.000000 
#    y 0.000000 1.842900 0.000000 
#    z 0.000000 0.000000 1.754080 
# 
# From -- ./inp_files/24421.got.cif
#   From: 2010.05.17/outbox.cif.g08.bks.cpg/sg59_13_cif.got.tgz:24421.got - 2010.06.03 14:40:33.
