data_PCOD9450713
_publ_section_title
;
Structure prediction by ZEFSAII (Michael W. Deem and Ramdas Pophale) SiO2 
 PCOD9450713
Probable space group: P M M N
;
_chemical_formula_sum "Si O2"
_cell_formula_units_Z 48
_cell_length_a 7.512337
_cell_length_b 16.635847
_cell_length_c 17.311464
_cell_angle_alpha 90.000000
_cell_angle_beta 90.000000
_cell_angle_gamma 90.000000
_cell_volume 2163.484442
_symmetry_space_group_name_H-M "P M M N"
_symmetry_group_IT_number 59
_space_group.IT_coordinate_system_code '2'
_symmetry_cell_setting 'orthorhombic'
loop_
_space_group_symop_operation_xyz
x,y,z
1/2-x,1/2-y,z
1/2+x,-y,-z
-x,1/2+y,-z
-x,-y,-z
1/2+x,1/2+y,-z
1/2-x,y,z
x,1/2-y,z
loop_
_atom_site_type_symbol
_atom_site_label
_atom_site_fract_x
_atom_site_fract_y
_atom_site_fract_z
Si Si1 0.032499 0.250000 0.548837
Si Si2 0.539851 0.073108 0.151443
Si Si3 0.043209 0.100719 0.825896
Si Si4 0.968535 0.750000 0.272518
Si Si5 0.464625 0.340855 0.307063
Si Si6 0.963267 0.586799 0.537292
Si Si7 0.465940 0.842704 0.002650
O O1 0.250000 0.250000 0.545109
O O2 0.980882 0.250000 0.638385
O O3 0.973465 0.166378 0.509041
O O4 0.750000 0.060501 0.137787
O O5 0.521448 0.134589 0.221627
O O6 0.461950 0.987859 0.177906
O O7 0.468781 0.105871 0.070296
O O8 0.250000 0.093993 0.802545
O O9 0.967232 0.170975 0.772707
O O10 0.033249 0.127052 0.915093
O O11 0.750000 0.750000 0.268884
O O12 0.250000 0.341367 0.307224
O O13 0.521946 0.250000 0.325824
O O14 0.526783 0.401301 0.374316
O O15 0.750000 0.593069 0.538683
O O16 0.000000 0.500000 0.500000
O O17 0.250000 0.845987 0.005008
O O18 0.517050 0.750000 0.991680
#
# Coordination Sequence:
#
# PCOD9450713 Si02
#       7
#     4   8   8   4   8   8   8
#     4   9  18  36  61  82 111 152 188 227 283 343
#     4  10  22  36  55  84 112 144 186 230 277 330
#     4  10  20  35  55  80 108 139 185 234 273 325
#     4   9  18  32  53  80 105 134 180 231 267 315
#     4  10  21  39  59  83 115 150 188 229 277 333
#     4  10  21  38  61  87 115 151 191 233 284 342
#     4  10  20  35  53  75 109 148 183 223 280 336
#
# _framework density 22.186433000000001
#
# number of rings (size 3 to 8) (size 9 to 14) (size 15 to 20)
#    0.000    2.167    1.667    1.000    2.333    3.000 
#    0.000    0.417    0.000    1.000    0.000    0.000 
#    0.000    0.000    0.000    0.000    0.000    0.000 
#
# Total GULP energy -268127.063790 kJ/mol
# GULP energy per Si atom -5585.980496 kJ/mol
# Density = 2.213594 g / cm^3
# Si number density = 22.186433 Si / 1000 Ang^3
#
#
#
# Elastic Constant Matrix: (Units=GPa)
#
#
# Indices 1 2 3 4 5 6 
#
# 1 53.5812 -2.5846 -14.8859 0.0000 0.0000 0.0000
# 2 -2.5846 94.7563 6.4704 0.0000 0.0000 0.0000
# 3 -14.8859 6.4704 90.7882 0.0000 0.0000 0.0000
# 4 0.0000 0.0000 0.0000 -6.6395 0.0000 0.0000
# 5 0.0000 0.0000 0.0000 0.0000 -12.4638 0.0000
# 6 0.0000 0.0000 0.0000 0.0000 0.0000 7.4638
#
#
#
# Elastic Compliance Matrix: (Units=1/GPa)
#
#
# Indices 1 2 3 4 5 6 
#
# 1 0.019563 0.000316 0.003185 0.000000 0.000000 0.000000
# 2 0.000316 0.010610 -0.000704 0.000000 0.000000 0.000000
# 3 0.003185 -0.000704 0.011587 0.000000 0.000000 0.000000
# 4 0.000000 0.000000 0.000000 -0.150613 0.000000 0.000000
# 5 0.000000 0.000000 0.000000 0.000000 -0.080232 0.000000
# 6 0.000000 0.000000 0.000000 0.000000 0.000000 0.133980
#
#
# Mechanical properties :
#
#
# Convention : Reuss Voigt Hill
#
# Bulk Modulus (GPa) = 21.11733 24.12505 22.62119
# Shear Modulus (GPa) = -111.32386 14.34714 -48.48836
#
# Velocity S-wave (km/s) = -7.09123 2.54572 -4.68000
# Velocity P-wave (km/s) = 7.58344 4.42021 4.35719
#
# Compressibility (1/GPa) = 0.04735448
#
# Stress axis : x y z
#
# Youngs Moduli (GPa) = 51.11582 94.24980 86.30289
#
# Poissons Ratio (x) = -0.02979 -0.27489
# Poissons Ratio (y) = -0.01616 0.06079
# Poissons Ratio (z) = -0.16281 0.06638
#
# Static dielectric constant tensor:
#      x y z
#    x 1.834530 0.000000 0.000000 
#    y 0.000000 1.817630 0.000000 
#    z 0.000000 0.000000 1.773500 
# 
# From -- ./inp_files/25630.got.cif
#   From: 2010.05.17/outbox.cif.g08.bks.cpg/sg59_13_cif.got.tgz:25630.got - 2010.06.03 14:40:33.
