data_PCOD9450319
_publ_section_title
;
Structure prediction by ZEFSAII (Michael W. Deem and Ramdas Pophale) SiO2 
 PCOD9450319
Probable space group: P M M N
;
_chemical_formula_sum "Si O2"
_cell_formula_units_Z 56
_cell_length_a 8.671451
_cell_length_b 14.596155
_cell_length_c 24.975469
_cell_angle_alpha 90.000000
_cell_angle_beta 90.000000
_cell_angle_gamma 90.000000
_cell_volume 3161.141187
_symmetry_space_group_name_H-M "P M M N"
_symmetry_group_IT_number 59
_space_group.IT_coordinate_system_code '2'
_symmetry_cell_setting 'orthorhombic'
loop_
_space_group_symop_operation_xyz
x,y,z
1/2-x,1/2-y,z
1/2+x,-y,-z
-x,1/2+y,-z
-x,-y,-z
1/2+x,1/2+y,-z
1/2-x,y,z
x,1/2-y,z
loop_
_atom_site_type_symbol
_atom_site_label
_atom_site_fract_x
_atom_site_fract_y
_atom_site_fract_z
Si Si1 0.066120 0.750000 0.387850
Si Si2 0.935802 0.990841 0.229695
Si Si3 0.934798 0.991969 0.940608
Si Si4 0.435362 0.056912 0.650983
Si Si5 0.064063 0.645412 0.144148
Si Si6 0.436618 0.855749 0.853957
Si Si7 0.934735 0.750000 0.508015
Si Si8 0.565376 0.947030 0.551311
O O1 0.250000 0.750000 0.384560
O O2 0.000544 0.841829 0.360643
O O3 0.015726 0.750000 0.450264
O O4 0.750000 0.989870 0.228963
O O5 0.985337 0.981086 0.291068
O O6 0.996448 0.904746 0.195927
O O7 0.985359 0.081734 0.196918
O O8 0.750000 0.986175 0.942250
O O9 0.999681 0.906393 0.906677
O O10 0.979038 0.082259 0.906375
O O11 0.000000 0.000000 0.000000
O O12 0.250000 0.061672 0.649582
O O13 0.493360 0.990569 0.604130
O O14 0.250000 0.644608 0.147856
O O15 0.012222 0.750000 0.139138
O O16 0.250000 0.857514 0.856217
O O17 0.485603 0.750000 0.850036
O O18 0.750000 0.750000 0.497717
O O19 0.972445 0.659165 0.541231
O O20 0.750000 0.957370 0.553173
O O21 0.500000 0.000000 0.500000
#
# Coordination Sequence:
#
# PCOD9450319 Si02
#       8
#     4   8   8   8   8   8   4   8
#     4  12  24  36  58  86 110 146 192 227 270 343
#     4   9  20  37  56  80 108 142 181 224 274 326
#     4  10  20  34  53  80 114 146 182 226 273 324
#     4  11  23  39  57  83 118 148 180 232 287 334
#     4   9  19  35  54  77 106 141 178 221 270 319
#     4   9  18  36  60  81 106 144 189 232 277 327
#     4  10  22  40  60  80 112 148 182 231 286 333
#     4  11  22  38  60  84 112 148 188 231 282 337
#
# _framework density 17.715122000000001
#
# number of rings (size 3 to 8) (size 9 to 14) (size 15 to 20)
#    0.000    2.000    1.429    1.929    1.000    3.429 
#    1.286    1.429    0.000    0.000    0.000    0.000 
#    0.000    0.000    0.000    0.000    0.000    0.000 
#
# Total GULP energy -312624.625849 kJ/mol
# GULP energy per Si atom -5582.582604 kJ/mol
# Density = 1.767480 g / cm^3
# Si number density = 17.715122 Si / 1000 Ang^3
#
#
#
# Elastic Constant Matrix: (Units=GPa)
#
#
# Indices 1 2 3 4 5 6 
#
# 1 35.6577 44.1391 42.7585 0.0000 0.0000 0.0000
# 2 44.1391 180.9616 97.1792 0.0000 0.0000 0.0000
# 3 42.7585 97.1792 186.8907 0.0000 0.0000 0.0000
# 4 0.0000 0.0000 0.0000 8.7247 0.0000 0.0000
# 5 0.0000 0.0000 0.0000 0.0000 28.8397 0.0000
# 6 0.0000 0.0000 0.0000 0.0000 0.0000 24.8653
#
#
#
# Elastic Compliance Matrix: (Units=1/GPa)
#
#
# Indices 1 2 3 4 5 6 
#
# 1 0.045053 -0.007567 -0.006373 0.000000 0.000000 0.000000
# 2 -0.007567 0.008938 -0.002916 0.000000 0.000000 0.000000
# 3 -0.006373 -0.002916 0.008325 0.000000 0.000000 0.000000
# 4 0.000000 0.000000 0.000000 0.114617 0.000000 0.000000
# 5 0.000000 0.000000 0.000000 0.000000 0.034674 0.000000
# 6 0.000000 0.000000 0.000000 0.000000 0.000000 0.040217
#
#
# Mechanical properties :
#
#
# Convention : Reuss Voigt Hill
#
# Bulk Modulus (GPa) = 34.96015 85.74041 60.35028
# Shear Modulus (GPa) = 16.94508 27.11483 22.02996
#
# Velocity S-wave (km/s) = 3.09614 3.91654 3.53025
# Velocity P-wave (km/s) = 5.70604 8.30403 7.12446
#
# Compressibility (1/GPa) = 0.02860399
#
# Stress axis : x y z
#
# Youngs Moduli (GPa) = 22.19599 111.88538 120.11677
#
# Poissons Ratio (x) = 0.84659 0.76553
# Poissons Ratio (y) = 0.16795 0.35029
# Poissons Ratio (z) = 0.14146 0.32629
#
# Static dielectric constant tensor:
#      x y z
#    x 1.601570 0.000000 0.000000 
#    y 0.000000 1.599730 0.000000 
#    z 0.000000 0.000000 1.577750 
# 
# From -- ./inp_files/29224.got.cif
#   From: 2010.05.17/outbox.cif.g08.bks.cpg/sg59_15_cif.got.tgz:29224.got - 2010.06.03 14:40:33.
