data_PCOD9450051
_publ_section_title
;
Structure prediction by ZEFSAII (Michael W. Deem and Ramdas Pophale) SiO2 
 PCOD9450051
Probable space group: P M M N
;
_chemical_formula_sum "Si O2"
_cell_formula_units_Z 64
_cell_length_a 7.796746
_cell_length_b 15.842527
_cell_length_c 24.697867
_cell_angle_alpha 90.000000
_cell_angle_beta 90.000000
_cell_angle_gamma 90.000000
_cell_volume 3050.684459
_symmetry_space_group_name_H-M "P M M N"
_symmetry_group_IT_number 59
_space_group.IT_coordinate_system_code '2'
_symmetry_cell_setting 'orthorhombic'
loop_
_space_group_symop_operation_xyz
x,y,z
1/2-x,1/2-y,z
1/2+x,-y,-z
-x,1/2+y,-z
-x,-y,-z
1/2+x,1/2+y,-z
1/2-x,y,z
x,1/2-y,z
loop_
_atom_site_type_symbol
_atom_site_label
_atom_site_fract_x
_atom_site_fract_y
_atom_site_fract_z
Si Si1 0.540518 0.845992 0.944369
Si Si2 0.045847 0.087197 0.556534
Si Si3 0.957545 0.342816 0.671178
Si Si4 0.548906 0.004074 0.743353
Si Si5 0.948100 0.893544 0.561138
Si Si6 0.546105 0.990832 0.864096
Si Si7 0.542605 0.654223 0.068601
Si Si8 0.448858 0.657659 0.677581
O O1 0.750000 0.847455 0.944536
O O2 0.489692 0.750000 0.930219
O O3 0.476972 0.916881 0.903028
O O4 0.487580 0.862933 0.006477
O O5 0.250000 0.072718 0.550999
O O6 0.986717 0.126374 0.499345
O O7 0.012263 0.141404 0.609458
O O8 0.960991 0.995527 0.564507
O O9 0.750000 0.345614 0.671526
O O10 0.012415 0.250000 0.689449
O O11 0.024981 0.418150 0.708879
O O12 0.750000 0.023772 0.750801
O O13 0.474350 0.991611 0.803220
O O14 0.535873 0.919699 0.707950
O O15 0.750000 0.867489 0.565242
O O16 0.040468 0.856089 0.613033
O O17 0.750000 0.974731 0.860125
O O18 0.520702 0.081215 0.892163
O O19 0.750000 0.653073 0.069416
O O20 0.488155 0.750000 0.082721
O O21 0.250000 0.655733 0.693360
O O22 0.521127 0.750000 0.690853
#
# Coordination Sequence:
#
# PCOD9450051 Si02
#       8
#     8   8   8   8   8   8   8   8
#     4   8  15  30  52  79 112 146 180 222 273 328
#     4  10  20  34  56  85 113 141 177 224 277 333
#     4  10  21  37  56  77 106 146 187 228 278 333
#     4  10  22  39  57  80 110 146 188 231 277 327
#     4  10  20  35  57  84 113 143 176 220 277 336
#     4  10  20  33  55  84 109 139 184 234 277 319
#     4   9  18  33  53  78 111 150 185 218 267 330
#     4  11  24  40  59  83 111 145 185 229 277 328
#
# _framework density 20.978898999999998
#
# number of rings (size 3 to 8) (size 9 to 14) (size 15 to 20)
#    0.000    2.250    1.250    2.250    0.000    5.000 
#    0.000    5.000    0.000    1.125    0.000    0.000 
#    0.000    0.000    0.000    0.000    0.000    0.000 
#
# Total GULP energy -357358.591741 kJ/mol
# GULP energy per Si atom -5583.727996 kJ/mol
# Density = 2.093115 g / cm^3
# Si number density = 20.978899 Si / 1000 Ang^3
#
#
#
# Elastic Constant Matrix: (Units=GPa)
#
#
# Indices 1 2 3 4 5 6 
#
# 1 26.5021 -9.6607 -3.6376 0.0000 0.0000 0.0000
# 2 -9.6607 115.9342 73.5461 0.0000 0.0000 0.0000
# 3 -3.6376 73.5461 127.3455 0.0000 0.0000 0.0000
# 4 0.0000 0.0000 0.0000 -7.1327 0.0000 0.0000
# 5 0.0000 0.0000 0.0000 0.0000 -0.7305 0.0000
# 6 0.0000 0.0000 0.0000 0.0000 0.0000 17.3888
#
#
#
# Elastic Compliance Matrix: (Units=1/GPa)
#
#
# Indices 1 2 3 4 5 6 
#
# 1 0.039032 0.004017 -0.001205 0.000000 0.000000 0.000000
# 2 0.004017 0.014026 -0.007986 0.000000 0.000000 0.000000
# 3 -0.001205 -0.007986 0.012430 0.000000 0.000000 0.000000
# 4 0.000000 0.000000 0.000000 -0.140200 0.000000 0.000000
# 5 0.000000 0.000000 0.000000 0.000000 -1.368990 0.000000
# 6 0.000000 0.000000 0.000000 0.000000 0.000000 0.057508
#
#
# Mechanical properties :
#
#
# Convention : Reuss Voigt Hill
#
# Bulk Modulus (GPa) = 18.13554 43.36416 30.74985
# Shear Modulus (GPa) = -3.68334 15.87405 6.09536
#
# Velocity S-wave (km/s) = -1.32648 2.75374 1.70639
# Velocity P-wave (km/s) = 2.51344 5.55212 4.30949
#
# Compressibility (1/GPa) = 0.05514035
#
# Stress axis : x y z
#
# Youngs Moduli (GPa) = 25.62024 71.29400 80.44800
#
# Poissons Ratio (x) = -0.28638 0.09694
# Poissons Ratio (y) = -0.10291 0.64246
# Poissons Ratio (z) = 0.03087 0.56935
#
# Static dielectric constant tensor:
#      x y z
#    x 1.780480 0.000000 0.000000 
#    y 0.000000 1.744180 0.000000 
#    z 0.000000 0.000000 1.741800 
# 
# From -- ./inp_files/31579.got.cif
#   From: 2010.05.17/outbox.cif.g08.bks.cpg/sg59_16_cif.got.tgz:31579.got - 2010.06.03 14:40:33.
