data_PCOD9450988
_publ_section_title
;
Structure prediction by ZEFSAII (Michael W. Deem and Ramdas Pophale) SiO2 
 PCOD9450988
Probable space group: P M M N
;
_chemical_formula_sum "Si O2"
_cell_formula_units_Z 64
_cell_length_a 8.789496
_cell_length_b 14.361100
_cell_length_c 27.251980
_cell_angle_alpha 90.000000
_cell_angle_beta 90.000000
_cell_angle_gamma 90.000000
_cell_volume 3439.931074
_symmetry_space_group_name_H-M "P M M N"
_symmetry_group_IT_number 59
_space_group.IT_coordinate_system_code '2'
_symmetry_cell_setting 'orthorhombic'
loop_
_space_group_symop_operation_xyz
x,y,z
1/2-x,1/2-y,z
1/2+x,-y,-z
-x,1/2+y,-z
-x,-y,-z
1/2+x,1/2+y,-z
1/2-x,y,z
x,1/2-y,z
loop_
_atom_site_type_symbol
_atom_site_label
_atom_site_fract_x
_atom_site_fract_y
_atom_site_fract_z
Si Si1 0.431309 0.510544 0.053789
Si Si2 0.067819 0.146702 0.230192
Si Si3 0.568711 0.357501 0.671634
Si Si4 0.433849 0.858074 0.140665
Si Si5 0.426806 0.855936 0.878294
Si Si6 0.569792 0.546832 0.236964
Si Si7 0.066296 0.355834 0.479974
Si Si8 0.933693 0.459600 0.573599
O O1 0.250000 0.512448 0.049607
O O2 0.477222 0.598865 0.087743
O O3 0.486688 0.423089 0.085361
O O4 0.500000 0.500000 0.000000
O O5 0.250000 0.139316 0.231365
O O6 0.025909 0.250000 0.249896
O O7 0.008264 0.143757 0.174277
O O8 0.995579 0.054159 0.252638
O O9 0.750000 0.370537 0.680006
O O10 0.545139 0.250000 0.657489
O O11 0.482422 0.381547 0.721374
O O12 0.519611 0.423703 0.626972
O O13 0.250000 0.863235 0.144541
O O14 0.479037 0.750000 0.145284
O O15 0.502144 0.919288 0.184835
O O16 0.250000 0.883950 0.872385
O O17 0.429315 0.750000 0.896759
O O18 0.750000 0.541829 0.232938
O O19 0.250000 0.355957 0.482689
O O20 0.016431 0.250000 0.469915
O O21 0.022350 0.434470 0.440085
O O22 0.001410 0.393361 0.531437
O O23 0.750000 0.453168 0.571284
#
# Coordination Sequence:
#
# PCOD9450988 Si02
#       8
#     8   8   8   8   8   8   8   8
#     4  11  23  38  58  83 114 150 185 228 280 332
#     4  10  20  36  60  86 110 140 179 220 266 324
#     4  10  21  37  56  78 109 150 194 239 285 335
#     4  10  22  41  62  82 109 148 190 230 276 333
#     4  10  20  35  57  84 112 141 175 219 270 322
#     4  12  24  37  58  86 116 147 184 232 285 337
#     4   9  17  30  51  80 113 147 184 233 291 345
#     4   9  18  33  53  78 109 148 194 239 282 334
#
# _framework density 18.605024
#
# number of rings (size 3 to 8) (size 9 to 14) (size 15 to 20)
#    0.000    1.875    1.250    3.000    0.000    5.750 
#    0.000    1.875    0.000    2.250    0.000    0.000 
#    0.000    0.000    0.000    0.000    0.000    0.000 
#
# Total GULP energy -357184.791849 kJ/mol
# GULP energy per Si atom -5581.012373 kJ/mol
# Density = 1.856268 g / cm^3
# Si number density = 18.605024 Si / 1000 Ang^3
#
#
#
# Elastic Constant Matrix: (Units=GPa)
#
#
# Indices 1 2 3 4 5 6 
#
# 1 38.1118 30.6412 20.9606 0.0000 0.0000 0.0000
# 2 30.6412 115.5639 30.6543 0.0000 0.0000 0.0000
# 3 20.9606 30.6543 67.7617 0.0000 0.0000 0.0000
# 4 0.0000 0.0000 0.0000 30.9046 0.0000 0.0000
# 5 0.0000 0.0000 0.0000 0.0000 26.4249 0.0000
# 6 0.0000 0.0000 0.0000 0.0000 0.0000 22.2792
#
#
#
# Elastic Compliance Matrix: (Units=1/GPa)
#
#
# Indices 1 2 3 4 5 6 
#
# 1 0.036730 -0.007642 -0.007904 0.000000 0.000000 0.000000
# 2 -0.007642 0.011423 -0.002804 0.000000 0.000000 0.000000
# 3 -0.007904 -0.002804 0.018471 0.000000 0.000000 0.000000
# 4 0.000000 0.000000 0.000000 0.032358 0.000000 0.000000
# 5 0.000000 0.000000 0.000000 0.000000 0.037843 0.000000
# 6 0.000000 0.000000 0.000000 0.000000 0.000000 0.044885
#
#
# Mechanical properties :
#
#
# Convention : Reuss Voigt Hill
#
# Bulk Modulus (GPa) = 33.41841 42.88329 38.15085
# Shear Modulus (GPa) = 21.89286 25.20049 23.54667
#
# Velocity S-wave (km/s) = 3.43405 3.68434 3.56140
# Velocity P-wave (km/s) = 5.80729 6.41861 6.12059
#
# Compressibility (1/GPa) = 0.02992363
#
# Stress axis : x y z
#
# Youngs Moduli (GPa) = 27.22574 87.54119 54.13873
#
# Poissons Ratio (x) = 0.66899 0.42794
# Poissons Ratio (y) = 0.20806 0.15179
# Poissons Ratio (z) = 0.21521 0.24545
#
# Static dielectric constant tensor:
#      x y z
#    x 1.625790 0.000000 0.000000 
#    y 0.000000 1.681090 0.000000 
#    z 0.000000 0.000000 1.607770 
# 
# From -- ./inp_files/31479.got.cif
#   From: 2010.05.17/outbox.cif.g08.bks.cpg/sg59_16_cif.got.tgz:31479.got - 2010.06.03 14:40:33.
