data_PCOD9450258
_publ_section_title
;
Structure prediction by ZEFSAII (Michael W. Deem and Ramdas Pophale) SiO2 
 PCOD9450258
Probable space group: P M M N
;
_chemical_formula_sum "Si O2"
_cell_formula_units_Z 64
_cell_length_a 22.669356
_cell_length_b 9.495147
_cell_length_c 16.735347
_cell_angle_alpha 90.000000
_cell_angle_beta 90.000000
_cell_angle_gamma 90.000000
_cell_volume 3602.264491
_symmetry_space_group_name_H-M "P M M N"
_symmetry_group_IT_number 59
_space_group.IT_coordinate_system_code '2'
_symmetry_cell_setting 'orthorhombic'
loop_
_space_group_symop_operation_xyz
x,y,z
1/2-x,1/2-y,z
1/2+x,-y,-z
-x,1/2+y,-z
-x,-y,-z
1/2+x,1/2+y,-z
1/2-x,y,z
x,1/2-y,z
loop_
_atom_site_type_symbol
_atom_site_label
_atom_site_fract_x
_atom_site_fract_y
_atom_site_fract_z
Si Si1 0.918376 0.419374 0.712333
Si Si2 0.821060 0.585299 0.136169
Si Si3 0.349857 0.089281 0.567518
Si Si4 0.584128 0.084678 0.052644
Si Si5 0.988533 0.910469 0.421938
Si Si6 0.319442 0.418082 0.382683
Si Si7 0.681160 0.406515 0.286884
Si Si8 0.475501 0.584458 0.119578
O O1 0.909619 0.250000 0.709364
O O2 0.861052 0.497402 0.677866
O O3 0.938386 0.455545 0.802048
O O4 0.972627 0.457064 0.653142
O O5 0.750000 0.575169 0.128340
O O6 0.836427 0.750000 0.134958
O O7 0.855718 0.498388 0.069270
O O8 0.841396 0.513693 0.219572
O O9 0.327463 0.250000 0.579685
O O10 0.418679 0.087752 0.590594
O O11 0.339870 0.054406 0.474387
O O12 0.321962 0.977205 0.626657
O O13 0.589947 0.250000 0.071866
O O14 0.532968 0.010851 0.105270
O O15 0.563277 0.072107 0.960823
O O16 0.006244 0.750000 0.439058
O O17 0.000000 0.000000 0.500000
O O18 0.250000 0.452387 0.375346
O O19 0.326365 0.250000 0.370075
O O20 0.750000 0.391605 0.267678
O O21 0.654051 0.250000 0.284564
O O22 0.492638 0.750000 0.127849
#
# Coordination Sequence:
#
# PCOD9450258 Si02
#       8
#     8   8   8   8   8   8   8   8
#     4  10  21  37  57  82 110 143 182 227 276 325
#     4  10  21  37  57  80 110 149 186 223 274 336
#     4  10  20  34  53  77 106 145 186 221 270 328
#     4  10  20  36  59  87 113 142 181 226 278 331
#     4  10  20  34  53  78 107 140 178 221 268 320
#     4  10  21  37  56  77 106 147 191 234 277 323
#     4  10  21  35  51  77 111 143 181 226 265 312
#     4   9  20  38  59  83 114 147 181 225 278 338
#
# _framework density 17.766603
#
# number of rings (size 3 to 8) (size 9 to 14) (size 15 to 20)
#    0.000    2.125    1.250    1.500    1.750    4.250 
#    0.000    0.625    0.000    3.750    0.000    0.000 
#    0.000    0.000    0.000    0.000    0.000    0.000 
#
# Total GULP energy -356928.848258 kJ/mol
# GULP energy per Si atom -5577.013254 kJ/mol
# Density = 1.772617 g / cm^3
# Si number density = 17.766603 Si / 1000 Ang^3
#
#
#
# Elastic Constant Matrix: (Units=GPa)
#
#
# Indices 1 2 3 4 5 6 
#
# 1 83.8270 49.0162 51.1790 0.0000 0.0000 0.0000
# 2 49.0162 102.1330 56.4702 0.0000 0.0000 0.0000
# 3 51.1790 56.4702 91.7272 0.0000 0.0000 0.0000
# 4 0.0000 0.0000 0.0000 27.4690 0.0000 0.0000
# 5 0.0000 0.0000 0.0000 0.0000 24.9150 0.0000
# 6 0.0000 0.0000 0.0000 0.0000 0.0000 30.0163
#
#
#
# Elastic Compliance Matrix: (Units=1/GPa)
#
#
# Indices 1 2 3 4 5 6 
#
# 1 0.019716 -0.005124 -0.007846 0.000000 0.000000 0.000000
# 2 -0.005124 0.016176 -0.007099 0.000000 0.000000 0.000000
# 3 -0.007846 -0.007099 0.019650 0.000000 0.000000 0.000000
# 4 0.000000 0.000000 0.000000 0.036405 0.000000 0.000000
# 5 0.000000 0.000000 0.000000 0.000000 0.040137 0.000000
# 6 0.000000 0.000000 0.000000 0.000000 0.000000 0.033315
#
#
# Mechanical properties :
#
#
# Convention : Reuss Voigt Hill
#
# Bulk Modulus (GPa) = 64.92235 65.66867 65.29551
# Shear Modulus (GPa) = 23.73382 24.54817 24.14100
#
# Velocity S-wave (km/s) = 3.65892 3.72116 3.69017
# Velocity P-wave (km/s) = 7.38047 7.45015 7.41539
#
# Compressibility (1/GPa) = 0.01540302
#
# Stress axis : x y z
#
# Youngs Moduli (GPa) = 50.72136 61.82176 50.89079
#
# Poissons Ratio (x) = 0.31678 0.39928
# Poissons Ratio (y) = 0.25990 0.36129
# Poissons Ratio (z) = 0.39795 0.43889
#
# Static dielectric constant tensor:
#      x y z
#    x 1.768400 0.000000 0.000000 
#    y 0.000000 1.615500 0.000000 
#    z 0.000000 0.000000 1.592690 
# 
# From -- ./inp_files/24669.got.cif
#   From: 2010.05.17/outbox.cif.g08.bks.cpg/sg59_13_cif.got.tgz:24669.got - 2010.06.03 14:40:33.
