data_PCOD9450242
_publ_section_title
;
Structure prediction by ZEFSAII (Michael W. Deem and Ramdas Pophale) SiO2 
 PCOD9450242
Probable space group: P M M N
;
_chemical_formula_sum "Si O2"
_cell_formula_units_Z 48
_cell_length_a 9.349381
_cell_length_b 9.177948
_cell_length_c 31.903359
_cell_angle_alpha 90.000000
_cell_angle_beta 90.000000
_cell_angle_gamma 90.000000
_cell_volume 2737.567661
_symmetry_space_group_name_H-M "P M M N"
_symmetry_group_IT_number 59
_space_group.IT_coordinate_system_code '2'
_symmetry_cell_setting 'orthorhombic'
loop_
_space_group_symop_operation_xyz
x,y,z
1/2-x,1/2-y,z
1/2+x,-y,-z
-x,1/2+y,-z
-x,-y,-z
1/2+x,1/2+y,-z
1/2-x,y,z
x,1/2-y,z
loop_
_atom_site_type_symbol
_atom_site_label
_atom_site_fract_x
_atom_site_fract_y
_atom_site_fract_z
Si Si1 0.578474 0.077167 0.868252
Si Si2 0.920491 0.422002 0.207612
Si Si3 0.081053 0.575644 0.037763
Si Si4 0.914563 0.072645 0.622423
Si Si5 0.581177 0.924672 0.294256
Si Si6 0.918117 0.574057 0.461602
O O1 0.750000 0.058854 0.865498
O O2 0.549168 0.250000 0.864076
O O3 0.533734 0.030847 0.915309
O O4 0.501131 0.991131 0.831640
O O5 0.750000 0.445542 0.202704
O O6 0.946957 0.250000 0.209974
O O7 0.963048 0.498160 0.251249
O O8 0.250000 0.544790 0.034571
O O9 0.063089 0.750000 0.035220
O O10 0.000000 0.500000 0.000000
O O11 0.750000 0.024194 0.619550
O O12 0.914154 0.250000 0.622777
O O13 0.989889 0.027125 0.665622
O O14 0.006313 0.029228 0.581901
O O15 0.750000 0.953968 0.301608
O O16 0.565524 0.750000 0.289484
O O17 0.750000 0.536700 0.461534
O O18 0.929294 0.750000 0.465011
O O19 0.000000 0.500000 0.500000
#
# Coordination Sequence:
#
# PCOD9450242 Si02
#       6
#     8   8   8   8   8   8
#     4   9  19  36  55  74  99 133 172 211 250 296
#     4  10  21  35  51  75 106 136 167 206 253 303
#     4   9  19  35  53  75 103 133 167 208 252 299
#     4   9  17  30  50  75 100 128 167 213 256 299
#     4   9  17  31  51  72  95 127 167 208 250 298
#     4  10  20  34  53  77 105 137 173 212 254 302
#
# _framework density 17.533814
#
# number of rings (size 3 to 8) (size 9 to 14) (size 15 to 20)
#    0.000    2.667    0.000    2.500    0.000    6.667 
#    0.000    7.500    0.000    3.000    0.000    0.000 
#    0.000    0.000    0.000    0.000    0.000    0.000 
#
# Total GULP energy -267740.279991 kJ/mol
# GULP energy per Si atom -5577.922500 kJ/mol
# Density = 1.749391 g / cm^3
# Si number density = 17.533814 Si / 1000 Ang^3
#
#
#
# Elastic Constant Matrix: (Units=GPa)
#
#
# Indices 1 2 3 4 5 6 
#
# 1 97.8894 43.4432 105.9844 0.0000 0.0000 0.0000
# 2 43.4432 25.5357 61.5599 0.0000 0.0000 0.0000
# 3 105.9844 61.5599 217.9642 0.0000 0.0000 0.0000
# 4 0.0000 0.0000 0.0000 31.1498 0.0000 0.0000
# 5 0.0000 0.0000 0.0000 0.0000 40.8574 0.0000
# 6 0.0000 0.0000 0.0000 0.0000 0.0000 24.6456
#
#
#
# Elastic Compliance Matrix: (Units=1/GPa)
#
#
# Indices 1 2 3 4 5 6 
#
# 1 0.041740 -0.069197 -0.000752 0.000000 0.000000 0.000000
# 2 -0.069197 0.237427 -0.033410 0.000000 0.000000 0.000000
# 3 -0.000752 -0.033410 0.014390 0.000000 0.000000 0.000000
# 4 0.000000 0.000000 0.000000 0.032103 0.000000 0.000000
# 5 0.000000 0.000000 0.000000 0.000000 0.024475 0.000000
# 6 0.000000 0.000000 0.000000 0.000000 0.000000 0.040575
#
#
# Mechanical properties :
#
#
# Convention : Reuss Voigt Hill
#
# Bulk Modulus (GPa) = 11.51574 84.81827 48.16700
# Shear Modulus (GPa) = 7.98244 28.02403 18.00324
#
# Velocity S-wave (km/s) = 2.13600 4.00219 3.20781
# Velocity P-wave (km/s) = 3.55883 8.35679 6.42266
#
# Compressibility (1/GPa) = 0.08683766
#
# Stress axis : x y z
#
# Youngs Moduli (GPa) = 23.95790 4.21182 69.49362
#
# Poissons Ratio (x) = 0.29145 0.05229
# Poissons Ratio (y) = 1.65781 2.32178
# Poissons Ratio (z) = 0.01803 0.14072
#
# Static dielectric constant tensor:
#      x y z
#    x 1.585540 0.000000 0.000000 
#    y 0.000000 1.583960 0.000000 
#    z 0.000000 0.000000 1.576030 
# 
# From -- ./inp_files/32831.got.cif
#   From: 2010.05.17/outbox.cif.g08.bks.cpg/sg59_17_cif.got.tgz:32831.got - 2010.06.03 14:40:33.
