data_PCOD9450043
_publ_section_title
;
Structure prediction by ZEFSAII (Michael W. Deem and Ramdas Pophale) SiO2 
 PCOD9450043
Probable space group: P M M N
;
_chemical_formula_sum "Si O2"
_cell_formula_units_Z 56
_cell_length_a 8.841989
_cell_length_b 14.600487
_cell_length_c 23.388317
_cell_angle_alpha 90.000000
_cell_angle_beta 90.000000
_cell_angle_gamma 90.000000
_cell_volume 3019.369639
_symmetry_space_group_name_H-M "P M M N"
_symmetry_group_IT_number 59
_space_group.IT_coordinate_system_code '2'
_symmetry_cell_setting 'orthorhombic'
loop_
_space_group_symop_operation_xyz
x,y,z
1/2-x,1/2-y,z
1/2+x,-y,-z
-x,1/2+y,-z
-x,-y,-z
1/2+x,1/2+y,-z
1/2-x,y,z
x,1/2-y,z
loop_
_atom_site_type_symbol
_atom_site_label
_atom_site_fract_x
_atom_site_fract_y
_atom_site_fract_z
Si Si1 0.067983 0.146432 0.352441
Si Si2 0.431570 0.402615 0.482815
Si Si3 0.431480 0.545583 0.083974
Si Si4 0.432637 0.356415 0.027312
Si Si5 0.069792 0.469768 0.692783
Si Si6 0.424012 0.850872 0.404406
Si Si7 0.066875 0.357178 0.805247
O O1 0.250000 0.139932 0.350065
O O2 0.023165 0.250000 0.338444
O O3 0.024661 0.125907 0.418644
O O4 0.997999 0.071079 0.310984
O O5 0.500000 0.500000 0.500000
O O6 0.250000 0.402032 0.485697
O O7 0.501185 0.344035 0.533711
O O8 0.250000 0.551893 0.084820
O O9 0.471405 0.438074 0.072284
O O10 0.499557 0.587778 0.141422
O O11 0.494959 0.606481 0.031482
O O12 0.250000 0.357070 0.021436
O O13 0.476660 0.250000 0.039416
O O14 0.250000 0.474410 0.692677
O O15 0.021311 0.409515 0.747167
O O16 0.013015 0.419520 0.635741
O O17 0.250000 0.881495 0.410115
O O18 0.426316 0.750000 0.377588
O O19 0.250000 0.358914 0.808620
O O20 0.020870 0.250000 0.805281
#
# Coordination Sequence:
#
# PCOD9450043 Si02
#       7
#     8   8   8   8   8   8   8
#     4  10  22  40  60  81 109 145 182 224 278 339
#     4  11  21  35  57  83 111 143 179 221 275 335
#     4  10  20  33  54  86 117 147 190 237 276 321
#     4   9  18  34  55  80 116 158 191 224 273 329
#     4  11  23  39  60  82 107 142 186 235 280 329
#     4  11  23  37  55  81 112 144 179 223 277 335
#     4  10  22  40  59  80 110 148 186 225 278 339
#
# _framework density 18.546918000000002
#
# number of rings (size 3 to 8) (size 9 to 14) (size 15 to 20)
#    0.000    1.714    1.429    3.000    0.000    7.143 
#    0.000    0.714    0.000    2.571    0.000    0.000 
#    0.000    0.000    0.000    0.000    0.000    0.000 
#
# Total GULP energy -312504.451854 kJ/mol
# GULP energy per Si atom -5580.436640 kJ/mol
# Density = 1.850470 g / cm^3
# Si number density = 18.546918 Si / 1000 Ang^3
#
#
#
# Elastic Constant Matrix: (Units=GPa)
#
#
# Indices 1 2 3 4 5 6 
#
# 1 26.6337 40.6745 31.3267 0.0000 0.0000 0.0000
# 2 40.6745 189.8709 76.1239 0.0000 0.0000 0.0000
# 3 31.3267 76.1239 103.6183 0.0000 0.0000 0.0000
# 4 0.0000 0.0000 0.0000 24.9260 0.0000 0.0000
# 5 0.0000 0.0000 0.0000 0.0000 27.8503 0.0000
# 6 0.0000 0.0000 0.0000 0.0000 0.0000 24.5709
#
#
#
# Elastic Compliance Matrix: (Units=1/GPa)
#
#
# Indices 1 2 3 4 5 6 
#
# 1 0.067411 -0.008888 -0.013851 0.000000 0.000000 0.000000
# 2 -0.008888 0.008638 -0.003659 0.000000 0.000000 0.000000
# 3 -0.013851 -0.003659 0.016526 0.000000 0.000000 0.000000
# 4 0.000000 0.000000 0.000000 0.040119 0.000000 0.000000
# 5 0.000000 0.000000 0.000000 0.000000 0.035906 0.000000
# 6 0.000000 0.000000 0.000000 0.000000 0.000000 0.040699
#
#
# Mechanical properties :
#
#
# Convention : Reuss Voigt Hill
#
# Bulk Modulus (GPa) = 25.13802 68.48589 46.81196
# Shear Modulus (GPa) = 18.15853 26.93596 22.54724
#
# Velocity S-wave (km/s) = 3.13239 3.81506 3.49045
# Velocity P-wave (km/s) = 5.16388 7.51080 6.44507
#
# Compressibility (1/GPa) = 0.03978038
#
# Stress axis : x y z
#
# Youngs Moduli (GPa) = 14.83435 115.77402 60.51048
#
# Poissons Ratio (x) = 1.02898 0.83812
# Poissons Ratio (y) = 0.13185 0.22138
# Poissons Ratio (z) = 0.20547 0.42357
#
# Static dielectric constant tensor:
#      x y z
#    x 1.623440 0.000000 0.000000 
#    y 0.000000 1.715530 0.000000 
#    z 0.000000 0.000000 1.611590 
# 
# From -- ./inp_files/29109.got.cif
#   From: 2010.05.17/outbox.cif.g08.bks.cpg/sg59_15_cif.got.tgz:29109.got - 2010.06.03 14:40:33.
