data_PCOD9450324
_publ_section_title
;
Structure prediction by ZEFSAII (Michael W. Deem and Ramdas Pophale) SiO2 
 PCOD9450324
Probable space group: P M M N
;
_chemical_formula_sum "Si O2"
_cell_formula_units_Z 40
_cell_length_a 7.639191
_cell_length_b 23.030058
_cell_length_c 12.781658
_cell_angle_alpha 90.000000
_cell_angle_beta 90.000000
_cell_angle_gamma 90.000000
_cell_volume 2248.690024
_symmetry_space_group_name_H-M "P M M N"
_symmetry_group_IT_number 59
_space_group.IT_coordinate_system_code '2'
_symmetry_cell_setting 'orthorhombic'
loop_
_space_group_symop_operation_xyz
x,y,z
1/2-x,1/2-y,z
1/2+x,-y,-z
-x,1/2+y,-z
-x,-y,-z
1/2+x,1/2+y,-z
1/2-x,y,z
x,1/2-y,z
loop_
_atom_site_type_symbol
_atom_site_label
_atom_site_fract_x
_atom_site_fract_y
_atom_site_fract_z
Si Si1 0.750000 0.351352 0.711816
Si Si2 0.750000 0.250000 0.881354
Si Si3 0.536341 0.557794 0.626277
Si Si4 0.034633 0.250000 0.058469
Si Si5 0.435274 0.250000 0.392938
Si Si6 0.750000 0.250000 0.547161
Si Si7 0.950124 0.848670 0.781487
Si Si8 0.452652 0.422918 0.609539
O O1 0.750000 0.309221 0.812357
O O2 0.750000 0.306006 0.617842
O O3 0.579319 0.390822 0.690822
O O4 0.575900 0.250000 0.952979
O O5 0.750000 0.556573 0.628421
O O6 0.472113 0.594099 0.727137
O O7 0.468581 0.492186 0.626604
O O8 0.490455 0.585415 0.512674
O O9 0.250000 0.250000 0.050067
O O10 0.981755 0.307865 0.125022
O O11 0.250000 0.250000 0.449005
O O12 0.584722 0.250000 0.474389
O O13 0.444156 0.195297 0.316397
O O14 0.750000 0.863160 0.811679
O O15 0.250000 0.405038 0.619439
#
# Coordination Sequence:
#
# PCOD9450324 Si02
#       8
#     4   2   8   4   4   2   8   8
#     4  11  24  40  52  74 108 141 192 236 258 325
#     4  11  26  43  62  78  98 145 190 243 306 308
#     4   9  16  30  53  85 120 154 178 210 259 319
#     4   9  19  39  60  83 105 131 181 239 294 339
#     4   9  17  31  46  77 119 143 165 213 266 327
#     4  11  22  31  50  74  98 149 186 211 266 308
#     4   8  15  29  54  83 113 141 170 218 281 332
#     4  10  20  34  53  80 117 156 186 208 252 323
#
# _framework density 17.788133999999999
#
# number of rings (size 3 to 8) (size 9 to 14) (size 15 to 20)
#    0.000    2.600    1.000    2.400    1.400    4.800 
#    3.600    2.000    0.000    1.200    0.000    0.000 
#    0.000    0.000    0.000    0.000    0.000    0.000 
#
# Total GULP energy -222772.928052 kJ/mol
# GULP energy per Si atom -5569.323201 kJ/mol
# Density = 1.774765 g / cm^3
# Si number density = 17.788134 Si / 1000 Ang^3
#
#
#
# Elastic Constant Matrix: (Units=GPa)
#
#
# Indices 1 2 3 4 5 6 
#
# 1 82.9839 26.2301 48.5938 0.0000 0.0000 0.0000
# 2 26.2301 74.8878 43.6835 0.0000 0.0000 0.0000
# 3 48.5938 43.6835 100.1531 0.0000 0.0000 0.0000
# 4 0.0000 0.0000 0.0000 30.5601 0.0000 0.0000
# 5 0.0000 0.0000 0.0000 0.0000 24.8346 0.0000
# 6 0.0000 0.0000 0.0000 0.0000 0.0000 16.8114
#
#
#
# Elastic Compliance Matrix: (Units=1/GPa)
#
#
# Indices 1 2 3 4 5 6 
#
# 1 0.016963 -0.001530 -0.007563 0.000000 0.000000 0.000000
# 2 -0.001530 0.018048 -0.007130 0.000000 0.000000 0.000000
# 3 -0.007563 -0.007130 0.016764 0.000000 0.000000 0.000000
# 4 0.000000 0.000000 0.000000 0.032722 0.000000 0.000000
# 5 0.000000 0.000000 0.000000 0.000000 0.040266 0.000000
# 6 0.000000 0.000000 0.000000 0.000000 0.000000 0.059483
#
#
# Mechanical properties :
#
#
# Convention : Reuss Voigt Hill
#
# Bulk Modulus (GPa) = 51.73346 55.00440 53.36893
# Shear Modulus (GPa) = 22.40792 23.74239 23.07515
#
# Velocity S-wave (km/s) = 3.55309 3.65736 3.60560
# Velocity P-wave (km/s) = 6.78077 6.98743 6.88488
#
# Compressibility (1/GPa) = 0.01932985
#
# Stress axis : x y z
#
# Youngs Moduli (GPa) = 58.95237 55.40773 59.65147
#
# Poissons Ratio (x) = 0.08476 0.45115
# Poissons Ratio (y) = 0.09018 0.42530
# Poissons Ratio (z) = 0.44586 0.39504
#
# Static dielectric constant tensor:
#      x y z
#    x 1.638660 0.000000 0.000000 
#    y 0.000000 1.628700 0.000000 
#    z 0.000000 0.000000 1.587270 
# 
# From -- ./inp_files/14167.got.cif
#   From: 2010.05.17/outbox.cif.g08.bks.cpg/sg59_8_cif.got.tgz:14167.got - 2010.06.03 14:40:33.
