data_PCOD9450526
_publ_section_title
;
Structure prediction by ZEFSAII (Michael W. Deem and Ramdas Pophale) SiO2 
 PCOD9450526
Probable space group: P M M N
;
_chemical_formula_sum "Si O2"
_cell_formula_units_Z 40
_cell_length_a 8.168580
_cell_length_b 10.161963
_cell_length_c 24.919310
_cell_angle_alpha 90.000000
_cell_angle_beta 90.000000
_cell_angle_gamma 90.000000
_cell_volume 2068.522212
_symmetry_space_group_name_H-M "P M M N"
_symmetry_group_IT_number 59
_space_group.IT_coordinate_system_code '2'
_symmetry_cell_setting 'orthorhombic'
loop_
_space_group_symop_operation_xyz
x,y,z
1/2-x,1/2-y,z
1/2+x,-y,-z
-x,1/2+y,-z
-x,-y,-z
1/2+x,1/2+y,-z
1/2-x,y,z
x,1/2-y,z
loop_
_atom_site_type_symbol
_atom_site_label
_atom_site_fract_x
_atom_site_fract_y
_atom_site_fract_z
Si Si1 0.947647 0.498325 0.628343
Si Si2 0.053667 0.400515 0.141286
Si Si3 0.554738 0.100369 0.261670
Si Si4 0.552078 0.250000 0.560591
Si Si5 0.448194 0.596192 0.048516
Si Si6 0.947445 0.750000 0.562502
O O1 0.750000 0.498278 0.628355
O O2 0.005300 0.374801 0.594312
O O3 0.007030 0.624357 0.595294
O O4 0.001748 0.507975 0.689750
O O5 0.250000 0.395175 0.135873
O O6 0.992144 0.250000 0.129725
O O7 0.994967 0.515175 0.101364
O O8 0.011955 0.432213 0.202835
O O9 0.750000 0.101933 0.258666
O O10 0.496466 0.250000 0.274257
O O11 0.750000 0.250000 0.560139
O O12 0.497456 0.250000 0.499258
O O13 0.250000 0.601499 0.049239
O O14 0.504737 0.750000 0.044842
O O15 0.500000 0.500000 0.000000
O O16 0.750000 0.750000 0.563956
#
# Coordination Sequence:
#
# PCOD9450526 Si02
#       6
#     8   8   8   4   8   4
#     4  10  20  36  55  77 105 140 179 218 267 325
#     4   9  18  34  56  79 107 146 187 227 273 325
#     4  10  20  34  55  82 107 137 181 229 273 319
#     4  10  22  36  52  78 108 138 173 218 271 322
#     4  10  21  37  58  86 118 153 192 231 276 328
#     4  10  20  34  56  78 102 138 179 218 263 324
#
# _framework density 19.337475999999999
#
# number of rings (size 3 to 8) (size 9 to 14) (size 15 to 20)
#    0.000    2.200    1.000    1.800    0.000    4.400 
#    1.800    2.000    0.000    0.000    0.000    0.000 
#    0.000    0.000    0.000    0.000    0.000    0.000 
#
# Total GULP energy -223135.509027 kJ/mol
# GULP energy per Si atom -5578.387726 kJ/mol
# Density = 1.929346 g / cm^3
# Si number density = 19.337476 Si / 1000 Ang^3
#
#
#
# Elastic Constant Matrix: (Units=GPa)
#
#
# Indices 1 2 3 4 5 6 
#
# 1 6.0033 15.6463 2.9462 0.0000 0.0000 0.0000
# 2 15.6463 165.0878 93.1901 0.0000 0.0000 0.0000
# 3 2.9462 93.1901 152.8346 0.0000 0.0000 0.0000
# 4 0.0000 0.0000 0.0000 20.7262 0.0000 0.0000
# 5 0.0000 0.0000 0.0000 0.0000 31.2512 0.0000
# 6 0.0000 0.0000 0.0000 0.0000 0.0000 6.6595
#
#
#
# Elastic Compliance Matrix: (Units=1/GPa)
#
#
# Indices 1 2 3 4 5 6 
#
# 1 0.239532 -0.030642 0.014066 0.000000 0.000000 0.000000
# 2 -0.030642 0.013156 -0.007431 0.000000 0.000000 0.000000
# 3 0.014066 -0.007431 0.010803 0.000000 0.000000 0.000000
# 4 0.000000 0.000000 0.000000 0.048248 0.000000 0.000000
# 5 0.000000 0.000000 0.000000 0.000000 0.031999 0.000000
# 6 0.000000 0.000000 0.000000 0.000000 0.000000 0.150161
#
#
# Mechanical properties :
#
#
# Convention : Reuss Voigt Hill
#
# Bulk Modulus (GPa) = 4.64085 60.83232 32.73659
# Shear Modulus (GPa) = 8.14677 25.87026 17.00852
#
# Velocity S-wave (km/s) = 2.05477 3.66160 2.96896
# Velocity P-wave (km/s) = 2.83454 7.02873 5.35899
#
# Compressibility (1/GPa) = 0.21547754
#
# Stress axis : x y z
#
# Youngs Moduli (GPa) = 4.17480 76.00866 92.56616
#
# Poissons Ratio (x) = 2.32906 -1.30206
# Poissons Ratio (y) = 0.12792 0.68789
# Poissons Ratio (z) = -0.05872 0.56485
#
# Static dielectric constant tensor:
#      x y z
#    x 1.677970 0.000000 0.000000 
#    y 0.000000 1.663830 0.000000 
#    z 0.000000 0.000000 1.643610 
# 
# From -- ./inp_files/32409.got.cif
#   From: 2010.05.17/outbox.cif.g08.bks.cpg/sg59_17_cif.got.tgz:32409.got - 2010.06.03 14:40:33.
