data_PCOD9450351
_publ_section_title
;
Structure prediction by ZEFSAII (Michael W. Deem and Ramdas Pophale) SiO2 
 PCOD9450351
Probable space group: P M M N
;
_chemical_formula_sum "Si O2"
_cell_formula_units_Z 64
_cell_length_a 18.827401
_cell_length_b 7.718961
_cell_length_c 20.812052
_cell_angle_alpha 90.000000
_cell_angle_beta 90.000000
_cell_angle_gamma 90.000000
_cell_volume 3024.573353
_symmetry_space_group_name_H-M "P M M N"
_symmetry_group_IT_number 59
_space_group.IT_coordinate_system_code '2'
_symmetry_cell_setting 'orthorhombic'
loop_
_space_group_symop_operation_xyz
x,y,z
1/2-x,1/2-y,z
1/2+x,-y,-z
-x,1/2+y,-z
-x,-y,-z
1/2+x,1/2+y,-z
1/2-x,y,z
x,1/2-y,z
loop_
_atom_site_type_symbol
_atom_site_label
_atom_site_fract_x
_atom_site_fract_y
_atom_site_fract_z
Si Si1 0.671907 0.957456 0.001095
Si Si2 0.440667 0.452796 0.099216
Si Si3 0.331618 0.462613 0.610869
Si Si4 0.582386 0.456288 0.759955
Si Si5 0.402189 0.542583 0.870930
Si Si6 0.581799 0.541857 0.513921
Si Si7 0.925076 0.954373 0.270604
Si Si8 0.169243 0.041098 0.364062
O O1 0.750000 0.026056 0.985029
O O2 0.673527 0.750000 0.991408
O O3 0.653326 0.990895 0.075041
O O4 0.609410 0.029181 0.955753
O O5 0.450355 0.250000 0.084266
O O6 0.404912 0.468749 0.169263
O O7 0.520055 0.526704 0.106867
O O8 0.250000 0.518032 0.614303
O O9 0.331280 0.250000 0.611425
O O10 0.369586 0.518217 0.545267
O O11 0.377979 0.524289 0.671430
O O12 0.576702 0.250000 0.767985
O O13 0.505320 0.525323 0.735882
O O14 0.640162 0.494629 0.706072
O O15 0.405554 0.750000 0.867443
O O16 0.389383 0.477952 0.798907
O O17 0.500000 0.500000 0.500000
O O18 0.586585 0.750000 0.515572
O O19 0.614721 0.476828 0.581094
O O20 0.932877 0.750000 0.282998
O O21 0.250000 0.979472 0.374584
O O22 0.170738 0.250000 0.368064
#
# Coordination Sequence:
#
# PCOD9450351 Si02
#       8
#     8   8   8   8   8   8   8   8
#     4  10  21  36  54  76 103 136 174 216 262 315
#     4   9  19  36  56  78 105 139 178 216 258 312
#     4   9  17  31  53  78 102 132 173 216 253 296
#     4  10  20  34  54  80 108 138 175 220 265 309
#     4  10  20  34  54  78 105 137 173 216 261 307
#     4  10  20  35  56  80 105 135 174 218 262 309
#     4   9  18  33  53  77 105 137 174 214 257 309
#     4  10  21  36  54  77 107 143 179 216 262 318
#
# _framework density 21.16001
#
# number of rings (size 3 to 8) (size 9 to 14) (size 15 to 20)
#    0.000    2.375    0.000    2.250    0.000    6.000 
#    0.000    3.125    0.000    1.875    0.000    0.000 
#    0.000    0.000    0.000    0.000    0.000    0.000 
#
# Total GULP energy -357382.527390 kJ/mol
# GULP energy per Si atom -5584.101990 kJ/mol
# Density = 2.111185 g / cm^3
# Si number density = 21.160010 Si / 1000 Ang^3
#
#
#
# Elastic Constant Matrix: (Units=GPa)
#
#
# Indices 1 2 3 4 5 6 
#
# 1 49.9010 -7.7475 9.4908 0.0000 0.0000 0.0000
# 2 -7.7475 28.4692 -20.4795 0.0000 0.0000 0.0000
# 3 9.4908 -20.4795 53.2457 0.0000 0.0000 0.0000
# 4 0.0000 0.0000 0.0000 12.7689 0.0000 0.0000
# 5 0.0000 0.0000 0.0000 0.0000 -61.5145 0.0000
# 6 0.0000 0.0000 0.0000 0.0000 0.0000 6.4921
#
#
#
# Elastic Compliance Matrix: (Units=1/GPa)
#
#
# Indices 1 2 3 4 5 6 
#
# 1 0.021100 0.004198 -0.002146 0.000000 0.000000 0.000000
# 2 0.004198 0.049397 0.018251 0.000000 0.000000 0.000000
# 3 -0.002146 0.018251 0.026183 0.000000 0.000000 0.000000
# 4 0.000000 0.000000 0.000000 0.078315 0.000000 0.000000
# 5 0.000000 0.000000 0.000000 0.000000 -0.016256 0.000000
# 6 0.000000 0.000000 0.000000 0.000000 0.000000 0.154032
#
#
# Mechanical properties :
#
#
# Convention : Reuss Voigt Hill
#
# Bulk Modulus (GPa) = 7.28407 10.46036 8.87222
# Shear Modulus (GPa) = 15.72688 1.57280 8.64984
#
# Velocity S-wave (km/s) = 2.72919 0.86308 2.02403
# Velocity P-wave (km/s) = 3.65803 2.43873 3.10874
#
# Compressibility (1/GPa) = 0.13728595
#
# Stress axis : x y z
#
# Youngs Moduli (GPa) = 47.39414 20.24405 38.19244
#
# Poissons Ratio (x) = -0.08499 0.08197
# Poissons Ratio (y) = -0.19897 -0.69705
# Poissons Ratio (z) = 0.10172 -0.36948
#
# Static dielectric constant tensor:
#      x y z
#    x 1.761210 0.000000 0.000000 
#    y 0.000000 1.789850 0.000000 
#    z 0.000000 0.000000 1.735440 
# 
# From -- ./inp_files/30840.got.cif
#   From: 2010.05.17/outbox.cif.g08.bks.cpg/sg59_16_cif.got.tgz:30840.got - 2010.06.03 14:40:33.
