data_PCOD9450662
_publ_section_title
;
Structure prediction by ZEFSAII (Michael W. Deem and Ramdas Pophale) SiO2 
 PCOD9450662
Probable space group: P M M N
;
_chemical_formula_sum "Si O2"
_cell_formula_units_Z 64
_cell_length_a 14.729334
_cell_length_b 8.798519
_cell_length_c 24.805857
_cell_angle_alpha 90.000000
_cell_angle_beta 90.000000
_cell_angle_gamma 90.000000
_cell_volume 3214.747907
_symmetry_space_group_name_H-M "P M M N"
_symmetry_group_IT_number 59
_space_group.IT_coordinate_system_code '2'
_symmetry_cell_setting 'orthorhombic'
loop_
_space_group_symop_operation_xyz
x,y,z
1/2-x,1/2-y,z
1/2+x,-y,-z
-x,1/2+y,-z
-x,-y,-z
1/2+x,1/2+y,-z
1/2-x,y,z
x,1/2-y,z
loop_
_atom_site_type_symbol
_atom_site_label
_atom_site_fract_x
_atom_site_fract_y
_atom_site_fract_z
Si Si1 0.858035 0.926566 0.971072
Si Si2 0.151879 0.422277 0.630653
Si Si3 0.855852 0.568083 0.649801
Si Si4 0.034673 0.932120 0.128590
Si Si5 0.648725 0.427509 0.257858
Si Si6 0.523836 0.072803 0.557216
Si Si7 0.854547 0.431513 0.087600
Si Si8 0.043611 0.929913 0.246267
O O1 0.750000 0.933686 0.960923
O O2 0.883570 0.750000 0.979147
O O3 0.911064 0.995520 0.920868
O O4 0.874845 0.018172 0.026129
O O5 0.250000 0.431809 0.602793
O O6 0.146116 0.250000 0.654608
O O7 0.150344 0.545211 0.677733
O O8 0.068392 0.439106 0.591641
O O9 0.750000 0.523508 0.653707
O O10 0.861828 0.750000 0.649046
O O11 0.900458 0.504856 0.594892
O O12 0.910058 0.508807 0.702458
O O13 0.034500 0.750000 0.124334
O O14 0.078436 0.973163 0.186556
O O15 0.931516 0.991949 0.123596
O O16 0.750000 0.471297 0.238028
O O17 0.634741 0.250000 0.244840
O O18 0.562354 0.526169 0.242359
O O19 0.546745 0.250000 0.550217
O O20 0.500000 0.000000 0.500000
O O21 0.750000 0.477253 0.099275
O O22 0.860250 0.250000 0.092569
O O23 0.053418 0.750000 0.253644
#
# Coordination Sequence:
#
# PCOD9450662 Si02
#       8
#     8   8   8   8   8   8   8   8
#     4  10  21  38  61  87 117 155 200 251 307 366
#     4   9  18  34  57  84 115 151 190 233 285 347
#     4  11  25  45  68  92 122 163 209 257 308 361
#     4  11  24  39  58  86 121 159 202 252 304 361
#     4  10  20  34  57  87 116 149 190 237 290 351
#     4  11  23  39  63  94 128 165 202 246 299 355
#     4  10  21  38  61  88 120 159 201 248 304 364
#     4  11  24  41  61  87 120 162 206 250 303 363
#
# _framework density 19.908248
#
# number of rings (size 3 to 8) (size 9 to 14) (size 15 to 20)
#    0.000    1.625    1.250    3.000    0.000    7.250 
#    0.000    6.250    0.000    0.000    0.000    0.000 
#    0.000    0.000    0.000    0.000    0.000    0.000 
#
# Total GULP energy -357414.735564 kJ/mol
# GULP energy per Si atom -5584.605243 kJ/mol
# Density = 1.986294 g / cm^3
# Si number density = 19.908248 Si / 1000 Ang^3
#
#
#
# Elastic Constant Matrix: (Units=GPa)
#
#
# Indices 1 2 3 4 5 6 
#
# 1 83.8037 29.5083 51.9175 0.0000 0.0000 0.0000
# 2 29.5083 55.6307 36.5333 0.0000 0.0000 0.0000
# 3 51.9175 36.5333 120.7306 0.0000 0.0000 0.0000
# 4 0.0000 0.0000 0.0000 24.7799 0.0000 0.0000
# 5 0.0000 0.0000 0.0000 0.0000 -0.4846 0.0000
# 6 0.0000 0.0000 0.0000 0.0000 0.0000 30.2510
#
#
#
# Elastic Compliance Matrix: (Units=1/GPa)
#
#
# Indices 1 2 3 4 5 6 
#
# 1 0.017480 -0.005411 -0.005880 0.000000 0.000000 0.000000
# 2 -0.005411 0.024109 -0.004968 0.000000 0.000000 0.000000
# 3 -0.005880 -0.004968 0.012315 0.000000 0.000000 0.000000
# 4 0.000000 0.000000 0.000000 0.040355 0.000000 0.000000
# 5 0.000000 0.000000 0.000000 0.000000 -2.063379 0.000000
# 6 0.000000 0.000000 0.000000 0.000000 0.000000 0.033057
#
#
# Mechanical properties :
#
#
# Convention : Reuss Voigt Hill
#
# Bulk Modulus (GPa) = 46.76024 55.12036 50.94030
# Shear Modulus (GPa) = -2.63655 20.38963 8.87654
#
# Velocity S-wave (km/s) = -1.15205 3.20375 2.11386
# Velocity P-wave (km/s) = 4.66575 6.43682 5.62147
#
# Compressibility (1/GPa) = 0.02138569
#
# Stress axis : x y z
#
# Youngs Moduli (GPa) = 57.20668 41.47884 81.20292
#
# Poissons Ratio (x) = 0.22444 0.47745
# Poissons Ratio (y) = 0.30954 0.40346
# Poissons Ratio (z) = 0.33636 0.20609
#
# Static dielectric constant tensor:
#      x y z
#    x 1.716520 0.000000 0.000000 
#    y 0.000000 1.676180 0.000000 
#    z 0.000000 0.000000 1.703740 
# 
# From -- ./inp_files/32208.got.cif
#   From: 2010.05.17/outbox.cif.g08.bks.cpg/sg59_17_cif.got.tgz:32208.got - 2010.06.03 14:40:33.
