data_PCOD9450119
_publ_section_title
;
Structure prediction by ZEFSAII (Michael W. Deem and Ramdas Pophale) SiO2 
 PCOD9450119
Probable space group: P M M N
;
_chemical_formula_sum "Si O2"
_cell_formula_units_Z 48
_cell_length_a 8.941381
_cell_length_b 14.087616
_cell_length_c 21.394627
_cell_angle_alpha 90.000000
_cell_angle_beta 90.000000
_cell_angle_gamma 90.000000
_cell_volume 2694.925882
_symmetry_space_group_name_H-M "P M M N"
_symmetry_group_IT_number 59
_space_group.IT_coordinate_system_code '2'
_symmetry_cell_setting 'orthorhombic'
loop_
_space_group_symop_operation_xyz
x,y,z
1/2-x,1/2-y,z
1/2+x,-y,-z
-x,1/2+y,-z
-x,-y,-z
1/2+x,1/2+y,-z
1/2-x,y,z
x,1/2-y,z
loop_
_atom_site_type_symbol
_atom_site_label
_atom_site_fract_x
_atom_site_fract_y
_atom_site_fract_z
Si Si1 0.071503 0.038949 0.403605
Si Si2 0.929614 0.142434 0.900355
Si Si3 0.423183 0.135931 0.030574
Si Si4 0.429190 0.638766 0.716175
Si Si5 0.069204 0.044509 0.161961
Si Si6 0.070433 0.359745 0.534795
O O1 0.250000 0.035785 0.396046
O O2 0.037326 0.104444 0.464269
O O3 0.996655 0.083796 0.342909
O O4 0.009351 0.934516 0.419800
O O5 0.750000 0.144182 0.902569
O O6 0.983902 0.250000 0.889193
O O7 0.972124 0.065778 0.848288
O O8 0.986333 0.109971 0.968499
O O9 0.250000 0.107551 0.021814
O O10 0.429608 0.250000 0.035340
O O11 0.474396 0.094203 0.096535
O O12 0.250000 0.632213 0.715297
O O13 0.471248 0.750000 0.713298
O O14 0.492501 0.593040 0.779467
O O15 0.250000 0.052412 0.168126
O O16 0.250000 0.366482 0.543090
O O17 0.026187 0.250000 0.542987
#
# Coordination Sequence:
#
# PCOD9450119 Si02
#       6
#     8   8   8   8   8   8
#     4  10  20  35  57  84 113 146 182 218 260 311
#     4   9  18  32  50  73 100 130 167 212 260 309
#     4   9  17  29  47  72  99 128 166 212 262 315
#     4  11  24  39  55  77 105 137 174 217 265 318
#     4  10  20  34  52  73 100 136 174 213 259 311
#     4   9  18  34  57  85 116 147 180 220 263 306
#
# _framework density 17.811250000000001
#
# number of rings (size 3 to 8) (size 9 to 14) (size 15 to 20)
#    0.000    2.333    0.000    2.500    0.000    5.000 
#    0.000    2.500    0.000    3.000    0.000    0.000 
#    0.000    0.000    0.000    0.000    0.000    0.000 
#
# Total GULP energy -267875.978481 kJ/mol
# GULP energy per Si atom -5580.749552 kJ/mol
# Density = 1.777071 g / cm^3
# Si number density = 17.811250 Si / 1000 Ang^3
#
#
#
# Elastic Constant Matrix: (Units=GPa)
#
#
# Indices 1 2 3 4 5 6 
#
# 1 31.3442 52.2609 44.7492 0.0000 0.0000 0.0000
# 2 52.2609 153.0792 90.8478 0.0000 0.0000 0.0000
# 3 44.7492 90.8478 116.4405 0.0000 0.0000 0.0000
# 4 0.0000 0.0000 0.0000 27.4635 0.0000 0.0000
# 5 0.0000 0.0000 0.0000 0.0000 32.7223 0.0000
# 6 0.0000 0.0000 0.0000 0.0000 0.0000 25.1737
#
#
#
# Elastic Compliance Matrix: (Units=1/GPa)
#
#
# Indices 1 2 3 4 5 6 
#
# 1 0.095368 -0.020126 -0.020948 0.000000 0.000000 0.000000
# 2 -0.020126 0.016413 -0.005071 0.000000 0.000000 0.000000
# 3 -0.020948 -0.005071 0.020595 0.000000 0.000000 0.000000
# 4 0.000000 0.000000 0.000000 0.036412 0.000000 0.000000
# 5 0.000000 0.000000 0.000000 0.000000 0.030560 0.000000
# 6 0.000000 0.000000 0.000000 0.000000 0.000000 0.039724
#
#
# Mechanical properties :
#
#
# Convention : Reuss Voigt Hill
#
# Bulk Modulus (GPa) = 24.94666 75.17554 50.06110
# Shear Modulus (GPa) = 14.50429 24.60562 19.55496
#
# Velocity S-wave (km/s) = 2.85675 3.72084 3.31705
# Velocity P-wave (km/s) = 4.99178 7.79474 6.54507
#
# Compressibility (1/GPa) = 0.04008553
#
# Stress axis : x y z
#
# Youngs Moduli (GPa) = 10.48565 60.92709 48.55552
#
# Poissons Ratio (x) = 1.22625 1.01715
# Poissons Ratio (y) = 0.21104 0.24622
# Poissons Ratio (z) = 0.21966 0.30895
#
# Static dielectric constant tensor:
#      x y z
#    x 1.600690 0.000000 0.000000 
#    y 0.000000 1.634760 0.000000 
#    z 0.000000 0.000000 1.568030 
# 
# From -- ./inp_files/25459.got.cif
#   From: 2010.05.17/outbox.cif.g08.bks.cpg/sg59_13_cif.got.tgz:25459.got - 2010.06.03 14:40:33.
