data_PCOD9450723
_publ_section_title
;
Structure prediction by ZEFSAII (Michael W. Deem and Ramdas Pophale) SiO2 
 PCOD9450723
Probable space group: P M M N
;
_chemical_formula_sum "Si O2"
_cell_formula_units_Z 48
_cell_length_a 30.331616
_cell_length_b 7.560386
_cell_length_c 10.089536
_cell_angle_alpha 90.000000
_cell_angle_beta 90.000000
_cell_angle_gamma 90.000000
_cell_volume 2313.719531
_symmetry_space_group_name_H-M "P M M N"
_symmetry_group_IT_number 59
_space_group.IT_coordinate_system_code '2'
_symmetry_cell_setting 'orthorhombic'
loop_
_space_group_symop_operation_xyz
x,y,z
1/2-x,1/2-y,z
1/2+x,-y,-z
-x,1/2+y,-z
-x,-y,-z
1/2+x,1/2+y,-z
1/2-x,y,z
x,1/2-y,z
loop_
_atom_site_type_symbol
_atom_site_label
_atom_site_fract_x
_atom_site_fract_y
_atom_site_fract_z
Si Si1 0.378446 0.952207 0.822128
Si Si2 0.620052 0.455374 0.467150
Si Si3 0.521575 0.538984 0.142280
Si Si4 0.641263 0.036548 0.894090
Si Si5 0.700460 0.540661 0.653454
Si Si6 0.061989 0.966341 0.298079
O O1 0.361615 0.750000 0.814724
O O2 0.372375 0.036085 0.677413
O O3 0.430949 0.951988 0.846255
O O4 0.358165 0.032344 0.956022
O O5 0.608187 0.250000 0.444226
O O6 0.664258 0.461285 0.554649
O O7 0.581402 0.529526 0.561547
O O8 0.527522 0.750000 0.154342
O O9 0.486528 0.479120 0.253503
O O10 0.500000 0.500000 0.000000
O O11 0.638468 0.250000 0.900420
O O12 0.597385 0.977694 0.814345
O O13 0.682272 0.989494 0.801586
O O14 0.750000 0.472289 0.636983
O O15 0.700637 0.750000 0.628891
O O16 0.062620 0.750000 0.299324
#
# Coordination Sequence:
#
# PCOD9450723 Si02
#       6
#     8   8   8   8   8   8
#     4  10  20  35  53  78 109 139 175 221 267 308
#     4   9  19  36  57  77 104 142 177 215 264 317
#     4  11  20  31  49  74 107 145 186 227 263 304
#     4   9  17  33  55  76 103 135 171 215 257 306
#     4  10  21  37  57  81 106 131 167 215 262 316
#     4   8  15  30  49  71 101 137 176 217 254 292
#
# _framework density 20.745816000000001
#
# number of rings (size 3 to 8) (size 9 to 14) (size 15 to 20)
#    0.000    2.500    1.667    2.000    0.000    3.333 
#    0.000    1.667    0.000    5.000    0.000    0.000 
#    0.000    0.000    0.000    0.000    0.000    0.000 
#
# Total GULP energy -267815.388624 kJ/mol
# GULP energy per Si atom -5579.487263 kJ/mol
# Density = 2.069860 g / cm^3
# Si number density = 20.745816 Si / 1000 Ang^3
#
#
#
# Elastic Constant Matrix: (Units=GPa)
#
#
# Indices 1 2 3 4 5 6 
#
# 1 53.4145 -17.3083 15.0655 0.0000 0.0000 0.0000
# 2 -17.3083 57.1956 -4.8775 0.0000 0.0000 0.0000
# 3 15.0655 -4.8775 154.2751 0.0000 0.0000 0.0000
# 4 0.0000 0.0000 0.0000 -2.9960 0.0000 0.0000
# 5 0.0000 0.0000 0.0000 0.0000 14.7284 0.0000
# 6 0.0000 0.0000 0.0000 0.0000 0.0000 17.1015
#
#
#
# Elastic Compliance Matrix: (Units=1/GPa)
#
#
# Indices 1 2 3 4 5 6 
#
# 1 0.021287 0.006282 -0.001880 0.000000 0.000000 0.000000
# 2 0.006282 0.019385 -0.000001 0.000000 0.000000 0.000000
# 3 -0.001880 -0.000001 0.006666 0.000000 0.000000 0.000000
# 4 0.000000 0.000000 0.000000 -0.333783 0.000000 0.000000
# 5 0.000000 0.000000 0.000000 0.000000 0.067896 0.000000
# 6 0.000000 0.000000 0.000000 0.000000 0.000000 0.058474
#
#
# Mechanical properties :
#
#
# Convention : Reuss Voigt Hill
#
# Bulk Modulus (GPa) = 17.81292 27.84941 22.83116
# Shear Modulus (GPa) = -33.29706 23.90048 -4.69829
#
# Velocity S-wave (km/s) = -4.01059 3.39789 -1.50652
# Velocity P-wave (km/s) = 3.58351 5.37098 2.82895
#
# Compressibility (1/GPa) = 0.05613904
#
# Stress axis : x y z
#
# Youngs Moduli (GPa) = 46.97646 51.58710 150.02585
#
# Poissons Ratio (x) = -0.32405 0.28208
# Poissons Ratio (y) = -0.29508 0.00008
# Poissons Ratio (z) = 0.08832 0.00003
#
# Static dielectric constant tensor:
#      x y z
#    x 1.700390 0.000000 0.000000 
#    y 0.000000 1.736060 0.000000 
#    z 0.000000 0.000000 1.784300 
# 
# From -- ./inp_files/12970.got.cif
#   From: 2010.05.17/outbox.cif.g08.bks.cpg/sg59_7_cif.got.tgz:12970.got - 2010.06.03 14:40:33.
