data_PCOD9450986
_publ_section_title
;
Structure prediction by ZEFSAII (Michael W. Deem and Ramdas Pophale) SiO2 
 PCOD9450986
Probable space group: P M M N
;
_chemical_formula_sum "Si O2"
_cell_formula_units_Z 48
_cell_length_a 19.870700
_cell_length_b 7.677832
_cell_length_c 15.584173
_cell_angle_alpha 90.000000
_cell_angle_beta 90.000000
_cell_angle_gamma 90.000000
_cell_volume 2377.582154
_symmetry_space_group_name_H-M "P M M N"
_symmetry_group_IT_number 59
_space_group.IT_coordinate_system_code '2'
_symmetry_cell_setting 'orthorhombic'
loop_
_space_group_symop_operation_xyz
x,y,z
1/2-x,1/2-y,z
1/2+x,-y,-z
-x,1/2+y,-z
-x,-y,-z
1/2+x,1/2+y,-z
1/2-x,y,z
x,1/2-y,z
loop_
_atom_site_type_symbol
_atom_site_label
_atom_site_fract_x
_atom_site_fract_y
_atom_site_fract_z
Si Si1 0.325770 0.456669 0.613132
Si Si2 0.926358 0.042557 0.537305
Si Si3 0.061788 0.542139 0.270294
Si Si4 0.173755 0.459871 0.131017
Si Si5 0.087194 0.463938 0.775331
Si Si6 0.827361 0.537652 0.062684
O O1 0.250000 0.528171 0.607624
O O2 0.320077 0.250000 0.627294
O O3 0.368946 0.479617 0.527174
O O4 0.368252 0.523535 0.694332
O O5 0.920207 0.250000 0.540002
O O6 0.921864 0.973150 0.634524
O O7 0.000000 0.000000 0.500000
O O8 0.054220 0.750000 0.279546
O O9 0.120200 0.510772 0.202099
O O10 0.989424 0.476803 0.237473
O O11 0.250000 0.520209 0.150095
O O12 0.175504 0.250000 0.128619
O O13 0.155930 0.519054 0.034285
O O14 0.087078 0.250000 0.775657
O O15 0.121940 0.520936 0.863665
O O16 0.750000 0.486626 0.081385
O O17 0.828246 0.750000 0.063030
#
# Coordination Sequence:
#
# PCOD9450986 Si02
#       6
#     8   8   8   8   8   8
#     4  10  20  35  57  84 111 141 180 222 265 319
#     4  11  22  38  57  77 107 143 180 223 271 323
#     4  10  21  35  53  77 105 138 174 214 264 321
#     4   9  19  35  53  76 105 136 177 223 261 305
#     4   9  16  30  51  78 109 138 173 215 259 314
#     4   8  14  27  50  77 104 137 174 215 261 305
#
# _framework density 20.188576999999999
#
# number of rings (size 3 to 8) (size 9 to 14) (size 15 to 20)
#    0.000    2.500    1.667    2.000    0.000    5.333 
#    0.000    3.333    0.000    1.000    0.000    2.333 
#    0.000    0.000    0.000    0.000    0.000    0.000 
#
# Total GULP energy -267920.921412 kJ/mol
# GULP energy per Si atom -5581.685863 kJ/mol
# Density = 2.014263 g / cm^3
# Si number density = 20.188577 Si / 1000 Ang^3
#
#
#
# Elastic Constant Matrix: (Units=GPa)
#
#
# Indices 1 2 3 4 5 6 
#
# 1 182.2243 -2.0527 134.7046 0.0000 0.0000 0.0000
# 2 -2.0527 30.3114 -4.2548 0.0000 0.0000 0.0000
# 3 134.7046 -4.2548 202.1125 0.0000 0.0000 0.0000
# 4 0.0000 0.0000 0.0000 14.5460 0.0000 0.0000
# 5 0.0000 0.0000 0.0000 0.0000 34.9379 0.0000
# 6 0.0000 0.0000 0.0000 0.0000 0.0000 20.4414
#
#
#
# Elastic Compliance Matrix: (Units=1/GPa)
#
#
# Indices 1 2 3 4 5 6 
#
# 1 0.010819 -0.000280 -0.007217 0.000000 0.000000 0.000000
# 2 -0.000280 0.033096 0.000884 0.000000 0.000000 0.000000
# 3 -0.007217 0.000884 0.009776 0.000000 0.000000 0.000000
# 4 0.000000 0.000000 0.000000 0.068748 0.000000 0.000000
# 5 0.000000 0.000000 0.000000 0.000000 0.028622 0.000000
# 6 0.000000 0.000000 0.000000 0.000000 0.000000 0.048920
#
#
# Mechanical properties :
#
#
# Convention : Reuss Voigt Hill
#
# Bulk Modulus (GPa) = 24.71311 74.60470 49.65890
# Shear Modulus (GPa) = 22.05585 33.06847 27.56216
#
# Velocity S-wave (km/s) = 3.30887 4.05159 3.69892
# Velocity P-wave (km/s) = 5.18323 7.67602 6.54932
#
# Compressibility (1/GPa) = 0.04046436
#
# Stress axis : x y z
#
# Youngs Moduli (GPa) = 92.42576 30.21518 102.28833
#
# Poissons Ratio (x) = 0.00847 0.73821
# Poissons Ratio (y) = 0.02591 -0.09038
# Poissons Ratio (z) = 0.66703 -0.02670
#
# Static dielectric constant tensor:
#      x y z
#    x 1.682160 0.000000 0.000000 
#    y 0.000000 1.771820 0.000000 
#    z 0.000000 0.000000 1.696750 
# 
# From -- ./inp_files/20385.got.cif
#   From: 2010.05.17/outbox.cif.g08.bks.cpg/sg59_11_cif.got.tgz:20385.got - 2010.06.03 14:40:33.
