data_PCOD9450040
_publ_section_title
;
Structure prediction by ZEFSAII (Michael W. Deem and Ramdas Pophale) SiO2 
 PCOD9450040
Probable space group: P M M N
;
_chemical_formula_sum "Si O2"
_cell_formula_units_Z 48
_cell_length_a 18.708759
_cell_length_b 8.793273
_cell_length_c 14.768439
_cell_angle_alpha 90.000000
_cell_angle_beta 90.000000
_cell_angle_gamma 90.000000
_cell_volume 2429.573997
_symmetry_space_group_name_H-M "P M M N"
_symmetry_group_IT_number 59
_space_group.IT_coordinate_system_code '2'
_symmetry_cell_setting 'orthorhombic'
loop_
_space_group_symop_operation_xyz
x,y,z
1/2-x,1/2-y,z
1/2+x,-y,-z
-x,1/2+y,-z
-x,-y,-z
1/2+x,1/2+y,-z
1/2-x,y,z
x,1/2-y,z
loop_
_atom_site_type_symbol
_atom_site_label
_atom_site_fract_x
_atom_site_fract_y
_atom_site_fract_z
Si Si1 0.250000 0.932102 0.516836
Si Si2 0.750000 0.930807 0.281817
Si Si3 0.173344 0.068287 0.166572
Si Si4 0.399154 0.931539 0.754807
Si Si5 0.480910 0.434516 0.097413
Si Si6 0.647065 0.074313 0.644762
Si Si7 0.515609 0.574418 0.403937
O O1 0.250000 0.750000 0.533818
O O2 0.182361 0.968597 0.451595
O O3 0.250000 0.013531 0.613148
O O4 0.750000 0.750000 0.279856
O O5 0.821654 0.994038 0.235032
O O6 0.250000 0.010994 0.129471
O O7 0.172680 0.250000 0.155936
O O8 0.098736 0.011122 0.125198
O O9 0.171728 0.028106 0.272665
O O10 0.392487 0.750000 0.757168
O O11 0.458433 0.978781 0.829191
O O12 0.429222 0.982976 0.657281
O O13 0.480234 0.250000 0.095179
O O14 0.500000 0.500000 0.000000
O O15 0.668184 0.250000 0.661039
O O16 0.561878 0.069277 0.642773
O O17 0.500000 0.500000 0.500000
O O18 0.538229 0.750000 0.412992
#
# Coordination Sequence:
#
# PCOD9450040 Si02
#       7
#     4   4   8   8   8   8   8
#     4  10  20  36  56  85 128 173 212 259 314 368
#     4  12  26  42  62  91 122 165 220 269 322 382
#     4  10  20  37  62  92 125 158 197 247 307 371
#     4  11  23  43  66  88 124 169 213 267 325 383
#     4  10  23  43  68  96 126 164 207 260 325 386
#     4  10  20  33  54  84 120 160 204 250 302 362
#     4  11  22  35  56  88 122 164 215 263 314 377
#
# _framework density 19.756549
#
# number of rings (size 3 to 8) (size 9 to 14) (size 15 to 20)
#    0.000    1.500    2.500    2.750    0.000    4.667 
#    1.500    0.000    0.000    0.000    0.000    0.000 
#    0.000    0.000    0.000    0.000    0.000    0.000 
#
# Total GULP energy -268069.653685 kJ/mol
# GULP energy per Si atom -5584.784452 kJ/mol
# Density = 1.971158 g / cm^3
# Si number density = 19.756549 Si / 1000 Ang^3
#
#
#
# Elastic Constant Matrix: (Units=GPa)
#
#
# Indices 1 2 3 4 5 6 
#
# 1 178.0323 45.7336 58.4571 0.0000 0.0000 0.0000
# 2 45.7336 45.4026 25.1095 0.0000 0.0000 0.0000
# 3 58.4571 25.1095 98.0137 0.0000 0.0000 0.0000
# 4 0.0000 0.0000 0.0000 33.2991 0.0000 0.0000
# 5 0.0000 0.0000 0.0000 0.0000 17.3229 0.0000
# 6 0.0000 0.0000 0.0000 0.0000 0.0000 19.4880
#
#
#
# Elastic Compliance Matrix: (Units=1/GPa)
#
#
# Indices 1 2 3 4 5 6 
#
# 1 0.008411 -0.006639 -0.003316 0.000000 0.000000 0.000000
# 2 -0.006639 0.030900 -0.003957 0.000000 0.000000 0.000000
# 3 -0.003316 -0.003957 0.013194 0.000000 0.000000 0.000000
# 4 0.000000 0.000000 0.000000 0.030031 0.000000 0.000000
# 5 0.000000 0.000000 0.000000 0.000000 0.057727 0.000000
# 6 0.000000 0.000000 0.000000 0.000000 0.000000 0.051314
#
#
# Mechanical properties :
#
#
# Convention : Reuss Voigt Hill
#
# Bulk Modulus (GPa) = 40.51367 64.44988 52.48178
# Shear Modulus (GPa) = 21.96574 26.83188 24.39881
#
# Velocity S-wave (km/s) = 3.33801 3.68927 3.51803
# Velocity P-wave (km/s) = 5.95041 7.13025 6.56688
#
# Compressibility (1/GPa) = 0.02468303
#
# Stress axis : x y z
#
# Youngs Moduli (GPa) = 118.89114 32.36198 75.79248
#
# Poissons Ratio (x) = 0.21484 0.25131
# Poissons Ratio (y) = 0.78927 0.29989
# Poissons Ratio (z) = 0.39422 0.12805
#
# Static dielectric constant tensor:
#      x y z
#    x 1.751460 0.000000 0.000000 
#    y 0.000000 1.666710 0.000000 
#    z 0.000000 0.000000 1.658880 
# 
# From -- ./inp_files/23709.got.cif
#   From: 2010.05.17/outbox.cif.g08.bks.cpg/sg59_12_cif.got.tgz:23709.got - 2010.06.03 14:40:33.
