data_PCOD9450866
_publ_section_title
;
Structure prediction by ZEFSAII (Michael W. Deem and Ramdas Pophale) SiO2 
 PCOD9450866
Probable space group: P M M N
;
_chemical_formula_sum "Si O2"
_cell_formula_units_Z 64
_cell_length_a 12.656620
_cell_length_b 25.619940
_cell_length_c 9.128373
_cell_angle_alpha 90.000000
_cell_angle_beta 90.000000
_cell_angle_gamma 90.000000
_cell_volume 2959.983071
_symmetry_space_group_name_H-M "P M M N"
_symmetry_group_IT_number 59
_space_group.IT_coordinate_system_code '2'
_symmetry_cell_setting 'orthorhombic'
loop_
_space_group_symop_operation_xyz
x,y,z
1/2-x,1/2-y,z
1/2+x,-y,-z
-x,1/2+y,-z
-x,-y,-z
1/2+x,1/2+y,-z
1/2-x,y,z
x,1/2-y,z
loop_
_atom_site_type_symbol
_atom_site_label
_atom_site_fract_x
_atom_site_fract_y
_atom_site_fract_z
Si Si1 0.868478 0.159407 0.635657
Si Si2 0.865108 0.687875 0.877762
Si Si3 0.361082 0.891550 0.790731
Si Si4 0.461535 0.144899 0.414463
Si Si5 0.572716 0.312206 0.968402
Si Si6 0.630459 0.489783 0.997857
Si Si7 0.134015 0.451426 0.572174
Si Si8 0.592081 0.038510 0.672434
O O1 0.750000 0.178013 0.600085
O O2 0.893356 0.173918 0.804343
O O3 0.873535 0.096504 0.627688
O O4 0.962500 0.176607 0.525764
O O5 0.750000 0.664298 0.902129
O O6 0.859239 0.750000 0.893701
O O7 0.902042 0.676617 0.711747
O O8 0.952248 0.670493 0.995340
O O9 0.250000 0.888951 0.708225
O O10 0.457746 0.890239 0.680627
O O11 0.367169 0.843175 0.903946
O O12 0.363654 0.942251 0.889538
O O13 0.386039 0.105584 0.501459
O O14 0.583007 0.250000 0.988093
O O15 0.750000 0.517759 0.021233
O O16 0.637988 0.473638 0.828958
O O17 0.500000 0.500000 0.000000
O O18 0.250000 0.454669 0.637571
O O19 0.124049 0.495177 0.445881
O O20 0.035944 0.460703 0.678872
#
# Coordination Sequence:
#
# PCOD9450866 Si02
#       8
#     8   8   8   8   8   8   8   8
#     4  11  21  36  57  82 117 154 187 233 291 349
#     4   9  19  39  63  83 111 151 191 238 295 351
#     4  10  20  36  57  82 115 155 196 242 292 354
#     4  10  21  35  57  87 116 147 192 239 289 354
#     4  10  21  37  59  86 112 149 200 244 290 353
#     4  11  22  37  58  84 118 154 200 248 299 355
#     4  10  20  35  56  80 112 150 192 241 289 346
#     4  10  21  36  55  80 111 154 197 235 290 355
#
# _framework density 21.621744
#
# number of rings (size 3 to 8) (size 9 to 14) (size 15 to 20)
#    0.000    1.875    1.250    3.000    0.000    2.000 
#    0.000    8.750    0.000    3.750    0.000    0.000 
#    0.000    0.000    0.000    0.000    0.000    0.000 
#
# Total GULP energy -356745.976979 kJ/mol
# GULP energy per Si atom -5574.155890 kJ/mol
# Density = 2.157253 g / cm^3
# Si number density = 21.621744 Si / 1000 Ang^3
#
#
#
# Elastic Constant Matrix: (Units=GPa)
#
#
# Indices 1 2 3 4 5 6 
#
# 1 182.5392 10.7540 17.6701 0.0000 0.0000 0.0000
# 2 10.7540 25.7090 -2.5392 0.0000 0.0000 0.0000
# 3 17.6701 -2.5392 71.3350 0.0000 0.0000 0.0000
# 4 0.0000 0.0000 0.0000 18.1071 0.0000 0.0000
# 5 0.0000 0.0000 0.0000 0.0000 -5.6182 0.0000
# 6 0.0000 0.0000 0.0000 0.0000 0.0000 8.3219
#
#
#
# Elastic Compliance Matrix: (Units=1/GPa)
#
#
# Indices 1 2 3 4 5 6 
#
# 1 0.005777 -0.002567 -0.001522 0.000000 0.000000 0.000000
# 2 -0.002567 0.040175 0.002066 0.000000 0.000000 0.000000
# 3 -0.001522 0.002066 0.014469 0.000000 0.000000 0.000000
# 4 0.000000 0.000000 0.000000 0.055227 0.000000 0.000000
# 5 0.000000 0.000000 0.000000 0.000000 -0.177994 0.000000
# 6 0.000000 0.000000 0.000000 0.000000 0.000000 0.120165
#
#
# Mechanical properties :
#
#
# Convention : Reuss Voigt Hill
#
# Bulk Modulus (GPa) = 17.73871 36.81698 27.27785
# Shear Modulus (GPa) = 61.99146 21.07538 41.53342
#
# Velocity S-wave (km/s) = 5.36033 3.12545 4.38757
# Velocity P-wave (km/s) = 6.82149 5.48538 6.18959
#
# Compressibility (1/GPa) = 0.05637388
#
# Stress axis : x y z
#
# Youngs Moduli (GPa) = 173.10449 24.89137 69.11330
#
# Poissons Ratio (x) = 0.06389 0.10521
# Poissons Ratio (y) = 0.44432 -0.14278
# Poissons Ratio (z) = 0.26352 -0.05142
#
# Static dielectric constant tensor:
#      x y z
#    x 1.922430 0.000000 0.000000 
#    y 0.000000 1.765320 0.000000 
#    z 0.000000 0.000000 1.688310 
# 
# From -- ./inp_files/8015.got.cif
#   From: 2010.05.17/outbox.cif.g08.bks.cpg/sg59_5_cif.got.tgz:8015.got - 2010.06.03 14:40:33.
