data_PCOD9450580
_publ_section_title
;
Structure prediction by ZEFSAII (Michael W. Deem and Ramdas Pophale) SiO2 
 PCOD9450580
Probable space group: P M M N
;
_chemical_formula_sum "Si O2"
_cell_formula_units_Z 40
_cell_length_a 7.856891
_cell_length_b 16.552476
_cell_length_c 14.316111
_cell_angle_alpha 90.000000
_cell_angle_beta 90.000000
_cell_angle_gamma 90.000000
_cell_volume 1861.824548
_symmetry_space_group_name_H-M "P M M N"
_symmetry_group_IT_number 59
_space_group.IT_coordinate_system_code '2'
_symmetry_cell_setting 'orthorhombic'
loop_
_space_group_symop_operation_xyz
x,y,z
1/2-x,1/2-y,z
1/2+x,-y,-z
-x,1/2+y,-z
-x,-y,-z
1/2+x,1/2+y,-z
1/2-x,y,z
x,1/2-y,z
loop_
_atom_site_type_symbol
_atom_site_label
_atom_site_fract_x
_atom_site_fract_y
_atom_site_fract_z
Si Si1 0.958426 0.910409 0.626275
Si Si2 0.545016 0.841004 0.437303
Si Si3 0.048192 0.250000 0.049770
Si Si4 0.547877 0.434035 0.737383
Si Si5 0.542048 0.750000 0.737984
Si Si6 0.547131 0.083077 0.947158
O O1 0.750000 0.913185 0.624145
O O2 0.016584 0.900572 0.519241
O O3 0.008089 0.830314 0.682851
O O4 0.021673 0.987839 0.682670
O O5 0.750000 0.845181 0.434619
O O6 0.497973 0.750000 0.464275
O O7 0.479554 0.861947 0.335040
O O8 0.250000 0.250000 0.058187
O O9 0.978614 0.250000 0.155630
O O10 0.002961 0.333436 0.997608
O O11 0.750000 0.447003 0.747968
O O12 0.477626 0.420507 0.840926
O O13 0.750000 0.750000 0.739119
O O14 0.750000 0.084701 0.942475
O O15 0.500000 0.000000 0.000000
#
# Coordination Sequence:
#
# PCOD9450580 Si02
#       6
#     8   8   4   8   4   8
#     4   9  16  32  56  83 112 145 188 239 289 347
#     4  10  20  34  55  85 115 146 188 238 289 345
#     4  11  23  39  64  93 122 164 209 253 312 373
#     4  10  22  37  57  82 114 155 195 236 292 357
#     4   9  16  31  58  85 110 144 193 243 290 351
#     4  11  24  43  64  91 124 161 208 261 312 365
#
# _framework density 21.484300999999999
#
# number of rings (size 3 to 8) (size 9 to 14) (size 15 to 20)
#    0.000    2.000    1.000    2.700    1.400    5.200 
#    0.000    0.000    0.000    2.400    0.000    0.000 
#    0.000    0.000    0.000    0.000    0.000    0.000 
#
# Total GULP energy -223405.018776 kJ/mol
# GULP energy per Si atom -5585.125469 kJ/mol
# Density = 2.143540 g / cm^3
# Si number density = 21.484301 Si / 1000 Ang^3
#
#
#
# Elastic Constant Matrix: (Units=GPa)
#
#
# Indices 1 2 3 4 5 6 
#
# 1 25.7695 2.4104 3.6167 0.0000 0.0000 0.0000
# 2 2.4104 97.6454 47.2453 0.0000 0.0000 0.0000
# 3 3.6167 47.2453 181.3410 0.0000 0.0000 0.0000
# 4 0.0000 0.0000 0.0000 34.3530 0.0000 0.0000
# 5 0.0000 0.0000 0.0000 0.0000 19.2329 0.0000
# 6 0.0000 0.0000 0.0000 0.0000 0.0000 26.9689
#
#
#
# Elastic Compliance Matrix: (Units=1/GPa)
#
#
# Indices 1 2 3 4 5 6 
#
# 1 0.038953 -0.000670 -0.000602 0.000000 0.000000 0.000000
# 2 -0.000670 0.011730 -0.003043 0.000000 0.000000 0.000000
# 3 -0.000602 -0.003043 0.006319 0.000000 0.000000 0.000000
# 4 0.000000 0.000000 0.000000 0.029110 0.000000 0.000000
# 5 0.000000 0.000000 0.000000 0.000000 0.051994 0.000000
# 6 0.000000 0.000000 0.000000 0.000000 0.000000 0.037080
#
#
# Mechanical properties :
#
#
# Convention : Reuss Voigt Hill
#
# Bulk Modulus (GPa) = 20.67324 45.70007 33.18666
# Shear Modulus (GPa) = 25.00756 32.87652 28.94204
#
# Velocity S-wave (km/s) = 3.41543 3.91609 3.67430
# Velocity P-wave (km/s) = 5.01966 6.46261 5.78629
#
# Compressibility (1/GPa) = 0.04837170
#
# Stress axis : x y z
#
# Youngs Moduli (GPa) = 25.67209 85.25259 158.24800
#
# Poissons Ratio (x) = 0.05713 0.09531
# Poissons Ratio (y) = 0.01720 0.48149
# Poissons Ratio (z) = 0.01546 0.25939
#
# Static dielectric constant tensor:
#      x y z
#    x 1.784850 0.000000 0.000000 
#    y 0.000000 1.751450 0.000000 
#    z 0.000000 0.000000 1.794620 
# 
# From -- ./inp_files/20022.got.cif
#   From: 2010.05.17/outbox.cif.g08.bks.cpg/sg59_11_cif.got.tgz:20022.got - 2010.06.03 14:40:33.
