data_PCOD9450474
_publ_section_title
;
Structure prediction by ZEFSAII (Michael W. Deem and Ramdas Pophale) SiO2 
 PCOD9450474
Probable space group: P M M N
;
_chemical_formula_sum "Si O2"
_cell_formula_units_Z 56
_cell_length_a 8.668376
_cell_length_b 14.708134
_cell_length_c 24.458555
_cell_angle_alpha 90.000000
_cell_angle_beta 90.000000
_cell_angle_gamma 90.000000
_cell_volume 3118.359020
_symmetry_space_group_name_H-M "P M M N"
_symmetry_group_IT_number 59
_space_group.IT_coordinate_system_code '2'
_symmetry_cell_setting 'orthorhombic'
loop_
_space_group_symop_operation_xyz
x,y,z
1/2-x,1/2-y,z
1/2+x,-y,-z
-x,1/2+y,-z
-x,-y,-z
1/2+x,1/2+y,-z
1/2-x,y,z
x,1/2-y,z
loop_
_atom_site_type_symbol
_atom_site_label
_atom_site_fract_x
_atom_site_fract_y
_atom_site_fract_z
Si Si1 0.434912 0.995604 0.939215
Si Si2 0.936419 0.854869 0.854415
Si Si3 0.434364 0.995451 0.233586
Si Si4 0.938086 0.145664 0.442978
Si Si5 0.936270 0.854650 0.149107
Si Si6 0.931494 0.141148 0.565127
Si Si7 0.566599 0.500727 0.354628
O O1 0.250000 0.993106 0.940763
O O2 0.482353 0.083844 0.903123
O O3 0.496554 0.907922 0.906521
O O4 0.500000 0.000000 0.000000
O O5 0.250000 0.990054 0.232606
O O6 0.986068 0.750000 0.850923
O O7 0.981554 0.915724 0.801852
O O8 0.250000 0.143745 0.142096
O O9 0.491761 0.001169 0.295281
O O10 0.501431 0.908179 0.201825
O O11 0.750000 0.144810 0.444134
O O12 0.985957 0.250000 0.434411
O O13 0.986957 0.115819 0.503895
O O14 0.989259 0.080329 0.394529
O O15 0.750000 0.854875 0.151313
O O16 0.988105 0.750000 0.145992
O O17 0.750000 0.117344 0.570053
O O18 0.943006 0.250000 0.568861
O O19 0.024163 0.091344 0.612202
O O20 0.750000 0.492987 0.348487
#
# Coordination Sequence:
#
# PCOD9450474 Si02
#       7
#     8   8   8   8   8   8   8
#     4  10  20  34  54  83 115 143 174 212 254 303
#     4   9  19  37  58  77 102 139 178 217 262 305
#     4  10  21  36  53  75 103 134 171 214 257 306
#     4   8  16  32  52  74 100 130 165 205 252 306
#     4   9  19  37  58  77 101 136 175 215 258 299
#     4   9  18  34  54  73  97 131 168 207 253 305
#     4  11  21  32  51  77 103 132 166 208 256 304
#
# _framework density 17.958162999999999
#
# number of rings (size 3 to 8) (size 9 to 14) (size 15 to 20)
#    0.000    2.571    0.000    2.571    0.000    3.714 
#    0.000    2.143    0.000    3.000    0.000    0.000 
#    0.000    0.000    0.000    0.000    0.000    0.000 
#
# Total GULP energy -312413.067539 kJ/mol
# GULP energy per Si atom -5578.804777 kJ/mol
# Density = 1.791729 g / cm^3
# Si number density = 17.958163 Si / 1000 Ang^3
#
#
#
# Elastic Constant Matrix: (Units=GPa)
#
#
# Indices 1 2 3 4 5 6 
#
# 1 13.7371 26.0546 26.6839 0.0000 0.0000 0.0000
# 2 26.0546 131.2547 74.4895 0.0000 0.0000 0.0000
# 3 26.6839 74.4895 166.9723 0.0000 0.0000 0.0000
# 4 0.0000 0.0000 0.0000 18.4311 0.0000 0.0000
# 5 0.0000 0.0000 0.0000 0.0000 17.8461 0.0000
# 6 0.0000 0.0000 0.0000 0.0000 0.0000 23.3025
#
#
#
# Elastic Compliance Matrix: (Units=1/GPa)
#
#
# Indices 1 2 3 4 5 6 
#
# 1 0.134589 -0.019429 -0.012841 0.000000 0.000000 0.000000
# 2 -0.019429 0.013006 -0.002697 0.000000 0.000000 0.000000
# 3 -0.012841 -0.002697 0.009245 0.000000 0.000000 0.000000
# 4 0.000000 0.000000 0.000000 0.054256 0.000000 0.000000
# 5 0.000000 0.000000 0.000000 0.000000 0.056035 0.000000
# 6 0.000000 0.000000 0.000000 0.000000 0.000000 0.042914
#
#
# Mechanical properties :
#
#
# Convention : Reuss Voigt Hill
#
# Bulk Modulus (GPa) = 11.50686 62.93557 37.22121
# Shear Modulus (GPa) = 12.22652 24.23168 18.22910
#
# Velocity S-wave (km/s) = 2.61211 3.67732 3.18950
# Velocity P-wave (km/s) = 3.93941 7.29054 5.85965
#
# Compressibility (1/GPa) = 0.08690470
#
# Stress axis : x y z
#
# Youngs Moduli (GPa) = 7.43005 76.88550 108.17214
#
# Poissons Ratio (x) = 1.49380 1.38904
# Poissons Ratio (y) = 0.14436 0.29179
# Poissons Ratio (z) = 0.09541 0.20739
#
# Static dielectric constant tensor:
#      x y z
#    x 1.617620 0.000000 0.000000 
#    y 0.000000 1.614920 0.000000 
#    z 0.000000 0.000000 1.586660 
# 
# From -- ./inp_files/29090.got.cif
#   From: 2010.05.17/outbox.cif.g08.bks.cpg/sg59_15_cif.got.tgz:29090.got - 2010.06.03 14:40:33.
