data_PCOD9450744
_publ_section_title
;
Structure prediction by ZEFSAII (Michael W. Deem and Ramdas Pophale) SiO2 
 PCOD9450744
Probable space group: P M M N
;
_chemical_formula_sum "Si O2"
_cell_formula_units_Z 56
_cell_length_a 7.404667
_cell_length_b 16.042422
_cell_length_c 20.782874
_cell_angle_alpha 90.000000
_cell_angle_beta 90.000000
_cell_angle_gamma 90.000000
_cell_volume 2468.772513
_symmetry_space_group_name_H-M "P M M N"
_symmetry_group_IT_number 59
_space_group.IT_coordinate_system_code '2'
_symmetry_cell_setting 'orthorhombic'
loop_
_space_group_symop_operation_xyz
x,y,z
1/2-x,1/2-y,z
1/2+x,-y,-z
-x,1/2+y,-z
-x,-y,-z
1/2+x,1/2+y,-z
1/2-x,y,z
x,1/2-y,z
loop_
_atom_site_type_symbol
_atom_site_label
_atom_site_fract_x
_atom_site_fract_y
_atom_site_fract_z
Si Si1 0.534256 0.499657 0.575567
Si Si2 0.536135 0.583029 0.067230
Si Si3 0.045222 0.388085 0.068133
Si Si4 0.529109 0.341575 0.656084
Si Si5 0.533688 0.407668 0.792343
Si Si6 0.028867 0.399079 0.206163
Si Si7 0.970448 0.659141 0.654361
O O1 0.500000 0.500000 0.500000
O O2 0.750000 0.499774 0.584765
O O3 0.466781 0.416555 0.610841
O O4 0.465932 0.582484 0.611139
O O5 0.750000 0.570519 0.057916
O O6 0.452805 0.490049 0.071140
O O7 0.511676 0.624749 0.136518
O O8 0.466575 0.628313 0.002728
O O9 0.250000 0.355888 0.067609
O O10 0.964886 0.364129 0.137242
O O11 0.750000 0.342373 0.655830
O O12 0.471678 0.250000 0.634844
O O13 0.471134 0.358747 0.729621
O O14 0.750000 0.409635 0.788897
O O15 0.472146 0.504053 0.788133
O O16 0.250000 0.398197 0.203726
O O17 0.975370 0.353717 0.271350
O O18 0.750000 0.657604 0.653964
O O19 0.027586 0.750000 0.631044
#
# Coordination Sequence:
#
# PCOD9450744 Si02
#       7
#     8   8   8   8   8   8   8
#     4  10  20  35  54  77 102 126 154 192 236 284
#     4   9  15  22  35  61  93 123 157 198 243 289
#     4   8  14  23  37  58  88 124 162 200 237 281
#     4   9  17  31  53  76  95 123 167 208 237 276
#     4   9  15  26  45  65  87 119 159 203 242 278
#     4   8  12  22  41  62  85 117 155 193 230 268
#     4   9  16  27  47  74  99 123 155 194 234 276
#
# _framework density 22.683337999999999
#
# number of rings (size 3 to 8) (size 9 to 14) (size 15 to 20)
#    0.000    3.143    1.429    1.286    0.000    1.143 
#    0.000    0.714    0.000    2.143    0.000    2.000 
#    0.000    0.000    0.000    0.000    0.000    1.571 
#
# Total GULP energy -312387.263566 kJ/mol
# GULP energy per Si atom -5578.343992 kJ/mol
# Density = 2.263171 g / cm^3
# Si number density = 22.683338 Si / 1000 Ang^3
#
#
#
# Elastic Constant Matrix: (Units=GPa)
#
#
# Indices 1 2 3 4 5 6 
#
# 1 80.1351 6.5524 -2.2359 0.0000 0.0000 0.0000
# 2 6.5524 135.7318 97.1353 0.0000 0.0000 0.0000
# 3 -2.2359 97.1353 205.0983 0.0000 0.0000 0.0000
# 4 0.0000 0.0000 0.0000 -8.4922 0.0000 0.0000
# 5 0.0000 0.0000 0.0000 0.0000 20.0678 0.0000
# 6 0.0000 0.0000 0.0000 0.0000 0.0000 -7.5328
#
#
#
# Elastic Compliance Matrix: (Units=1/GPa)
#
#
# Indices 1 2 3 4 5 6 
#
# 1 0.012584 -0.001067 0.000643 0.000000 0.000000 0.000000
# 2 -0.001067 0.011235 -0.005333 0.000000 0.000000 0.000000
# 3 0.000643 -0.005333 0.007408 0.000000 0.000000 0.000000
# 4 0.000000 0.000000 0.000000 -0.117756 0.000000 0.000000
# 5 0.000000 0.000000 0.000000 0.000000 0.049831 0.000000
# 6 0.000000 0.000000 0.000000 0.000000 0.000000 -0.132752
#
#
# Mechanical properties :
#
#
# Convention : Reuss Voigt Hill
#
# Bulk Modulus (GPa) = 50.72826 69.31878 60.02352
# Shear Modulus (GPa) = -33.03312 22.10946 -5.46183
#
# Velocity S-wave (km/s) = -3.82025 3.12541 -1.55341
# Velocity P-wave (km/s) = 1.71846 6.60681 4.82716
#
# Compressibility (1/GPa) = 0.01971288
#
# Stress axis : x y z
#
# Youngs Moduli (GPa) = 79.46506 89.00501 134.98342
#
# Poissons Ratio (x) = 0.09501 -0.08676
# Poissons Ratio (y) = 0.08483 0.71983
# Poissons Ratio (z) = -0.05108 0.47464
#
# Static dielectric constant tensor:
#      x y z
#    x 1.899210 0.000000 0.000000 
#    y 0.000000 1.822660 0.000000 
#    z 0.000000 0.000000 1.852500 
# 
# From -- ./inp_files/29021.got.cif
#   From: 2010.05.17/outbox.cif.g08.bks.cpg/sg59_15_cif.got.tgz:29021.got - 2010.06.03 14:40:33.
