data_PCOD9450369
_publ_section_title
;
Structure prediction by ZEFSAII (Michael W. Deem and Ramdas Pophale) SiO2 
 PCOD9450369
Probable space group: P M M N
;
_chemical_formula_sum "Si O2"
_cell_formula_units_Z 64
_cell_length_a 20.580763
_cell_length_b 9.068024
_cell_length_c 20.107576
_cell_angle_alpha 90.000000
_cell_angle_beta 90.000000
_cell_angle_gamma 90.000000
_cell_volume 3752.613627
_symmetry_space_group_name_H-M "P M M N"
_symmetry_group_IT_number 59
_space_group.IT_coordinate_system_code '2'
_symmetry_cell_setting 'orthorhombic'
loop_
_space_group_symop_operation_xyz
x,y,z
1/2-x,1/2-y,z
1/2+x,-y,-z
-x,1/2+y,-z
-x,-y,-z
1/2+x,1/2+y,-z
1/2-x,y,z
x,1/2-y,z
loop_
_atom_site_type_symbol
_atom_site_label
_atom_site_fract_x
_atom_site_fract_y
_atom_site_fract_z
Si Si1 0.568978 0.574074 0.328300
Si Si2 0.325942 0.925944 0.075105
Si Si3 0.068799 0.425562 0.329307
Si Si4 0.565523 0.573342 0.173136
Si Si5 0.324914 0.426820 0.933080
Si Si6 0.928105 0.574363 0.827155
Si Si7 0.174540 0.926647 0.422658
Si Si8 0.325331 0.573293 0.578147
O O1 0.564973 0.750000 0.335576
O O2 0.499840 0.501552 0.345906
O O3 0.581308 0.540302 0.250250
O O4 0.625299 0.509251 0.374095
O O5 0.250000 0.958092 0.089868
O O6 0.334451 0.750000 0.074670
O O7 0.373198 0.999310 0.128412
O O8 0.339622 0.991619 0.002054
O O9 0.063230 0.250000 0.337444
O O10 0.082429 0.456321 0.251316
O O11 0.125345 0.489725 0.375074
O O12 0.555097 0.750000 0.168215
O O13 0.624193 0.532865 0.124206
O O14 0.498854 0.491077 0.155573
O O15 0.250000 0.460327 0.914567
O O16 0.329214 0.250000 0.943562
O O17 0.927658 0.750000 0.836852
O O18 0.250000 0.962766 0.408453
O O19 0.167093 0.750000 0.414629
O O20 0.162266 0.960986 0.500400
O O21 0.250000 0.535992 0.592308
O O22 0.332326 0.750000 0.585895
#
# Coordination Sequence:
#
# PCOD9450369 Si02
#       8
#     8   8   8   8   8   8   8   8
#     4  10  20  34  54  79 106 137 174 215 257 304
#     4  10  21  36  54  77 104 134 170 211 253 301
#     4  10  21  36  54  77 105 136 172 214 258 307
#     4   9  19  35  54  77 105 136 171 212 256 302
#     4   9  18  34  55  77 103 135 169 208 255 303
#     4  10  21  36  54  76 103 136 172 210 254 305
#     4   9  19  36  56  77 103 136 173 213 258 308
#     4   9  19  36  55  76 105 139 173 211 257 308
#
# _framework density 17.054780000000001
#
# number of rings (size 3 to 8) (size 9 to 14) (size 15 to 20)
#    0.000    2.500    0.000    2.250    0.000    6.250 
#    0.000    5.000    0.000    1.500    0.000    0.000 
#    0.000    0.000    0.000    0.000    0.000    0.000 
#
# Total GULP energy -357135.014119 kJ/mol
# GULP energy per Si atom -5580.234596 kJ/mol
# Density = 1.701596 g / cm^3
# Si number density = 17.054780 Si / 1000 Ang^3
#
#
#
# Elastic Constant Matrix: (Units=GPa)
#
#
# Indices 1 2 3 4 5 6 
#
# 1 159.2186 82.1804 121.4272 0.0000 0.0000 0.0000
# 2 82.1804 59.2311 69.8956 0.0000 0.0000 0.0000
# 3 121.4272 69.8956 109.2525 0.0000 0.0000 0.0000
# 4 0.0000 0.0000 0.0000 27.8325 0.0000 0.0000
# 5 0.0000 0.0000 0.0000 0.0000 43.5116 0.0000
# 6 0.0000 0.0000 0.0000 0.0000 0.0000 31.3612
#
#
#
# Elastic Compliance Matrix: (Units=1/GPa)
#
#
# Indices 1 2 3 4 5 6 
#
# 1 0.043730 -0.013546 -0.039938 0.000000 0.000000 0.000000
# 2 -0.013546 0.073092 -0.031707 0.000000 0.000000 0.000000
# 3 -0.039938 -0.031707 0.073826 0.000000 0.000000 0.000000
# 4 0.000000 0.000000 0.000000 0.035929 0.000000 0.000000
# 5 0.000000 0.000000 0.000000 0.000000 0.022982 0.000000
# 6 0.000000 0.000000 0.000000 0.000000 0.000000 0.031887
#
#
# Mechanical properties :
#
#
# Convention : Reuss Voigt Hill
#
# Bulk Modulus (GPa) = 49.33653 97.18985 73.26319
# Shear Modulus (GPa) = 10.90317 24.15434 17.52875
#
# Velocity S-wave (km/s) = 2.53119 3.76743 3.20940
# Velocity P-wave (km/s) = 6.12647 8.71982 7.53555
#
# Compressibility (1/GPa) = 0.02026896
#
# Stress axis : x y z
#
# Youngs Moduli (GPa) = 22.86743 13.68135 13.54540
#
# Poissons Ratio (x) = 0.18532 0.54097
# Poissons Ratio (y) = 0.30975 0.42948
# Poissons Ratio (z) = 0.91327 0.43379
#
# Static dielectric constant tensor:
#      x y z
#    x 1.550130 0.000000 0.000000 
#    y 0.000000 1.564340 0.000000 
#    z 0.000000 0.000000 1.555200 
# 
# From -- ./inp_files/28229.got.cif
#   From: 2010.05.17/outbox.cif.g08.bks.cpg/sg59_15_cif.got.tgz:28229.got - 2010.06.03 14:40:33.
