data_PCOD9450632
_publ_section_title
;
Structure prediction by ZEFSAII (Michael W. Deem and Ramdas Pophale) SiO2 
 PCOD9450632
Probable space group: P M M N
;
_chemical_formula_sum "Si O2"
_cell_formula_units_Z 48
_cell_length_a 8.974667
_cell_length_b 14.975945
_cell_length_c 17.677309
_cell_angle_alpha 90.000000
_cell_angle_beta 90.000000
_cell_angle_gamma 90.000000
_cell_volume 2375.903149
_symmetry_space_group_name_H-M "P M M N"
_symmetry_group_IT_number 59
_space_group.IT_coordinate_system_code '2'
_symmetry_cell_setting 'orthorhombic'
loop_
_space_group_symop_operation_xyz
x,y,z
1/2-x,1/2-y,z
1/2+x,-y,-z
-x,1/2+y,-z
-x,-y,-z
1/2+x,1/2+y,-z
1/2-x,y,z
x,1/2-y,z
loop_
_atom_site_type_symbol
_atom_site_label
_atom_site_fract_x
_atom_site_fract_y
_atom_site_fract_z
Si Si1 0.931059 0.250000 0.883661
Si Si2 0.569686 0.250000 0.705781
Si Si3 0.413252 0.645211 0.864640
Si Si4 0.428531 0.594640 0.409600
Si Si5 0.926502 0.597497 0.011204
Si Si6 0.575625 0.098665 0.419083
Si Si7 0.587200 0.853553 0.726963
O O1 0.750000 0.250000 0.890223
O O2 0.973607 0.250000 0.794310
O O3 0.995812 0.162251 0.926752
O O4 0.750000 0.250000 0.705429
O O5 0.526038 0.163100 0.656244
O O6 0.250000 0.608404 0.886541
O O7 0.391969 0.750000 0.852089
O O8 0.475275 0.603526 0.787371
O O9 0.535091 0.638497 0.929605
O O10 0.250000 0.575386 0.402082
O O11 0.448095 0.631332 0.495088
O O12 0.523530 0.504203 0.410759
O O13 0.750000 0.593239 0.024687
O O14 0.000000 0.500000 0.000000
O O15 0.750000 0.107891 0.402095
O O16 0.478291 0.146007 0.356303
O O17 0.750000 0.896559 0.729729
O O18 0.602886 0.750000 0.748560
#
# Coordination Sequence:
#
# PCOD9450632 Si02
#       7
#     4   4   8   8   8   8   8
#     4  11  23  43  67  94 129 164 215 277 334 393
#     4   9  20  39  65  90 115 160 211 259 312 373
#     4  10  20  37  61  87 119 153 193 246 305 364
#     4   9  19  37  59  82 113 155 204 251 306 367
#     4  12  25  42  66  94 127 168 213 259 320 387
#     4  10  20  34  56  84 119 157 199 252 306 359
#     4  10  21  35  54  83 118 154 194 236 291 356
#
# _framework density 20.202843999999999
#
# number of rings (size 3 to 8) (size 9 to 14) (size 15 to 20)
#    0.000    1.833    0.833    3.250    1.167    3.667 
#    0.000    7.083    0.000    0.000    0.000    0.000 
#    0.000    0.000    0.000    0.000    0.000    0.000 
#
# Total GULP energy -267542.047560 kJ/mol
# GULP energy per Si atom -5573.792657 kJ/mol
# Density = 2.015686 g / cm^3
# Si number density = 20.202844 Si / 1000 Ang^3
#
#
#
# Elastic Constant Matrix: (Units=GPa)
#
#
# Indices 1 2 3 4 5 6 
#
# 1 106.9858 33.0337 41.3916 0.0000 0.0000 0.0000
# 2 33.0337 71.0162 41.0011 0.0000 0.0000 0.0000
# 3 41.3916 41.0011 117.5617 0.0000 0.0000 0.0000
# 4 0.0000 0.0000 0.0000 -230.5961 0.0000 0.0000
# 5 0.0000 0.0000 0.0000 0.0000 18.0057 0.0000
# 6 0.0000 0.0000 0.0000 0.0000 0.0000 23.8854
#
#
#
# Elastic Compliance Matrix: (Units=1/GPa)
#
#
# Indices 1 2 3 4 5 6 
#
# 1 0.011586 -0.003799 -0.002754 0.000000 0.000000 0.000000
# 2 -0.003799 0.018877 -0.005246 0.000000 0.000000 0.000000
# 3 -0.002754 -0.005246 0.011306 0.000000 0.000000 0.000000
# 4 0.000000 0.000000 0.000000 -0.004337 0.000000 0.000000
# 5 0.000000 0.000000 0.000000 0.000000 0.055538 0.000000
# 6 0.000000 0.000000 0.000000 0.000000 0.000000 0.041867
#
#
# Mechanical properties :
#
#
# Convention : Reuss Voigt Hill
#
# Bulk Modulus (GPa) = 55.03631 58.49072 56.76351
# Shear Modulus (GPa) = 30.39668 -25.73185 2.33241
#
# Velocity S-wave (km/s) = 3.88309 -3.57273 1.07564
# Velocity P-wave (km/s) = 6.88517 3.46343 5.44981
#
# Compressibility (1/GPa) = 0.01816982
#
# Stress axis : x y z
#
# Youngs Moduli (GPa) = 86.31408 52.97379 88.45238
#
# Poissons Ratio (x) = 0.20125 0.24361
# Poissons Ratio (y) = 0.32791 0.46403
# Poissons Ratio (z) = 0.23772 0.27791
#
# Static dielectric constant tensor:
#      x y z
#    x 1.751000 0.000000 0.000000 
#    y 0.000000 1.645370 0.000000 
#    z 0.000000 0.000000 1.724260 
# 
# From -- ./inp_files/25622.got.cif
#   From: 2010.05.17/outbox.cif.g08.bks.cpg/sg59_13_cif.got.tgz:25622.got - 2010.06.03 14:40:33.
