data_PCOD9450497
_publ_section_title
;
Structure prediction by ZEFSAII (Michael W. Deem and Ramdas Pophale) SiO2 
 PCOD9450497
Probable space group: P M M N
;
_chemical_formula_sum "Si O2"
_cell_formula_units_Z 56
_cell_length_a 9.352809
_cell_length_b 14.977511
_cell_length_c 21.989544
_cell_angle_alpha 90.000000
_cell_angle_beta 90.000000
_cell_angle_gamma 90.000000
_cell_volume 3080.334898
_symmetry_space_group_name_H-M "P M M N"
_symmetry_group_IT_number 59
_space_group.IT_coordinate_system_code '2'
_symmetry_cell_setting 'orthorhombic'
loop_
_space_group_symop_operation_xyz
x,y,z
1/2-x,1/2-y,z
1/2+x,-y,-z
-x,1/2+y,-z
-x,-y,-z
1/2+x,1/2+y,-z
1/2-x,y,z
x,1/2-y,z
loop_
_atom_site_type_symbol
_atom_site_label
_atom_site_fract_x
_atom_site_fract_y
_atom_site_fract_z
Si Si1 0.585118 0.852782 0.181791
Si Si2 0.578589 0.001392 0.279132
Si Si3 0.079195 0.144341 0.506730
Si Si4 0.420566 0.993823 0.406880
Si Si5 0.913358 0.891320 0.941785
Si Si6 0.913364 0.392697 0.940009
Si Si7 0.914738 0.352328 0.179876
O O1 0.750000 0.875416 0.165390
O O2 0.579376 0.750000 0.200178
O O3 0.489296 0.866635 0.122532
O O4 0.544413 0.915332 0.237834
O O5 0.750000 0.002316 0.291052
O O6 0.542810 0.084109 0.235098
O O7 0.492425 0.002529 0.341276
O O8 0.250000 0.139463 0.519597
O O9 0.042301 0.250000 0.501598
O O10 0.992233 0.089984 0.557988
O O11 0.053798 0.084500 0.446188
O O12 0.250000 0.981306 0.402859
O O13 0.750000 0.860611 0.943884
O O14 0.989907 0.863917 0.879691
O O15 0.912747 0.999356 0.942422
O O16 0.999672 0.860765 0.001139
O O17 0.750000 0.361806 0.941892
O O18 0.750000 0.375323 0.163509
O O19 0.919373 0.250000 0.199500
#
# Coordination Sequence:
#
# PCOD9450497 Si02
#       7
#     8   8   8   8   8   8   8
#     4  10  21  37  57  79 104 141 187 230 276 331
#     4  10  21  38  57  79 114 153 188 226 271 328
#     4   9  19  38  62  87 118 155 191 227 272 327
#     4  10  21  36  58  89 120 150 189 233 277 321
#     4  10  20  34  55  80 106 139 180 227 284 342
#     4  10  20  34  55  80 106 138 178 227 286 341
#     4  10  21  37  57  80 107 143 187 232 278 328
#
# _framework density 18.179839999999999
#
# number of rings (size 3 to 8) (size 9 to 14) (size 15 to 20)
#    0.000    2.143    1.429    1.286    0.000    5.429 
#    0.000    1.429    0.000    0.000    0.000    0.000 
#    0.000    0.000    0.000    0.000    0.000    0.000 
#
# Total GULP energy -312624.844653 kJ/mol
# GULP energy per Si atom -5582.586512 kJ/mol
# Density = 1.813846 g / cm^3
# Si number density = 18.179840 Si / 1000 Ang^3
#
#
#
# Elastic Constant Matrix: (Units=GPa)
#
#
# Indices 1 2 3 4 5 6 
#
# 1 106.5231 58.8389 99.3216 0.0000 0.0000 0.0000
# 2 58.8389 120.7810 68.9275 0.0000 0.0000 0.0000
# 3 99.3216 68.9275 172.9630 0.0000 0.0000 0.0000
# 4 0.0000 0.0000 0.0000-1583.9587 0.0000 0.0000
# 5 0.0000 0.0000 0.0000 0.0000 38.9541 0.0000
# 6 0.0000 0.0000 0.0000 0.0000 0.0000 19.4536
#
#
#
# Elastic Compliance Matrix: (Units=1/GPa)
#
#
# Indices 1 2 3 4 5 6 
#
# 1 0.021971 -0.004534 -0.010810 0.000000 0.000000 0.000000
# 2 -0.004534 0.011652 -0.002040 0.000000 0.000000 0.000000
# 3 -0.010810 -0.002040 0.012802 0.000000 0.000000 0.000000
# 4 0.000000 0.000000 0.000000 -0.000631 0.000000 0.000000
# 5 0.000000 0.000000 0.000000 0.000000 0.025671 0.000000
# 6 0.000000 0.000000 0.000000 0.000000 0.000000 0.051404
#
#
# Mechanical properties :
#
#
# Convention : Reuss Voigt Hill
#
# Bulk Modulus (GPa) = 85.78057 94.93813 90.35935
# Shear Modulus (GPa) = 30.95534 -293.56494 -131.30480
#
# Velocity S-wave (km/s) = 4.13089 -12.72120 -8.50778
# Velocity P-wave (km/s) = 8.36894 12.78424 6.83365
#
# Compressibility (1/GPa) = 0.01165765
#
# Stress axis : x y z
#
# Youngs Moduli (GPa) = 45.51443 85.81850 78.11474
#
# Poissons Ratio (x) = 0.38914 0.84438
# Poissons Ratio (y) = 0.20638 0.15934
# Poissons Ratio (z) = 0.49199 0.17505
#
# Static dielectric constant tensor:
#      x y z
#    x 1.623040 0.000000 0.000000 
#    y 0.000000 1.644690 0.000000 
#    z 0.000000 0.000000 1.573960 
# 
# From -- ./inp_files/28982.got.cif
#   From: 2010.05.17/outbox.cif.g08.bks.cpg/sg59_15_cif.got.tgz:28982.got - 2010.06.03 14:40:33.
