data_PCOD9450358
_publ_section_title
;
Structure prediction by ZEFSAII (Michael W. Deem and Ramdas Pophale) SiO2 
 PCOD9450358
Probable space group: P M M N
;
_chemical_formula_sum "Si O2"
_cell_formula_units_Z 64
_cell_length_a 16.145951
_cell_length_b 8.574591
_cell_length_c 24.303358
_cell_angle_alpha 90.000000
_cell_angle_beta 90.000000
_cell_angle_gamma 90.000000
_cell_volume 3364.676603
_symmetry_space_group_name_H-M "P M M N"
_symmetry_group_IT_number 59
_space_group.IT_coordinate_system_code '2'
_symmetry_cell_setting 'orthorhombic'
loop_
_space_group_symop_operation_xyz
x,y,z
1/2-x,1/2-y,z
1/2+x,-y,-z
-x,1/2+y,-z
-x,-y,-z
1/2+x,1/2+y,-z
1/2-x,y,z
x,1/2-y,z
loop_
_atom_site_type_symbol
_atom_site_label
_atom_site_fract_x
_atom_site_fract_y
_atom_site_fract_z
Si Si1 0.092124 0.936641 0.442763
Si Si2 0.840895 0.061338 0.080830
Si Si3 0.157561 0.063960 0.679304
Si Si4 0.917331 0.062481 0.970934
Si Si5 0.006093 0.563383 0.138006
Si Si6 0.405991 0.564166 0.565959
Si Si7 0.159230 0.061900 0.332874
Si Si8 0.996232 0.936329 0.740104
O O1 0.081163 0.750000 0.441118
O O2 0.122841 0.977253 0.504180
O O3 0.149562 0.992532 0.393630
O O4 0.002738 0.016177 0.433065
O O5 0.750000 0.016614 0.101494
O O6 0.848978 0.250000 0.085008
O O7 0.848342 0.019425 0.015750
O O8 0.916628 0.984867 0.113275
O O9 0.250000 0.008838 0.695125
O O10 0.155388 0.250000 0.684215
O O11 0.140164 0.017638 0.616024
O O12 0.082769 0.996452 0.715412
O O13 0.919354 0.250000 0.969392
O O14 0.925586 0.010776 0.907626
O O15 0.000000 0.000000 0.000000
O O16 0.009433 0.750000 0.142967
O O17 0.015842 0.489031 0.197416
O O18 0.399129 0.750000 0.573317
O O19 0.250000 0.020815 0.310061
O O20 0.154587 0.250000 0.336456
O O21 0.081406 0.007237 0.296651
O O22 0.997584 0.750000 0.737428
#
# Coordination Sequence:
#
# PCOD9450358 Si02
#       8
#     8   8   8   8   8   8   8   8
#     4  10  20  34  57  86 115 146 184 231 283 341
#     4   9  17  31  53  81 112 144 180 223 269 323
#     4  11  24  40  59  84 114 149 189 236 289 343
#     4   8  15  29  49  74 102 134 170 208 255 308
#     4  10  20  34  54  78 108 145 184 227 274 326
#     4  10  20  35  56  84 116 150 185 226 281 343
#     4  10  22  40  61  84 110 143 186 237 294 349
#     4  11  23  40  61  82 109 150 195 239 285 336
#
# _framework density 19.021145000000001
#
# number of rings (size 3 to 8) (size 9 to 14) (size 15 to 20)
#    0.000    2.125    1.250    1.875    0.000    5.000 
#    0.000    3.125    0.000    0.750    0.000    0.000 
#    0.000    0.000    0.000    0.000    0.000    0.000 
#
# Total GULP energy -356956.807312 kJ/mol
# GULP energy per Si atom -5577.450114 kJ/mol
# Density = 1.897785 g / cm^3
# Si number density = 19.021145 Si / 1000 Ang^3
#
#
#
# Elastic Constant Matrix: (Units=GPa)
#
#
# Indices 1 2 3 4 5 6 
#
# 1 65.2476 14.0498 32.5348 0.0000 0.0000 0.0000
# 2 14.0498 23.3159 17.3393 0.0000 0.0000 0.0000
# 3 32.5348 17.3393 113.1496 0.0000 0.0000 0.0000
# 4 0.0000 0.0000 0.0000 27.4809 0.0000 0.0000
# 5 0.0000 0.0000 0.0000 0.0000 5.6724 0.0000
# 6 0.0000 0.0000 0.0000 0.0000 0.0000 18.2751
#
#
#
# Elastic Compliance Matrix: (Units=1/GPa)
#
#
# Indices 1 2 3 4 5 6 
#
# 1 0.019262 -0.008451 -0.004243 0.000000 0.000000 0.000000
# 2 -0.008451 0.052113 -0.005556 0.000000 0.000000 0.000000
# 3 -0.004243 -0.005556 0.010909 0.000000 0.000000 0.000000
# 4 0.000000 0.000000 0.000000 0.036389 0.000000 0.000000
# 5 0.000000 0.000000 0.000000 0.000000 0.176293 0.000000
# 6 0.000000 0.000000 0.000000 0.000000 0.000000 0.054719
#
#
# Mechanical properties :
#
#
# Convention : Reuss Voigt Hill
#
# Bulk Modulus (GPa) = 21.84189 36.61787 29.22988
# Shear Modulus (GPa) = 12.45489 19.47163 15.96326
#
# Velocity S-wave (km/s) = 2.56167 3.20298 2.90010
# Velocity P-wave (km/s) = 4.50082 5.74210 5.15893
#
# Compressibility (1/GPa) = 0.04578359
#
# Stress axis : x y z
#
# Youngs Moduli (GPa) = 51.91571 19.18891 91.66394
#
# Poissons Ratio (x) = 0.16217 0.38897
# Poissons Ratio (y) = 0.43875 0.50928
# Poissons Ratio (z) = 0.22030 0.10661
#
# Static dielectric constant tensor:
#      x y z
#    x 1.677750 0.000000 0.000000 
#    y 0.000000 1.644290 0.000000 
#    z 0.000000 0.000000 1.669670 
# 
# From -- ./inp_files/32215.got.cif
#   From: 2010.05.17/outbox.cif.g08.bks.cpg/sg59_17_cif.got.tgz:32215.got - 2010.06.03 14:40:33.
