data_PCOD9450638
_publ_section_title
;
Structure prediction by ZEFSAII (Michael W. Deem and Ramdas Pophale) SiO2 
 PCOD9450638
Probable space group: P M M N
;
_chemical_formula_sum "Si O2"
_cell_formula_units_Z 56
_cell_length_a 23.475621
_cell_length_b 8.355729
_cell_length_c 15.168498
_cell_angle_alpha 90.000000
_cell_angle_beta 90.000000
_cell_angle_gamma 90.000000
_cell_volume 2975.390789
_symmetry_space_group_name_H-M "P M M N"
_symmetry_group_IT_number 59
_space_group.IT_coordinate_system_code '2'
_symmetry_cell_setting 'orthorhombic'
loop_
_space_group_symop_operation_xyz
x,y,z
1/2-x,1/2-y,z
1/2+x,-y,-z
-x,1/2+y,-z
-x,-y,-z
1/2+x,1/2+y,-z
1/2-x,y,z
x,1/2-y,z
loop_
_atom_site_type_symbol
_atom_site_label
_atom_site_fract_x
_atom_site_fract_y
_atom_site_fract_z
Si Si1 0.091922 0.559946 0.711239
Si Si2 0.512994 0.442442 0.598819
Si Si3 0.356372 0.555300 0.379389
Si Si4 0.453482 0.059632 0.887229
Si Si5 0.814471 0.445594 0.428380
Si Si6 0.813408 0.056623 0.809834
Si Si7 0.576758 0.941056 0.916401
O O1 0.097906 0.750000 0.719834
O O2 0.087896 0.486109 0.807860
O O3 0.141585 0.499670 0.646236
O O4 0.033060 0.519176 0.662643
O O5 0.500000 0.500000 0.500000
O O6 0.508666 0.250000 0.602802
O O7 0.577196 0.488235 0.624241
O O8 0.353173 0.750000 0.380454
O O9 0.331647 0.500559 0.473225
O O10 0.324724 0.501835 0.291002
O O11 0.459134 0.250000 0.891578
O O12 0.517038 0.991453 0.871609
O O13 0.430506 0.001395 0.982134
O O14 0.750000 0.492573 0.408913
O O15 0.817078 0.250000 0.429638
O O16 0.750000 0.003323 0.838431
O O17 0.813314 0.250000 0.809158
O O18 0.866738 0.004564 0.869194
O O19 0.579808 0.750000 0.916593
#
# Coordination Sequence:
#
# PCOD9450638 Si02
#       7
#     8   8   8   8   8   8   8
#     4  11  21  34  54  83 112 142 181 226 277 328
#     4  11  20  32  51  78 111 147 185 229 279 327
#     4   9  17  31  51  77 107 141 183 225 269 321
#     4  10  21  38  60  84 109 142 181 225 284 344
#     4   9  17  31  51  74 103 141 185 226 262 312
#     4  10  20  34  56  85 115 150 191 233 277 332
#     4  10  21  38  60  84 111 143 181 230 285 338
#
# _framework density 18.821058000000001
#
# number of rings (size 3 to 8) (size 9 to 14) (size 15 to 20)
#    0.000    2.000    1.429    3.000    0.000    4.857 
#    0.000    1.429    0.000    4.286    0.000    0.000 
#    0.000    0.000    0.000    0.000    0.000    0.000 
#
# Total GULP energy -312635.475371 kJ/mol
# GULP energy per Si atom -5582.776346 kJ/mol
# Density = 1.877822 g / cm^3
# Si number density = 18.821058 Si / 1000 Ang^3
#
#
#
# Elastic Constant Matrix: (Units=GPa)
#
#
# Indices 1 2 3 4 5 6 
#
# 1 149.5468 19.8352 76.1717 0.0000 0.0000 0.0000
# 2 19.8352 10.7934 9.0049 0.0000 0.0000 0.0000
# 3 76.1717 9.0049 117.1692 0.0000 0.0000 0.0000
# 4 0.0000 0.0000 0.0000 27.2242 0.0000 0.0000
# 5 0.0000 0.0000 0.0000 0.0000 23.3518 0.0000
# 6 0.0000 0.0000 0.0000 0.0000 0.0000 20.4117
#
#
#
# Elastic Compliance Matrix: (Units=1/GPa)
#
#
# Indices 1 2 3 4 5 6 
#
# 1 0.012395 -0.017156 -0.006740 0.000000 0.000000 0.000000
# 2 -0.017156 0.122743 0.001720 0.000000 0.000000 0.000000
# 3 -0.006740 0.001720 0.012784 0.000000 0.000000 0.000000
# 4 0.000000 0.000000 0.000000 0.036732 0.000000 0.000000
# 5 0.000000 0.000000 0.000000 0.000000 0.042823 0.000000
# 6 0.000000 0.000000 0.000000 0.000000 0.000000 0.048991
#
#
# Mechanical properties :
#
#
# Convention : Reuss Voigt Hill
#
# Bulk Modulus (GPa) = 9.65528 54.17033 31.91280
# Shear Modulus (GPa) = 14.07089 25.69738 19.88413
#
# Velocity S-wave (km/s) = 2.73722 3.69908 3.25389
# Velocity P-wave (km/s) = 3.88986 6.86210 5.57761
#
# Compressibility (1/GPa) = 0.10357032
#
# Stress axis : x y z
#
# Youngs Moduli (GPa) = 80.67628 8.14712 78.22338
#
# Poissons Ratio (x) = 0.13977 0.52720
# Poissons Ratio (y) = 1.38410 -0.13455
# Poissons Ratio (z) = 0.54373 -0.01401
#
# Static dielectric constant tensor:
#      x y z
#    x 1.633650 0.000000 0.000000 
#    y 0.000000 1.657440 0.000000 
#    z 0.000000 0.000000 1.662210 
# 
# From -- ./inp_files/21044.got.cif
#   From: 2010.05.17/outbox.cif.g08.bks.cpg/sg59_11_cif.got.tgz:21044.got - 2010.06.03 14:40:33.
