data_PCOD9450719
_publ_section_title
;
Structure prediction by ZEFSAII (Michael W. Deem and Ramdas Pophale) SiO2 
 PCOD9450719
Probable space group: P M M N
;
_chemical_formula_sum "Si O2"
_cell_formula_units_Z 64
_cell_length_a 22.062612
_cell_length_b 8.886922
_cell_length_c 17.179403
_cell_angle_alpha 90.000000
_cell_angle_beta 90.000000
_cell_angle_gamma 90.000000
_cell_volume 3368.343418
_symmetry_space_group_name_H-M "P M M N"
_symmetry_group_IT_number 59
_space_group.IT_coordinate_system_code '2'
_symmetry_cell_setting 'orthorhombic'
loop_
_space_group_symop_operation_xyz
x,y,z
1/2-x,1/2-y,z
1/2+x,-y,-z
-x,1/2+y,-z
-x,-y,-z
1/2+x,1/2+y,-z
1/2-x,y,z
x,1/2-y,z
loop_
_atom_site_type_symbol
_atom_site_label
_atom_site_fract_x
_atom_site_fract_y
_atom_site_fract_z
Si Si1 0.123986 0.429799 0.387408
Si Si2 0.986981 0.069468 0.366381
Si Si3 0.815926 0.574383 0.306613
Si Si4 0.679443 0.568282 0.935770
Si Si5 0.822698 0.076145 0.767815
Si Si6 0.561109 0.932428 0.036238
Si Si7 0.134228 0.928635 0.545911
Si Si8 0.563919 0.570566 0.215444
O O1 0.129026 0.250000 0.385349
O O2 0.149006 0.496711 0.307287
O O3 0.153261 0.494205 0.465758
O O4 0.053228 0.474167 0.394683
O O5 0.983408 0.250000 0.363941
O O6 0.931934 0.017084 0.421720
O O7 0.978111 0.007984 0.279220
O O8 0.750000 0.556094 0.270900
O O9 0.823138 0.750000 0.329888
O O10 0.822964 0.474023 0.382878
O O11 0.868555 0.539349 0.246413
O O12 0.750000 0.522525 0.954847
O O13 0.679623 0.750000 0.933031
O O14 0.664355 0.504642 0.849936
O O15 0.624560 0.522749 0.993870
O O16 0.750000 0.072815 0.758627
O O17 0.842560 0.250000 0.771451
O O18 0.558609 0.750000 0.032264
O O19 0.559685 0.978094 0.126737
O O20 0.500000 0.000000 0.000000
O O21 0.132135 0.750000 0.534916
O O22 0.553386 0.750000 0.218946
#
# Coordination Sequence:
#
# PCOD9450719 Si02
#       8
#     8   8   8   8   8   8   8   8
#     4  11  22  35  55  80 106 140 182 225 270 323
#     4   9  20  36  54  77 107 142 179 220 270 323
#     4   9  18  34  56  79 106 142 181 223 271 321
#     4   9  19  38  61  82 110 150 192 234 282 337
#     4  10  22  39  57  79 107 139 180 228 276 328
#     4  10  22  37  56  86 119 150 187 233 286 338
#     4  10  20  35  53  77 109 142 179 223 271 322
#     4   9  19  35  54  80 110 141 180 223 268 323
#
# _framework density 19.000437999999999
#
# number of rings (size 3 to 8) (size 9 to 14) (size 15 to 20)
#    0.000    2.375    0.000    1.500    1.750    4.500 
#    0.000    2.500    0.000    0.000    0.000    3.500 
#    0.000    0.000    0.000    0.000    0.000    0.000 
#
# Total GULP energy -356975.462856 kJ/mol
# GULP energy per Si atom -5577.741607 kJ/mol
# Density = 1.895719 g / cm^3
# Si number density = 19.000438 Si / 1000 Ang^3
#
#
#
# Elastic Constant Matrix: (Units=GPa)
#
#
# Indices 1 2 3 4 5 6 
#
# 1 48.2803 14.5181 28.9184 0.0000 0.0000 0.0000
# 2 14.5181 15.8543 17.7194 0.0000 0.0000 0.0000
# 3 28.9184 17.7194 116.2000 0.0000 0.0000 0.0000
# 4 0.0000 0.0000 0.0000 28.9069 0.0000 0.0000
# 5 0.0000 0.0000 0.0000 0.0000 2.5824 0.0000
# 6 0.0000 0.0000 0.0000 0.0000 0.0000 25.6238
#
#
#
# Elastic Compliance Matrix: (Units=1/GPa)
#
#
# Indices 1 2 3 4 5 6 
#
# 1 0.030017 -0.023070 -0.003952 0.000000 0.000000 0.000000
# 2 -0.023070 0.093763 -0.008557 0.000000 0.000000 0.000000
# 3 -0.003952 -0.008557 0.010894 0.000000 0.000000 0.000000
# 4 0.000000 0.000000 0.000000 0.034594 0.000000 0.000000
# 5 0.000000 0.000000 0.000000 0.000000 0.387244 0.000000
# 6 0.000000 0.000000 0.000000 0.000000 0.000000 0.039026
#
#
# Mechanical properties :
#
#
# Convention : Reuss Voigt Hill
#
# Bulk Modulus (GPa) = 15.74392 33.62738 24.68565
# Shear Modulus (GPa) = 7.26885 19.36786 13.31836
#
# Velocity S-wave (km/s) = 1.95804 3.19617 2.65042
# Velocity P-wave (km/s) = 3.66278 5.59976 4.73145
#
# Compressibility (1/GPa) = 0.06351656
#
# Stress axis : x y z
#
# Youngs Moduli (GPa) = 33.31467 10.66524 91.79144
#
# Poissons Ratio (x) = 0.24604 0.36279
# Poissons Ratio (y) = 0.76856 0.78542
# Poissons Ratio (z) = 0.13167 0.09126
#
# Static dielectric constant tensor:
#      x y z
#    x 1.688890 0.000000 0.000000 
#    y 0.000000 1.650200 0.000000 
#    z 0.000000 0.000000 1.626140 
# 
# From -- ./inp_files/24738.got.cif
#   From: 2010.05.17/outbox.cif.g08.bks.cpg/sg59_13_cif.got.tgz:24738.got - 2010.06.03 14:40:33.
