data_PCOD9450578
_publ_section_title
;
Structure prediction by ZEFSAII (Michael W. Deem and Ramdas Pophale) SiO2 
 PCOD9450578
Probable space group: P M M N
;
_chemical_formula_sum "Si O2"
_cell_formula_units_Z 56
_cell_length_a 14.054489
_cell_length_b 20.299052
_cell_length_c 10.387182
_cell_angle_alpha 90.000000
_cell_angle_beta 90.000000
_cell_angle_gamma 90.000000
_cell_volume 2963.388269
_symmetry_space_group_name_H-M "P M M N"
_symmetry_group_IT_number 59
_space_group.IT_coordinate_system_code '2'
_symmetry_cell_setting 'orthorhombic'
loop_
_space_group_symop_operation_xyz
x,y,z
1/2-x,1/2-y,z
1/2+x,-y,-z
-x,1/2+y,-z
-x,-y,-z
1/2+x,1/2+y,-z
1/2-x,y,z
x,1/2-y,z
loop_
_atom_site_type_symbol
_atom_site_label
_atom_site_fract_x
_atom_site_fract_y
_atom_site_fract_z
Si Si1 0.139242 0.478793 0.201477
Si Si2 0.488499 0.825998 0.576983
Si Si3 0.473102 0.895877 0.128402
Si Si4 0.361812 0.059443 0.481855
Si Si5 0.474664 0.615665 0.845282
Si Si6 0.862747 0.516512 0.228118
Si Si7 0.856230 0.328757 0.651013
O O1 0.250000 0.473247 0.176778
O O2 0.093144 0.539105 0.126672
O O3 0.122937 0.486277 0.355958
O O4 0.080981 0.414288 0.163478
O O5 0.514473 0.750000 0.550325
O O6 0.571227 0.877193 0.538022
O O7 0.464728 0.834968 0.727113
O O8 0.397477 0.843733 0.489783
O O9 0.577301 0.925280 0.159546
O O10 0.431196 0.853871 0.244681
O O11 0.463089 0.861059 0.991056
O O12 0.250000 0.078221 0.480095
O O13 0.380619 0.025019 0.618259
O O14 0.406207 0.553080 0.816694
O O15 0.750000 0.520321 0.204501
O O16 0.750000 0.356662 0.671531
O O17 0.850449 0.250000 0.661376
#
# Coordination Sequence:
#
# PCOD9450578 Si02
#       7
#     8   8   8   8   8   8   8
#     4   9  18  32  53  81 113 144 178 221 270 327
#     4  10  21  39  59  79 107 143 185 231 270 318
#     4  11  21  35  55  82 112 148 186 223 270 331
#     4   9  18  33  56  87 112 139 178 224 277 324
#     4  10  23  34  53  84 113 147 183 221 275 330
#     4  10  20  34  55  84 118 147 177 225 278 329
#     4  10  22  39  58  78 103 141 187 232 277 323
#
# _framework density 18.897289000000001
#
# number of rings (size 3 to 8) (size 9 to 14) (size 15 to 20)
#    0.000    2.143    1.429    2.143    2.000    6.000 
#    0.000    0.000    0.000    2.143    0.000    2.000 
#    0.000    0.000    0.000    0.000    0.000    0.000 
#
# Total GULP energy -312530.749935 kJ/mol
# GULP energy per Si atom -5580.906249 kJ/mol
# Density = 1.885428 g / cm^3
# Si number density = 18.897289 Si / 1000 Ang^3
#
#
#
# Elastic Constant Matrix: (Units=GPa)
#
#
# Indices 1 2 3 4 5 6 
#
# 1 113.0411 12.7299 17.9912 0.0000 0.0000 0.0000
# 2 12.7299 21.1811 -0.5161 0.0000 0.0000 0.0000
# 3 17.9912 -0.5161 98.2553 0.0000 0.0000 0.0000
# 4 0.0000 0.0000 0.0000 5.2753 0.0000 0.0000
# 5 0.0000 0.0000 0.0000 0.0000 14.4649 0.0000
# 6 0.0000 0.0000 0.0000 0.0000 0.0000 15.1927
#
#
#
# Elastic Compliance Matrix: (Units=1/GPa)
#
#
# Indices 1 2 3 4 5 6 
#
# 1 0.009806 -0.005938 -0.001827 0.000000 0.000000 0.000000
# 2 -0.005938 0.050814 0.001354 0.000000 0.000000 0.000000
# 3 -0.001827 0.001354 0.010519 0.000000 0.000000 0.000000
# 4 0.000000 0.000000 0.000000 0.189562 0.000000 0.000000
# 5 0.000000 0.000000 0.000000 0.000000 0.069133 0.000000
# 6 0.000000 0.000000 0.000000 0.000000 0.000000 0.065821
#
#
# Mechanical properties :
#
#
# Convention : Reuss Voigt Hill
#
# Bulk Modulus (GPa) = 17.14740 32.54304 24.84522
# Shear Modulus (GPa) = 11.68458 20.47141 16.07800
#
# Velocity S-wave (km/s) = 2.48930 3.29492 2.92003
# Velocity P-wave (km/s) = 4.16604 5.63327 4.95427
#
# Compressibility (1/GPa) = 0.05831788
#
# Stress axis : x y z
#
# Youngs Moduli (GPa) = 101.98102 19.67977 95.06458
#
# Poissons Ratio (x) = 0.11685 0.17365
# Poissons Ratio (y) = 0.60554 -0.12873
# Poissons Ratio (z) = 0.18629 -0.02665
#
# Static dielectric constant tensor:
#      x y z
#    x 1.651850 0.000000 0.000000 
#    y 0.000000 1.636010 0.000000 
#    z 0.000000 0.000000 1.698170 
# 
# From -- ./inp_files/9376.got.cif
#   From: 2010.05.17/outbox.cif.g08.bks.cpg/sg59_5_cif.got.tgz:9376.got - 2010.06.03 14:40:33.
