data_PCOD9450813
_publ_section_title
;
Structure prediction by ZEFSAII (Michael W. Deem and Ramdas Pophale) SiO2 
 PCOD9450813
Probable space group: P M M N
;
_chemical_formula_sum "Si O2"
_cell_formula_units_Z 64
_cell_length_a 31.343563
_cell_length_b 8.766916
_cell_length_c 12.356122
_cell_angle_alpha 90.000000
_cell_angle_beta 90.000000
_cell_angle_gamma 90.000000
_cell_volume 3395.294084
_symmetry_space_group_name_H-M "P M M N"
_symmetry_group_IT_number 59
_space_group.IT_coordinate_system_code '2'
_symmetry_cell_setting 'orthorhombic'
loop_
_space_group_symop_operation_xyz
x,y,z
1/2-x,1/2-y,z
1/2+x,-y,-z
-x,1/2+y,-z
-x,-y,-z
1/2+x,1/2+y,-z
1/2-x,y,z
x,1/2-y,z
loop_
_atom_site_type_symbol
_atom_site_label
_atom_site_fract_x
_atom_site_fract_y
_atom_site_fract_z
Si Si1 0.437253 0.433747 0.263045
Si Si2 0.514787 0.067007 0.114054
Si Si3 0.887450 0.067854 0.141740
Si Si4 0.134744 0.070191 0.085835
Si Si5 0.699127 0.424405 0.762265
Si Si6 0.624178 0.932473 0.368437
Si Si7 0.700555 0.566627 0.529810
Si Si8 0.452011 0.931874 0.493072
O O1 0.435322 0.250000 0.280668
O O2 0.482578 0.475283 0.209688
O O3 0.402311 0.473112 0.171956
O O4 0.432926 0.516810 0.377032
O O5 0.513318 0.250000 0.105065
O O6 0.562821 0.020573 0.138360
O O7 0.500000 0.000000 0.000000
O O8 0.884925 0.250000 0.153069
O O9 0.868102 0.988492 0.246714
O O10 0.868792 0.017175 0.026856
O O11 0.130555 0.250000 0.065454
O O12 0.177772 0.028584 0.147711
O O13 0.750000 0.426425 0.772750
O O14 0.684003 0.250000 0.773359
O O15 0.689194 0.488206 0.643253
O O16 0.619557 0.750000 0.371788
O O17 0.665058 0.975128 0.441817
O O18 0.580943 0.005950 0.416967
O O19 0.750000 0.526937 0.502235
O O20 0.699068 0.750000 0.544234
O O21 0.454788 0.750000 0.501908
O O22 0.500000 0.000000 0.500000
#
# Coordination Sequence:
#
# PCOD9450813 Si02
#       8
#     8   8   8   8   8   8   8   8
#     4  10  21  37  57  84 116 149 189 238 287 339
#     4  10  20  35  55  79 110 148 190 237 283 334
#     4  11  23  38  58  84 117 158 200 243 289 345
#     4  11  22  37  59  85 115 152 192 236 284 341
#     4  10  21  37  59  88 120 150 184 234 293 350
#     4  11  23  40  62  87 118 158 201 248 301 356
#     4   9  19  38  64  92 120 152 193 240 292 355
#     4  12  25  40  59  84 117 157 199 245 297 355
#
# _framework density 18.849619000000001
#
# number of rings (size 3 to 8) (size 9 to 14) (size 15 to 20)
#    0.000    1.500    1.250    4.125    0.000    7.750 
#    0.000    0.625    0.000    2.250    0.000    0.000 
#    0.000    0.000    0.000    0.000    0.000    0.000 
#
# Total GULP energy -357699.251647 kJ/mol
# GULP energy per Si atom -5589.050807 kJ/mol
# Density = 1.880672 g / cm^3
# Si number density = 18.849619 Si / 1000 Ang^3
#
#
#
# Elastic Constant Matrix: (Units=GPa)
#
#
# Indices 1 2 3 4 5 6 
#
# 1 58.6703 26.5666 40.6292 0.0000 0.0000 0.0000
# 2 26.5666 47.4254 34.1651 0.0000 0.0000 0.0000
# 3 40.6292 34.1651 114.9383 0.0000 0.0000 0.0000
# 4 0.0000 0.0000 0.0000 36.1959 0.0000 0.0000
# 5 0.0000 0.0000 0.0000 0.0000 31.9930 0.0000
# 6 0.0000 0.0000 0.0000 0.0000 0.0000 22.7010
#
#
#
# Elastic Compliance Matrix: (Units=1/GPa)
#
#
# Indices 1 2 3 4 5 6 
#
# 1 0.025856 -0.010052 -0.006152 0.000000 0.000000 0.000000
# 2 -0.010052 0.030739 -0.005584 0.000000 0.000000 0.000000
# 3 -0.006152 -0.005584 0.012535 0.000000 0.000000 0.000000
# 4 0.000000 0.000000 0.000000 0.027627 0.000000 0.000000
# 5 0.000000 0.000000 0.000000 0.000000 0.031257 0.000000
# 6 0.000000 0.000000 0.000000 0.000000 0.000000 0.044051
#
#
# Mechanical properties :
#
#
# Convention : Reuss Voigt Hill
#
# Bulk Modulus (GPa) = 39.13221 47.08397 43.10809
# Shear Modulus (GPa) = 22.30548 26.15617 24.23083
#
# Velocity S-wave (km/s) = 3.44370 3.72912 3.58925
# Velocity P-wave (km/s) = 6.05123 6.60112 6.33215
#
# Compressibility (1/GPa) = 0.02555440
#
# Stress axis : x y z
#
# Youngs Moduli (GPa) = 38.67514 32.53147 79.77860
#
# Poissons Ratio (x) = 0.32702 0.49079
# Poissons Ratio (y) = 0.38878 0.44547
# Poissons Ratio (z) = 0.23792 0.18165
#
# Static dielectric constant tensor:
#      x y z
#    x 1.663740 0.000000 0.000000 
#    y 0.000000 1.636380 0.000000 
#    z 0.000000 0.000000 1.642460 
# 
# From -- ./inp_files/19348.got.cif
#   From: 2010.05.17/outbox.cif.g08.bks.cpg/sg59_10_cif.got.tgz:19348.got - 2010.06.03 14:40:33.
