data_PCOD9450523
_publ_section_title
;
Structure prediction by ZEFSAII (Michael W. Deem and Ramdas Pophale) SiO2 
 PCOD9450523
Probable space group: P M M N
;
_chemical_formula_sum "Si O2"
_cell_formula_units_Z 48
_cell_length_a 9.367669
_cell_length_b 7.852728
_cell_length_c 32.038970
_cell_angle_alpha 90.000000
_cell_angle_beta 90.000000
_cell_angle_gamma 90.000000
_cell_volume 2356.842914
_symmetry_space_group_name_H-M "P M M N"
_symmetry_group_IT_number 59
_space_group.IT_coordinate_system_code '2'
_symmetry_cell_setting 'orthorhombic'
loop_
_space_group_symop_operation_xyz
x,y,z
1/2-x,1/2-y,z
1/2+x,-y,-z
-x,1/2+y,-z
-x,-y,-z
1/2+x,1/2+y,-z
1/2-x,y,z
x,1/2-y,z
loop_
_atom_site_type_symbol
_atom_site_label
_atom_site_fract_x
_atom_site_fract_y
_atom_site_fract_z
Si Si1 0.087801 0.045383 0.959276
Si Si2 0.412323 0.544700 0.213356
Si Si3 0.413322 0.455456 0.541508
Si Si4 0.912514 0.454244 0.621887
Si Si5 0.916506 0.542135 0.132777
Si Si6 0.912494 0.453242 0.295793
O O1 0.250000 0.982528 0.963739
O O2 0.092217 0.250000 0.957212
O O3 0.034503 0.987299 0.913573
O O4 0.000000 0.000000 0.000000
O O5 0.250000 0.481559 0.217823
O O6 0.406014 0.750000 0.210600
O O7 0.487610 0.481291 0.171028
O O8 0.507483 0.502781 0.253390
O O9 0.500000 0.500000 0.500000
O O10 0.250000 0.518472 0.540065
O O11 0.407292 0.250000 0.544249
O O12 0.498030 0.519552 0.582231
O O13 0.750000 0.520589 0.622959
O O14 0.903556 0.250000 0.617405
O O15 0.996537 0.488887 0.664430
O O16 0.750000 0.493510 0.137998
O O17 0.919477 0.750000 0.133538
O O18 0.750000 0.521063 0.296927
O O19 0.905298 0.250000 0.297255
#
# Coordination Sequence:
#
# PCOD9450523 Si02
#       6
#     8   8   8   8   8   8
#     4   9  18  32  50  74 103 134 171 213 256 306
#     4  10  20  34  55  82 106 131 169 215 262 313
#     4  10  21  37  58  84 113 146 183 222 266 314
#     4  10  21  38  60  84 109 140 180 223 265 312
#     4   8  15  30  51  73  99 133 172 213 255 302
#     4  11  24  39  55  78 108 142 178 215 259 312
#
# _framework density 20.366228
#
# number of rings (size 3 to 8) (size 9 to 14) (size 15 to 20)
#    0.000    2.333    0.000    3.500    0.000    8.000 
#    0.000    2.500    0.000    1.000    0.000    0.000 
#    0.000    0.000    0.000    0.000    0.000    0.000 
#
# Total GULP energy -268009.216462 kJ/mol
# GULP energy per Si atom -5583.525343 kJ/mol
# Density = 2.031987 g / cm^3
# Si number density = 20.366228 Si / 1000 Ang^3
#
#
#
# Elastic Constant Matrix: (Units=GPa)
#
#
# Indices 1 2 3 4 5 6 
#
# 1 195.4950 9.7008 135.4747 0.0000 0.0000 0.0000
# 2 9.7008 20.9491 1.6637 0.0000 0.0000 0.0000
# 3 135.4747 1.6637 228.7688 0.0000 0.0000 0.0000
# 4 0.0000 0.0000 0.0000 25.2987 0.0000 0.0000
# 5 0.0000 0.0000 0.0000 0.0000 47.1204 0.0000
# 6 0.0000 0.0000 0.0000 0.0000 0.0000 18.9047
#
#
#
# Elastic Compliance Matrix: (Units=1/GPa)
#
#
# Indices 1 2 3 4 5 6 
#
# 1 0.008957 -0.003729 -0.005277 0.000000 0.000000 0.000000
# 2 -0.003729 0.049314 0.001849 0.000000 0.000000 0.000000
# 3 -0.005277 0.001849 0.007483 0.000000 0.000000 0.000000
# 4 0.000000 0.000000 0.000000 0.039528 0.000000 0.000000
# 5 0.000000 0.000000 0.000000 0.000000 0.021222 0.000000
# 6 0.000000 0.000000 0.000000 0.000000 0.000000 0.052897
#
#
# Mechanical properties :
#
#
# Convention : Reuss Voigt Hill
#
# Bulk Modulus (GPa) = 19.43954 82.09903 50.76928
# Shear Modulus (GPa) = 23.71221 38.15635 30.93428
#
# Velocity S-wave (km/s) = 3.41587 4.33310 3.90154
# Velocity P-wave (km/s) = 5.01231 8.08908 6.72891
#
# Compressibility (1/GPa) = 0.05144156
#
# Stress axis : x y z
#
# Youngs Moduli (GPa) = 111.64012 20.27805 133.63685
#
# Poissons Ratio (x) = 0.07561 0.70525
# Poissons Ratio (y) = 0.41628 -0.24716
# Poissons Ratio (z) = 0.58916 -0.03750
#
# Static dielectric constant tensor:
#      x y z
#    x 1.712560 0.000000 0.000000 
#    y 0.000000 1.756850 0.000000 
#    z 0.000000 0.000000 1.693770 
# 
# From -- ./inp_files/32778.got.cif
#   From: 2010.05.17/outbox.cif.g08.bks.cpg/sg59_17_cif.got.tgz:32778.got - 2010.06.03 14:40:33.
