data_PCOD9450936
_publ_section_title
;
Structure prediction by ZEFSAII (Michael W. Deem and Ramdas Pophale) SiO2 
 PCOD9450936
Probable space group: P M M N
;
_chemical_formula_sum "Si O2"
_cell_formula_units_Z 40
_cell_length_a 8.725105
_cell_length_b 15.076355
_cell_length_c 14.555594
_cell_angle_alpha 90.000000
_cell_angle_beta 90.000000
_cell_angle_gamma 90.000000
_cell_volume 1914.683305
_symmetry_space_group_name_H-M "P M M N"
_symmetry_group_IT_number 59
_space_group.IT_coordinate_system_code '2'
_symmetry_cell_setting 'orthorhombic'
loop_
_space_group_symop_operation_xyz
x,y,z
1/2-x,1/2-y,z
1/2+x,-y,-z
-x,1/2+y,-z
-x,-y,-z
1/2+x,1/2+y,-z
1/2-x,y,z
x,1/2-y,z
loop_
_atom_site_type_symbol
_atom_site_label
_atom_site_fract_x
_atom_site_fract_y
_atom_site_fract_z
Si Si1 0.934085 0.144207 0.749641
Si Si2 0.074991 0.356654 0.291164
Si Si3 0.570030 0.989955 0.399119
Si Si4 0.066838 0.085020 0.944053
Si Si5 0.581248 0.149913 0.111082
O O1 0.750000 0.137175 0.757052
O O2 0.972333 0.250000 0.743533
O O3 0.010151 0.101631 0.841008
O O4 0.991329 0.086880 0.662559
O O5 0.250000 0.380795 0.313178
O O6 0.061944 0.250000 0.304101
O O7 0.961171 0.415471 0.350509
O O8 0.037777 0.385008 0.186009
O O9 0.750000 0.971576 0.403810
O O10 0.500000 0.000000 0.500000
O O11 0.250000 0.088249 0.948233
O O12 0.988043 0.155622 0.010556
O O13 0.000000 0.000000 0.000000
O O14 0.750000 0.105907 0.113293
O O15 0.602795 0.250000 0.142736
#
# Coordination Sequence:
#
# PCOD9450936 Si02
#       5
#     8   8   8   8   8
#     4  11  25  46  70  97 133 176 223 277 337 401
#     4  10  21  39  64  94 128 165 208 261 321 386
#     4  12  26  45  69  95 126 164 211 268 329 396
#     4  12  24  38  59  88 126 170 216 263 313 375
#     4  10  20  35  56  84 119 157 197 242 295 357
#
# _framework density 20.891185
#
# number of rings (size 3 to 8) (size 9 to 14) (size 15 to 20)
#    0.000    1.000    0.000    7.200    0.000    7.200 
#    0.000    0.000    0.000    0.000    0.000    0.000 
#    0.000    0.000    0.000    0.000    0.000    0.000 
#
# Total GULP energy -223206.745326 kJ/mol
# GULP energy per Si atom -5580.168633 kJ/mol
# Density = 2.084364 g / cm^3
# Si number density = 20.891185 Si / 1000 Ang^3
#
#
#
# Elastic Constant Matrix: (Units=GPa)
#
#
# Indices 1 2 3 4 5 6 
#
# 1 137.3090 28.8848 34.6375 0.0000 0.0000 0.0000
# 2 28.8848 96.2923 27.9948 0.0000 0.0000 0.0000
# 3 34.6375 27.9948 138.5643 0.0000 0.0000 0.0000
# 4 0.0000 0.0000 0.0000 20.8955 0.0000 0.0000
# 5 0.0000 0.0000 0.0000 0.0000 39.5448 0.0000
# 6 0.0000 0.0000 0.0000 0.0000 0.0000 30.0862
#
#
#
# Elastic Compliance Matrix: (Units=1/GPa)
#
#
# Indices 1 2 3 4 5 6 
#
# 1 0.008106 -0.001957 -0.001631 0.000000 0.000000 0.000000
# 2 -0.001957 0.011506 -0.001835 0.000000 0.000000 0.000000
# 3 -0.001631 -0.001835 0.007995 0.000000 0.000000 0.000000
# 4 0.000000 0.000000 0.000000 0.047857 0.000000 0.000000
# 5 0.000000 0.000000 0.000000 0.000000 0.025288 0.000000
# 6 0.000000 0.000000 0.000000 0.000000 0.000000 0.033238
#
#
# Mechanical properties :
#
#
# Convention : Reuss Voigt Hill
#
# Bulk Modulus (GPa) = 59.66565 61.68889 60.67727
# Shear Modulus (GPa) = 33.23945 36.81519 35.02732
#
# Velocity S-wave (km/s) = 3.99316 4.20245 4.09914
# Velocity P-wave (km/s) = 7.06276 7.28974 7.17715
#
# Compressibility (1/GPa) = 0.01676006
#
# Stress axis : x y z
#
# Youngs Moduli (GPa) = 123.36525 86.91287 125.07323
#
# Poissons Ratio (x) = 0.17013 0.20397
# Poissons Ratio (y) = 0.24148 0.22954
# Poissons Ratio (z) = 0.20119 0.15951
#
# Static dielectric constant tensor:
#      x y z
#    x 1.737230 0.000000 0.000000 
#    y 0.000000 1.043850 0.000000 
#    z 0.000000 0.000000 1.738710 
# 
# From -- ./inp_files/19887.got.cif
#   From: 2010.05.17/outbox.cif.g08.bks.cpg/sg59_10_cif.got.tgz:19887.got - 2010.06.03 14:40:33.
