data_PCOD9450824
_publ_section_title
;
Structure prediction by ZEFSAII (Michael W. Deem and Ramdas Pophale) SiO2 
 PCOD9450824
Probable space group: P M M N
;
_chemical_formula_sum "Si O2"
_cell_formula_units_Z 64
_cell_length_a 29.580831
_cell_length_b 8.304105
_cell_length_c 12.986584
_cell_angle_alpha 90.000000
_cell_angle_beta 90.000000
_cell_angle_gamma 90.000000
_cell_volume 3190.054708
_symmetry_space_group_name_H-M "P M M N"
_symmetry_group_IT_number 59
_space_group.IT_coordinate_system_code '2'
_symmetry_cell_setting 'orthorhombic'
loop_
_space_group_symop_operation_xyz
x,y,z
1/2-x,1/2-y,z
1/2+x,-y,-z
-x,1/2+y,-z
-x,-y,-z
1/2+x,1/2+y,-z
1/2-x,y,z
x,1/2-y,z
loop_
_atom_site_type_symbol
_atom_site_label
_atom_site_fract_x
_atom_site_fract_y
_atom_site_fract_z
Si Si1 0.366471 0.444665 0.113125
Si Si2 0.876660 0.942698 0.653911
Si Si3 0.978079 0.443096 0.606870
Si Si4 0.656845 0.056242 0.285491
Si Si5 0.439698 0.444353 0.746806
Si Si6 0.802292 0.055322 0.068287
Si Si7 0.550262 0.555978 0.021265
Si Si8 0.199704 0.555420 0.503605
O O1 0.366438 0.250000 0.114471
O O2 0.364047 0.501368 0.230803
O O3 0.413760 0.500779 0.062735
O O4 0.327845 0.498643 0.034082
O O5 0.876166 0.750000 0.654913
O O6 0.927447 0.995404 0.624820
O O7 0.839586 0.001114 0.572790
O O8 0.976673 0.250000 0.607589
O O9 0.000000 0.500000 0.500000
O O10 0.013561 0.497845 0.694844
O O11 0.658704 0.250000 0.282187
O O12 0.673320 0.996723 0.173404
O O13 0.687945 0.001933 0.380084
O O14 0.605458 0.005224 0.307824
O O15 0.439204 0.250000 0.744973
O O16 0.436583 0.500464 0.864662
O O17 0.750000 0.004588 0.068885
O O18 0.803426 0.250000 0.069804
O O19 0.551218 0.750000 0.021507
O O20 0.500000 0.500000 0.000000
O O21 0.250000 0.499739 0.473679
O O22 0.199919 0.750000 0.503976
#
# Coordination Sequence:
#
# PCOD9450824 Si02
#       8
#     8   8   8   8   8   8   8   8
#     4  10  22  40  59  82 117 157 196 241 294 354
#     4  11  24  41  61  87 121 159 202 251 298 356
#     4  11  23  39  60  88 121 160 203 249 300 356
#     4  10  20  36  60  89 119 152 193 245 301 359
#     4  10  21  36  56  83 117 153 193 241 291 350
#     4  10  21  37  59  88 119 152 195 247 299 355
#     4  10  20  35  55  80 111 147 189 235 283 339
#     4  10  22  41  64  88 116 154 199 249 308 368
#
# _framework density 20.062351
#
# number of rings (size 3 to 8) (size 9 to 14) (size 15 to 20)
#    0.000    1.750    1.250    2.625    0.000    8.000 
#    0.000    2.500    0.000    2.250    0.000    0.000 
#    0.000    0.000    0.000    0.000    0.000    0.000 
#
# Total GULP energy -357550.933807 kJ/mol
# GULP energy per Si atom -5586.733341 kJ/mol
# Density = 2.001669 g / cm^3
# Si number density = 20.062351 Si / 1000 Ang^3
#
#
#
# Elastic Constant Matrix: (Units=GPa)
#
#
# Indices 1 2 3 4 5 6 
#
# 1 174.5916 16.3709 74.2386 0.0000 0.0000 0.0000
# 2 16.3709 10.6834 19.4361 0.0000 0.0000 0.0000
# 3 74.2386 19.4361 142.0610 0.0000 0.0000 0.0000
# 4 0.0000 0.0000 0.0000 21.8690 0.0000 0.0000
# 5 0.0000 0.0000 0.0000 0.0000 35.9413 0.0000
# 6 0.0000 0.0000 0.0000 0.0000 0.0000 29.1868
#
#
#
# Elastic Compliance Matrix: (Units=1/GPa)
#
#
# Indices 1 2 3 4 5 6 
#
# 1 0.007635 -0.005912 -0.003181 0.000000 0.000000 0.000000
# 2 -0.005912 0.129200 -0.014587 0.000000 0.000000 0.000000
# 3 -0.003181 -0.014587 0.010697 0.000000 0.000000 0.000000
# 4 0.000000 0.000000 0.000000 0.045727 0.000000 0.000000
# 5 0.000000 0.000000 0.000000 0.000000 0.027823 0.000000
# 6 0.000000 0.000000 0.000000 0.000000 0.000000 0.034262
#
#
# Mechanical properties :
#
#
# Convention : Reuss Voigt Hill
#
# Bulk Modulus (GPa) = 9.98281 60.82524 35.40403
# Shear Modulus (GPa) = 14.87677 31.88546 23.38112
#
# Velocity S-wave (km/s) = 2.72605 3.99095 3.41753
# Velocity P-wave (km/s) = 3.85943 7.18476 5.76698
#
# Compressibility (1/GPa) = 0.10017215
#
# Stress axis : x y z
#
# Youngs Moduli (GPa) = 130.98382 7.73993 93.48259
#
# Poissons Ratio (x) = 0.04576 0.29735
# Poissons Ratio (y) = 0.77439 1.36363
# Poissons Ratio (z) = 0.41663 0.11290
#
# Static dielectric constant tensor:
#      x y z
#    x 1.691870 0.000000 0.000000 
#    y 0.000000 1.700100 0.000000 
#    z 0.000000 0.000000 1.722200 
# 
# From -- ./inp_files/19386.got.cif
#   From: 2010.05.17/outbox.cif.g08.bks.cpg/sg59_10_cif.got.tgz:19386.got - 2010.06.03 14:40:33.
