data_PCOD9450421
_publ_section_title
;
Structure prediction by ZEFSAII (Michael W. Deem and Ramdas Pophale) SiO2 
 PCOD9450421
Probable space group: P M M N
;
_chemical_formula_sum "Si O2"
_cell_formula_units_Z 40
_cell_length_a 10.411447
_cell_length_b 7.882189
_cell_length_c 24.549691
_cell_angle_alpha 90.000000
_cell_angle_beta 90.000000
_cell_angle_gamma 90.000000
_cell_volume 2014.670220
_symmetry_space_group_name_H-M "P M M N"
_symmetry_group_IT_number 59
_space_group.IT_coordinate_system_code '2'
_symmetry_cell_setting 'orthorhombic'
loop_
_space_group_symop_operation_xyz
x,y,z
1/2-x,1/2-y,z
1/2+x,-y,-z
-x,1/2+y,-z
-x,-y,-z
1/2+x,1/2+y,-z
1/2-x,y,z
x,1/2-y,z
loop_
_atom_site_type_symbol
_atom_site_label
_atom_site_fract_x
_atom_site_fract_y
_atom_site_fract_z
Si Si1 0.250000 0.457446 0.453369
Si Si2 0.023501 0.451359 0.374085
Si Si3 0.750000 0.953167 0.421900
Si Si4 0.394163 0.453839 0.955937
Si Si5 0.105795 0.951823 0.253607
Si Si6 0.896374 0.957567 0.167991
O O1 0.250000 0.250000 0.454735
O O2 0.375658 0.513210 0.419836
O O3 0.250000 0.516712 0.515622
O O4 0.039992 0.250000 0.370250
O O5 0.879062 0.490186 0.391865
O O6 0.058882 0.523680 0.315261
O O7 0.750000 0.750000 0.423173
O O8 0.250000 0.515323 0.969903
O O9 0.388887 0.250000 0.953892
O O10 0.424503 0.510942 0.894199
O O11 0.500000 0.500000 0.000000
O O12 0.250000 0.022385 0.247460
O O13 0.113278 0.750000 0.243945
O O14 0.001421 0.019890 0.210878
O O15 0.750000 0.008889 0.181462
O O16 0.897216 0.750000 0.168938
#
# Coordination Sequence:
#
# PCOD9450421 Si02
#       6
#     4   8   4   8   8   8
#     4   9  20  39  61  81 111 147 180 219 272 331
#     4  11  22  39  58  82 114 147 178 221 280 333
#     4  11  23  39  59  85 109 141 188 229 264 321
#     4   9  18  33  53  79 111 146 184 226 272 321
#     4  10  20  34  54  81 108 139 183 229 271 324
#     4   8  16  32  53  76 105 142 183 228 272 314
#
# _framework density 19.854364
#
# number of rings (size 3 to 8) (size 9 to 14) (size 15 to 20)
#    0.000    2.400    1.000    2.700    1.400    1.200 
#    0.000    6.000    0.000    1.200    0.000    0.000 
#    0.000    0.000    0.000    0.000    0.000    0.000 
#
# Total GULP energy -223296.090089 kJ/mol
# GULP energy per Si atom -5582.402252 kJ/mol
# Density = 1.980917 g / cm^3
# Si number density = 19.854364 Si / 1000 Ang^3
#
#
#
# Elastic Constant Matrix: (Units=GPa)
#
#
# Indices 1 2 3 4 5 6 
#
# 1 196.7185 -1.3398 123.2948 0.0000 0.0000 0.0000
# 2 -1.3398 17.8818 -0.6748 0.0000 0.0000 0.0000
# 3 123.2948 -0.6748 150.6907 0.0000 0.0000 0.0000
# 4 0.0000 0.0000 0.0000 21.0096 0.0000 0.0000
# 5 0.0000 0.0000 0.0000 0.0000 45.7690 0.0000
# 6 0.0000 0.0000 0.0000 0.0000 0.0000 5.4254
#
#
#
# Elastic Compliance Matrix: (Units=1/GPa)
#
#
# Indices 1 2 3 4 5 6 
#
# 1 0.010438 0.000460 -0.008538 0.000000 0.000000 0.000000
# 2 0.000460 0.055952 -0.000126 0.000000 0.000000 0.000000
# 3 -0.008538 -0.000126 0.013622 0.000000 0.000000 0.000000
# 4 0.000000 0.000000 0.000000 0.047597 0.000000 0.000000
# 5 0.000000 0.000000 0.000000 0.000000 0.021849 0.000000
# 6 0.000000 0.000000 0.000000 0.000000 0.000000 0.184319
#
#
# Mechanical properties :
#
#
# Convention : Reuss Voigt Hill
#
# Bulk Modulus (GPa) = 15.72236 67.53905 41.63070
# Shear Modulus (GPa) = 13.46308 30.70817 22.08563
#
# Velocity S-wave (km/s) = 2.60684 3.93704 3.33886
# Velocity P-wave (km/s) = 4.12273 7.39987 5.98978
#
# Compressibility (1/GPa) = 0.06360369
#
# Stress axis : x y z
#
# Youngs Moduli (GPa) = 95.80422 17.87233 73.41317
#
# Poissons Ratio (x) = -0.00822 0.62682
# Poissons Ratio (y) = -0.04406 0.00923
# Poissons Ratio (z) = 0.81800 0.00225
#
# Static dielectric constant tensor:
#      x y z
#    x 1.688360 0.000000 0.000000 
#    y 0.000000 1.722780 0.000000 
#    z 0.000000 0.000000 1.669010 
# 
# From -- ./inp_files/32422.got.cif
#   From: 2010.05.17/outbox.cif.g08.bks.cpg/sg59_17_cif.got.tgz:32422.got - 2010.06.03 14:40:33.
