data_PCOD9450398
_publ_section_title
;
Structure prediction by ZEFSAII (Michael W. Deem and Ramdas Pophale) SiO2 
 PCOD9450398
Probable space group: P M M N
;
_chemical_formula_sum "Si O2"
_cell_formula_units_Z 40
_cell_length_a 7.575024
_cell_length_b 31.629058
_cell_length_c 6.987315
_cell_angle_alpha 90.000000
_cell_angle_beta 90.000000
_cell_angle_gamma 90.000000
_cell_volume 1674.096904
_symmetry_space_group_name_H-M "P M M N"
_symmetry_group_IT_number 59
_space_group.IT_coordinate_system_code '2'
_symmetry_cell_setting 'orthorhombic'
loop_
_space_group_symop_operation_xyz
x,y,z
1/2-x,1/2-y,z
1/2+x,-y,-z
-x,1/2+y,-z
-x,-y,-z
1/2+x,1/2+y,-z
1/2-x,y,z
x,1/2-y,z
loop_
_atom_site_type_symbol
_atom_site_label
_atom_site_fract_x
_atom_site_fract_y
_atom_site_fract_z
Si Si1 0.463124 0.448258 0.832195
Si Si2 0.954160 0.124829 0.362964
Si Si3 0.541455 0.796433 0.377141
Si Si4 0.459245 0.535047 0.717752
Si Si5 0.535329 0.641614 0.075230
O O1 0.250000 0.449868 0.825048
O O2 0.530884 0.486965 0.701066
O O3 0.518066 0.399862 0.801288
O O4 0.517396 0.456760 0.053005
O O5 0.750000 0.121349 0.414089
O O6 0.036303 0.077352 0.380565
O O7 0.024883 0.165593 0.472103
O O8 0.969278 0.135680 0.138163
O O9 0.750000 0.791670 0.349938
O O10 0.469569 0.750000 0.427198
O O11 0.470869 0.816429 0.180238
O O12 0.250000 0.534339 0.681235
O O13 0.750000 0.641626 0.067270
#
# Coordination Sequence:
#
# PCOD9450398 Si02
#       5
#     8   8   8   8   8
#     4   8  13  24  45  71  99 132 169 206 243 291
#     4  10  20  34  54  80 109 138 168 207 258 313
#     4  10  22  39  56  74  99 133 174 219 263 308
#     4   8  14  25  43  70 103 135 164 198 245 299
#     4   9  18  34  56  79 103 136 178 218 256 301
#
# _framework density 23.89348
#
# number of rings (size 3 to 8) (size 9 to 14) (size 15 to 20)
#    0.000    3.000    0.000    0.600    0.000    2.800 
#    0.000    3.000    0.000    0.000    0.000    0.000 
#    0.000    0.000    0.000    0.000    0.000    0.000 
#
# Total GULP energy -223190.660086 kJ/mol
# GULP energy per Si atom -5579.766502 kJ/mol
# Density = 2.383910 g / cm^3
# Si number density = 23.893480 Si / 1000 Ang^3
#
#
#
# Elastic Constant Matrix: (Units=GPa)
#
#
# Indices 1 2 3 4 5 6 
#
# 1 76.9863 21.0959 3.1726 0.0000 0.0000 0.0000
# 2 21.0959 222.4817 43.4793 0.0000 0.0000 0.0000
# 3 3.1726 43.4793 60.5417 0.0000 0.0000 0.0000
# 4 0.0000 0.0000 0.0000 18.6739 0.0000 0.0000
# 5 0.0000 0.0000 0.0000 0.0000 36.5505 0.0000
# 6 0.0000 0.0000 0.0000 0.0000 0.0000 506.2707
#
#
#
# Elastic Compliance Matrix: (Units=1/GPa)
#
#
# Indices 1 2 3 4 5 6 
#
# 1 0.013339 -0.001312 0.000244 0.000000 0.000000 0.000000
# 2 -0.001312 0.005358 -0.003779 0.000000 0.000000 0.000000
# 3 0.000244 -0.003779 0.019219 0.000000 0.000000 0.000000
# 4 0.000000 0.000000 0.000000 0.053551 0.000000 0.000000
# 5 0.000000 0.000000 0.000000 0.000000 0.027359 0.000000
# 6 0.000000 0.000000 0.000000 0.000000 0.000000 0.001975
#
#
# Mechanical properties :
#
#
# Convention : Reuss Voigt Hill
#
# Bulk Modulus (GPa) = 35.43632 55.05613 45.24622
# Shear Modulus (GPa) = 35.73908 131.78315 83.76112
#
# Velocity S-wave (km/s) = 3.87171 7.43466 5.92724
# Velocity P-wave (km/s) = 5.90339 9.83825 8.11299
#
# Compressibility (1/GPa) = 0.02821964
#
# Stress axis : x y z
#
# Youngs Moduli (GPa) = 74.96862 186.64675 52.03256
#
# Poissons Ratio (x) = 0.24495 -0.01267
# Poissons Ratio (y) = 0.09839 0.19663
# Poissons Ratio (z) = -0.01826 0.70533
#
# Static dielectric constant tensor:
#      x y z
#    x 1.876810 0.000000 0.000000 
#    y 0.000000 2.006820 0.000000 
#    z 0.000000 0.000000 1.949270 
# 
# From -- ./inp_files/5848.got.cif
#   From: 2010.05.17/outbox.cif.g08.bks.cpg/sg59_3_cif.got.tgz:5848.got - 2010.06.03 14:40:33.
