data_PCOD9450163
_publ_section_title
;
Structure prediction by ZEFSAII (Michael W. Deem and Ramdas Pophale) SiO2 
 PCOD9450163
Probable space group: P M M N
;
_chemical_formula_sum "Si O2"
_cell_formula_units_Z 40
_cell_length_a 8.554914
_cell_length_b 14.882008
_cell_length_c 17.275130
_cell_angle_alpha 90.000000
_cell_angle_beta 90.000000
_cell_angle_gamma 90.000000
_cell_volume 2199.371059
_symmetry_space_group_name_H-M "P M M N"
_symmetry_group_IT_number 59
_space_group.IT_coordinate_system_code '2'
_symmetry_cell_setting 'orthorhombic'
loop_
_space_group_symop_operation_xyz
x,y,z
1/2-x,1/2-y,z
1/2+x,-y,-z
-x,1/2+y,-z
-x,-y,-z
1/2+x,1/2+y,-z
1/2-x,y,z
x,1/2-y,z
loop_
_atom_site_type_symbol
_atom_site_label
_atom_site_fract_x
_atom_site_fract_y
_atom_site_fract_z
Si Si1 0.435964 0.896159 0.412624
Si Si2 0.939216 0.096743 0.413325
Si Si3 0.061573 0.750000 0.882165
Si Si4 0.059876 0.250000 0.878042
Si Si5 0.940395 0.250000 0.296038
Si Si6 0.935972 0.750000 0.297739
Si Si7 0.561956 0.601744 0.998317
O O1 0.250000 0.887972 0.407311
O O2 0.481651 0.868745 0.500519
O O3 0.510656 0.835444 0.347029
O O4 0.487615 0.998967 0.403777
O O5 0.750000 0.088993 0.411751
O O6 0.989216 0.163515 0.345636
O O7 0.250000 0.750000 0.885080
O O8 0.009478 0.750000 0.792806
O O9 0.999800 0.838312 0.926757
O O10 0.250000 0.250000 0.876981
O O11 0.002143 0.250000 0.790151
O O12 0.013655 0.338732 0.926559
O O13 0.750000 0.250000 0.295706
O O14 0.750000 0.750000 0.293032
O O15 0.750000 0.599709 0.995668
O O16 0.500000 0.500000 0.000000
#
# Coordination Sequence:
#
# PCOD9450163 Si02
#       7
#     8   8   4   4   4   4   8
#     4  10  20  34  52  77 107 137 175 223 265 300
#     4   9  18  35  55  74 102 143 183 213 252 310
#     4  10  20  35  55  82 109 134 173 218 260 310
#     4   8  19  37  55  76 103 136 175 212 248 312
#     4   9  18  33  55  78 103 140 180 215 253 309
#     4  11  21  35  55  76 101 138 178 213 257 311
#     4  10  20  38  60  80 105 138 174 212 260 314
#
# _framework density 18.187017000000001
#
# number of rings (size 3 to 8) (size 9 to 14) (size 15 to 20)
#    0.000    2.400    0.000    3.000    0.000    4.000 
#    0.000   16.500    0.000    0.000    0.000    0.000 
#    0.000    0.000    0.000    0.000    0.000    0.000 
#
# Total GULP energy -223178.735327 kJ/mol
# GULP energy per Si atom -5579.468383 kJ/mol
# Density = 1.814562 g / cm^3
# Si number density = 18.187017 Si / 1000 Ang^3
#
#
#
# Elastic Constant Matrix: (Units=GPa)
#
#
# Indices 1 2 3 4 5 6 
#
# 1 39.2531 34.2328 41.4464 0.0000 0.0000 0.0000
# 2 34.2328 146.2585 105.8619 0.0000 0.0000 0.0000
# 3 41.4464 105.8619 203.4626 0.0000 0.0000 0.0000
# 4 0.0000 0.0000 0.0000 37.6231 0.0000 0.0000
# 5 0.0000 0.0000 0.0000 0.0000 25.0694 0.0000
# 6 0.0000 0.0000 0.0000 0.0000 0.0000 -147.6759
#
#
#
# Elastic Compliance Matrix: (Units=1/GPa)
#
#
# Indices 1 2 3 4 5 6 
#
# 1 0.034423 -0.004783 -0.004524 0.000000 0.000000 0.000000
# 2 -0.004783 0.011632 -0.005078 0.000000 0.000000 0.000000
# 3 -0.004524 -0.005078 0.008478 0.000000 0.000000 0.000000
# 4 0.000000 0.000000 0.000000 0.026579 0.000000 0.000000
# 5 0.000000 0.000000 0.000000 0.000000 0.039889 0.000000
# 6 0.000000 0.000000 0.000000 0.000000 0.000000 -0.006772
#
#
# Mechanical properties :
#
#
# Convention : Reuss Voigt Hill
#
# Bulk Modulus (GPa) = 38.81233 83.56183 61.18708
# Shear Modulus (GPa) = 32.98419 -3.16782 14.90819
#
# Velocity S-wave (km/s) = 4.26327 -1.32120 2.86617
# Velocity P-wave (km/s) = 6.75433 6.61197 6.68353
#
# Compressibility (1/GPa) = 0.02576501
#
# Stress axis : x y z
#
# Youngs Moduli (GPa) = 29.05017 85.96964 117.94598
#
# Poissons Ratio (x) = 0.41117 0.53356
# Poissons Ratio (y) = 0.13894 0.59892
# Poissons Ratio (z) = 0.13142 0.43654
#
# Static dielectric constant tensor:
#      x y z
#    x 1.625430 0.000000 0.000000 
#    y 0.000000 1.586640 0.000000 
#    z 0.000000 0.000000 1.626790 
# 
# From -- ./inp_files/20037.got.cif
#   From: 2010.05.17/outbox.cif.g08.bks.cpg/sg59_11_cif.got.tgz:20037.got - 2010.06.03 14:40:33.
