data_PCOD9450923
_publ_section_title
;
Structure prediction by ZEFSAII (Michael W. Deem and Ramdas Pophale) SiO2 
 PCOD9450923
Probable space group: P M M N
;
_chemical_formula_sum "Si O2"
_cell_formula_units_Z 48
_cell_length_a 15.131852
_cell_length_b 7.608944
_cell_length_c 18.485861
_cell_angle_alpha 90.000000
_cell_angle_beta 90.000000
_cell_angle_gamma 90.000000
_cell_volume 2128.414240
_symmetry_space_group_name_H-M "P M M N"
_symmetry_group_IT_number 59
_space_group.IT_coordinate_system_code '2'
_symmetry_cell_setting 'orthorhombic'
loop_
_space_group_symop_operation_xyz
x,y,z
1/2-x,1/2-y,z
1/2+x,-y,-z
-x,1/2+y,-z
-x,-y,-z
1/2+x,1/2+y,-z
1/2-x,y,z
x,1/2-y,z
loop_
_atom_site_type_symbol
_atom_site_label
_atom_site_fract_x
_atom_site_fract_y
_atom_site_fract_z
Si Si1 0.920206 0.547053 0.827935
Si Si2 0.250000 0.464250 0.903191
Si Si3 0.750000 0.049732 0.746251
Si Si4 0.444479 0.540039 0.713750
Si Si5 0.398363 0.040118 0.014413
Si Si6 0.250000 0.545491 0.734467
Si Si7 0.443624 0.958995 0.429580
Si Si8 0.250000 0.549207 0.426194
O O1 0.943555 0.750000 0.843465
O O2 0.837789 0.541220 0.774293
O O3 0.886392 0.470537 0.903929
O O4 0.002818 0.467720 0.784071
O O5 0.250000 0.250000 0.897398
O O6 0.250000 0.534090 0.821819
O O7 0.165621 0.523893 0.950869
O O8 0.750000 0.250000 0.773303
O O9 0.750000 0.056801 0.660538
O O10 0.437162 0.750000 0.724632
O O11 0.344316 0.469865 0.708210
O O12 0.504380 0.515953 0.642570
O O13 0.382335 0.250000 0.015460
O O14 0.500000 0.000000 0.000000
O O15 0.250000 0.750000 0.711785
O O16 0.432468 0.750000 0.421182
O O17 0.345017 0.033617 0.442685
O O18 0.500000 0.000000 0.500000
O O19 0.250000 0.750000 0.456406
#
# Coordination Sequence:
#
# PCOD9450923 Si02
#       8
#     8   4   4   8   8   4   8   4
#     4  10  20  35  56  83 116 153 193 243 298 351
#     4  10  21  37  56  82 118 157 199 246 301 354
#     4  11  20  34  57  86 113 145 188 233 288 342
#     4  10  21  38  60  87 115 152 199 244 293 352
#     4  10  21  37  56  80 114 154 197 246 301 354
#     4  10  22  40  62  84 115 158 202 245 294 353
#     4  11  23  42  65  91 124 159 194 237 288 346
#     4   9  20  39  61  86 120 154 183 228 283 331
#
# _framework density 22.552
#
# number of rings (size 3 to 8) (size 9 to 14) (size 15 to 20)
#    0.000    1.833    1.667    2.250    0.000    5.333 
#    0.000    5.833    0.000    0.000    0.000    0.000 
#    0.000    0.000    0.000    0.000    0.000    0.000 
#
# Total GULP energy -267935.251148 kJ/mol
# GULP energy per Si atom -5581.984399 kJ/mol
# Density = 2.250067 g / cm^3
# Si number density = 22.552000 Si / 1000 Ang^3
#
#
#
# Elastic Constant Matrix: (Units=GPa)
#
#
# Indices 1 2 3 4 5 6 
#
# 1 181.9745 -7.2219 34.4752 0.0000 0.0000 0.0000
# 2 -7.2219 50.9319 -11.2418 0.0000 0.0000 0.0000
# 3 34.4752 -11.2418 65.1120 0.0000 0.0000 0.0000
# 4 0.0000 0.0000 0.0000 20.7718 0.0000 0.0000
# 5 0.0000 0.0000 0.0000 0.0000 26.8897 0.0000
# 6 0.0000 0.0000 0.0000 0.0000 0.0000 10.8206
#
#
#
# Elastic Compliance Matrix: (Units=1/GPa)
#
#
# Indices 1 2 3 4 5 6 
#
# 1 0.006109 0.000158 -0.003207 0.000000 0.000000 0.000000
# 2 0.000158 0.020416 0.003441 0.000000 0.000000 0.000000
# 3 -0.003207 0.003441 0.017650 0.000000 0.000000 0.000000
# 4 0.000000 0.000000 0.000000 0.048142 0.000000 0.000000
# 5 0.000000 0.000000 0.000000 0.000000 0.037189 0.000000
# 6 0.000000 0.000000 0.000000 0.000000 0.000000 0.092416
#
#
# Mechanical properties :
#
#
# Convention : Reuss Voigt Hill
#
# Bulk Modulus (GPa) = 22.24211 36.67129 29.45670
# Shear Modulus (GPa) = 21.17516 30.49688 25.83602
#
# Velocity S-wave (km/s) = 3.06755 3.68134 3.38837
# Velocity P-wave (km/s) = 4.73608 5.86223 5.32899
#
# Compressibility (1/GPa) = 0.04495977
#
# Stress axis : x y z
#
# Youngs Moduli (GPa) = 163.68781 48.98116 56.65570
#
# Poissons Ratio (x) = -0.00775 0.18171
# Poissons Ratio (y) = -0.02592 -0.19496
# Poissons Ratio (z) = 0.52500 -0.16855
#
# Static dielectric constant tensor:
#      x y z
#    x 1.889240 0.000000 0.000000 
#    y 0.000000 1.850560 0.000000 
#    z 0.000000 0.000000 1.810360 
# 
# From -- ./inp_files/27499.got.cif
#   From: 2010.05.17/outbox.cif.g08.bks.cpg/sg59_14_cif.got.tgz:27499.got - 2010.06.03 14:40:33.
