data_PCOD9450440
_publ_section_title
;
Structure prediction by ZEFSAII (Michael W. Deem and Ramdas Pophale) SiO2 
 PCOD9450440
Probable space group: P M M N
;
_chemical_formula_sum "Si O2"
_cell_formula_units_Z 64
_cell_length_a 17.406583
_cell_length_b 18.550074
_cell_length_c 10.751351
_cell_angle_alpha 90.000000
_cell_angle_beta 90.000000
_cell_angle_gamma 90.000000
_cell_volume 3471.540308
_symmetry_space_group_name_H-M "P M M N"
_symmetry_group_IT_number 59
_space_group.IT_coordinate_system_code '2'
_symmetry_cell_setting 'orthorhombic'
loop_
_space_group_symop_operation_xyz
x,y,z
1/2-x,1/2-y,z
1/2+x,-y,-z
-x,1/2+y,-z
-x,-y,-z
1/2+x,1/2+y,-z
1/2-x,y,z
x,1/2-y,z
loop_
_atom_site_type_symbol
_atom_site_label
_atom_site_fract_x
_atom_site_fract_y
_atom_site_fract_z
Si Si1 0.571680 0.836587 0.758004
Si Si2 0.902841 0.585313 0.513025
Si Si3 0.093350 0.588417 0.742719
Si Si4 0.159047 0.431869 0.747695
Si Si5 0.585764 0.417281 0.531529
Si Si6 0.158458 0.669053 0.972620
Si Si7 0.158351 0.166489 0.984958
Si Si8 0.660194 0.163078 0.758003
O O1 0.558880 0.750000 0.750413
O O2 0.612749 0.864812 0.632258
O O3 0.492336 0.881346 0.760428
O O4 0.616670 0.852161 0.885803
O O5 0.856707 0.603084 0.387416
O O6 0.890558 0.500982 0.546577
O O7 0.993699 0.589003 0.480454
O O8 0.105573 0.502765 0.749740
O O9 0.117844 0.608636 0.602258
O O10 0.141119 0.622478 0.853487
O O11 0.250000 0.451057 0.755633
O O12 0.139482 0.382180 0.865567
O O13 0.614694 0.371402 0.645946
O O14 0.250000 0.674375 0.987326
O O15 0.127292 0.750000 0.953945
O O16 0.130240 0.639840 0.105570
O O17 0.250000 0.160989 0.004393
O O18 0.139961 0.250000 0.956908
O O19 0.750000 0.143299 0.745419
O O20 0.655652 0.250000 0.756232
#
# Coordination Sequence:
#
# PCOD9450440 Si02
#       8
#     8   8   8   8   8   8   8   8
#     4  10  21  37  58  84 112 144 183 227 276 329
#     4   9  20  36  52  75 106 138 176 223 268 321
#     4  10  20  34  54  81 113 142 177 220 269 330
#     4  10  21  37  58  84 112 144 183 227 276 329
#     4   9  19  35  52  72 105 145 178 217 270 318
#     4   9  18  32  48  71 108 148 182 217 255 303
#     4   9  20  39  58  78 108 143 182 231 280 324
#     4   9  19  34  52  78 110 143 183 227 268 319
#
# _framework density 18.435621000000001
#
# number of rings (size 3 to 8) (size 9 to 14) (size 15 to 20)
#    0.000    2.625    0.000    2.250    0.000    8.500 
#    0.000    3.750    0.000    0.000    0.000    0.000 
#    0.000    0.000    0.000    0.000    0.000    0.000 
#
# Total GULP energy -356726.250404 kJ/mol
# GULP energy per Si atom -5573.847663 kJ/mol
# Density = 1.839366 g / cm^3
# Si number density = 18.435621 Si / 1000 Ang^3
#
#
#
# Elastic Constant Matrix: (Units=GPa)
#
#
# Indices 1 2 3 4 5 6 
#
# 1 15.7919 21.9321 37.8864 0.0000 0.0000 0.0000
# 2 21.9321 49.8947 66.6289 0.0000 0.0000 0.0000
# 3 37.8864 66.6289 168.0800 0.0000 0.0000 0.0000
# 4 0.0000 0.0000 0.0000 43.0140 0.0000 0.0000
# 5 0.0000 0.0000 0.0000 0.0000 35.1861 0.0000
# 6 0.0000 0.0000 0.0000 0.0000 0.0000 22.8074
#
#
#
# Elastic Compliance Matrix: (Units=1/GPa)
#
#
# Indices 1 2 3 4 5 6 
#
# 1 0.191695 -0.056438 -0.020837 0.000000 0.000000 0.000000
# 2 -0.056438 0.059202 -0.010747 0.000000 0.000000 0.000000
# 3 -0.020837 -0.010747 0.014906 0.000000 0.000000 0.000000
# 4 0.000000 0.000000 0.000000 0.023248 0.000000 0.000000
# 5 0.000000 0.000000 0.000000 0.000000 0.028420 0.000000
# 6 0.000000 0.000000 0.000000 0.000000 0.000000 0.043845
#
#
# Mechanical properties :
#
#
# Convention : Reuss Voigt Hill
#
# Bulk Modulus (GPa) = 11.14077 54.07350 32.60713
# Shear Modulus (GPa) = 8.81398 27.35612 18.08505
#
# Velocity S-wave (km/s) = 2.18891 3.85629 3.13546
# Velocity P-wave (km/s) = 3.52769 7.01588 5.55280
#
# Compressibility (1/GPa) = 0.08976041
#
# Stress axis : x y z
#
# Youngs Moduli (GPa) = 5.21661 16.89140 67.08514
#
# Poissons Ratio (x) = 0.95332 1.39783
# Poissons Ratio (y) = 0.29442 0.72095
# Poissons Ratio (z) = 0.10870 0.18153
#
# Static dielectric constant tensor:
#      x y z
#    x 1.643500 0.000000 0.000000 
#    y 0.000000 1.638050 0.000000 
#    z 0.000000 0.000000 1.645370 
# 
# From -- ./inp_files/10707.got.cif
#   From: 2010.05.17/outbox.cif.g08.bks.cpg/sg59_6_cif.got.tgz:10707.got - 2010.06.03 14:40:33.
