data_PCOD9450220
_publ_section_title
;
Structure prediction by ZEFSAII (Michael W. Deem and Ramdas Pophale) SiO2 
 PCOD9450220
Probable space group: P M M N
;
_chemical_formula_sum "Si O2"
_cell_formula_units_Z 64
_cell_length_a 9.461709
_cell_length_b 18.768541
_cell_length_c 18.839608
_cell_angle_alpha 90.000000
_cell_angle_beta 90.000000
_cell_angle_gamma 90.000000
_cell_volume 3345.584185
_symmetry_space_group_name_H-M "P M M N"
_symmetry_group_IT_number 59
_space_group.IT_coordinate_system_code '2'
_symmetry_cell_setting 'orthorhombic'
loop_
_space_group_symop_operation_xyz
x,y,z
1/2-x,1/2-y,z
1/2+x,-y,-z
-x,1/2+y,-z
-x,-y,-z
1/2+x,1/2+y,-z
1/2-x,y,z
x,1/2-y,z
loop_
_atom_site_type_symbol
_atom_site_label
_atom_site_fract_x
_atom_site_fract_y
_atom_site_fract_z
Si Si1 0.916451 0.971744 0.384166
Si Si2 0.581604 0.048384 0.762164
Si Si3 0.591686 0.902861 0.847672
Si Si4 0.093706 0.664758 0.737740
Si Si5 0.413716 0.603442 0.503155
Si Si6 0.088418 0.071745 0.989872
Si Si7 0.420607 0.165052 0.852545
Si Si8 0.903683 0.832435 0.611968
O O1 0.750000 0.955423 0.373683
O O2 0.997451 0.974347 0.309059
O O3 0.002496 0.915678 0.432312
O O4 0.921435 0.040164 0.437320
O O5 0.750000 0.058496 0.748610
O O6 0.507480 0.118717 0.795009
O O7 0.570619 0.984062 0.820044
O O8 0.750000 0.881362 0.823043
O O9 0.470518 0.856793 0.812135
O O10 0.586875 0.894855 0.931797
O O11 0.250000 0.635061 0.725274
O O12 0.101961 0.750000 0.732117
O O13 0.985845 0.636584 0.678936
O O14 0.250000 0.618053 0.489710
O O15 0.498702 0.663949 0.543630
O O16 0.250000 0.050810 0.973321
O O17 0.045316 0.126821 0.928257
O O18 0.000000 0.000000 0.000000
O O19 0.250000 0.158184 0.841230
O O20 0.452568 0.250000 0.852520
O O21 0.750000 0.866498 0.600270
O O22 0.884951 0.750000 0.629146
#
# Coordination Sequence:
#
# PCOD9450220 Si02
#       8
#     8   8   8   8   8   8   8   8
#     4  10  21  36  56  82 113 148 184 229 284 337
#     4  11  22  37  58  86 116 148 191 238 287 341
#     4  10  21  35  56  85 115 149 188 230 280 341
#     4  10  21  35  51  77 113 151 192 236 283 335
#     4  10  20  35  56  83 112 144 185 232 283 334
#     4  10  20  37  60  87 115 148 189 234 283 340
#     4  10  22  40  62  87 116 153 195 239 290 348
#     4  10  20  34  53  76 106 146 186 225 274 332
#
# _framework density 19.129694000000001
#
# number of rings (size 3 to 8) (size 9 to 14) (size 15 to 20)
#    0.000    1.875    1.250    2.625    0.000    7.250 
#    0.000    1.875    0.000    3.750    0.000    0.000 
#    0.000    0.000    0.000    0.000    0.000    0.000 
#
# Total GULP energy -356772.454827 kJ/mol
# GULP energy per Si atom -5574.569607 kJ/mol
# Density = 1.908615 g / cm^3
# Si number density = 19.129694 Si / 1000 Ang^3
#
#
#
# Elastic Constant Matrix: (Units=GPa)
#
#
# Indices 1 2 3 4 5 6 
#
# 1 129.4302 47.4643 51.6969 0.0000 0.0000 0.0000
# 2 47.4643 55.3191 30.3035 0.0000 0.0000 0.0000
# 3 51.6969 30.3035 93.3430 0.0000 0.0000 0.0000
# 4 0.0000 0.0000 0.0000 28.4786 0.0000 0.0000
# 5 0.0000 0.0000 0.0000 0.0000 30.7729 0.0000
# 6 0.0000 0.0000 0.0000 0.0000 0.0000 24.4955
#
#
#
# Elastic Compliance Matrix: (Units=1/GPa)
#
#
# Indices 1 2 3 4 5 6 
#
# 1 0.012484 -0.008422 -0.004180 0.000000 0.000000 0.000000
# 2 -0.008422 0.027668 -0.004318 0.000000 0.000000 0.000000
# 3 -0.004180 -0.004318 0.014430 0.000000 0.000000 0.000000
# 4 0.000000 0.000000 0.000000 0.035114 0.000000 0.000000
# 5 0.000000 0.000000 0.000000 0.000000 0.032496 0.000000
# 6 0.000000 0.000000 0.000000 0.000000 0.000000 0.040824
#
#
# Mechanical properties :
#
#
# Convention : Reuss Voigt Hill
#
# Bulk Modulus (GPa) = 48.20981 59.66906 53.93944
# Shear Modulus (GPa) = 24.53736 26.65791 25.59764
#
# Velocity S-wave (km/s) = 3.58534 3.73706 3.66199
# Velocity P-wave (km/s) = 6.51121 7.06260 6.79250
#
# Compressibility (1/GPa) = 0.02074266
#
# Stress axis : x y z
#
# Youngs Moduli (GPa) = 80.10131 36.14245 69.29924
#
# Poissons Ratio (x) = 0.30438 0.28968
# Poissons Ratio (y) = 0.67459 0.29924
# Poissons Ratio (z) = 0.33483 0.15607
#
# Static dielectric constant tensor:
#      x y z
#    x 1.695130 0.000000 0.000000 
#    y 0.000000 1.703180 0.000000 
#    z 0.000000 0.000000 1.668090 
# 
# From -- ./inp_files/26195.got.cif
#   From: 2010.05.17/outbox.cif.g08.bks.cpg/sg59_14_cif.got.tgz:26195.got - 2010.06.03 14:40:33.
