data_PCOD9450879
_publ_section_title
;
Structure prediction by ZEFSAII (Michael W. Deem and Ramdas Pophale) SiO2 
 PCOD9450879
Probable space group: P M M N
;
_chemical_formula_sum "Si O2"
_cell_formula_units_Z 64
_cell_length_a 7.701948
_cell_length_b 14.670553
_cell_length_c 26.856468
_cell_angle_alpha 90.000000
_cell_angle_beta 90.000000
_cell_angle_gamma 90.000000
_cell_volume 3034.561637
_symmetry_space_group_name_H-M "P M M N"
_symmetry_group_IT_number 59
_space_group.IT_coordinate_system_code '2'
_symmetry_cell_setting 'orthorhombic'
loop_
_space_group_symop_operation_xyz
x,y,z
1/2-x,1/2-y,z
1/2+x,-y,-z
-x,1/2+y,-z
-x,-y,-z
1/2+x,1/2+y,-z
1/2-x,y,z
x,1/2-y,z
loop_
_atom_site_type_symbol
_atom_site_label
_atom_site_fract_x
_atom_site_fract_y
_atom_site_fract_z
Si Si1 0.043848 0.513396 0.942580
Si Si2 0.959725 0.352257 0.333233
Si Si3 0.040658 0.529412 0.575358
Si Si4 0.048648 0.849016 0.241165
Si Si5 0.956725 0.647592 0.860368
Si Si6 0.459529 0.149683 0.873839
Si Si7 0.043060 0.044516 0.236044
Si Si8 0.542160 0.146282 0.519820
O O1 0.250000 0.511549 0.938653
O O2 0.974992 0.429432 0.909501
O O3 0.983970 0.604354 0.914557
O O4 0.000000 0.500000 0.000000
O O5 0.750000 0.352029 0.334795
O O6 0.018583 0.250000 0.345776
O O7 0.022075 0.426127 0.373420
O O8 0.013954 0.380631 0.278108
O O9 0.250000 0.533585 0.574993
O O10 0.976972 0.593568 0.529707
O O11 0.992998 0.424973 0.564212
O O12 0.250000 0.846697 0.257273
O O13 0.970903 0.750000 0.255234
O O14 0.040264 0.853944 0.180961
O O15 0.970072 0.947114 0.255002
O O16 0.750000 0.652653 0.852182
O O17 0.027222 0.750000 0.856225
O O18 0.026841 0.580818 0.816899
O O19 0.250000 0.141962 0.867625
O O20 0.495058 0.250000 0.895119
O O21 0.250000 0.030531 0.230116
O O22 0.750000 0.152658 0.514843
O O23 0.475999 0.250000 0.525016
#
# Coordination Sequence:
#
# PCOD9450879 Si02
#       8
#     8   8   8   8   8   8   8   8
#     4  11  23  37  55  79 108 139 174 214 260 316
#     4  10  21  36  54  77 106 142 183 225 269 317
#     4   9  18  33  52  76 108 144 182 227 276 324
#     4   9  17  31  54  80 102 127 162 205 252 303
#     4  10  21  38  58  79 107 142 177 217 267 317
#     4   9  18  33  53  76 100 127 160 202 252 302
#     4  10  20  35  56  81 110 141 177 219 266 318
#     4   9  17  31  53  79 107 142 184 228 276 328
#
# _framework density 21.090361999999999
#
# number of rings (size 3 to 8) (size 9 to 14) (size 15 to 20)
#    0.000    2.375    1.250    1.125    0.000    5.250 
#    0.000    1.875    0.000    4.500    0.000    0.000 
#    0.000    0.000    0.000    0.000    0.000    0.000 
#
# Total GULP energy -356991.408151 kJ/mol
# GULP energy per Si atom -5577.990752 kJ/mol
# Density = 2.104236 g / cm^3
# Si number density = 21.090362 Si / 1000 Ang^3
#
#
#
# Elastic Constant Matrix: (Units=GPa)
#
#
# Indices 1 2 3 4 5 6 
#
# 1 36.0317 7.5816 -8.4757 0.0000 0.0000 0.0000
# 2 7.5816 146.8146 23.7049 0.0000 0.0000 0.0000
# 3 -8.4757 23.7049 63.2113 0.0000 0.0000 0.0000
# 4 0.0000 0.0000 0.0000 25.0064 0.0000 0.0000
# 5 0.0000 0.0000 0.0000 0.0000 17.5561 0.0000
# 6 0.0000 0.0000 0.0000 0.0000 0.0000 19.1133
#
#
#
# Elastic Compliance Matrix: (Units=1/GPa)
#
#
# Indices 1 2 3 4 5 6 
#
# 1 0.029364 -0.002291 0.004796 0.000000 0.000000 0.000000
# 2 -0.002291 0.007429 -0.003093 0.000000 0.000000 0.000000
# 3 0.004796 -0.003093 0.017623 0.000000 0.000000 0.000000
# 4 0.000000 0.000000 0.000000 0.039990 0.000000 0.000000
# 5 0.000000 0.000000 0.000000 0.000000 0.056960 0.000000
# 6 0.000000 0.000000 0.000000 0.000000 0.000000 0.052320
#
#
# Mechanical properties :
#
#
# Convention : Reuss Voigt Hill
#
# Bulk Modulus (GPa) = 18.78272 32.40880 25.59576
# Shear Modulus (GPa) = 22.46106 27.21826 24.83966
#
# Velocity S-wave (km/s) = 3.26696 3.59633 3.43559
# Velocity P-wave (km/s) = 4.81206 5.71356 5.28207
#
# Compressibility (1/GPa) = 0.05324043
#
# Stress axis : x y z
#
# Youngs Moduli (GPa) = 34.05577 134.60707 56.74398
#
# Poissons Ratio (x) = 0.30835 -0.27216
# Poissons Ratio (y) = 0.07801 0.17552
# Poissons Ratio (z) = -0.16334 0.41636
#
# Static dielectric constant tensor:
#      x y z
#    x 1.799720 0.000000 0.000000 
#    y 0.000000 1.819360 0.000000 
#    z 0.000000 0.000000 1.788770 
# 
# From -- ./inp_files/31584.got.cif
#   From: 2010.05.17/outbox.cif.g08.bks.cpg/sg59_16_cif.got.tgz:31584.got - 2010.06.03 14:40:33.
