data_PCOD9450696
_publ_section_title
;
Structure prediction by ZEFSAII (Michael W. Deem and Ramdas Pophale) SiO2 
 PCOD9450696
Probable space group: P M M N
;
_chemical_formula_sum "Si O2"
_cell_formula_units_Z 58
_cell_length_a 23.712030
_cell_length_b 7.867083
_cell_length_c 14.761355
_cell_angle_alpha 90.000000
_cell_angle_beta 90.000000
_cell_angle_gamma 90.000000
_cell_volume 2753.649707
_symmetry_space_group_name_H-M "P M M N"
_symmetry_group_IT_number 59
_space_group.IT_coordinate_system_code '2'
_symmetry_cell_setting 'orthorhombic'
loop_
_space_group_symop_operation_xyz
x,y,z
1/2-x,1/2-y,z
1/2+x,-y,-z
-x,1/2+y,-z
-x,-y,-z
1/2+x,1/2+y,-z
1/2-x,y,z
x,1/2-y,z
loop_
_atom_site_type_symbol
_atom_site_label
_atom_site_fract_x
_atom_site_fract_y
_atom_site_fract_z
Si Si1 0.812138 0.051971 0.909436
Si Si2 0.942297 0.547777 0.408960
Si Si3 0.250000 0.750000 0.631658
Si Si4 0.845984 0.555553 0.103479
Si Si5 0.080247 0.553417 0.196565
Si Si6 0.931310 0.944571 0.607957
Si Si7 0.830632 0.953610 0.306760
Si Si8 0.972019 0.053922 0.094910
O O1 0.750000 0.977644 0.891151
O O2 0.810067 0.250000 0.882004
O O3 0.866442 0.977581 0.857586
O O4 0.824629 0.044192 0.016366
O O5 0.955402 0.750000 0.417165
O O6 0.917284 0.493300 0.506675
O O7 0.896258 0.528139 0.331909
O O8 0.000614 0.455169 0.390586
O O9 0.202103 0.596154 0.637669
O O10 0.829536 0.750000 0.087574
O O11 0.821830 0.504773 0.200871
O O12 0.913947 0.544998 0.109642
O O13 0.073826 0.750000 0.169236
O O14 0.089868 0.541198 0.303809
O O15 0.021050 0.469509 0.168973
O O16 0.912658 0.750000 0.616358
O O17 0.817270 0.750000 0.321266
O O18 0.955607 0.250000 0.090000
O O19 0.000000 0.000000 0.000000
#
# Coordination Sequence:
#
# PCOD9450696 Si02
#       8
#     8   8   2   8   8   8   8   8
#     4  10  23  40  60  80 111 156 208 252 296 347
#     4   9  19  39  62  91 127 159 190 246 311 374
#     4  12  26  40  68  90 120 174 218 256 310 370
#     4  11  23  38  60  88 119 158 199 251 309 361
#     4  11  22  38  58  85 121 161 196 247 302 356
#     4  10  20  34  63  95 122 156 197 243 308 374
#     4  10  24  42  62  91 128 163 209 261 312 370
#     4  12  23  36  57  85 120 156 197 245 303 371
#
# _framework density 21.062954000000001
#
# number of rings (size 3 to 8) (size 9 to 14) (size 15 to 20)
#    0.000    1.517    1.379    3.517    3.862    2.483 
#    0.000    0.000    1.517    0.000    0.000    0.000 
#    0.000    0.000    0.000    0.000    0.000    0.000 
#
# Total GULP energy -323371.391715 kJ/mol
# GULP energy per Si atom -5575.368823 kJ/mol
# Density = 2.101501 g / cm^3
# Si number density = 21.062954 Si / 1000 Ang^3
#
#
#
# Elastic Constant Matrix: (Units=GPa)
#
#
# Indices 1 2 3 4 5 6 
#
# 1 67.2355 -3.8849 0.8015 0.0000 0.0000 0.0000
# 2 -3.8849 49.3599 -2.7245 0.0000 0.0000 0.0000
# 3 0.8015 -2.7245 74.3733 0.0000 0.0000 0.0000
# 4 0.0000 0.0000 0.0000 21.1461 0.0000 0.0000
# 5 0.0000 0.0000 0.0000 0.0000 -18.6779 0.0000
# 6 0.0000 0.0000 0.0000 0.0000 0.0000 21.1598
#
#
#
# Elastic Compliance Matrix: (Units=1/GPa)
#
#
# Indices 1 2 3 4 5 6 
#
# 1 0.014942 0.001170 -0.000118 0.000000 0.000000 0.000000
# 2 0.001170 0.020392 0.000734 0.000000 0.000000 0.000000
# 3 -0.000118 0.000734 0.013474 0.000000 0.000000 0.000000
# 4 0.000000 0.000000 0.000000 0.047290 0.000000 0.000000
# 5 0.000000 0.000000 0.000000 0.000000 -0.053539 0.000000
# 6 0.000000 0.000000 0.000000 0.000000 0.000000 0.047259
#
#
# Mechanical properties :
#
#
# Convention : Reuss Voigt Hill
#
# Bulk Modulus (GPa) = 19.09150 19.92810 19.50980
# Shear Modulus (GPa) = 48.21299 17.84404 33.02852
#
# Velocity S-wave (km/s) = 4.78953 2.91379 3.96420
# Velocity P-wave (km/s) = 6.29840 4.56092 5.49872
#
# Compressibility (1/GPa) = 0.05237934
#
# Stress axis : x y z
#
# Youngs Moduli (GPa) = 66.92510 49.03899 74.21781
#
# Poissons Ratio (x) = -0.05735 0.00877
# Poissons Ratio (y) = -0.07827 -0.05451
# Poissons Ratio (z) = 0.00791 -0.03601
#
# Static dielectric constant tensor:
#      x y z
#    x 1.727190 0.000000 0.000000 
#    y 0.000000 1.766710 0.000000 
#    z 0.000000 0.000000 1.718910 
# 
# From -- ./inp_files/24608.got.cif
#   From: 2010.05.17/outbox.cif.g08.bks.cpg/sg59_13_cif.got.tgz:24608.got - 2010.06.03 14:40:33.
