data_PCOD9450697
_publ_section_title
;
Structure prediction by ZEFSAII (Michael W. Deem and Ramdas Pophale) SiO2 
 PCOD9450697
Probable space group: P M M N
;
_chemical_formula_sum "Si O2"
_cell_formula_units_Z 64
_cell_length_a 8.032643
_cell_length_b 28.690037
_cell_length_c 14.642599
_cell_angle_alpha 90.000000
_cell_angle_beta 90.000000
_cell_angle_gamma 90.000000
_cell_volume 3374.486873
_symmetry_space_group_name_H-M "P M M N"
_symmetry_group_IT_number 59
_space_group.IT_coordinate_system_code '2'
_symmetry_cell_setting 'orthorhombic'
loop_
_space_group_symop_operation_xyz
x,y,z
1/2-x,1/2-y,z
1/2+x,-y,-z
-x,1/2+y,-z
-x,-y,-z
1/2+x,1/2+y,-z
1/2-x,y,z
x,1/2-y,z
loop_
_atom_site_type_symbol
_atom_site_label
_atom_site_fract_x
_atom_site_fract_y
_atom_site_fract_z
Si Si1 0.440113 0.048448 0.459306
Si Si2 0.049231 0.305107 0.456622
Si Si3 0.442845 0.550573 0.038120
Si Si4 0.553638 0.563183 0.240068
Si Si5 0.557594 0.886854 0.875404
Si Si6 0.546301 0.695743 0.748055
Si Si7 0.943005 0.628973 0.390247
Si Si8 0.942355 0.458835 0.269192
O O1 0.250000 0.044886 0.427322
O O2 0.444179 0.086063 0.538902
O O3 0.547891 0.060275 0.371333
O O4 0.500000 0.000000 0.500000
O O5 0.250000 0.314039 0.456132
O O6 0.024385 0.250000 0.463207
O O7 0.990991 0.319014 0.354498
O O8 0.980466 0.330539 0.546572
O O9 0.250000 0.545886 0.060337
O O10 0.533157 0.564450 0.131663
O O11 0.500000 0.500000 0.000000
O O12 0.469070 0.590359 0.962279
O O13 0.750000 0.562772 0.262960
O O14 0.482651 0.606665 0.297813
O O15 0.491918 0.511978 0.270095
O O16 0.750000 0.878935 0.900063
O O17 0.490299 0.840063 0.826441
O O18 0.544765 0.926536 0.798037
O O19 0.750000 0.694161 0.747378
O O20 0.499714 0.750000 0.762481
O O21 0.750000 0.642816 0.370410
O O22 0.750000 0.459584 0.237003
#
# Coordination Sequence:
#
# PCOD9450697 Si02
#       8
#     8   8   8   8   8   8   8   8
#     4  11  20  31  46  68 101 139 175 211 257 311
#     4   8  13  24  46  76 107 136 167 207 254 305
#     4  12  24  38  55  76 103 136 178 223 268 323
#     4  10  20  35  51  69 100 141 178 217 259 306
#     4  11  21  34  56  81 104 137 174 217 273 324
#     4   8  15  29  51  82 114 138 168 212 262 318
#     4   9  17  30  47  69 101 138 172 210 257 303
#     4  11  21  33  48  71 104 141 177 215 256 309
#
# _framework density 18.965847
#
# number of rings (size 3 to 8) (size 9 to 14) (size 15 to 20)
#    0.000    2.000    2.500    3.750    0.000    2.500 
#    0.000    0.000    0.000    2.250    0.000    3.500 
#    0.000    3.500    0.000    0.000    0.000    0.000 
#
# Total GULP energy -356863.274915 kJ/mol
# GULP energy per Si atom -5575.988671 kJ/mol
# Density = 1.892268 g / cm^3
# Si number density = 18.965847 Si / 1000 Ang^3
#
#
#
# Elastic Constant Matrix: (Units=GPa)
#
#
# Indices 1 2 3 4 5 6 
#
# 1 16.5321 4.8049 -8.6592 0.0000 0.0000 0.0000
# 2 4.8049 75.0167 38.9571 0.0000 0.0000 0.0000
# 3 -8.6592 38.9571 106.3680 0.0000 0.0000 0.0000
# 4 0.0000 0.0000 0.0000 33.4728 0.0000 0.0000
# 5 0.0000 0.0000 0.0000 0.0000 18.7872 0.0000
# 6 0.0000 0.0000 0.0000 0.0000 0.0000 11.8887
#
#
#
# Elastic Compliance Matrix: (Units=1/GPa)
#
#
# Indices 1 2 3 4 5 6 
#
# 1 0.067659 -0.008884 0.008762 0.000000 0.000000 0.000000
# 2 -0.008884 0.017628 -0.007179 0.000000 0.000000 0.000000
# 3 0.008762 -0.007179 0.012744 0.000000 0.000000 0.000000
# 4 0.000000 0.000000 0.000000 0.029875 0.000000 0.000000
# 5 0.000000 0.000000 0.000000 0.000000 0.053228 0.000000
# 6 0.000000 0.000000 0.000000 0.000000 0.000000 0.084113
#
#
# Mechanical properties :
#
#
# Convention : Reuss Voigt Hill
#
# Bulk Modulus (GPa) = 11.98631 29.79137 20.88884
# Shear Modulus (GPa) = 16.25175 23.68402 19.96788
#
# Velocity S-wave (km/s) = 2.93045 3.53763 3.24826
# Velocity P-wave (km/s) = 4.21708 5.69460 5.01060
#
# Compressibility (1/GPa) = 0.08342849
#
# Stress axis : x y z
#
# Youngs Moduli (GPa) = 14.77990 56.72900 78.46833
#
# Poissons Ratio (x) = 0.50396 -0.68751
# Poissons Ratio (y) = 0.13130 0.56335
# Poissons Ratio (z) = -0.12950 0.40727
#
# Static dielectric constant tensor:
#      x y z
#    x 1.726890 0.000000 0.000000 
#    y 0.000000 1.704940 0.000000 
#    z 0.000000 0.000000 1.700990 
# 
# From -- ./inp_files/21975.got.cif
#   From: 2010.05.17/outbox.cif.g08.bks.cpg/sg59_11_cif.got.tgz:21975.got - 2010.06.03 14:40:33.
