data_PCOD9450581
_publ_section_title
;
Structure prediction by ZEFSAII (Michael W. Deem and Ramdas Pophale) SiO2 
 PCOD9450581
Probable space group: P M M N
;
_chemical_formula_sum "Si O2"
_cell_formula_units_Z 56
_cell_length_a 22.464297
_cell_length_b 8.861692
_cell_length_c 15.144763
_cell_angle_alpha 90.000000
_cell_angle_beta 90.000000
_cell_angle_gamma 90.000000
_cell_volume 3014.893429
_symmetry_space_group_name_H-M "P M M N"
_symmetry_group_IT_number 59
_space_group.IT_coordinate_system_code '2'
_symmetry_cell_setting 'orthorhombic'
loop_
_space_group_symop_operation_xyz
x,y,z
1/2-x,1/2-y,z
1/2+x,-y,-z
-x,1/2+y,-z
-x,-y,-z
1/2+x,1/2+y,-z
1/2-x,y,z
x,1/2-y,z
loop_
_atom_site_type_symbol
_atom_site_label
_atom_site_fract_x
_atom_site_fract_y
_atom_site_fract_z
Si Si1 0.682217 0.568129 0.272879
Si Si2 0.451048 0.431890 0.209368
Si Si3 0.319592 0.930083 0.535243
Si Si4 0.073941 0.431790 0.852866
Si Si5 0.250000 0.574427 0.059538
Si Si6 0.134483 0.068995 0.362522
Si Si7 0.376471 0.431894 0.038117
Si Si8 0.250000 0.573113 0.271850
O O1 0.750000 0.525004 0.247990
O O2 0.680882 0.750000 0.281285
O O3 0.668694 0.496193 0.367945
O O4 0.632881 0.524137 0.201684
O O5 0.454272 0.250000 0.206508
O O6 0.515362 0.498754 0.189834
O O7 0.422290 0.475083 0.303147
O O8 0.406638 0.480228 0.130068
O O9 0.250000 0.966786 0.514035
O O10 0.325320 0.750000 0.535927
O O11 0.360832 0.000911 0.460041
O O12 0.069310 0.250000 0.850347
O O13 0.083312 0.477563 0.954682
O O14 0.250000 0.750000 0.035511
O O15 0.310465 0.496700 0.027700
O O16 0.250000 0.562452 0.166219
O O17 0.137280 0.250000 0.366851
O O18 0.191913 0.006804 0.310573
O O19 0.372362 0.250000 0.038736
O O20 0.250000 0.750000 0.297481
#
# Coordination Sequence:
#
# PCOD9450581 Si02
#       8
#     8   8   8   8   4   8   8   4
#     4   9  19  37  59  84 111 142 186 236 285 339
#     4  10  22  38  56  82 116 154 191 229 277 338
#     4  10  20  34  55  85 116 146 182 231 288 337
#     4  10  22  38  61  85 108 149 196 238 283 331
#     4  11  23  35  53  86 119 150 187 237 288 326
#     4  11  21  34  56  84 114 153 190 224 278 340
#     4  10  21  38  59  83 115 154 193 232 281 339
#     4  11  21  33  51  80 117 150 185 235 282 326
#
# _framework density 18.574455
#
# number of rings (size 3 to 8) (size 9 to 14) (size 15 to 20)
#    0.000    1.857    2.143    1.714    1.000    4.000 
#    0.000    0.714    0.000    0.000    0.000    0.000 
#    0.000    0.000    0.000    0.000    0.000    0.000 
#
# Total GULP energy -312758.002234 kJ/mol
# GULP energy per Si atom -5584.964326 kJ/mol
# Density = 1.853218 g / cm^3
# Si number density = 18.574455 Si / 1000 Ang^3
#
#
#
# Elastic Constant Matrix: (Units=GPa)
#
#
# Indices 1 2 3 4 5 6 
#
# 1 79.0766 12.9105 20.3039 0.0000 0.0000 0.0000
# 2 12.9105 18.3864 15.4764 0.0000 0.0000 0.0000
# 3 20.3039 15.4764 64.7070 0.0000 0.0000 0.0000
# 4 0.0000 0.0000 0.0000 18.9407 0.0000 0.0000
# 5 0.0000 0.0000 0.0000 0.0000 18.5003 0.0000
# 6 0.0000 0.0000 0.0000 0.0000 0.0000 32.0889
#
#
#
# Elastic Compliance Matrix: (Units=1/GPa)
#
#
# Indices 1 2 3 4 5 6 
#
# 1 0.014644 -0.008032 -0.002674 0.000000 0.000000 0.000000
# 2 -0.008032 0.072503 -0.014821 0.000000 0.000000 0.000000
# 3 -0.002674 -0.014821 0.019838 0.000000 0.000000 0.000000
# 4 0.000000 0.000000 0.000000 0.052796 0.000000 0.000000
# 5 0.000000 0.000000 0.000000 0.000000 0.054053 0.000000
# 6 0.000000 0.000000 0.000000 0.000000 0.000000 0.031163
#
#
# Mechanical properties :
#
#
# Convention : Reuss Voigt Hill
#
# Bulk Modulus (GPa) = 17.87893 28.83905 23.35899
# Shear Modulus (GPa) = 15.88842 21.47127 18.67985
#
# Velocity S-wave (km/s) = 2.92788 3.40363 3.17468
# Velocity P-wave (km/s) = 4.59091 5.56831 5.10306
#
# Compressibility (1/GPa) = 0.05593176
#
# Stress axis : x y z
#
# Youngs Moduli (GPa) = 68.28804 13.79256 50.40800
#
# Poissons Ratio (x) = 0.11078 0.13479
# Poissons Ratio (y) = 0.54848 0.74709
# Poissons Ratio (z) = 0.18260 0.20442
#
# Static dielectric constant tensor:
#      x y z
#    x 1.615300 0.000000 0.000000 
#    y 0.000000 1.622950 0.000000 
#    z 0.000000 0.000000 1.639880 
# 
# From -- ./inp_files/21161.got.cif
#   From: 2010.05.17/outbox.cif.g08.bks.cpg/sg59_11_cif.got.tgz:21161.got - 2010.06.03 14:40:33.
