data_PCOD9450958
_publ_section_title
;
Structure prediction by ZEFSAII (Michael W. Deem and Ramdas Pophale) SiO2 
 PCOD9450958
Probable space group: P M M N
;
_chemical_formula_sum "Si O2"
_cell_formula_units_Z 64
_cell_length_a 8.733228
_cell_length_b 20.343314
_cell_length_c 17.923518
_cell_angle_alpha 90.000000
_cell_angle_beta 90.000000
_cell_angle_gamma 90.000000
_cell_volume 3184.342384
_symmetry_space_group_name_H-M "P M M N"
_symmetry_group_IT_number 59
_space_group.IT_coordinate_system_code '2'
_symmetry_cell_setting 'orthorhombic'
loop_
_space_group_symop_operation_xyz
x,y,z
1/2-x,1/2-y,z
1/2+x,-y,-z
-x,1/2+y,-z
-x,-y,-z
1/2+x,1/2+y,-z
1/2-x,y,z
x,1/2-y,z
loop_
_atom_site_type_symbol
_atom_site_label
_atom_site_fract_x
_atom_site_fract_y
_atom_site_fract_z
Si Si1 0.933318 0.325435 0.221420
Si Si2 0.578718 0.563905 0.688175
Si Si3 0.566277 0.175201 0.628328
Si Si4 0.932548 0.963757 0.427378
Si Si5 0.066497 0.585846 0.925444
Si Si6 0.933859 0.180555 0.947860
Si Si7 0.571760 0.849199 0.209389
Si Si8 0.920067 0.021674 0.835921
O O1 0.750000 0.325964 0.230731
O O2 0.986131 0.250000 0.218886
O O3 0.962234 0.362846 0.142858
O O4 0.005134 0.366547 0.289813
O O5 0.750000 0.570978 0.655898
O O6 0.481271 0.513835 0.638451
O O7 0.592628 0.528464 0.767792
O O8 0.750000 0.170289 0.624200
O O9 0.522891 0.250000 0.602554
O O10 0.497524 0.110206 0.587782
O O11 0.514274 0.169704 0.714802
O O12 0.750000 0.958991 0.431778
O O13 0.000000 0.000000 0.500000
O O14 0.250000 0.574468 0.927483
O O15 0.977903 0.519628 0.905820
O O16 0.015126 0.620200 0.001581
O O17 0.750000 0.178071 0.943949
O O18 0.974874 0.250000 0.985277
O O19 0.002059 0.180664 0.865619
O O20 0.750000 0.834204 0.217608
O O21 0.541139 0.925579 0.192471
O O22 0.750000 0.050913 0.848407
#
# Coordination Sequence:
#
# PCOD9450958 Si02
#       8
#     8   8   8   8   8   8   8   8
#     4   9  17  31  54  84 117 155 203 258 314 371
#     4  10  20  36  59  87 121 158 202 250 298 359
#     4  11  24  44  70  99 132 168 207 253 306 367
#     4  12  25  43  70 100 132 167 204 246 296 359
#     4   9  18  33  54  79 110 150 202 257 314 375
#     4  10  21  37  55  76 108 153 201 254 318 380
#     4  12  24  37  58  86 118 157 204 257 310 366
#     4  10  20  35  57  82 113 152 196 248 307 367
#
# _framework density 20.09834
#
# number of rings (size 3 to 8) (size 9 to 14) (size 15 to 20)
#    0.000    1.625    1.250    4.125    0.000    6.500 
#    0.000    0.625    0.000    6.000    0.000    0.000 
#    0.000    0.000    0.000    0.000    0.000    0.000 
#
# Total GULP energy -357194.316375 kJ/mol
# GULP energy per Si atom -5581.161193 kJ/mol
# Density = 2.005260 g / cm^3
# Si number density = 20.098340 Si / 1000 Ang^3
#
#
#
# Elastic Constant Matrix: (Units=GPa)
#
#
# Indices 1 2 3 4 5 6 
#
# 1 78.4020 35.7060 31.5385 0.0000 0.0000 0.0000
# 2 35.7060 124.3610 44.4954 0.0000 0.0000 0.0000
# 3 31.5385 44.4954 81.6822 0.0000 0.0000 0.0000
# 4 0.0000 0.0000 0.0000 -72.6708 0.0000 0.0000
# 5 0.0000 0.0000 0.0000 0.0000 26.5479 0.0000
# 6 0.0000 0.0000 0.0000 0.0000 0.0000 27.7894
#
#
#
# Elastic Compliance Matrix: (Units=1/GPa)
#
#
# Indices 1 2 3 4 5 6 
#
# 1 0.015924 -0.002946 -0.004544 0.000000 0.000000 0.000000
# 2 -0.002946 0.010533 -0.004600 0.000000 0.000000 0.000000
# 3 -0.004544 -0.004600 0.016503 0.000000 0.000000 0.000000
# 4 0.000000 0.000000 0.000000 -0.013761 0.000000 0.000000
# 5 0.000000 0.000000 0.000000 0.000000 0.037668 0.000000
# 6 0.000000 0.000000 0.000000 0.000000 0.000000 0.035985
#
#
# Mechanical properties :
#
#
# Convention : Reuss Voigt Hill
#
# Bulk Modulus (GPa) = 53.24836 56.43611 54.84223
# Shear Modulus (GPa) = 37.51155 7.84696 22.67926
#
# Velocity S-wave (km/s) = 4.32487 1.97807 3.36283
# Velocity P-wave (km/s) = 7.17571 5.77564 6.51340
#
# Compressibility (1/GPa) = 0.01877992
#
# Stress axis : x y z
#
# Youngs Moduli (GPa) = 62.79671 94.94020 60.59612
#
# Poissons Ratio (x) = 0.27974 0.27532
# Poissons Ratio (y) = 0.18503 0.27874
# Poissons Ratio (z) = 0.28532 0.43673
#
# Static dielectric constant tensor:
#      x y z
#    x 1.701320 0.000000 0.000000 
#    y 0.000000 1.774940 0.000000 
#    z 0.000000 0.000000 1.704730 
# 
# From -- ./inp_files/26251.got.cif
#   From: 2010.05.17/outbox.cif.g08.bks.cpg/sg59_14_cif.got.tgz:26251.got - 2010.06.03 14:40:33.
