data_PCOD9450508
_publ_section_title
;
Structure prediction by ZEFSAII (Michael W. Deem and Ramdas Pophale) SiO2 
 PCOD9450508
Probable space group: P M M N
;
_chemical_formula_sum "Si O2"
_cell_formula_units_Z 64
_cell_length_a 15.812624
_cell_length_b 7.572198
_cell_length_c 23.996712
_cell_angle_alpha 90.000000
_cell_angle_beta 90.000000
_cell_angle_gamma 90.000000
_cell_volume 2873.277983
_symmetry_space_group_name_H-M "P M M N"
_symmetry_group_IT_number 59
_space_group.IT_coordinate_system_code '2'
_symmetry_cell_setting 'orthorhombic'
loop_
_space_group_symop_operation_xyz
x,y,z
1/2-x,1/2-y,z
1/2+x,-y,-z
-x,1/2+y,-z
-x,-y,-z
1/2+x,1/2+y,-z
1/2-x,y,z
x,1/2-y,z
loop_
_atom_site_type_symbol
_atom_site_label
_atom_site_fract_x
_atom_site_fract_y
_atom_site_fract_z
Si Si1 0.343395 0.537367 0.489685
Si Si2 0.432667 0.541733 0.596152
Si Si3 0.390510 0.044643 0.366089
Si Si4 0.657191 0.963164 0.294864
Si Si5 0.150172 0.039159 0.012947
Si Si6 0.516147 0.537169 0.080452
Si Si7 0.160875 0.546316 0.247500
Si Si8 0.018133 0.033280 0.793267
O O1 0.250000 0.496238 0.511408
O O2 0.351159 0.750000 0.486312
O O3 0.409023 0.468957 0.535623
O O4 0.351050 0.468351 0.427275
O O5 0.449326 0.750000 0.588009
O O6 0.516354 0.465588 0.624370
O O7 0.360688 0.521592 0.642056
O O8 0.395091 0.250000 0.350295
O O9 0.345463 0.954764 0.314591
O O10 0.750000 0.020407 0.276905
O O11 0.654724 0.750000 0.294956
O O12 0.585957 0.027030 0.252229
O O13 0.250000 0.975447 0.017370
O O14 0.157673 0.250000 0.006854
O O15 0.080730 0.009230 0.062465
O O16 0.091162 0.972382 0.961031
O O17 0.519303 0.750000 0.078269
O O18 0.534700 0.480372 0.143393
O O19 0.250000 0.463273 0.230817
O O20 0.162105 0.750000 0.228952
O O21 0.074545 0.469231 0.224458
O O22 0.018722 0.250000 0.791523
#
# Coordination Sequence:
#
# PCOD9450508 Si02
#       8
#     8   8   8   8   8   8   8   8
#     4  10  21  36  53  73  98 131 170 212 263 323
#     4  10  21  37  55  75 101 136 174 211 260 322
#     4  11  22  35  53  77 102 131 170 217 267 316
#     4  10  20  34  55  81 106 135 172 217 269 317
#     4   9  18  33  53  80 115 150 181 220 273 321
#     4   9  18  33  55  81 109 146 188 226 263 311
#     4  10  20  35  55  75 100 139 178 213 262 319
#     4   9  18  34  54  79 109 138 176 224 262 303
#
# _framework density 22.274211000000001
#
# number of rings (size 3 to 8) (size 9 to 14) (size 15 to 20)
#    0.000    2.250    1.250    1.500    0.000    5.000 
#    0.000    5.000    0.000    0.000    0.000    1.750 
#    0.000    0.000    0.000    0.000    0.000    0.000 
#
# Total GULP energy -357040.574733 kJ/mol
# GULP energy per Si atom -5578.758980 kJ/mol
# Density = 2.222351 g / cm^3
# Si number density = 22.274211 Si / 1000 Ang^3
#
#
#
# Elastic Constant Matrix: (Units=GPa)
#
#
# Indices 1 2 3 4 5 6 
#
# 1 113.7770 0.1641 1.7338 0.0000 0.0000 0.0000
# 2 0.1641 49.5775 -15.9441 0.0000 0.0000 0.0000
# 3 1.7338 -15.9441 70.2742 0.0000 0.0000 0.0000
# 4 0.0000 0.0000 0.0000 7.7129 0.0000 0.0000
# 5 0.0000 0.0000 0.0000 0.0000 31.6628 0.0000
# 6 0.0000 0.0000 0.0000 0.0000 0.0000 -54.1311
#
#
#
# Elastic Compliance Matrix: (Units=1/GPa)
#
#
# Indices 1 2 3 4 5 6 
#
# 1 0.008793 -0.000107 -0.000241 0.000000 0.000000 0.000000
# 2 -0.000107 0.021759 0.004939 0.000000 0.000000 0.000000
# 3 -0.000241 0.004939 0.015357 0.000000 0.000000 0.000000
# 4 0.000000 0.000000 0.000000 0.129653 0.000000 0.000000
# 5 0.000000 0.000000 0.000000 0.000000 0.031583 0.000000
# 6 0.000000 0.000000 0.000000 0.000000 0.000000 -0.018474
#
#
# Mechanical properties :
#
#
# Convention : Reuss Voigt Hill
#
# Bulk Modulus (GPa) = 18.15137 22.83738 20.49438
# Shear Modulus (GPa) = 25.27143 13.56057 19.41600
#
# Velocity S-wave (km/s) = 3.37198 2.47007 2.95563
# Velocity P-wave (km/s) = 4.82981 4.29070 4.56821
#
# Compressibility (1/GPa) = 0.05509226
#
# Stress axis : x y z
#
# Youngs Moduli (GPa) = 113.72749 45.95727 65.11850
#
# Poissons Ratio (x) = 0.00490 0.01570
# Poissons Ratio (y) = 0.01213 -0.32165
# Poissons Ratio (z) = 0.02742 -0.22701
#
# Static dielectric constant tensor:
#      x y z
#    x 1.875070 0.000000 0.000000 
#    y 0.000000 1.825000 0.000000 
#    z 0.000000 0.000000 1.790360 
# 
# From -- ./inp_files/31612.got.cif
#   From: 2010.05.17/outbox.cif.g08.bks.cpg/sg59_16_cif.got.tgz:31612.got - 2010.06.03 14:40:33.
