data_PCOD9450738
_publ_section_title
;
Structure prediction by ZEFSAII (Michael W. Deem and Ramdas Pophale) SiO2 
 PCOD9450738
Probable space group: P M M N
;
_chemical_formula_sum "Si O2"
_cell_formula_units_Z 64
_cell_length_a 8.555337
_cell_length_b 28.446063
_cell_length_c 14.426818
_cell_angle_alpha 90.000000
_cell_angle_beta 90.000000
_cell_angle_gamma 90.000000
_cell_volume 3510.992016
_symmetry_space_group_name_H-M "P M M N"
_symmetry_group_IT_number 59
_space_group.IT_coordinate_system_code '2'
_symmetry_cell_setting 'orthorhombic'
loop_
_space_group_symop_operation_xyz
x,y,z
1/2-x,1/2-y,z
1/2+x,-y,-z
-x,1/2+y,-z
-x,-y,-z
1/2+x,1/2+y,-z
1/2-x,y,z
x,1/2-y,z
loop_
_atom_site_type_symbol
_atom_site_label
_atom_site_fract_x
_atom_site_fract_y
_atom_site_fract_z
Si Si1 0.437218 0.303474 0.565406
Si Si2 0.439648 0.028249 0.210032
Si Si3 0.937319 0.607708 0.928816
Si Si4 0.060878 0.804090 0.834376
Si Si5 0.061664 0.389433 0.689028
Si Si6 0.070787 0.692906 0.630674
Si Si7 0.438110 0.984977 0.400194
Si Si8 0.937507 0.071523 0.876185
O O1 0.250000 0.301342 0.571557
O O2 0.497989 0.250000 0.577905
O O3 0.492031 0.341294 0.640275
O O4 0.480085 0.320322 0.461827
O O5 0.250000 0.029502 0.210639
O O6 0.494548 0.073856 0.154800
O O7 0.488661 0.020043 0.316419
O O8 0.485391 0.981490 0.152756
O O9 0.750000 0.608094 0.928405
O O10 0.999983 0.659710 0.909537
O O11 0.995255 0.586915 0.025709
O O12 0.250000 0.804490 0.831821
O O13 0.011981 0.750000 0.849447
O O14 0.006194 0.820496 0.731545
O O15 0.250000 0.390605 0.690302
O O16 0.998023 0.395920 0.792626
O O17 0.000272 0.433870 0.630181
O O18 0.250000 0.676816 0.622402
O O19 0.072727 0.750000 0.633341
O O20 0.250000 0.983787 0.401426
O O21 0.500000 0.000000 0.500000
O O22 0.250000 0.927037 0.121173
#
# Coordination Sequence:
#
# PCOD9450738 Si02
#       8
#     8   8   8   8   8   8   8   8
#     4   9  18  32  51  76 105 137 174 216 259 303
#     4   8  18  35  54  77 105 135 169 213 258 304
#     4  11  21  34  55  81 104 130 170 217 264 312
#     4   9  19  36  53  72 104 141 173 208 252 303
#     4  10  20  35  54  76 104 139 177 218 264 312
#     4   8  15  29  49  71  97 131 170 212 255 299
#     4  10  20  36  55  78 110 144 176 210 255 312
#     4  10  20  37  57  76 102 136 173 215 266 317
#
# _framework density 18.228465
#
# number of rings (size 3 to 8) (size 9 to 14) (size 15 to 20)
#    0.000    2.625    0.000    3.375    0.000    2.750 
#    0.000   12.500    0.000    2.250    0.000    0.000 
#    0.000    0.000    0.000    0.000    0.000    0.000 
#
# Total GULP energy -356881.414295 kJ/mol
# GULP energy per Si atom -5576.272098 kJ/mol
# Density = 1.818698 g / cm^3
# Si number density = 18.228465 Si / 1000 Ang^3
#
#
#
# Elastic Constant Matrix: (Units=GPa)
#
#
# Indices 1 2 3 4 5 6 
#
# 1 30.8889 21.1617 20.2867 0.0000 0.0000 0.0000
# 2 21.1617 77.9391 72.7923 0.0000 0.0000 0.0000
# 3 20.2867 72.7923 124.7670 0.0000 0.0000 0.0000
# 4 0.0000 0.0000 0.0000 25.5133 0.0000 0.0000
# 5 0.0000 0.0000 0.0000 0.0000 30.4233 0.0000
# 6 0.0000 0.0000 0.0000 0.0000 0.0000 20.3473
#
#
#
# Elastic Compliance Matrix: (Units=1/GPa)
#
#
# Indices 1 2 3 4 5 6 
#
# 1 0.039780 -0.010459 -0.000366 0.000000 0.000000 0.000000
# 2 -0.010459 0.030943 -0.016352 0.000000 0.000000 0.000000
# 3 -0.000366 -0.016352 0.017615 0.000000 0.000000 0.000000
# 4 0.000000 0.000000 0.000000 0.039195 0.000000 0.000000
# 5 0.000000 0.000000 0.000000 0.000000 0.032870 0.000000
# 6 0.000000 0.000000 0.000000 0.000000 0.000000 0.049146
#
#
# Mechanical properties :
#
#
# Convention : Reuss Voigt Hill
#
# Bulk Modulus (GPa) = 29.42662 51.34184 40.38423
# Shear Modulus (GPa) = 18.16661 23.21373 20.69017
#
# Velocity S-wave (km/s) = 3.16033 3.57247 3.37270
# Velocity P-wave (km/s) = 5.43095 6.72634 6.11305
#
# Compressibility (1/GPa) = 0.03398283
#
# Stress axis : x y z
#
# Youngs Moduli (GPa) = 25.13840 32.31794 56.77081
#
# Poissons Ratio (x) = 0.33801 0.02078
# Poissons Ratio (y) = 0.26292 0.92832
# Poissons Ratio (z) = 0.00920 0.52847
#
# Static dielectric constant tensor:
#      x y z
#    x 1.626060 0.000000 0.000000 
#    y 0.000000 1.631670 0.000000 
#    z 0.000000 0.000000 1.619200 
# 
# From -- ./inp_files/14984.got.cif
#   From: 2010.05.17/outbox.cif.g08.bks.cpg/sg59_8_cif.got.tgz:14984.got - 2010.06.03 14:40:33.
