data_PCOD9450206
_publ_section_title
;
Structure prediction by ZEFSAII (Michael W. Deem and Ramdas Pophale) SiO2 
 PCOD9450206
Probable space group: P M M N
;
_chemical_formula_sum "Si O2"
_cell_formula_units_Z 48
_cell_length_a 7.854247
_cell_length_b 9.495756
_cell_length_c 32.207283
_cell_angle_alpha 90.000000
_cell_angle_beta 90.000000
_cell_angle_gamma 90.000000
_cell_volume 2402.084002
_symmetry_space_group_name_H-M "P M M N"
_symmetry_group_IT_number 59
_space_group.IT_coordinate_system_code '2'
_symmetry_cell_setting 'orthorhombic'
loop_
_space_group_symop_operation_xyz
x,y,z
1/2-x,1/2-y,z
1/2+x,-y,-z
-x,1/2+y,-z
-x,-y,-z
1/2+x,1/2+y,-z
1/2-x,y,z
x,1/2-y,z
loop_
_atom_site_type_symbol
_atom_site_label
_atom_site_fract_x
_atom_site_fract_y
_atom_site_fract_z
Si Si1 0.047622 0.409683 0.960154
Si Si2 0.544734 0.589320 0.792280
Si Si3 0.458612 0.412450 0.620997
Si Si4 0.455151 0.911393 0.540753
Si Si5 0.545885 0.089897 0.869865
Si Si6 0.045311 0.588197 0.700444
O O1 0.250000 0.401122 0.958873
O O2 0.976994 0.250000 0.963565
O O3 0.990490 0.469772 0.915637
O O4 0.000000 0.500000 0.000000
O O5 0.750000 0.593004 0.794753
O O6 0.481280 0.750000 0.794958
O O7 0.480217 0.498902 0.830989
O O8 0.499363 0.535334 0.746463
O O9 0.250000 0.411878 0.620899
O O10 0.513290 0.250000 0.618330
O O11 0.514690 0.504375 0.581500
O O12 0.515047 0.488819 0.663299
O O13 0.250000 0.904761 0.543290
O O14 0.518436 0.750000 0.539014
O O15 0.500000 0.000000 0.500000
O O16 0.750000 0.096587 0.865791
O O17 0.478585 0.250000 0.868930
O O18 0.250000 0.593948 0.697552
O O19 0.981734 0.750000 0.696306
#
# Coordination Sequence:
#
# PCOD9450206 Si02
#       6
#     8   8   8   8   8   8
#     4  10  21  36  54  77 104 134 169 209 253 301
#     4   9  18  32  49  70  97 128 161 198 243 294
#     4   9  17  30  49  72  97 127 164 204 246 294
#     4  10  20  34  53  76 102 133 169 209 254 304
#     4   9  18  33  51  70  96 130 164 199 243 294
#     4   9  17  30  48  69  93 122 158 199 241 287
#
# _framework density 19.98265
#
# number of rings (size 3 to 8) (size 9 to 14) (size 15 to 20)
#    0.000    2.667    0.000    1.500    0.000    6.000 
#    0.000    2.500    0.000    3.000    0.000    0.000 
#    0.000    0.000    0.000    0.000    0.000    0.000 
#
# Total GULP energy -267821.827911 kJ/mol
# GULP energy per Si atom -5579.621415 kJ/mol
# Density = 1.993717 g / cm^3
# Si number density = 19.982650 Si / 1000 Ang^3
#
#
#
# Elastic Constant Matrix: (Units=GPa)
#
#
# Indices 1 2 3 4 5 6 
#
# 1 20.9006 6.3265 3.1905 0.0000 0.0000 0.0000
# 2 6.3265 125.4574 119.3260 0.0000 0.0000 0.0000
# 3 3.1905 119.3260 236.5177 0.0000 0.0000 0.0000
# 4 0.0000 0.0000 0.0000 40.9108 0.0000 0.0000
# 5 0.0000 0.0000 0.0000 0.0000 27.9884 0.0000
# 6 0.0000 0.0000 0.0000 0.0000 0.0000 11.9628
#
#
#
# Elastic Compliance Matrix: (Units=1/GPa)
#
#
# Indices 1 2 3 4 5 6 
#
# 1 0.048741 -0.003523 0.001120 0.000000 0.000000 0.000000
# 2 -0.003523 0.015579 -0.007812 0.000000 0.000000 0.000000
# 3 0.001120 -0.007812 0.008154 0.000000 0.000000 0.000000
# 4 0.000000 0.000000 0.000000 0.024443 0.000000 0.000000
# 5 0.000000 0.000000 0.000000 0.000000 0.035729 0.000000
# 6 0.000000 0.000000 0.000000 0.000000 0.000000 0.083592
#
#
# Mechanical properties :
#
#
# Convention : Reuss Voigt Hill
#
# Bulk Modulus (GPa) = 19.21473 71.17353 45.19413
# Shear Modulus (GPa) = 19.68366 33.10789 26.39578
#
# Velocity S-wave (km/s) = 3.14194 4.07484 3.63841
# Velocity P-wave (km/s) = 4.77482 7.60487 6.34953
#
# Compressibility (1/GPa) = 0.05204341
#
# Stress axis : x y z
#
# Youngs Moduli (GPa) = 20.51662 64.18925 122.63509
#
# Poissons Ratio (x) = 0.22615 -0.13735
# Poissons Ratio (y) = 0.07228 0.95805
# Poissons Ratio (z) = -0.02298 0.50146
#
# Static dielectric constant tensor:
#      x y z
#    x 1.727690 0.000000 0.000000 
#    y 0.000000 1.701800 0.000000 
#    z 0.000000 0.000000 1.686570 
# 
# From -- ./inp_files/32809.got.cif
#   From: 2010.05.17/outbox.cif.g08.bks.cpg/sg59_17_cif.got.tgz:32809.got - 2010.06.03 14:40:33.
