data_PCOD9450279
_publ_section_title
;
Structure prediction by ZEFSAII (Michael W. Deem and Ramdas Pophale) SiO2 
 PCOD9450279
Probable space group: P M M N
;
_chemical_formula_sum "Si O2"
_cell_formula_units_Z 48
_cell_length_a 7.774344
_cell_length_b 9.268375
_cell_length_c 31.825997
_cell_angle_alpha 90.000000
_cell_angle_beta 90.000000
_cell_angle_gamma 90.000000
_cell_volume 2293.239259
_symmetry_space_group_name_H-M "P M M N"
_symmetry_group_IT_number 59
_space_group.IT_coordinate_system_code '2'
_symmetry_cell_setting 'orthorhombic'
loop_
_space_group_symop_operation_xyz
x,y,z
1/2-x,1/2-y,z
1/2+x,-y,-z
-x,1/2+y,-z
-x,-y,-z
1/2+x,1/2+y,-z
1/2-x,y,z
x,1/2-y,z
loop_
_atom_site_type_symbol
_atom_site_label
_atom_site_fract_x
_atom_site_fract_y
_atom_site_fract_z
Si Si1 0.044786 0.086092 0.792110
Si Si2 0.043697 0.086150 0.123806
Si Si3 0.039208 0.916524 0.374749
Si Si4 0.542682 0.085518 0.957748
Si Si5 0.543578 0.914040 0.707926
Si Si6 0.457052 0.085528 0.457762
O O1 0.250000 0.094014 0.792447
O O2 0.975505 0.250000 0.792008
O O3 0.990706 0.000200 0.833609
O O4 0.992845 0.000370 0.750407
O O5 0.250000 0.095233 0.119341
O O6 0.976542 0.250000 0.125713
O O7 0.977465 0.999605 0.083233
O O8 0.250000 0.916616 0.374677
O O9 0.984597 0.750000 0.374834
O O10 0.980760 0.999492 0.332926
O O11 0.981964 0.999898 0.416577
O O12 0.750000 0.091902 0.954636
O O13 0.478133 0.250000 0.959133
O O14 0.500000 0.000000 0.000000
O O15 0.750000 0.905381 0.703849
O O16 0.476927 0.750000 0.709687
O O17 0.250000 0.092057 0.454764
O O18 0.522011 0.250000 0.459037
O O19 0.500000 0.000000 0.500000
#
# Coordination Sequence:
#
# PCOD9450279 Si02
#       6
#     8   8   8   8   8   8
#     4  11  24  39  55  79 111 145 180 220 268 320
#     4  10  21  38  60  84 109 141 183 227 269 317
#     4   9  17  31  53  79 106 138 176 218 264 315
#     4  10  21  37  58  84 113 146 183 223 269 319
#     4  10  20  35  57  83 108 137 176 220 266 318
#     4  10  20  34  53  78 108 141 178 221 267 316
#
# _framework density 20.931089
#
# number of rings (size 3 to 8) (size 9 to 14) (size 15 to 20)
#    0.000    2.000    0.000    3.500    0.000   10.000 
#    0.000    0.833    0.000    5.000    0.000    0.000 
#    0.000    0.000    0.000    0.000    0.000    0.000 
#
# Total GULP energy -268310.538345 kJ/mol
# GULP energy per Si atom -5589.802882 kJ/mol
# Density = 2.088345 g / cm^3
# Si number density = 20.931089 Si / 1000 Ang^3
#
#
#
# Elastic Constant Matrix: (Units=GPa)
#
#
# Indices 1 2 3 4 5 6 
#
# 1 28.3703 9.9392 -1.5146 0.0000 0.0000 0.0000
# 2 9.9392 271.1678 160.1682 0.0000 0.0000 0.0000
# 3 -1.5146 160.1682 249.1450 0.0000 0.0000 0.0000
# 4 0.0000 0.0000 0.0000 48.6546 0.0000 0.0000
# 5 0.0000 0.0000 0.0000 0.0000 24.7675 0.0000
# 6 0.0000 0.0000 0.0000 0.0000 0.0000 17.2644
#
#
#
# Elastic Compliance Matrix: (Units=1/GPa)
#
#
# Indices 1 2 3 4 5 6 
#
# 1 0.036162 -0.002346 0.001728 0.000000 0.000000 0.000000
# 2 -0.002346 0.006098 -0.003934 0.000000 0.000000 0.000000
# 3 0.001728 -0.003934 0.006553 0.000000 0.000000 0.000000
# 4 0.000000 0.000000 0.000000 0.020553 0.000000 0.000000
# 5 0.000000 0.000000 0.000000 0.000000 0.040375 0.000000
# 6 0.000000 0.000000 0.000000 0.000000 0.000000 0.057923
#
#
# Mechanical properties :
#
#
# Convention : Reuss Voigt Hill
#
# Bulk Modulus (GPa) = 25.18337 98.42985 61.80661
# Shear Modulus (GPa) = 26.31509 43.47668 34.89589
#
# Velocity S-wave (km/s) = 3.54958 4.56250 4.08754
# Velocity P-wave (km/s) = 5.37188 8.65350 7.20209
#
# Compressibility (1/GPa) = 0.03970875
#
# Stress axis : x y z
#
# Youngs Moduli (GPa) = 27.65309 164.00127 152.59247
#
# Poissons Ratio (x) = 0.38478 -0.26370
# Poissons Ratio (y) = 0.06488 0.60033
# Poissons Ratio (z) = -0.04779 0.64521
#
# Static dielectric constant tensor:
#      x y z
#    x 1.786020 0.000000 0.000000 
#    y 0.000000 1.739180 0.000000 
#    z 0.000000 0.000000 1.693440 
# 
# From -- ./inp_files/32819.got.cif
#   From: 2010.05.17/outbox.cif.g08.bks.cpg/sg59_17_cif.got.tgz:32819.got - 2010.06.03 14:40:33.
