data_PCOD9450377
_publ_section_title
;
Structure prediction by ZEFSAII (Michael W. Deem and Ramdas Pophale) SiO2 
 PCOD9450377
Probable space group: P M M N
;
_chemical_formula_sum "Si O2"
_cell_formula_units_Z 40
_cell_length_a 7.974194
_cell_length_b 14.843351
_cell_length_c 17.709682
_cell_angle_alpha 90.000000
_cell_angle_beta 90.000000
_cell_angle_gamma 90.000000
_cell_volume 2096.184558
_symmetry_space_group_name_H-M "P M M N"
_symmetry_group_IT_number 59
_space_group.IT_coordinate_system_code '2'
_symmetry_cell_setting 'orthorhombic'
loop_
_space_group_symop_operation_xyz
x,y,z
1/2-x,1/2-y,z
1/2+x,-y,-z
-x,1/2+y,-z
-x,-y,-z
1/2+x,1/2+y,-z
1/2-x,y,z
x,1/2-y,z
loop_
_atom_site_type_symbol
_atom_site_label
_atom_site_fract_x
_atom_site_fract_y
_atom_site_fract_z
Si Si1 0.951082 0.147616 0.507813
Si Si2 0.047495 0.057075 0.215090
Si Si3 0.049872 0.994102 0.616605
Si Si4 0.952204 0.750000 0.842390
Si Si5 0.547606 0.441964 0.926992
Si Si6 0.047123 0.750000 0.018610
O O1 0.750000 0.153065 0.500329
O O2 0.016471 0.250000 0.509220
O O3 0.015272 0.086578 0.437901
O O4 0.988144 0.088439 0.581960
O O5 0.250000 0.058978 0.211124
O O6 0.986305 0.158271 0.196711
O O7 0.999328 0.023998 0.297707
O O8 0.986383 0.990871 0.148680
O O9 0.250000 0.994317 0.610995
O O10 0.750000 0.750000 0.837568
O O11 0.997270 0.750000 0.930755
O O12 0.750000 0.439169 0.923005
O O13 0.486164 0.340711 0.941075
O O14 0.500000 0.500000 0.000000
O O15 0.250000 0.750000 0.020989
#
# Coordination Sequence:
#
# PCOD9450377 Si02
#       6
#     8   8   8   4   8   4
#     4   9  19  38  61  82 108 145 181 217 270 330
#     4  10  21  36  53  78 111 145 181 222 273 329
#     4  10  21  36  57  85 114 141 179 226 270 319
#     4  10  20  34  54  80 107 140 183 228 273 324
#     4  10  20  35  55  77 107 143 184 226 272 323
#     4  10  20  34  54  80 103 136 185 234 279 322
#
# _framework density 19.082288999999999
#
# number of rings (size 3 to 8) (size 9 to 14) (size 15 to 20)
#    0.000    2.200    2.000    0.600    1.400    2.800 
#    1.800    0.000    0.000    0.000    0.000    0.000 
#    0.000    0.000    0.000    0.000    0.000    0.000 
#
# Total GULP energy -223258.293154 kJ/mol
# GULP energy per Si atom -5581.457329 kJ/mol
# Density = 1.903886 g / cm^3
# Si number density = 19.082289 Si / 1000 Ang^3
#
#
#
# Elastic Constant Matrix: (Units=GPa)
#
#
# Indices 1 2 3 4 5 6 
#
# 1 10.7586 8.4785 -2.5673 0.0000 0.0000 0.0000
# 2 8.4785 195.6887 94.3433 0.0000 0.0000 0.0000
# 3 -2.5673 94.3433 158.7959 0.0000 0.0000 0.0000
# 4 0.0000 0.0000 0.0000 15.7603 0.0000 0.0000
# 5 0.0000 0.0000 0.0000 0.0000 24.0306 0.0000
# 6 0.0000 0.0000 0.0000 0.0000 0.0000 14.5798
#
#
#
# Elastic Compliance Matrix: (Units=1/GPa)
#
#
# Indices 1 2 3 4 5 6 
#
# 1 0.099996 -0.007164 0.005873 0.000000 0.000000 0.000000
# 2 -0.007164 0.007675 -0.004675 0.000000 0.000000 0.000000
# 3 0.005873 -0.004675 0.009170 0.000000 0.000000 0.000000
# 4 0.000000 0.000000 0.000000 0.063451 0.000000 0.000000
# 5 0.000000 0.000000 0.000000 0.000000 0.041614 0.000000
# 6 0.000000 0.000000 0.000000 0.000000 0.000000 0.068588
#
#
# Mechanical properties :
#
#
# Convention : Reuss Voigt Hill
#
# Bulk Modulus (GPa) = 9.53219 62.86134 36.19677
# Shear Modulus (GPa) = 14.81943 28.54006 21.67974
#
# Velocity S-wave (km/s) = 2.78979 3.87153 3.37429
# Velocity P-wave (km/s) = 3.92217 7.28003 5.84731
#
# Compressibility (1/GPa) = 0.10490765
#
# Stress axis : x y z
#
# Youngs Moduli (GPa) = 10.00042 130.29978 109.05015
#
# Poissons Ratio (x) = 0.93344 -0.64043
# Poissons Ratio (y) = 0.07164 0.50986
# Poissons Ratio (z) = -0.05873 0.60921
#
# Static dielectric constant tensor:
#      x y z
#    x 1.689000 0.000000 0.000000 
#    y 0.000000 1.678660 0.000000 
#    z 0.000000 0.000000 1.621530 
# 
# From -- ./inp_files/19919.got.cif
#   From: 2010.05.17/outbox.cif.g08.bks.cpg/sg59_10_cif.got.tgz:19919.got - 2010.06.03 14:40:33.
