data_PCOD9450407
_publ_section_title
;
Structure prediction by ZEFSAII (Michael W. Deem and Ramdas Pophale) SiO2 
 PCOD9450407
Probable space group: P M M N
;
_chemical_formula_sum "Si O2"
_cell_formula_units_Z 56
_cell_length_a 16.728624
_cell_length_b 7.552436
_cell_length_c 19.662618
_cell_angle_alpha 90.000000
_cell_angle_beta 90.000000
_cell_angle_gamma 90.000000
_cell_volume 2484.211772
_symmetry_space_group_name_H-M "P M M N"
_symmetry_group_IT_number 59
_space_group.IT_coordinate_system_code '2'
_symmetry_cell_setting 'orthorhombic'
loop_
_space_group_symop_operation_xyz
x,y,z
1/2-x,1/2-y,z
1/2+x,-y,-z
-x,1/2+y,-z
-x,-y,-z
1/2+x,1/2+y,-z
1/2-x,y,z
x,1/2-y,z
loop_
_atom_site_type_symbol
_atom_site_label
_atom_site_fract_x
_atom_site_fract_y
_atom_site_fract_z
Si Si1 0.588747 0.964531 0.712943
Si Si2 0.156422 0.465485 0.429678
Si Si3 0.411308 0.543904 0.723431
Si Si4 0.656734 0.536420 0.421466
Si Si5 0.662961 0.459312 0.852037
Si Si6 0.000682 0.962497 0.079679
Si Si7 0.336689 0.045566 0.856596
O O1 0.586737 0.750000 0.711059
O O2 0.611340 0.027230 0.637518
O O3 0.500579 0.028688 0.733269
O O4 0.649948 0.018512 0.771310
O O5 0.250000 0.513296 0.424477
O O6 0.153308 0.250000 0.429540
O O7 0.126649 0.523618 0.504163
O O8 0.411049 0.750000 0.741227
O O9 0.389143 0.527666 0.644567
O O10 0.350034 0.456501 0.775308
O O11 0.750000 0.484157 0.416130
O O12 0.654174 0.750000 0.420636
O O13 0.750000 0.533172 0.871781
O O14 0.664818 0.250000 0.867249
O O15 0.582948 0.533277 0.887360
O O16 0.000961 0.750000 0.091044
O O17 0.917978 0.032661 0.112041
O O18 0.000000 0.000000 0.000000
O O19 0.250000 0.965339 0.873140
O O20 0.334016 0.250000 0.879099
#
# Coordination Sequence:
#
# PCOD9450407 Si02
#       7
#     8   8   8   8   8   8   8
#     4  10  20  34  54  80 110 145 188 234 278 328
#     4   8  15  30  51  73  99 136 185 235 278 326
#     4  11  22  33  50  80 114 144 182 235 288 331
#     4   9  18  33  52  72  98 140 190 233 279 338
#     4  10  21  38  60  86 116 150 185 223 276 334
#     4  10  22  40  61  87 119 148 180 224 269 323
#     4  10  21  39  62  84 109 149 195 229 266 323
#
# _framework density 22.542362000000001
#
# number of rings (size 3 to 8) (size 9 to 14) (size 15 to 20)
#    0.000    2.286    1.429    2.143    0.000    6.000 
#    0.000    0.714    0.000    0.857    0.000    0.000 
#    0.000    0.000    0.000    0.000    0.000    0.000 
#
# Total GULP energy -312728.596518 kJ/mol
# GULP energy per Si atom -5584.439224 kJ/mol
# Density = 2.249105 g / cm^3
# Si number density = 22.542362 Si / 1000 Ang^3
#
#
#
# Elastic Constant Matrix: (Units=GPa)
#
#
# Indices 1 2 3 4 5 6 
#
# 1 176.3141 12.8886 65.2892 0.0000 0.0000 0.0000
# 2 12.8886 57.1385 -6.8865 0.0000 0.0000 0.0000
# 3 65.2892 -6.8865 115.4201 0.0000 0.0000 0.0000
# 4 0.0000 0.0000 0.0000 24.4683 0.0000 0.0000
# 5 0.0000 0.0000 0.0000 0.0000 5.9480 0.0000
# 6 0.0000 0.0000 0.0000 0.0000 0.0000 -6.0304
#
#
#
# Elastic Compliance Matrix: (Units=1/GPa)
#
#
# Indices 1 2 3 4 5 6 
#
# 1 0.007440 -0.002201 -0.004340 0.000000 0.000000 0.000000
# 2 -0.002201 0.018279 0.002336 0.000000 0.000000 0.000000
# 3 -0.004340 0.002336 0.011258 0.000000 0.000000 0.000000
# 4 0.000000 0.000000 0.000000 0.040869 0.000000 0.000000
# 5 0.000000 0.000000 0.000000 0.000000 0.168122 0.000000
# 6 0.000000 0.000000 0.000000 0.000000 0.000000 -0.165827
#
#
# Mechanical properties :
#
#
# Convention : Reuss Voigt Hill
#
# Bulk Modulus (GPa) = 35.00546 54.60615 44.80580
# Shear Modulus (GPa) = 50.98214 23.38263 37.18239
#
# Velocity S-wave (km/s) = 4.76080 3.22417 4.06574
# Velocity P-wave (km/s) = 6.76630 6.17549 6.47764
#
# Compressibility (1/GPa) = 0.02856697
#
# Stress axis : x y z
#
# Youngs Moduli (GPa) = 134.41631 54.70655 88.82448
#
# Poissons Ratio (x) = 0.12042 0.38547
# Poissons Ratio (y) = 0.29587 -0.20747
# Poissons Ratio (z) = 0.58332 -0.12778
#
# Static dielectric constant tensor:
#      x y z
#    x 1.850110 0.000000 0.000000 
#    y 0.000000 1.836350 0.000000 
#    z 0.000000 0.000000 1.801110 
# 
# From -- ./inp_files/29065.got.cif
#   From: 2010.05.17/outbox.cif.g08.bks.cpg/sg59_15_cif.got.tgz:29065.got - 2010.06.03 14:40:33.
