data_PCOD9450335
_publ_section_title
;
Structure prediction by ZEFSAII (Michael W. Deem and Ramdas Pophale) SiO2 
 PCOD9450335
Probable space group: P M M N
;
_chemical_formula_sum "Si O2"
_cell_formula_units_Z 48
_cell_length_a 7.932886
_cell_length_b 9.939846
_cell_length_c 30.303909
_cell_angle_alpha 90.000000
_cell_angle_beta 90.000000
_cell_angle_gamma 90.000000
_cell_volume 2389.513686
_symmetry_space_group_name_H-M "P M M N"
_symmetry_group_IT_number 59
_space_group.IT_coordinate_system_code '2'
_symmetry_cell_setting 'orthorhombic'
loop_
_space_group_symop_operation_xyz
x,y,z
1/2-x,1/2-y,z
1/2+x,-y,-z
-x,1/2+y,-z
-x,-y,-z
1/2+x,1/2+y,-z
1/2-x,y,z
x,1/2-y,z
loop_
_atom_site_type_symbol
_atom_site_label
_atom_site_fract_x
_atom_site_fract_y
_atom_site_fract_z
Si Si1 0.546985 0.094596 0.124238
Si Si2 0.046178 0.250000 0.452806
Si Si3 0.951307 0.093063 0.958334
Si Si4 0.452390 0.402072 0.697093
Si Si5 0.544081 0.595306 0.202800
Si Si6 0.452863 0.750000 0.445099
Si Si7 0.452968 0.007151 0.393272
O O1 0.750000 0.103152 0.126754
O O2 0.485528 0.250000 0.119258
O O3 0.506588 0.993880 0.084048
O O4 0.485929 0.016652 0.168152
O O5 0.250000 0.250000 0.452973
O O6 0.984877 0.374305 0.424057
O O7 0.994040 0.250000 0.503468
O O8 0.750000 0.102454 0.957754
O O9 0.015231 0.250000 0.959542
O O10 0.000000 0.000000 0.000000
O O11 0.250000 0.397255 0.698554
O O12 0.513936 0.250000 0.686317
O O13 0.509589 0.433763 0.746847
O O14 0.501257 0.501365 0.657987
O O15 0.750000 0.594792 0.202036
O O16 0.493643 0.750000 0.191716
O O17 0.250000 0.750000 0.442068
O O18 0.518271 0.623669 0.418217
O O19 0.250000 0.008649 0.394878
#
# Coordination Sequence:
#
# PCOD9450335 Si02
#       7
#     8   4   8   8   8   4   8
#     4  10  20  35  57  85 116 150 187 228 278 332
#     4  10  22  36  50  72 102 134 164 204 259 314
#     4  11  24  40  59  85 116 151 193 237 280 329
#     4   9  17  31  53  79 103 133 176 219 258 308
#     4   8  15  30  52  77 106 139 177 222 268 314
#     4  10  20  34  54  74  96 128 170 212 253 306
#     4  10  20  35  52  73 102 133 166 209 259 311
#
# _framework density 20.087769000000002
#
# number of rings (size 3 to 8) (size 9 to 14) (size 15 to 20)
#    0.000    2.333    0.833    3.000    0.000    5.667 
#    1.500    0.833    0.000    1.000    0.000    0.000 
#    0.000    0.000    0.000    0.000    0.000    0.000 
#
# Total GULP energy -267632.875037 kJ/mol
# GULP energy per Si atom -5575.684897 kJ/mol
# Density = 2.004205 g / cm^3
# Si number density = 20.087769 Si / 1000 Ang^3
#
#
#
# Elastic Constant Matrix: (Units=GPa)
#
#
# Indices 1 2 3 4 5 6 
#
# 1 18.6031 11.6402 0.7965 0.0000 0.0000 0.0000
# 2 11.6402 162.8333 82.6839 0.0000 0.0000 0.0000
# 3 0.7965 82.6839 157.6763 0.0000 0.0000 0.0000
# 4 0.0000 0.0000 0.0000 -46.3790 0.0000 0.0000
# 5 0.0000 0.0000 0.0000 0.0000 21.7599 0.0000
# 6 0.0000 0.0000 0.0000 0.0000 0.0000 0.6957
#
#
#
# Elastic Compliance Matrix: (Units=1/GPa)
#
#
# Indices 1 2 3 4 5 6 
#
# 1 0.056997 -0.005354 0.002520 0.000000 0.000000 0.000000
# 2 -0.005354 0.008873 -0.004626 0.000000 0.000000 0.000000
# 3 0.002520 -0.004626 0.008755 0.000000 0.000000 0.000000
# 4 0.000000 0.000000 0.000000 -0.021561 0.000000 0.000000
# 5 0.000000 0.000000 0.000000 0.000000 0.045956 0.000000
# 6 0.000000 0.000000 0.000000 0.000000 0.000000 1.437487
#
#
# Mechanical properties :
#
#
# Convention : Reuss Voigt Hill
#
# Bulk Modulus (GPa) = 16.74916 58.81709 37.78313
# Shear Modulus (GPa) = 3.18202 11.48145 7.33174
#
# Velocity S-wave (km/s) = 1.25996 2.39333 1.91253
# Velocity P-wave (km/s) = 3.23616 6.08120 4.87103
#
# Compressibility (1/GPa) = 0.05970450
#
# Stress axis : x y z
#
# Youngs Moduli (GPa) = 17.54490 112.70321 114.21921
#
# Poissons Ratio (x) = 0.60339 -0.28778
# Poissons Ratio (y) = 0.09393 0.52835
# Poissons Ratio (z) = -0.04421 0.52134
#
# Static dielectric constant tensor:
#      x y z
#    x 1.728360 0.000000 0.000000 
#    y 0.000000 1.697570 0.000000 
#    z 0.000000 0.000000 1.691870 
# 
# From -- ./inp_files/33057.got.cif
#   From: 2010.05.17/outbox.cif.g08.bks.cpg/sg59_17_cif.got.tgz:33057.got - 2010.06.03 14:40:33.
