data_PCOD9450747
_publ_section_title
;
Structure prediction by ZEFSAII (Michael W. Deem and Ramdas Pophale) SiO2 
 PCOD9450747
Probable space group: P M M N
;
_chemical_formula_sum "Si O2"
_cell_formula_units_Z 64
_cell_length_a 18.506564
_cell_length_b 31.994665
_cell_length_c 5.349490
_cell_angle_alpha 90.000000
_cell_angle_beta 90.000000
_cell_angle_gamma 90.000000
_cell_volume 3167.493561
_symmetry_space_group_name_H-M "P M M N"
_symmetry_group_IT_number 59
_space_group.IT_coordinate_system_code '2'
_symmetry_cell_setting 'orthorhombic'
loop_
_space_group_symop_operation_xyz
x,y,z
1/2-x,1/2-y,z
1/2+x,-y,-z
-x,1/2+y,-z
-x,-y,-z
1/2+x,1/2+y,-z
1/2-x,y,z
x,1/2-y,z
loop_
_atom_site_type_symbol
_atom_site_label
_atom_site_fract_x
_atom_site_fract_y
_atom_site_fract_z
Si Si1 0.960965 0.333740 0.169011
Si Si2 0.421711 0.017842 0.448332
Si Si3 0.076854 0.100006 0.217348
Si Si4 0.531250 0.701088 0.320396
Si Si5 0.164660 0.607777 0.726291
Si Si6 0.330630 0.353137 0.567092
Si Si7 0.670565 0.556341 0.168316
Si Si8 0.836111 0.054445 0.771231
O O1 0.880984 0.350121 0.224872
O O2 0.007200 0.376153 0.130946
O O3 0.992717 0.312283 0.419820
O O4 0.980006 0.308262 0.918357
O O5 0.439986 0.067738 0.436653
O O6 0.358116 0.019952 0.655284
O O7 0.500000 0.000000 0.500000
O O8 0.384896 0.986890 0.247382
O O9 0.136891 0.134027 0.296550
O O10 0.111363 0.066977 0.033574
O O11 0.548339 0.750000 0.327263
O O12 0.606258 0.674479 0.308101
O O13 0.250000 0.616665 0.712953
O O14 0.144463 0.584355 0.466667
O O15 0.152285 0.578136 0.966913
O O16 0.250000 0.334512 0.557536
O O17 0.323342 0.398507 0.694838
O O18 0.750000 0.546612 0.065107
O O19 0.750000 0.045204 0.750378
#
# Coordination Sequence:
#
# PCOD9450747 Si02
#       8
#     8   8   8   8   8   8   8   8
#     4  11  22  41  66  88 123 156 199 246 292 360
#     4  11  24  35  51  79 116 155 203 256 303 353
#     4  10  21  35  58  81 110 159 205 247 294 350
#     4  11  23  40  64  96 125 157 189 236 304 360
#     4  10  22  40  65  88 115 157 205 248 301 362
#     4   9  19  37  57  84 117 153 198 242 282 349
#     4  10  20  35  54  77 107 151 201 242 293 345
#     4  10  22  39  56  85 121 157 201 258 309 349
#
# _framework density 20.205251000000001
#
# number of rings (size 3 to 8) (size 9 to 14) (size 15 to 20)
#    0.000    1.750    1.250    2.625    3.500    2.250 
#    0.000    0.000    0.000    3.750    0.000    0.000 
#    0.000    0.000    0.000    0.000    0.000    0.000 
#
# Total GULP energy -356656.821370 kJ/mol
# GULP energy per Si atom -5572.762834 kJ/mol
# Density = 2.015926 g / cm^3
# Si number density = 20.205251 Si / 1000 Ang^3
#
#
#
# Elastic Constant Matrix: (Units=GPa)
#
#
# Indices 1 2 3 4 5 6 
#
# 1 69.7613 37.7799 15.5620 0.0000 0.0000 0.0000
# 2 37.7799 69.9476 24.3620 0.0000 0.0000 0.0000
# 3 15.5620 24.3620 73.3871 0.0000 0.0000 0.0000
# 4 0.0000 0.0000 0.0000 20.9342 0.0000 0.0000
# 5 0.0000 0.0000 0.0000 0.0000 12.1501 0.0000
# 6 0.0000 0.0000 0.0000 0.0000 0.0000 47.9394
#
#
#
# Elastic Compliance Matrix: (Units=1/GPa)
#
#
# Indices 1 2 3 4 5 6 
#
# 1 0.020298 -0.010701 -0.000752 0.000000 0.000000 0.000000
# 2 -0.010701 0.021807 -0.004970 0.000000 0.000000 0.000000
# 3 -0.000752 -0.004970 0.015436 0.000000 0.000000 0.000000
# 4 0.000000 0.000000 0.000000 0.047769 0.000000 0.000000
# 5 0.000000 0.000000 0.000000 0.000000 0.082304 0.000000
# 6 0.000000 0.000000 0.000000 0.000000 0.000000 0.020860
#
#
# Mechanical properties :
#
#
# Convention : Reuss Voigt Hill
#
# Bulk Modulus (GPa) = 40.49475 40.94486 40.71980
# Shear Modulus (GPa) = 20.03598 25.23088 22.63343
#
# Velocity S-wave (km/s) = 3.15242 3.53757 3.35053
# Velocity P-wave (km/s) = 5.77369 6.08230 5.93000
#
# Compressibility (1/GPa) = 0.02469456
#
# Stress axis : x y z
#
# Youngs Moduli (GPa) = 49.26669 45.85593 64.78505
#
# Poissons Ratio (x) = 0.49072 0.04870
# Poissons Ratio (y) = 0.52722 0.32199
# Poissons Ratio (z) = 0.03703 0.22791
#
# Static dielectric constant tensor:
#      x y z
#    x 1.691560 0.000000 0.000000 
#    y 0.000000 1.687440 0.000000 
#    z 0.000000 0.000000 1.793860 
# 
# From -- ./inp_files/3033.got.cif
#   From: 2010.05.17/outbox.cif.g08.bks.cpg/sg59_2_cif.got.tgz:3033.got - 2010.06.03 14:40:33.
