data_PCOD9450371
_publ_section_title
;
Structure prediction by ZEFSAII (Michael W. Deem and Ramdas Pophale) SiO2 
 PCOD9450371
Probable space group: P M M N
;
_chemical_formula_sum "Si O2"
_cell_formula_units_Z 56
_cell_length_a 14.616908
_cell_length_b 8.740150
_cell_length_c 23.399262
_cell_angle_alpha 90.000000
_cell_angle_beta 90.000000
_cell_angle_gamma 90.000000
_cell_volume 2989.348579
_symmetry_space_group_name_H-M "P M M N"
_symmetry_group_IT_number 59
_space_group.IT_coordinate_system_code '2'
_symmetry_cell_setting 'orthorhombic'
loop_
_space_group_symop_operation_xyz
x,y,z
1/2-x,1/2-y,z
1/2+x,-y,-z
-x,1/2+y,-z
-x,-y,-z
1/2+x,1/2+y,-z
1/2-x,y,z
x,1/2-y,z
loop_
_atom_site_type_symbol
_atom_site_label
_atom_site_fract_x
_atom_site_fract_y
_atom_site_fract_z
Si Si1 0.858454 0.070254 0.529641
Si Si2 0.855110 0.567175 0.404904
Si Si3 0.347529 0.064816 0.895283
Si Si4 0.052967 0.566389 0.135693
Si Si5 0.596798 0.567072 0.980374
Si Si6 0.356644 0.434759 0.249167
Si Si7 0.465775 0.066960 0.363192
O O1 0.750000 0.053464 0.541699
O O2 0.879055 0.250000 0.523185
O O3 0.876205 0.987022 0.469575
O O4 0.915431 0.001000 0.581385
O O5 0.750000 0.521484 0.392602
O O6 0.861172 0.750000 0.402130
O O7 0.930556 0.492923 0.364353
O O8 0.250000 0.010416 0.870120
O O9 0.349180 0.250000 0.889945
O O10 0.446285 0.012512 0.871299
O O11 0.345441 0.030953 0.963195
O O12 0.052813 0.750000 0.133648
O O13 0.111598 0.505163 0.081651
O O14 0.096087 0.507006 0.193971
O O15 0.405290 0.250000 0.025693
O O16 0.500000 0.500000 0.000000
O O17 0.250000 0.478953 0.252987
O O18 0.360531 0.250000 0.244528
O O19 0.410850 0.479450 0.306474
O O20 0.465030 0.250000 0.367044
#
# Coordination Sequence:
#
# PCOD9450371 Si02
#       7
#     8   8   8   8   8   8   8
#     4  10  20  34  55  84 116 148 182 222 270 323
#     4  10  21  37  57  82 113 147 182 220 265 322
#     4   8  15  29  50  77 107 139 174 210 254 312
#     4  10  20  34  54  79 107 140 178 224 273 318
#     4   9  16  28  49  75 105 141 179 219 263 312
#     4  10  23  42  60  77 101 138 180 220 268 326
#     4  11  22  37  58  81 108 142 182 229 277 326
#
# _framework density 18.733179
#
# number of rings (size 3 to 8) (size 9 to 14) (size 15 to 20)
#    0.000    2.286    0.000    3.857    0.000    4.286 
#    0.000    2.143    0.000   17.571    0.000    0.000 
#    0.000    0.000    0.000    0.000    0.000    0.000 
#
# Total GULP energy -312332.873334 kJ/mol
# GULP energy per Si atom -5577.372738 kJ/mol
# Density = 1.869054 g / cm^3
# Si number density = 18.733179 Si / 1000 Ang^3
#
#
#
# Elastic Constant Matrix: (Units=GPa)
#
#
# Indices 1 2 3 4 5 6 
#
# 1 124.1070 36.7993 79.4647 0.0000 0.0000 0.0000
# 2 36.7993 33.8635 26.0168 0.0000 0.0000 0.0000
# 3 79.4647 26.0168 85.0502 0.0000 0.0000 0.0000
# 4 0.0000 0.0000 0.0000 28.9889 0.0000 0.0000
# 5 0.0000 0.0000 0.0000 0.0000 20.3460 0.0000
# 6 0.0000 0.0000 0.0000 0.0000 0.0000 23.9197
#
#
#
# Elastic Compliance Matrix: (Units=1/GPa)
#
#
# Indices 1 2 3 4 5 6 
#
# 1 0.022811 -0.010999 -0.017949 0.000000 0.000000 0.000000
# 2 -0.010999 0.043906 -0.003154 0.000000 0.000000 0.000000
# 3 -0.017949 -0.003154 0.029492 0.000000 0.000000 0.000000
# 4 0.000000 0.000000 0.000000 0.034496 0.000000 0.000000
# 5 0.000000 0.000000 0.000000 0.000000 0.049150 0.000000
# 6 0.000000 0.000000 0.000000 0.000000 0.000000 0.041807
#
#
# Mechanical properties :
#
#
# Convention : Reuss Voigt Hill
#
# Bulk Modulus (GPa) = 31.24371 58.62025 44.93198
# Shear Modulus (GPa) = 16.86143 21.36692 19.11418
#
# Velocity S-wave (km/s) = 3.00339 3.38093 3.19774
# Velocity P-wave (km/s) = 5.36112 6.82650 6.13770
#
# Compressibility (1/GPa) = 0.03200644
#
# Stress axis : x y z
#
# Youngs Moduli (GPa) = 43.83779 22.77571 33.90708
#
# Poissons Ratio (x) = 0.25052 0.60858
# Poissons Ratio (y) = 0.48219 0.10694
# Poissons Ratio (z) = 0.78683 0.07183
#
# Static dielectric constant tensor:
#      x y z
#    x 1.693140 0.000000 0.000000 
#    y 0.000000 1.639040 0.000000 
#    z 0.000000 0.000000 1.627030 
# 
# From -- ./inp_files/30340.got.cif
#   From: 2010.05.17/outbox.cif.g08.bks.cpg/sg59_16_cif.got.tgz:30340.got - 2010.06.03 14:40:33.
