data_PCOD9450458
_publ_section_title
;
Structure prediction by ZEFSAII (Michael W. Deem and Ramdas Pophale) SiO2 
 PCOD9450458
Probable space group: P M M N
;
_chemical_formula_sum "Si O2"
_cell_formula_units_Z 56
_cell_length_a 8.623548
_cell_length_b 14.721733
_cell_length_c 24.367422
_cell_angle_alpha 90.000000
_cell_angle_beta 90.000000
_cell_angle_gamma 90.000000
_cell_volume 3093.531243
_symmetry_space_group_name_H-M "P M M N"
_symmetry_group_IT_number 59
_space_group.IT_coordinate_system_code '2'
_symmetry_cell_setting 'orthorhombic'
loop_
_space_group_symop_operation_xyz
x,y,z
1/2-x,1/2-y,z
1/2+x,-y,-z
-x,1/2+y,-z
-x,-y,-z
1/2+x,1/2+y,-z
1/2-x,y,z
x,1/2-y,z
loop_
_atom_site_type_symbol
_atom_site_label
_atom_site_fract_x
_atom_site_fract_y
_atom_site_fract_z
Si Si1 0.932322 0.855718 0.977595
Si Si2 0.563016 0.355205 0.235490
Si Si3 0.565141 0.146914 0.901049
Si Si4 0.937267 0.568475 0.655764
Si Si5 0.936474 0.054088 0.553794
Si Si6 0.937903 0.750000 0.595325
Si Si7 0.436720 0.250000 0.531151
Si Si8 0.564623 0.039808 0.125953
O O1 0.750000 0.872275 0.986868
O O2 0.952511 0.750000 0.961011
O O3 0.994307 0.919549 0.929798
O O4 0.019772 0.867442 0.035153
O O5 0.750000 0.353187 0.237102
O O6 0.508285 0.250000 0.242288
O O7 0.504264 0.421625 0.283526
O O8 0.515481 0.397291 0.177030
O O9 0.750000 0.142459 0.895482
O O10 0.514083 0.250000 0.886551
O O11 0.489226 0.064281 0.868166
O O12 0.750000 0.567168 0.659712
O O13 0.982573 0.492107 0.611674
O O14 0.989980 0.661065 0.626333
O O15 0.750000 0.050883 0.550046
O O16 0.997051 0.156657 0.554400
O O17 0.000000 0.000000 0.500000
O O18 0.750000 0.750000 0.595693
O O19 0.985190 0.750000 0.532642
O O20 0.250000 0.250000 0.534479
O O21 0.750000 0.042677 0.122103
#
# Coordination Sequence:
#
# PCOD9450458 Si02
#       8
#     8   8   8   8   8   4   4   8
#     4  10  20  34  54  82 114 146 182 221 267 326
#     4  10  22  38  56  82 112 142 180 225 272 325
#     4  10  21  37  57  80 107 141 183 228 274 325
#     4  10  20  36  57  80 111 147 183 225 272 327
#     4  11  22  36  56  85 117 151 189 229 280 336
#     4   9  16  31  53  81 113 145 179 218 269 324
#     4  11  21  37  57  83 119 151 185 232 281 332
#     4  11  22  36  55  79 112 147 179 224 277 325
#
# _framework density 18.10229
#
# number of rings (size 3 to 8) (size 9 to 14) (size 15 to 20)
#    0.000    1.714    2.143    2.786    0.000    4.571 
#    0.000    0.000    1.571    0.000    0.000    0.000 
#    0.000    0.000    0.000    0.000    0.000    0.000 
#
# Total GULP energy -312568.140560 kJ/mol
# GULP energy per Si atom -5581.573939 kJ/mol
# Density = 1.806109 g / cm^3
# Si number density = 18.102290 Si / 1000 Ang^3
#
#
#
# Elastic Constant Matrix: (Units=GPa)
#
#
# Indices 1 2 3 4 5 6 
#
# 1 28.2132 19.4298 6.4380 0.0000 0.0000 0.0000
# 2 19.4298 104.0648 34.0378 0.0000 0.0000 0.0000
# 3 6.4380 34.0378 49.7820 0.0000 0.0000 0.0000
# 4 0.0000 0.0000 0.0000 31.1921 0.0000 0.0000
# 5 0.0000 0.0000 0.0000 0.0000 26.5930 0.0000
# 6 0.0000 0.0000 0.0000 0.0000 0.0000 9.8115
#
#
#
# Elastic Compliance Matrix: (Units=1/GPa)
#
#
# Indices 1 2 3 4 5 6 
#
# 1 0.040675 -0.007566 -0.000087 0.000000 0.000000 0.000000
# 2 -0.007566 0.013785 -0.008447 0.000000 0.000000 0.000000
# 3 -0.000087 -0.008447 0.025874 0.000000 0.000000 0.000000
# 4 0.000000 0.000000 0.000000 0.032059 0.000000 0.000000
# 5 0.000000 0.000000 0.000000 0.000000 0.037604 0.000000
# 6 0.000000 0.000000 0.000000 0.000000 0.000000 0.101921
#
#
# Mechanical properties :
#
#
# Convention : Reuss Voigt Hill
#
# Bulk Modulus (GPa) = 20.77522 33.54124 27.15823
# Shear Modulus (GPa) = 16.65768 21.66295 19.16031
#
# Velocity S-wave (km/s) = 3.03677 3.46308 3.25691
# Velocity P-wave (km/s) = 4.87826 5.87874 5.40171
#
# Compressibility (1/GPa) = 0.04813427
#
# Stress axis : x y z
#
# Youngs Moduli (GPa) = 24.58533 72.54370 38.64852
#
# Poissons Ratio (x) = 0.54885 0.00337
# Poissons Ratio (y) = 0.18601 0.32645
# Poissons Ratio (z) = 0.00214 0.61276
#
# Static dielectric constant tensor:
#      x y z
#    x 1.614810 0.000000 0.000000 
#    y 0.000000 1.643570 0.000000 
#    z 0.000000 0.000000 1.612500 
# 
# From -- ./inp_files/29258.got.cif
#   From: 2010.05.17/outbox.cif.g08.bks.cpg/sg59_15_cif.got.tgz:29258.got - 2010.06.03 14:40:33.
