data_PCOD9450841
_publ_section_title
;
Structure prediction by ZEFSAII (Michael W. Deem and Ramdas Pophale) SiO2 
 PCOD9450841
Probable space group: P M M N
;
_chemical_formula_sum "Si O2"
_cell_formula_units_Z 64
_cell_length_a 13.933777
_cell_length_b 24.147273
_cell_length_c 9.890670
_cell_angle_alpha 90.000000
_cell_angle_beta 90.000000
_cell_angle_gamma 90.000000
_cell_volume 3327.841703
_symmetry_space_group_name_H-M "P M M N"
_symmetry_group_IT_number 59
_space_group.IT_coordinate_system_code '2'
_symmetry_cell_setting 'orthorhombic'
loop_
_space_group_symop_operation_xyz
x,y,z
1/2-x,1/2-y,z
1/2+x,-y,-z
-x,1/2+y,-z
-x,-y,-z
1/2+x,1/2+y,-z
1/2-x,y,z
x,1/2-y,z
loop_
_atom_site_type_symbol
_atom_site_label
_atom_site_fract_x
_atom_site_fract_y
_atom_site_fract_z
Si Si1 0.021904 0.314111 0.094814
Si Si2 0.639159 0.905463 0.281012
Si Si3 0.850785 0.313223 0.281314
Si Si4 0.983281 0.313467 0.790538
Si Si5 0.970425 0.561471 0.537416
Si Si6 0.446157 0.430585 0.144180
Si Si7 0.857763 0.139016 0.562382
Si Si8 0.361967 0.992316 0.924845
O O1 0.057367 0.250000 0.115387
O O2 0.087449 0.369136 0.095842
O O3 0.947953 0.331346 0.212329
O O4 0.968168 0.313819 0.951160
O O5 0.750000 0.890859 0.264963
O O6 0.570887 0.855080 0.237853
O O7 0.612907 0.919271 0.435717
O O8 0.620585 0.960100 0.189505
O O9 0.750000 0.342032 0.243354
O O10 0.844912 0.250000 0.236541
O O11 0.856302 0.315976 0.442523
O O12 0.005039 0.250000 0.751074
O O13 0.895582 0.335822 0.701677
O O14 0.064522 0.596595 0.496299
O O15 0.000000 0.500000 0.500000
O O16 0.942810 0.565453 0.694077
O O17 0.556187 0.445855 0.098040
O O18 0.383716 0.476981 0.066835
O O19 0.750000 0.116405 0.575618
O O20 0.250000 0.975068 0.916605
#
# Coordination Sequence:
#
# PCOD9450841 Si02
#       8
#     8   8   8   8   8   8   8   8
#     4  10  20  35  55  83 113 149 190 235 290 346
#     4  10  21  39  59  84 115 147 195 244 288 344
#     4   9  17  30  49  76 108 144 186 224 270 336
#     4  10  21  37  58  83 115 151 190 238 295 350
#     4  11  22  37  57  86 117 152 195 245 299 347
#     4  11  21  39  62  85 121 154 193 247 295 352
#     4  10  21  35  55  82 114 153 192 235 287 350
#     4  10  22  38  62  88 116 154 195 239 294 351
#
# _framework density 19.231683
#
# number of rings (size 3 to 8) (size 9 to 14) (size 15 to 20)
#    0.000    1.875    3.750    0.375    0.000    3.500 
#    0.000    2.500    0.000    0.375    0.000    0.000 
#    0.000    0.000    0.000    0.000    0.000    0.000 
#
# Total GULP energy -356467.696954 kJ/mol
# GULP energy per Si atom -5569.807765 kJ/mol
# Density = 1.918791 g / cm^3
# Si number density = 19.231683 Si / 1000 Ang^3
#
#
#
# Elastic Constant Matrix: (Units=GPa)
#
#
# Indices 1 2 3 4 5 6 
#
# 1 53.1924 1.4524 0.7355 0.0000 0.0000 0.0000
# 2 1.4524 81.6056 13.3520 0.0000 0.0000 0.0000
# 3 0.7355 13.3520 107.8826 0.0000 0.0000 0.0000
# 4 0.0000 0.0000 0.0000 25.5651 0.0000 0.0000
# 5 0.0000 0.0000 0.0000 0.0000 11.5539 0.0000
# 6 0.0000 0.0000 0.0000 0.0000 0.0000 10.7256
#
#
#
# Elastic Compliance Matrix: (Units=1/GPa)
#
#
# Indices 1 2 3 4 5 6 
#
# 1 0.018810 -0.000320 -0.000089 0.000000 0.000000 0.000000
# 2 -0.000320 0.012513 -0.001546 0.000000 0.000000 0.000000
# 3 -0.000089 -0.001546 0.009461 0.000000 0.000000 0.000000
# 4 0.000000 0.000000 0.000000 0.039116 0.000000 0.000000
# 5 0.000000 0.000000 0.000000 0.000000 0.086551 0.000000
# 6 0.000000 0.000000 0.000000 0.000000 0.000000 0.093235
#
#
# Mechanical properties :
#
#
# Convention : Reuss Voigt Hill
#
# Bulk Modulus (GPa) = 27.12003 30.41783 28.76893
# Shear Modulus (GPa) = 18.12332 24.71161 21.41746
#
# Velocity S-wave (km/s) = 3.07313 3.58850 3.34077
# Velocity P-wave (km/s) = 5.16958 5.74636 5.46558
#
# Compressibility (1/GPa) = 0.03687312
#
# Stress axis : x y z
#
# Youngs Moduli (GPa) = 53.16418 79.91823 105.69330
#
# Poissons Ratio (x) = 0.02560 0.00936
# Poissons Ratio (y) = 0.01703 0.16345
# Poissons Ratio (z) = 0.00471 0.12359
#
# Static dielectric constant tensor:
#      x y z
#    x 1.712790 0.000000 0.000000 
#    y 0.000000 1.769780 0.000000 
#    z 0.000000 0.000000 1.476890 
# 
# From -- ./inp_files/9563.got.cif
#   From: 2010.05.17/outbox.cif.g08.bks.cpg/sg59_5_cif.got.tgz:9563.got - 2010.06.03 14:40:33.
