data_PCOD9450099
_publ_section_title
;
Structure prediction by ZEFSAII (Michael W. Deem and Ramdas Pophale) SiO2 
 PCOD9450099
Probable space group: P M M N
;
_chemical_formula_sum "Si O2"
_cell_formula_units_Z 56
_cell_length_a 28.564076
_cell_length_b 19.304704
_cell_length_c 5.341007
_cell_angle_alpha 90.000000
_cell_angle_beta 90.000000
_cell_angle_gamma 90.000000
_cell_volume 2945.143593
_symmetry_space_group_name_H-M "P M M N"
_symmetry_group_IT_number 59
_space_group.IT_coordinate_system_code '2'
_symmetry_cell_setting 'orthorhombic'
loop_
_space_group_symop_operation_xyz
x,y,z
1/2-x,1/2-y,z
1/2+x,-y,-z
-x,1/2+y,-z
-x,-y,-z
1/2+x,1/2+y,-z
1/2-x,y,z
x,1/2-y,z
loop_
_atom_site_type_symbol
_atom_site_label
_atom_site_fract_x
_atom_site_fract_y
_atom_site_fract_z
Si Si1 0.400150 0.141755 0.341936
Si Si2 0.156118 0.174294 0.848045
Si Si3 0.695466 0.523237 0.171937
Si Si4 0.562344 0.430440 0.418298
Si Si5 0.477915 0.447975 0.800607
Si Si6 0.640491 0.008799 0.679882
Si Si7 0.503033 0.670042 0.845006
O O1 0.374766 0.163375 0.597678
O O2 0.392481 0.059594 0.297545
O O3 0.454483 0.162688 0.353626
O O4 0.375266 0.174113 0.099076
O O5 0.179387 0.250000 0.830162
O O6 0.188305 0.106185 0.863678
O O7 0.750000 0.506228 0.157040
O O8 0.675204 0.504504 0.445896
O O9 0.667346 0.486890 0.943585
O O10 0.516657 0.439112 0.589185
O O11 0.566282 0.505506 0.279331
O O12 0.607303 0.427523 0.595538
O O13 0.544994 0.368650 0.238677
O O14 0.500000 0.500000 0.000000
O O15 0.474142 0.374366 0.930614
O O16 0.495028 0.750000 0.901409
#
# Coordination Sequence:
#
# PCOD9450099 Si02
#       7
#     8   8   8   8   8   8   8
#     4  10  21  34  50  76 108 149 195 230 264 308
#     4  10  20  34  51  73 105 147 190 225 272 333
#     4  10  22  37  56  82 107 134 176 239 300 338
#     4  10  21  35  54  78 105 149 196 228 278 334
#     4   9  19  33  52  74 108 142 201 231 259 315
#     4  10  21  36  60  78 107 143 184 235 277 338
#     4  11  23  34  51  79 118 153 189 238 277 322
#
# _framework density 19.014353
#
# number of rings (size 3 to 8) (size 9 to 14) (size 15 to 20)
#    0.000    2.000    0.000    4.286   12.000    0.857 
#    0.000    0.000    0.000    5.143    0.000    0.000 
#    0.000    3.429    0.000    0.000    0.000    0.000 
#
# Total GULP energy -312223.036974 kJ/mol
# GULP energy per Si atom -5575.411375 kJ/mol
# Density = 1.897108 g / cm^3
# Si number density = 19.014353 Si / 1000 Ang^3
#
#
#
# Elastic Constant Matrix: (Units=GPa)
#
#
# Indices 1 2 3 4 5 6 
#
# 1 49.5504 25.1393 5.1251 0.0000 0.0000 0.0000
# 2 25.1393 80.8302 22.8524 0.0000 0.0000 0.0000
# 3 5.1251 22.8524 92.7097 0.0000 0.0000 0.0000
# 4 0.0000 0.0000 0.0000 -0.7556 0.0000 0.0000
# 5 0.0000 0.0000 0.0000 0.0000 23.1827 0.0000
# 6 0.0000 0.0000 0.0000 0.0000 0.0000 8.4957
#
#
#
# Elastic Compliance Matrix: (Units=1/GPa)
#
#
# Indices 1 2 3 4 5 6 
#
# 1 0.023989 -0.007617 0.000551 0.000000 0.000000 0.000000
# 2 -0.007617 0.015717 -0.003453 0.000000 0.000000 0.000000
# 3 0.000551 -0.003453 0.011607 0.000000 0.000000 0.000000
# 4 0.000000 0.000000 0.000000 -1.323379 0.000000 0.000000
# 5 0.000000 0.000000 0.000000 0.000000 0.043136 0.000000
# 6 0.000000 0.000000 0.000000 0.000000 0.000000 0.117707
#
#
# Mechanical properties :
#
#
# Convention : Reuss Voigt Hill
#
# Bulk Modulus (GPa) = 33.02973 36.59156 34.81064
# Shear Modulus (GPa) = -4.62922 17.51612 6.44345
#
# Velocity S-wave (km/s) = -1.56201 3.03843 1.84285
# Velocity P-wave (km/s) = 3.76238 5.62097 4.78283
#
# Compressibility (1/GPa) = 0.03027576
#
# Stress axis : x y z
#
# Youngs Moduli (GPa) = 41.68616 63.62635 86.15469
#
# Poissons Ratio (x) = 0.48462 -0.04750
# Poissons Ratio (y) = 0.31751 0.29749
# Poissons Ratio (z) = -0.02298 0.21970
#
# Static dielectric constant tensor:
#      x y z
#    x 1.696340 0.000000 0.000000 
#    y 0.000000 1.693500 0.000000 
#    z 0.000000 0.000000 1.772560 
# 
# From -- ./inp_files/4294.got.cif
#   From: 2010.05.17/outbox.cif.g08.bks.cpg/sg59_3_cif.got.tgz:4294.got - 2010.06.03 14:40:33.
