data_PCOD9450232
_publ_section_title
;
Structure prediction by ZEFSAII (Michael W. Deem and Ramdas Pophale) SiO2 
 PCOD9450232
Probable space group: P M M N
;
_chemical_formula_sum "Si O2"
_cell_formula_units_Z 64
_cell_length_a 20.463320
_cell_length_b 8.660779
_cell_length_c 20.769742
_cell_angle_alpha 90.000000
_cell_angle_beta 90.000000
_cell_angle_gamma 90.000000
_cell_volume 3680.985903
_symmetry_space_group_name_H-M "P M M N"
_symmetry_group_IT_number 59
_space_group.IT_coordinate_system_code '2'
_symmetry_cell_setting 'orthorhombic'
loop_
_space_group_symop_operation_xyz
x,y,z
1/2-x,1/2-y,z
1/2+x,-y,-z
-x,1/2+y,-z
-x,-y,-z
1/2+x,1/2+y,-z
1/2-x,y,z
x,1/2-y,z
loop_
_atom_site_type_symbol
_atom_site_label
_atom_site_fract_x
_atom_site_fract_y
_atom_site_fract_z
Si Si1 0.675150 0.938109 0.927445
Si Si2 0.425695 0.063031 0.181410
Si Si3 0.927297 0.435271 0.325173
Si Si4 0.071586 0.564607 0.322687
Si Si5 0.674740 0.063747 0.568673
Si Si6 0.325049 0.063879 0.926468
Si Si7 0.424232 0.935489 0.822145
Si Si8 0.674403 0.934846 0.427576
O O1 0.750000 0.985269 0.914138
O O2 0.674360 0.750000 0.927106
O O3 0.624616 0.989879 0.873225
O O4 0.658128 0.986078 0.000418
O O5 0.423627 0.250000 0.185199
O O6 0.500433 0.019035 0.165049
O O7 0.410524 0.997254 0.251878
O O8 0.930645 0.250000 0.327097
O O9 0.909607 0.481790 0.251721
O O10 0.874585 0.495055 0.375665
O O11 0.999475 0.501267 0.338629
O O12 0.069459 0.750000 0.321231
O O13 0.124489 0.515671 0.375934
O O14 0.750000 0.021105 0.583963
O O15 0.672017 0.250000 0.563350
O O16 0.658110 0.992726 0.499380
O O17 0.250000 0.015612 0.913629
O O18 0.326241 0.250000 0.925721
O O19 0.374620 0.003153 0.873551
O O20 0.420830 0.750000 0.825245
O O21 0.750000 0.980706 0.414834
O O22 0.670564 0.750000 0.425608
#
# Coordination Sequence:
#
# PCOD9450232 Si02
#       8
#     8   8   8   8   8   8   8   8
#     4   8  15  30  51  73  98 130 167 204 244 294
#     4   9  18  33  51  72 100 132 166 204 246 297
#     4  10  21  37  55  74 101 137 172 207 251 305
#     4  10  20  34  53  77 104 133 168 211 253 295
#     4   9  19  36  55  75 103 138 170 202 248 304
#     4   9  18  32  50  72  97 127 165 207 248 292
#     4   9  19  33  48  70  99 129 162 201 245 294
#     4  10  21  36  55  80 106 131 166 212 253 293
#
# _framework density 17.386647
#
# number of rings (size 3 to 8) (size 9 to 14) (size 15 to 20)
#    0.000    2.750    0.000    2.625    0.000    6.500 
#    0.000    3.125    0.000    0.750    0.000    0.000 
#    0.000    0.000    0.000    0.000    0.000    0.000 
#
# Total GULP energy -356905.169055 kJ/mol
# GULP energy per Si atom -5576.643266 kJ/mol
# Density = 1.734707 g / cm^3
# Si number density = 17.386647 Si / 1000 Ang^3
#
#
#
# Elastic Constant Matrix: (Units=GPa)
#
#
# Indices 1 2 3 4 5 6 
#
# 1 140.3992 37.1687 145.6219 0.0000 0.0000 0.0000
# 2 37.1687 21.2331 40.7309 0.0000 0.0000 0.0000
# 3 145.6219 40.7309 176.9394 0.0000 0.0000 0.0000
# 4 0.0000 0.0000 0.0000 28.4921 0.0000 0.0000
# 5 0.0000 0.0000 0.0000 0.0000 44.8544 0.0000
# 6 0.0000 0.0000 0.0000 0.0000 0.0000 22.0112
#
#
#
# Elastic Compliance Matrix: (Units=1/GPa)
#
#
# Indices 1 2 3 4 5 6 
#
# 1 0.051467 -0.015830 -0.038713 0.000000 0.000000 0.000000
# 2 -0.015830 0.089208 -0.007507 0.000000 0.000000 0.000000
# 3 -0.038713 -0.007507 0.039241 0.000000 0.000000 0.000000
# 4 0.000000 0.000000 0.000000 0.035098 0.000000 0.000000
# 5 0.000000 0.000000 0.000000 0.000000 0.022294 0.000000
# 6 0.000000 0.000000 0.000000 0.000000 0.000000 0.045431
#
#
# Mechanical properties :
#
#
# Convention : Reuss Voigt Hill
#
# Bulk Modulus (GPa) = 17.91648 87.29051 52.60350
# Shear Modulus (GPa) = 11.75239 26.74154 19.24697
#
# Velocity S-wave (km/s) = 2.60271 3.92605 3.33077
# Velocity P-wave (km/s) = 4.39992 8.41821 6.71661
#
# Compressibility (1/GPa) = 0.05581454
#
# Stress axis : x y z
#
# Youngs Moduli (GPa) = 19.42999 11.20977 25.48350
#
# Poissons Ratio (x) = 0.17745 0.98655
# Poissons Ratio (y) = 0.30758 0.19131
# Poissons Ratio (z) = 0.75220 0.08415
#
# Static dielectric constant tensor:
#      x y z
#    x 1.577320 0.000000 0.000000 
#    y 0.000000 1.589740 0.000000 
#    z 0.000000 0.000000 1.568940 
# 
# From -- ./inp_files/28230.got.cif
#   From: 2010.05.17/outbox.cif.g08.bks.cpg/sg59_15_cif.got.tgz:28230.got - 2010.06.03 14:40:33.
