data_PCOD9450515
_publ_section_title
;
Structure prediction by ZEFSAII (Michael W. Deem and Ramdas Pophale) SiO2 
 PCOD9450515
Probable space group: P M M N
;
_chemical_formula_sum "Si O2"
_cell_formula_units_Z 64
_cell_length_a 8.444889
_cell_length_b 19.202940
_cell_length_c 21.720411
_cell_angle_alpha 90.000000
_cell_angle_beta 90.000000
_cell_angle_gamma 90.000000
_cell_volume 3522.327304
_symmetry_space_group_name_H-M "P M M N"
_symmetry_group_IT_number 59
_space_group.IT_coordinate_system_code '2'
_symmetry_cell_setting 'orthorhombic'
loop_
_space_group_symop_operation_xyz
x,y,z
1/2-x,1/2-y,z
1/2+x,-y,-z
-x,1/2+y,-z
-x,-y,-z
1/2+x,1/2+y,-z
1/2-x,y,z
x,1/2-y,z
loop_
_atom_site_type_symbol
_atom_site_label
_atom_site_fract_x
_atom_site_fract_y
_atom_site_fract_z
Si Si1 0.060951 0.967810 0.692097
Si Si2 0.942663 0.671351 0.890840
Si Si3 0.441376 0.329415 0.250031
Si Si4 0.940717 0.966892 0.437210
Si Si5 0.559752 0.921420 0.003777
Si Si6 0.558733 0.672083 0.375499
Si Si7 0.439501 0.895073 0.249670
Si Si8 0.558303 0.169107 0.881223
O O1 0.250000 0.974273 0.694959
O O2 0.009633 0.890224 0.708417
O O3 0.009247 0.989771 0.623339
O O4 0.989543 0.024961 0.738880
O O5 0.750000 0.670368 0.890655
O O6 0.991622 0.750000 0.906727
O O7 0.991437 0.656815 0.820793
O O8 0.997575 0.618392 0.942394
O O9 0.250000 0.332070 0.252134
O O10 0.488311 0.250000 0.265766
O O11 0.750000 0.966872 0.438736
O O12 0.994420 0.887713 0.423056
O O13 0.000000 0.000000 0.500000
O O14 0.750000 0.921366 0.004072
O O15 0.501936 0.878720 0.063195
O O16 0.500000 0.000000 0.000000
O O17 0.750000 0.672606 0.376642
O O18 0.501219 0.750000 0.388537
O O19 0.507841 0.647842 0.307415
O O20 0.250000 0.890727 0.251812
O O21 0.492641 0.863244 0.184509
O O22 0.750000 0.168417 0.882227
O O23 0.507137 0.250000 0.887014
#
# Coordination Sequence:
#
# PCOD9450515 Si02
#       8
#     8   8   8   8   8   8   8   8
#     4  10  21  36  54  80 113 143 175 219 270 319
#     4   8  16  33  55  75  97 130 173 220 267 315
#     4   9  18  34  57  82 105 135 179 225 269 320
#     4   9  19  35  54  77 107 143 180 218 261 312
#     4  11  23  37  54  77 106 140 181 225 270 321
#     4   9  18  34  55  80 111 142 175 221 274 322
#     4  10  20  34  55  81 109 142 181 222 265 318
#     4  10  22  39  56  77 108 142 177 222 272 321
#
# _framework density 18.169806000000001
#
# number of rings (size 3 to 8) (size 9 to 14) (size 15 to 20)
#    0.000    2.500    0.000    3.375    1.750    5.250 
#    0.000    1.250    0.000    3.750    0.000    0.000 
#    0.000    0.000    0.000    0.000    0.000    0.000 
#
# Total GULP energy -357040.606788 kJ/mol
# GULP energy per Si atom -5578.759481 kJ/mol
# Density = 1.812845 g / cm^3
# Si number density = 18.169806 Si / 1000 Ang^3
#
#
#
# Elastic Constant Matrix: (Units=GPa)
#
#
# Indices 1 2 3 4 5 6 
#
# 1 12.6123 22.8477 17.3071 0.0000 0.0000 0.0000
# 2 22.8477 176.1827 101.8917 0.0000 0.0000 0.0000
# 3 17.3071 101.8917 101.3101 0.0000 0.0000 0.0000
# 4 0.0000 0.0000 0.0000 27.0654 0.0000 0.0000
# 5 0.0000 0.0000 0.0000 0.0000 27.6677 0.0000
# 6 0.0000 0.0000 0.0000 0.0000 0.0000 28.5905
#
#
#
# Elastic Compliance Matrix: (Units=1/GPa)
#
#
# Indices 1 2 3 4 5 6 
#
# 1 0.108061 -0.007977 -0.010437 0.000000 0.000000 0.000000
# 2 -0.007977 0.014156 -0.012875 0.000000 0.000000 0.000000
# 3 -0.010437 -0.012875 0.024602 0.000000 0.000000 0.000000
# 4 0.000000 0.000000 0.000000 0.036947 0.000000 0.000000
# 5 0.000000 0.000000 0.000000 0.000000 0.036143 0.000000
# 6 0.000000 0.000000 0.000000 0.000000 0.000000 0.034977
#
#
# Mechanical properties :
#
#
# Convention : Reuss Voigt Hill
#
# Bulk Modulus (GPa) = 11.87071 63.79978 37.83525
# Shear Modulus (GPa) = 14.46984 26.53531 20.50258
#
# Velocity S-wave (km/s) = 2.82506 3.82567 3.36279
# Velocity P-wave (km/s) = 4.14592 7.39619 5.99551
#
# Compressibility (1/GPa) = 0.08424096
#
# Stress axis : x y z
#
# Youngs Moduli (GPa) = 9.25403 70.63989 40.64643
#
# Poissons Ratio (x) = 0.56352 0.42424
# Poissons Ratio (y) = 0.07382 0.52331
# Poissons Ratio (z) = 0.09659 0.90947
#
# Static dielectric constant tensor:
#      x y z
#    x 1.631010 0.000000 0.000000 
#    y 0.000000 1.585540 0.000000 
#    z 0.000000 0.000000 1.602630 
# 
# From -- ./inp_files/29493.got.cif
#   From: 2010.05.17/outbox.cif.g08.bks.cpg/sg59_15_cif.got.tgz:29493.got - 2010.06.03 14:40:33.
