data_PCOD9450413
_publ_section_title
;
Structure prediction by ZEFSAII (Michael W. Deem and Ramdas Pophale) SiO2 
 PCOD9450413
Probable space group: P M M N
;
_chemical_formula_sum "Si O2"
_cell_formula_units_Z 40
_cell_length_a 8.794986
_cell_length_b 10.316984
_cell_length_c 25.078991
_cell_angle_alpha 90.000000
_cell_angle_beta 90.000000
_cell_angle_gamma 90.000000
_cell_volume 2275.610710
_symmetry_space_group_name_H-M "P M M N"
_symmetry_group_IT_number 59
_space_group.IT_coordinate_system_code '2'
_symmetry_cell_setting 'orthorhombic'
loop_
_space_group_symop_operation_xyz
x,y,z
1/2-x,1/2-y,z
1/2+x,-y,-z
-x,1/2+y,-z
-x,-y,-z
1/2+x,1/2+y,-z
1/2-x,y,z
x,1/2-y,z
loop_
_atom_site_type_symbol
_atom_site_label
_atom_site_fract_x
_atom_site_fract_y
_atom_site_fract_z
Si Si1 0.933661 0.496590 0.618216
Si Si2 0.924050 0.592796 0.154773
Si Si3 0.068073 0.902029 0.265341
Si Si4 0.433110 0.250000 0.556050
Si Si5 0.431524 0.599167 0.042533
Si Si6 0.432551 0.750000 0.562981
O O1 0.750000 0.498555 0.612739
O O2 0.970403 0.477430 0.680724
O O3 0.001177 0.375024 0.586273
O O4 0.007100 0.624552 0.594040
O O5 0.750000 0.551384 0.148711
O O6 0.927792 0.750000 0.157236
O O7 0.991509 0.548479 0.211200
O O8 0.017437 0.558568 0.102018
O O9 0.250000 0.906111 0.258317
O O10 0.026355 0.750000 0.273266
O O11 0.250000 0.250000 0.556501
O O12 0.495001 0.250000 0.495877
O O13 0.250000 0.597057 0.039088
O O14 0.481602 0.750000 0.034169
O O15 0.500000 0.500000 0.000000
O O16 0.250000 0.750000 0.559263
#
# Coordination Sequence:
#
# PCOD9450413 Si02
#       6
#     8   8   8   4   8   4
#     4  11  22  40  62  86 114 149 188 231 281 337
#     4   9  17  29  49  79 111 143 181 227 272 319
#     4   9  17  32  55  82 110 141 180 228 275 324
#     4  12  24  40  62  88 114 146 187 234 279 332
#     4  10  20  34  54  80 111 147 185 227 275 328
#     4  12  26  42  58  82 116 152 187 230 283 340
#
# _framework density 17.577698999999999
#
# number of rings (size 3 to 8) (size 9 to 14) (size 15 to 20)
#    0.000    1.800    1.000    4.200    0.000    5.200 
#    0.000    0.000    2.200    0.000    0.000    0.000 
#    0.000    0.000    0.000    0.000    0.000    0.000 
#
# Total GULP energy -223311.128336 kJ/mol
# GULP energy per Si atom -5582.778208 kJ/mol
# Density = 1.753769 g / cm^3
# Si number density = 17.577699 Si / 1000 Ang^3
#
#
#
# Elastic Constant Matrix: (Units=GPa)
#
#
# Indices 1 2 3 4 5 6 
#
# 1 93.2133 44.8468 71.0118 0.0000 0.0000 0.0000
# 2 44.8468 100.3754 70.6390 0.0000 0.0000 0.0000
# 3 71.0118 70.6390 173.8288 0.0000 0.0000 0.0000
# 4 0.0000 0.0000 0.0000 17.2369 0.0000 0.0000
# 5 0.0000 0.0000 0.0000 0.0000 37.8990 0.0000
# 6 0.0000 0.0000 0.0000 0.0000 0.0000 27.5142
#
#
#
# Elastic Compliance Matrix: (Units=1/GPa)
#
#
# Indices 1 2 3 4 5 6 
#
# 1 0.016492 -0.003679 -0.005242 0.000000 0.000000 0.000000
# 2 -0.003679 0.014774 -0.004501 0.000000 0.000000 0.000000
# 3 -0.005242 -0.004501 0.009723 0.000000 0.000000 0.000000
# 4 0.000000 0.000000 0.000000 0.058015 0.000000 0.000000
# 5 0.000000 0.000000 0.000000 0.000000 0.026386 0.000000
# 6 0.000000 0.000000 0.000000 0.000000 0.000000 0.036345
#
#
# Mechanical properties :
#
#
# Convention : Reuss Voigt Hill
#
# Bulk Modulus (GPa) = 70.69697 82.26809 76.48253
# Shear Modulus (GPa) = 25.86746 28.59134 27.22940
#
# Velocity S-wave (km/s) = 3.84031 4.03745 3.94012
# Velocity P-wave (km/s) = 7.74410 8.28485 8.01904
#
# Compressibility (1/GPa) = 0.01414488
#
# Stress axis : x y z
#
# Youngs Moduli (GPa) = 60.63647 67.68765 102.84788
#
# Poissons Ratio (x) = 0.24905 0.53912
# Poissons Ratio (y) = 0.22310 0.46287
# Poissons Ratio (z) = 0.31785 0.30463
#
# Static dielectric constant tensor:
#      x y z
#    x 1.591490 0.000000 0.000000 
#    y 0.000000 1.581490 0.000000 
#    z 0.000000 0.000000 1.586960 
# 
# From -- ./inp_files/32412.got.cif
#   From: 2010.05.17/outbox.cif.g08.bks.cpg/sg59_17_cif.got.tgz:32412.got - 2010.06.03 14:40:33.
