data_PCOD9450436
_publ_section_title
;
Structure prediction by ZEFSAII (Michael W. Deem and Ramdas Pophale) SiO2 
 PCOD9450436
Probable space group: P M M N
;
_chemical_formula_sum "Si O2"
_cell_formula_units_Z 40
_cell_length_a 7.465906
_cell_length_b 23.196747
_cell_length_c 9.930136
_cell_angle_alpha 90.000000
_cell_angle_beta 90.000000
_cell_angle_gamma 90.000000
_cell_volume 1719.747948
_symmetry_space_group_name_H-M "P M M N"
_symmetry_group_IT_number 59
_space_group.IT_coordinate_system_code '2'
_symmetry_cell_setting 'orthorhombic'
loop_
_space_group_symop_operation_xyz
x,y,z
1/2-x,1/2-y,z
1/2+x,-y,-z
-x,1/2+y,-z
-x,-y,-z
1/2+x,1/2+y,-z
1/2-x,y,z
x,1/2-y,z
loop_
_atom_site_type_symbol
_atom_site_label
_atom_site_fract_x
_atom_site_fract_y
_atom_site_fract_z
Si Si1 0.954685 0.592377 0.186802
Si Si2 0.032859 0.686266 0.404473
Si Si3 0.040140 0.186952 0.008193
Si Si4 0.965145 0.015927 0.344243
Si Si5 0.966591 0.146308 0.302371
O O1 0.750000 0.578902 0.146209
O O2 0.038454 0.631509 0.069090
O O3 0.035970 0.533138 0.242844
O O4 0.956065 0.635784 0.313525
O O5 0.250000 0.682292 0.397059
O O6 0.979375 0.750000 0.358306
O O7 0.980347 0.677161 0.559413
O O8 0.250000 0.188612 0.970229
O O9 0.962737 0.250000 0.974559
O O10 0.028387 0.176691 0.167058
O O11 0.750000 0.016292 0.331065
O O12 0.029046 0.080037 0.310731
O O13 0.000000 0.000000 0.500000
O O14 0.750000 0.146503 0.299326
#
# Coordination Sequence:
#
# PCOD9450436 Si02
#       5
#     8   8   8   8   8
#     4  10  21  37  58  83 112 147 186 231 281 331
#     4  10  20  34  54  81 111 145 187 232 278 330
#     4  10  22  39  56  79 114 151 188 231 278 331
#     4  10  20  36  59  85 114 145 183 231 281 332
#     4  10  21  37  57  82 113 148 186 230 280 332
#
# _framework density 23.259222999999999
#
# number of rings (size 3 to 8) (size 9 to 14) (size 15 to 20)
#    0.000    2.000    2.000    1.200    0.000    5.600 
#    0.000    0.000    0.000    0.000    0.000    0.000 
#    0.000    0.000    0.000    0.000    0.000    0.000 
#
# Total GULP energy -223579.823710 kJ/mol
# GULP energy per Si atom -5589.495593 kJ/mol
# Density = 2.320628 g / cm^3
# Si number density = 23.259223 Si / 1000 Ang^3
#
#
#
# Elastic Constant Matrix: (Units=GPa)
#
#
# Indices 1 2 3 4 5 6 
#
# 1 71.1225 -0.3118 -12.5616 0.0000 0.0000 0.0000
# 2 -0.3118 107.1208 -8.2161 0.0000 0.0000 0.0000
# 3 -12.5616 -8.2161 76.0534 0.0000 0.0000 0.0000
# 4 0.0000 0.0000 0.0000 64.1229 0.0000 0.0000
# 5 0.0000 0.0000 0.0000 0.0000 55.2878 0.0000
# 6 0.0000 0.0000 0.0000 0.0000 0.0000 36.4294
#
#
#
# Elastic Compliance Matrix: (Units=1/GPa)
#
#
# Indices 1 2 3 4 5 6 
#
# 1 0.014488 0.000228 0.002418 0.000000 0.000000 0.000000
# 2 0.000228 0.009417 0.001055 0.000000 0.000000 0.000000
# 3 0.002418 0.001055 0.013662 0.000000 0.000000 0.000000
# 4 0.000000 0.000000 0.000000 0.015595 0.000000 0.000000
# 5 0.000000 0.000000 0.000000 0.000000 0.018087 0.000000
# 6 0.000000 0.000000 0.000000 0.000000 0.000000 0.027450
#
#
# Mechanical properties :
#
#
# Convention : Reuss Voigt Hill
#
# Bulk Modulus (GPa) = 22.23848 23.56865 22.90356
# Shear Modulus (GPa) = 47.04179 49.52710 48.28445
#
# Velocity S-wave (km/s) = 4.50210 4.61950 4.56118
# Velocity P-wave (km/s) = 6.05038 6.21354 6.13250
#
# Compressibility (1/GPa) = 0.04496711
#
# Stress axis : x y z
#
# Youngs Moduli (GPa) = 69.02155 106.19288 73.19617
#
# Poissons Ratio (x) = -0.02417 -0.17696
# Poissons Ratio (y) = -0.01571 -0.07721
# Poissons Ratio (z) = -0.16686 -0.11202
#
# Static dielectric constant tensor:
#      x y z
#    x 1.910800 0.000000 0.000000 
#    y 0.000000 1.774890 0.000000 
#    z 0.000000 0.000000 1.827250 
# 
# From -- ./inp_files/5639.got.cif
#   From: 2010.05.17/outbox.cif.g08.bks.cpg/sg59_3_cif.got.tgz:5639.got - 2010.06.03 14:40:33.
