data_PCOD9450283
_publ_section_title
;
Structure prediction by ZEFSAII (Michael W. Deem and Ramdas Pophale) SiO2 
 PCOD9450283
Probable space group: P M M N
;
_chemical_formula_sum "Si O2"
_cell_formula_units_Z 48
_cell_length_a 9.249267
_cell_length_b 8.768654
_cell_length_c 31.806185
_cell_angle_alpha 90.000000
_cell_angle_beta 90.000000
_cell_angle_gamma 90.000000
_cell_volume 2579.596808
_symmetry_space_group_name_H-M "P M M N"
_symmetry_group_IT_number 59
_space_group.IT_coordinate_system_code '2'
_symmetry_cell_setting 'orthorhombic'
loop_
_space_group_symop_operation_xyz
x,y,z
1/2-x,1/2-y,z
1/2+x,-y,-z
-x,1/2+y,-z
-x,-y,-z
1/2+x,1/2+y,-z
1/2-x,y,z
x,1/2-y,z
loop_
_atom_site_type_symbol
_atom_site_label
_atom_site_fract_x
_atom_site_fract_y
_atom_site_fract_z
Si Si1 0.420146 0.932304 0.629830
Si Si2 0.081729 0.567280 0.290133
Si Si3 0.083311 0.435880 0.124917
Si Si4 0.581409 0.065508 0.209620
Si Si5 0.418245 0.565504 0.959707
Si Si6 0.577581 0.930076 0.459718
O O1 0.250000 0.972808 0.635199
O O2 0.431869 0.750000 0.631224
O O3 0.511461 0.004725 0.667206
O O4 0.467107 0.992141 0.584098
O O5 0.250000 0.522125 0.287363
O O6 0.073188 0.750000 0.289948
O O7 0.995169 0.501820 0.250472
O O8 0.250000 0.486269 0.124431
O O9 0.083600 0.250000 0.124903
O O10 0.001363 0.483524 0.167282
O O11 0.998272 0.483843 0.083089
O O12 0.750000 0.022473 0.207912
O O13 0.574443 0.250000 0.211852
O O14 0.250000 0.519880 0.959411
O O15 0.423528 0.750000 0.961254
O O16 0.500000 0.500000 0.000000
O O17 0.750000 0.953339 0.464007
O O18 0.549369 0.750000 0.457305
O O19 0.500000 0.000000 0.500000
#
# Coordination Sequence:
#
# PCOD9450283 Si02
#       6
#     8   8   8   8   8   8
#     4  10  21  38  60  84 109 141 183 228 273 323
#     4  11  24  39  55  79 111 145 180 220 268 321
#     4   9  17  31  53  79 107 140 177 219 268 321
#     4  10  20  35  57  83 108 137 176 220 266 319
#     4  10  20  34  53  78 108 142 181 225 272 323
#     4  10  21  37  58  84 114 149 187 227 274 326
#
# _framework density 18.607559999999999
#
# number of rings (size 3 to 8) (size 9 to 14) (size 15 to 20)
#    0.000    2.000    0.000    3.500    0.000   10.000 
#    0.000    0.833    0.000    5.000    0.000    0.000 
#    0.000    0.000    0.000    0.000    0.000    0.000 
#
# Total GULP energy -268178.654717 kJ/mol
# GULP energy per Si atom -5587.055307 kJ/mol
# Density = 1.856521 g / cm^3
# Si number density = 18.607560 Si / 1000 Ang^3
#
#
#
# Elastic Constant Matrix: (Units=GPa)
#
#
# Indices 1 2 3 4 5 6 
#
# 1 167.9652 46.8429 123.8566 0.0000 0.0000 0.0000
# 2 46.8429 22.9057 44.8467 0.0000 0.0000 0.0000
# 3 123.8566 44.8467 211.9336 0.0000 0.0000 0.0000
# 4 0.0000 0.0000 0.0000 34.9503 0.0000 0.0000
# 5 0.0000 0.0000 0.0000 0.0000 43.7811 0.0000
# 6 0.0000 0.0000 0.0000 0.0000 0.0000 25.3652
#
#
#
# Elastic Compliance Matrix: (Units=1/GPa)
#
#
# Indices 1 2 3 4 5 6 
#
# 1 0.015663 -0.024090 -0.004056 0.000000 0.000000 0.000000
# 2 -0.024090 0.111589 -0.009535 0.000000 0.000000 0.000000
# 3 -0.004056 -0.009535 0.009106 0.000000 0.000000 0.000000
# 4 0.000000 0.000000 0.000000 0.028612 0.000000 0.000000
# 5 0.000000 0.000000 0.000000 0.000000 0.022841 0.000000
# 6 0.000000 0.000000 0.000000 0.000000 0.000000 0.039424
#
#
# Mechanical properties :
#
#
# Convention : Reuss Voigt Hill
#
# Bulk Modulus (GPa) = 16.39405 92.65522 54.52464
# Shear Modulus (GPa) = 15.48328 33.30321 24.39324
#
# Velocity S-wave (km/s) = 2.88774 4.23515 3.62461
# Velocity P-wave (km/s) = 4.46635 8.59173 6.84712
#
# Compressibility (1/GPa) = 0.06099772
#
# Stress axis : x y z
#
# Youngs Moduli (GPa) = 63.84613 8.96142 109.81266
#
# Poissons Ratio (x) = 0.21588 0.44539
# Poissons Ratio (y) = 1.53803 1.04704
# Poissons Ratio (z) = 0.25895 0.08545
#
# Static dielectric constant tensor:
#      x y z
#    x 1.628290 0.000000 0.000000 
#    y 0.000000 1.630870 0.000000 
#    z 0.000000 0.000000 1.600530 
# 
# From -- ./inp_files/32812.got.cif
#   From: 2010.05.17/outbox.cif.g08.bks.cpg/sg59_17_cif.got.tgz:32812.got - 2010.06.03 14:40:33.
