data_PCOD9450974
_publ_section_title
;
Structure prediction by ZEFSAII (Michael W. Deem and Ramdas Pophale) SiO2 
 PCOD9450974
Probable space group: P M M N
;
_chemical_formula_sum "Si O2"
_cell_formula_units_Z 48
_cell_length_a 18.866482
_cell_length_b 8.430741
_cell_length_c 15.138992
_cell_angle_alpha 90.000000
_cell_angle_beta 90.000000
_cell_angle_gamma 90.000000
_cell_volume 2407.984198
_symmetry_space_group_name_H-M "P M M N"
_symmetry_group_IT_number 59
_space_group.IT_coordinate_system_code '2'
_symmetry_cell_setting 'orthorhombic'
loop_
_space_group_symop_operation_xyz
x,y,z
1/2-x,1/2-y,z
1/2+x,-y,-z
-x,1/2+y,-z
-x,-y,-z
1/2+x,1/2+y,-z
1/2-x,y,z
x,1/2-y,z
loop_
_atom_site_type_symbol
_atom_site_label
_atom_site_fract_x
_atom_site_fract_y
_atom_site_fract_z
Si Si1 0.330321 0.563595 0.768410
Si Si2 0.440036 0.561956 0.114614
Si Si3 0.601427 0.562149 0.066600
Si Si4 0.416558 0.062210 0.308381
Si Si5 0.435572 0.063196 0.627042
Si Si6 0.329854 0.056393 0.473706
O O1 0.250000 0.521496 0.743911
O O2 0.341540 0.750000 0.751031
O O3 0.343936 0.528089 0.871117
O O4 0.386186 0.463555 0.712332
O O5 0.436643 0.750000 0.101316
O O6 0.522411 0.513705 0.099995
O O7 0.417118 0.519389 0.213200
O O8 0.396184 0.479546 0.036576
O O9 0.609333 0.750000 0.079033
O O10 0.410613 0.250000 0.294481
O O11 0.355407 0.010147 0.376066
O O12 0.491105 0.025815 0.356608
O O13 0.450546 0.250000 0.616231
O O14 0.388438 0.004366 0.544819
O O15 0.250000 0.002585 0.493747
O O16 0.329770 0.250000 0.477181
#
# Coordination Sequence:
#
# PCOD9450974 Si02
#       6
#     8   8   8   8   8   8
#     4  11  23  37  55  83 120 156 191 238 293 345
#     4  10  20  35  57  84 114 147 187 235 283 338
#     4  10  20  35  57  83 112 150 190 232 282 340
#     4  11  21  35  59  87 115 149 192 243 290 340
#     4  11  21  36  59  85 114 151 193 239 289 344
#     4   9  20  38  58  82 113 151 194 238 287 343
#
# _framework density 19.933686000000002
#
# number of rings (size 3 to 8) (size 9 to 14) (size 15 to 20)
#    0.000    1.667    1.667    3.500    0.000    3.333 
#    0.000    3.333    0.000    9.000    0.000    0.000 
#    0.000    0.000    0.000    0.000    0.000    0.000 
#
# Total GULP energy -268209.607419 kJ/mol
# GULP energy per Si atom -5587.700155 kJ/mol
# Density = 1.988832 g / cm^3
# Si number density = 19.933686 Si / 1000 Ang^3
#
#
#
# Elastic Constant Matrix: (Units=GPa)
#
#
# Indices 1 2 3 4 5 6 
#
# 1 21.5867 -5.9281 1.6246 0.0000 0.0000 0.0000
# 2 -5.9281 13.8159 -11.2561 0.0000 0.0000 0.0000
# 3 1.6246 -11.2561 93.7820 0.0000 0.0000 0.0000
# 4 0.0000 0.0000 0.0000 25.7003 0.0000 0.0000
# 5 0.0000 0.0000 0.0000 0.0000 -0.1153 0.0000
# 6 0.0000 0.0000 0.0000 0.0000 0.0000 8.6050
#
#
#
# Elastic Compliance Matrix: (Units=1/GPa)
#
#
# Indices 1 2 3 4 5 6 
#
# 1 0.052849 0.024308 0.002002 0.000000 0.000000 0.000000
# 2 0.024308 0.091405 0.010550 0.000000 0.000000 0.000000
# 3 0.002002 0.010550 0.011895 0.000000 0.000000 0.000000
# 4 0.000000 0.000000 0.000000 0.038910 0.000000 0.000000
# 5 0.000000 0.000000 0.000000 0.000000 -8.669717 0.000000
# 6 0.000000 0.000000 0.000000 0.000000 0.000000 0.116211
#
#
# Mechanical properties :
#
#
# Convention : Reuss Voigt Hill
#
# Bulk Modulus (GPa) = 4.35033 10.89617 7.62325
# Shear Modulus (GPa) = -0.59841 16.48761 7.94460
#
# Velocity S-wave (km/s) = -0.54850 2.87909 1.99854
# Velocity P-wave (km/s) = 1.33641 4.06575 3.02625
#
# Compressibility (1/GPa) = 0.22986776
#
# Stress axis : x y z
#
# Youngs Moduli (GPa) = 18.92166 10.94029 84.07208
#
# Poissons Ratio (x) = -0.26593 -0.16831
# Poissons Ratio (y) = -0.45994 -0.88694
# Poissons Ratio (z) = -0.03788 -0.11542
#
# Static dielectric constant tensor:
#      x y z
#    x 1.688680 0.000000 0.000000 
#    y 0.000000 1.670800 0.000000 
#    z 0.000000 0.000000 1.713360 
# 
# From -- ./inp_files/23632.got.cif
#   From: 2010.05.17/outbox.cif.g08.bks.cpg/sg59_12_cif.got.tgz:23632.got - 2010.06.03 14:40:33.
