data_PCOD9450295
_publ_section_title
;
Structure prediction by ZEFSAII (Michael W. Deem and Ramdas Pophale) SiO2 
 PCOD9450295
Probable space group: P M M N
;
_chemical_formula_sum "Si O2"
_cell_formula_units_Z 56
_cell_length_a 21.236262
_cell_length_b 9.516644
_cell_length_c 14.280199
_cell_angle_alpha 90.000000
_cell_angle_beta 90.000000
_cell_angle_gamma 90.000000
_cell_volume 2885.998877
_symmetry_space_group_name_H-M "P M M N"
_symmetry_group_IT_number 59
_space_group.IT_coordinate_system_code '2'
_symmetry_cell_setting 'orthorhombic'
loop_
_space_group_symop_operation_xyz
x,y,z
1/2-x,1/2-y,z
1/2+x,-y,-z
-x,1/2+y,-z
-x,-y,-z
1/2+x,1/2+y,-z
1/2-x,y,z
x,1/2-y,z
loop_
_atom_site_type_symbol
_atom_site_label
_atom_site_fract_x
_atom_site_fract_y
_atom_site_fract_z
Si Si1 0.098812 0.915779 0.755115
Si Si2 0.561868 0.416538 0.032187
Si Si3 0.495196 0.085077 0.402913
Si Si4 0.325114 0.092951 0.633569
Si Si5 0.324936 0.581889 0.111248
Si Si6 0.861297 0.583417 0.702206
Si Si7 0.322224 0.594455 0.465384
O O1 0.114030 0.750000 0.748927
O O2 0.073981 0.944918 0.858479
O O3 0.047344 0.948936 0.675591
O O4 0.157497 0.011024 0.727262
O O5 0.549463 0.250000 0.021556
O O6 0.500000 0.500000 0.000000
O O7 0.625922 0.446188 0.973460
O O8 0.500786 0.250000 0.426287
O O9 0.430209 0.067169 0.344793
O O10 0.500000 0.000000 0.500000
O O11 0.250000 0.103324 0.624746
O O12 0.351541 0.250000 0.631396
O O13 0.350485 0.002102 0.546335
O O14 0.250000 0.553408 0.093414
O O15 0.329211 0.750000 0.132946
O O16 0.349870 0.487841 0.197524
O O17 0.846479 0.750000 0.704524
O O18 0.821317 0.492135 0.629659
O O19 0.250000 0.613856 0.493621
O O20 0.351269 0.750000 0.456770
#
# Coordination Sequence:
#
# PCOD9450295 Si02
#       7
#     8   8   8   8   8   8   8
#     4  10  21  38  59  82 109 145 189 232 280 342
#     4  10  22  41  65  90 117 153 198 250 305 362
#     4  10  22  37  54  81 116 151 190 237 286 344
#     4  10  21  36  54  80 113 145 181 228 280 335
#     4  10  22  40  61  88 121 157 202 255 311 374
#     4  11  22  36  56  83 116 153 194 242 297 353
#     4  10  20  34  53  78 110 149 190 230 275 333
#
# _framework density 19.404028
#
# number of rings (size 3 to 8) (size 9 to 14) (size 15 to 20)
#    0.000    1.857    0.000    3.429    0.000   10.571 
#    0.000    1.429    0.000    0.000    0.000    0.000 
#    0.000    0.000    0.000    0.000    0.000    0.000 
#
# Total GULP energy -312325.645078 kJ/mol
# GULP energy per Si atom -5577.243662 kJ/mol
# Density = 1.935986 g / cm^3
# Si number density = 19.404028 Si / 1000 Ang^3
#
#
#
# Elastic Constant Matrix: (Units=GPa)
#
#
# Indices 1 2 3 4 5 6 
#
# 1 82.2979 49.2092 61.4459 0.0000 0.0000 0.0000
# 2 49.2092 107.6227 92.6188 0.0000 0.0000 0.0000
# 3 61.4459 92.6188 160.9352 0.0000 0.0000 0.0000
# 4 0.0000 0.0000 0.0000 30.0214 0.0000 0.0000
# 5 0.0000 0.0000 0.0000 0.0000 25.9159 0.0000
# 6 0.0000 0.0000 0.0000 0.0000 0.0000 19.6885
#
#
#
# Elastic Compliance Matrix: (Units=1/GPa)
#
#
# Indices 1 2 3 4 5 6 
#
# 1 0.018081 -0.004609 -0.004251 0.000000 0.000000 0.000000
# 2 -0.004609 0.019584 -0.009511 0.000000 0.000000 0.000000
# 3 -0.004251 -0.009511 0.013310 0.000000 0.000000 0.000000
# 4 0.000000 0.000000 0.000000 0.033310 0.000000 0.000000
# 5 0.000000 0.000000 0.000000 0.000000 0.038586 0.000000
# 6 0.000000 0.000000 0.000000 0.000000 0.000000 0.050791
#
#
# Mechanical properties :
#
#
# Convention : Reuss Voigt Hill
#
# Bulk Modulus (GPa) = 70.25678 84.15596 77.20637
# Shear Modulus (GPa) = 23.23980 24.96397 24.10188
#
# Velocity S-wave (km/s) = 3.46450 3.59072 3.52818
# Velocity P-wave (km/s) = 7.23116 7.78817 7.51483
#
# Compressibility (1/GPa) = 0.01423350
#
# Stress axis : x y z
#
# Youngs Moduli (GPa) = 55.30784 51.06151 75.12966
#
# Poissons Ratio (x) = 0.23534 0.31936
# Poissons Ratio (y) = 0.25491 0.71456
# Poissons Ratio (z) = 0.23510 0.48565
#
# Static dielectric constant tensor:
#      x y z
#    x 1.809730 0.000000 0.000000 
#    y 0.000000 1.687870 0.000000 
#    z 0.000000 0.000000 1.670180 
# 
# From -- ./inp_files/24243.got.cif
#   From: 2010.05.17/outbox.cif.g08.bks.cpg/sg59_13_cif.got.tgz:24243.got - 2010.06.03 14:40:33.
