data_PCOD9450412
_publ_section_title
;
Structure prediction by ZEFSAII (Michael W. Deem and Ramdas Pophale) SiO2 
 PCOD9450412
Probable space group: P M M N
;
_chemical_formula_sum "Si O2"
_cell_formula_units_Z 48
_cell_length_a 16.515943
_cell_length_b 8.617430
_cell_length_c 18.551158
_cell_angle_alpha 90.000000
_cell_angle_beta 90.000000
_cell_angle_gamma 90.000000
_cell_volume 2640.293241
_symmetry_space_group_name_H-M "P M M N"
_symmetry_group_IT_number 59
_space_group.IT_coordinate_system_code '2'
_symmetry_cell_setting 'orthorhombic'
loop_
_space_group_symop_operation_xyz
x,y,z
1/2-x,1/2-y,z
1/2+x,-y,-z
-x,1/2+y,-z
-x,-y,-z
1/2+x,1/2+y,-z
1/2-x,y,z
x,1/2-y,z
loop_
_atom_site_type_symbol
_atom_site_label
_atom_site_fract_x
_atom_site_fract_y
_atom_site_fract_z
Si Si1 0.083531 0.437242 0.785693
Si Si2 0.926644 0.434942 0.692338
Si Si3 0.083619 0.064575 0.467009
Si Si4 0.250000 0.060516 0.545466
Si Si5 0.750000 0.939390 0.287551
Si Si6 0.494107 0.064532 0.080101
Si Si7 0.659711 0.936449 0.826815
O O1 0.083273 0.250000 0.790647
O O2 0.169148 0.488966 0.753853
O O3 0.061310 0.503822 0.863805
O O4 0.012034 0.480744 0.729756
O O5 0.927070 0.250000 0.682127
O O6 0.913609 0.515954 0.616321
O O7 0.860189 0.484297 0.750890
O O8 0.081268 0.250000 0.473678
O O9 0.166381 0.010393 0.506796
O O10 0.000000 0.000000 0.500000
O O11 0.250000 0.250000 0.543899
O O12 0.250000 0.011672 0.629045
O O13 0.750000 0.750000 0.288155
O O14 0.497225 0.250000 0.077872
O O15 0.408832 0.016147 0.116460
O O16 0.500000 0.000000 0.000000
O O17 0.750000 0.974248 0.851194
O O18 0.653821 0.750000 0.817297
#
# Coordination Sequence:
#
# PCOD9450412 Si02
#       7
#     8   8   8   4   4   8   8
#     4   9  18  34  57  81 105 140 183 224 270 322
#     4  10  20  34  54  80 111 144 182 229 279 333
#     4  11  22  37  56  80 111 150 192 237 287 338
#     4   9  20  36  55  79 110 149 190 231 281 336
#     4   9  16  32  57  79 100 135 186 229 259 316
#     4  10  20  36  57  80 111 143 175 217 266 322
#     4   9  19  36  57  80 105 140 184 224 267 322
#
# _framework density 18.179798999999999
#
# number of rings (size 3 to 8) (size 9 to 14) (size 15 to 20)
#    0.000    2.333    0.000    2.500    1.167    4.333 
#    1.500    1.667    0.000    2.000    0.000    0.000 
#    0.000    0.000    0.000    0.000    0.000    0.000 
#
# Total GULP energy -267868.382178 kJ/mol
# GULP energy per Si atom -5580.591295 kJ/mol
# Density = 1.813842 g / cm^3
# Si number density = 18.179799 Si / 1000 Ang^3
#
#
#
# Elastic Constant Matrix: (Units=GPa)
#
#
# Indices 1 2 3 4 5 6 
#
# 1 138.9940 27.8890 89.3049 0.0000 0.0000 0.0000
# 2 27.8890 21.1501 33.2382 0.0000 0.0000 0.0000
# 3 89.3049 33.2382 175.0691 0.0000 0.0000 0.0000
# 4 0.0000 0.0000 0.0000 34.0500 0.0000 0.0000
# 5 0.0000 0.0000 0.0000 0.0000 14.1646 0.0000
# 6 0.0000 0.0000 0.0000 0.0000 0.0000 24.8711
#
#
#
# Elastic Compliance Matrix: (Units=1/GPa)
#
#
# Indices 1 2 3 4 5 6 
#
# 1 0.011712 -0.008629 -0.004336 0.000000 0.000000 0.000000
# 2 -0.008629 0.073746 -0.009599 0.000000 0.000000 0.000000
# 3 -0.004336 -0.009599 0.009746 0.000000 0.000000 0.000000
# 4 0.000000 0.000000 0.000000 0.029369 0.000000 0.000000
# 5 0.000000 0.000000 0.000000 0.000000 0.070599 0.000000
# 6 0.000000 0.000000 0.000000 0.000000 0.000000 0.040207
#
#
# Mechanical properties :
#
#
# Convention : Reuss Voigt Hill
#
# Bulk Modulus (GPa) = 19.97015 70.67527 45.32271
# Shear Modulus (GPa) = 16.82371 26.93588 21.87979
#
# Velocity S-wave (km/s) = 3.04535 3.85338 3.47295
# Velocity P-wave (km/s) = 4.83469 7.66539 6.40829
#
# Compressibility (1/GPa) = 0.05007474
#
# Stress axis : x y z
#
# Youngs Moduli (GPa) = 85.38247 13.56009 102.60194
#
# Poissons Ratio (x) = 0.11702 0.44489
# Poissons Ratio (y) = 0.73680 0.98490
# Poissons Ratio (z) = 0.37022 0.13017
#
# Static dielectric constant tensor:
#      x y z
#    x 1.634790 0.000000 0.000000 
#    y 0.000000 1.512500 0.000000 
#    z 0.000000 0.000000 1.585620 
# 
# From -- ./inp_files/27424.got.cif
#   From: 2010.05.17/outbox.cif.g08.bks.cpg/sg59_14_cif.got.tgz:27424.got - 2010.06.03 14:40:33.
