data_PCOD9450661
_publ_section_title
;
Structure prediction by ZEFSAII (Michael W. Deem and Ramdas Pophale) SiO2 
 PCOD9450661
Probable space group: P M M N
;
_chemical_formula_sum "Si O2"
_cell_formula_units_Z 64
_cell_length_a 16.922111
_cell_length_b 13.003144
_cell_length_c 15.436908
_cell_angle_alpha 90.000000
_cell_angle_beta 90.000000
_cell_angle_gamma 90.000000
_cell_volume 3396.747210
_symmetry_space_group_name_H-M "P M M N"
_symmetry_group_IT_number 59
_space_group.IT_coordinate_system_code '2'
_symmetry_cell_setting 'orthorhombic'
loop_
_space_group_symop_operation_xyz
x,y,z
1/2-x,1/2-y,z
1/2+x,-y,-z
-x,1/2+y,-z
-x,-y,-z
1/2+x,1/2+y,-z
1/2-x,y,z
x,1/2-y,z
loop_
_atom_site_type_symbol
_atom_site_label
_atom_site_fract_x
_atom_site_fract_y
_atom_site_fract_z
Si Si1 0.343632 0.634243 0.161958
Si Si2 0.573609 0.369791 0.205119
Si Si3 0.159622 0.373851 0.445948
Si Si4 0.156922 0.427775 0.752540
Si Si5 0.343535 0.359527 0.940401
Si Si6 0.071947 0.483248 0.295808
Si Si7 0.045291 0.131833 0.601696
Si Si8 0.417643 0.941006 0.991538
O O1 0.250000 0.615855 0.147183
O O2 0.351930 0.750000 0.197058
O O3 0.381083 0.553362 0.227942
O O4 0.392153 0.627020 0.072215
O O5 0.584447 0.250000 0.226807
O O6 0.636438 0.450792 0.244894
O O7 0.490433 0.412485 0.242761
O O8 0.581252 0.384515 0.101090
O O9 0.250000 0.407188 0.466810
O O10 0.159835 0.250000 0.444833
O O11 0.131379 0.417256 0.354064
O O12 0.092697 0.403982 0.516261
O O13 0.250000 0.411885 0.746604
O O14 0.125635 0.382049 0.843589
O O15 0.111875 0.372723 0.675938
O O16 0.250000 0.350811 0.932828
O O17 0.375639 0.250000 0.973297
O O18 0.358771 0.461894 0.992866
O O19 0.022171 0.557012 0.361172
O O20 0.018058 0.250000 0.589796
O O21 0.500000 0.000000 0.000000
#
# Coordination Sequence:
#
# PCOD9450661 Si02
#       8
#     8   8   8   8   8   8   8   8
#     4  11  24  41  61  84 114 152 195 239 281 336
#     4  10  21  36  55  80 111 148 191 235 283 337
#     4  10  21  37  59  86 115 149 188 233 288 349
#     4   9  18  32  52  80 114 148 185 229 281 336
#     4   9  18  32  51  76 107 142 179 224 278 331
#     4  11  21  39  58  84 116 151 191 235 289 339
#     4  10  20  34  57  87 116 148 189 237 287 341
#     4  11  21  38  54  81 109 148 186 237 283 328
#
# _framework density 18.841556000000001
#
# number of rings (size 3 to 8) (size 9 to 14) (size 15 to 20)
#    0.000    1.875    1.250    3.000    0.000    3.000 
#    0.000    0.000    0.000    3.000    0.000    0.000 
#    0.000    0.000    0.000    0.000    0.000    0.000 
#
# Total GULP energy -356888.307060 kJ/mol
# GULP energy per Si atom -5576.379798 kJ/mol
# Density = 1.879867 g / cm^3
# Si number density = 18.841556 Si / 1000 Ang^3
#
#
#
# Elastic Constant Matrix: (Units=GPa)
#
#
# Indices 1 2 3 4 5 6 
#
# 1 55.1065 7.7717 7.5549 0.0000 0.0000 0.0000
# 2 7.7717 78.3219 6.6287 0.0000 0.0000 0.0000
# 3 7.5549 6.6287 61.5566 0.0000 0.0000 0.0000
# 4 0.0000 0.0000 0.0000 20.9276 0.0000 0.0000
# 5 0.0000 0.0000 0.0000 0.0000 27.7211 0.0000
# 6 0.0000 0.0000 0.0000 0.0000 0.0000 21.2836
#
#
#
# Elastic Compliance Matrix: (Units=1/GPa)
#
#
# Indices 1 2 3 4 5 6 
#
# 1 0.018672 -0.001674 -0.002111 0.000000 0.000000 0.000000
# 2 -0.001674 0.013035 -0.001198 0.000000 0.000000 0.000000
# 3 -0.002111 -0.001198 0.016633 0.000000 0.000000 0.000000
# 4 0.000000 0.000000 0.000000 0.047784 0.000000 0.000000
# 5 0.000000 0.000000 0.000000 0.000000 0.036074 0.000000
# 6 0.000000 0.000000 0.000000 0.000000 0.000000 0.046985
#
#
# Mechanical properties :
#
#
# Convention : Reuss Voigt Hill
#
# Bulk Modulus (GPa) = 26.05965 26.54396 26.30181
# Shear Modulus (GPa) = 24.75965 25.52178 25.14071
#
# Velocity S-wave (km/s) = 3.62898 3.68441 3.65680
# Velocity P-wave (km/s) = 5.60538 5.67613 5.64087
#
# Compressibility (1/GPa) = 0.03837349
#
# Stress axis : x y z
#
# Youngs Moduli (GPa) = 53.55538 76.71445 60.12011
#
# Poissons Ratio (x) = 0.12843 0.12694
# Poissons Ratio (y) = 0.08966 0.07204
# Poissons Ratio (z) = 0.11308 0.09192
#
# Static dielectric constant tensor:
#      x y z
#    x 1.643320 0.000000 0.000000 
#    y 0.000000 1.657050 0.000000 
#    z 0.000000 0.000000 1.664130 
# 
# From -- ./inp_files/22724.got.cif
#   From: 2010.05.17/outbox.cif.g08.bks.cpg/sg59_12_cif.got.tgz:22724.got - 2010.06.03 14:40:33.
