data_PCOD9450225
_publ_section_title
;
Structure prediction by ZEFSAII (Michael W. Deem and Ramdas Pophale) SiO2 
 PCOD9450225
Probable space group: P M M N
;
_chemical_formula_sum "Si O2"
_cell_formula_units_Z 64
_cell_length_a 14.548379
_cell_length_b 9.001718
_cell_length_c 26.280296
_cell_angle_alpha 90.000000
_cell_angle_beta 90.000000
_cell_angle_gamma 90.000000
_cell_volume 3441.678211
_symmetry_space_group_name_H-M "P M M N"
_symmetry_group_IT_number 59
_space_group.IT_coordinate_system_code '2'
_symmetry_cell_setting 'orthorhombic'
loop_
_space_group_symop_operation_xyz
x,y,z
1/2-x,1/2-y,z
1/2+x,-y,-z
-x,1/2+y,-z
-x,-y,-z
1/2+x,1/2+y,-z
1/2-x,y,z
x,1/2-y,z
loop_
_atom_site_type_symbol
_atom_site_label
_atom_site_fract_x
_atom_site_fract_y
_atom_site_fract_z
Si Si1 0.542505 0.071160 0.272164
Si Si2 0.967342 0.571233 0.075194
Si Si3 0.354371 0.586143 0.418493
Si Si4 0.904763 0.926498 0.483631
Si Si5 0.640963 0.077579 0.377547
Si Si6 0.857038 0.929478 0.176270
Si Si7 0.142707 0.070954 0.027805
Si Si8 0.856602 0.928046 0.682821
O O1 0.549505 0.250000 0.267001
O O2 0.589435 0.031611 0.326186
O O3 0.434336 0.030739 0.276207
O O4 0.595849 0.994742 0.226419
O O5 0.977972 0.750000 0.075282
O O6 0.916566 0.525672 0.126991
O O7 0.067282 0.498925 0.065875
O O8 0.899548 0.533856 0.027907
O O9 0.250000 0.607852 0.402345
O O10 0.397686 0.750000 0.425365
O O11 0.347332 0.496649 0.470577
O O12 0.392310 0.494406 0.371014
O O13 0.903385 0.750000 0.486115
O O14 0.879916 0.981789 0.427511
O O15 0.000000 0.000000 0.500000
O O16 0.750000 0.072031 0.368146
O O17 0.615867 0.250000 0.388798
O O18 0.750000 0.975409 0.172084
O O19 0.858199 0.750000 0.178542
O O20 0.250000 0.024215 0.032932
O O21 0.140980 0.250000 0.032810
O O22 0.750000 0.969481 0.694289
O O23 0.857582 0.750000 0.677461
#
# Coordination Sequence:
#
# PCOD9450225 Si02
#       8
#     8   8   8   8   8   8   8   8
#     4  10  21  37  57  80 106 138 178 224 271 317
#     4   9  18  33  53  79 112 149 188 228 272 322
#     4  10  20  34  53  77 103 129 160 202 253 311
#     4  12  24  36  52  74 101 133 170 211 258 315
#     4  10  21  37  55  76 105 139 174 216 268 321
#     4  10  21  37  57  80 107 141 181 225 272 322
#     4   9  17  31  53  81 114 151 189 229 273 320
#     4   9  18  34  56  80 106 138 176 217 263 317
#
# _framework density 18.595579000000001
#
# number of rings (size 3 to 8) (size 9 to 14) (size 15 to 20)
#    0.000    2.125    0.000    3.375    0.000    7.500 
#    0.000    0.625    0.000    4.500    0.000    0.000 
#    0.000    0.000    0.000    0.000    0.000    0.000 
#
# Total GULP energy -356700.483241 kJ/mol
# GULP energy per Si atom -5573.445051 kJ/mol
# Density = 1.855326 g / cm^3
# Si number density = 18.595579 Si / 1000 Ang^3
#
#
#
# Elastic Constant Matrix: (Units=GPa)
#
#
# Indices 1 2 3 4 5 6 
#
# 1 157.3908 43.2556 78.8321 0.0000 0.0000 0.0000
# 2 43.2556 43.0084 37.4537 0.0000 0.0000 0.0000
# 3 78.8321 37.4537 117.2255 0.0000 0.0000 0.0000
# 4 0.0000 0.0000 0.0000 30.3707 0.0000 0.0000
# 5 0.0000 0.0000 0.0000 0.0000 29.4975 0.0000
# 6 0.0000 0.0000 0.0000 0.0000 0.0000 24.5476
#
#
#
# Elastic Compliance Matrix: (Units=1/GPa)
#
#
# Indices 1 2 3 4 5 6 
#
# 1 0.010654 -0.006201 -0.005183 0.000000 0.000000 0.000000
# 2 -0.006201 0.035824 -0.007276 0.000000 0.000000 0.000000
# 3 -0.005183 -0.007276 0.014341 0.000000 0.000000 0.000000
# 4 0.000000 0.000000 0.000000 0.032926 0.000000 0.000000
# 5 0.000000 0.000000 0.000000 0.000000 0.033901 0.000000
# 6 0.000000 0.000000 0.000000 0.000000 0.000000 0.040737
#
#
# Mechanical properties :
#
#
# Convention : Reuss Voigt Hill
#
# Bulk Modulus (GPa) = 42.55582 70.74528 56.65055
# Shear Modulus (GPa) = 23.41508 27.42205 25.41857
#
# Velocity S-wave (km/s) = 3.55233 3.84429 3.70119
# Velocity P-wave (km/s) = 6.30556 7.60470 6.98540
#
# Compressibility (1/GPa) = 0.02349855
#
# Stress axis : x y z
#
# Youngs Moduli (GPa) = 93.86029 27.91402 69.73112
#
# Poissons Ratio (x) = 0.17311 0.36144
# Poissons Ratio (y) = 0.58207 0.50733
# Poissons Ratio (z) = 0.48651 0.20309
#
# Static dielectric constant tensor:
#      x y z
#    x 1.612650 0.000000 0.000000 
#    y 0.000000 1.665170 0.000000 
#    z 0.000000 0.000000 1.724620 
# 
# From -- ./inp_files/32138.got.cif
#   From: 2010.05.17/outbox.cif.g08.bks.cpg/sg59_17_cif.got.tgz:32138.got - 2010.06.03 14:40:33.
