data_PCOD9450265
_publ_section_title
;
Structure prediction by ZEFSAII (Michael W. Deem and Ramdas Pophale) SiO2 
 PCOD9450265
Probable space group: P M M N
;
_chemical_formula_sum "Si O2"
_cell_formula_units_Z 64
_cell_length_a 7.690349
_cell_length_b 24.968726
_cell_length_c 13.989575
_cell_angle_alpha 90.000000
_cell_angle_beta 90.000000
_cell_angle_gamma 90.000000
_cell_volume 2686.253248
_symmetry_space_group_name_H-M "P M M N"
_symmetry_group_IT_number 59
_space_group.IT_coordinate_system_code '2'
_symmetry_cell_setting 'orthorhombic'
loop_
_space_group_symop_operation_xyz
x,y,z
1/2-x,1/2-y,z
1/2+x,-y,-z
-x,1/2+y,-z
-x,-y,-z
1/2+x,1/2+y,-z
1/2-x,y,z
x,1/2-y,z
loop_
_atom_site_type_symbol
_atom_site_label
_atom_site_fract_x
_atom_site_fract_y
_atom_site_fract_z
Si Si1 0.451973 0.690930 0.715490
Si Si2 0.457691 0.807638 0.243725
Si Si3 0.544565 0.810236 0.932591
Si Si4 0.050822 0.193066 0.541249
Si Si5 0.458950 0.025137 0.754167
Si Si6 0.043608 0.607378 0.095081
Si Si7 0.539498 0.576248 0.447559
Si Si8 0.541409 0.422628 0.346471
O O1 0.250000 0.693291 0.685690
O O2 0.530644 0.750000 0.696892
O O3 0.457837 0.683007 0.829468
O O4 0.530957 0.637258 0.669441
O O5 0.250000 0.814518 0.260982
O O6 0.479988 0.750000 0.195690
O O7 0.551749 0.805838 0.343942
O O8 0.527660 0.853974 0.178189
O O9 0.750000 0.807541 0.917050
O O10 0.489848 0.750000 0.968734
O O11 0.513363 0.862033 0.999229
O O12 0.250000 0.192133 0.506938
O O13 0.969559 0.250000 0.511123
O O14 0.965223 0.135644 0.527955
O O15 0.250000 0.026054 0.749440
O O16 0.505340 0.049698 0.857554
O O17 0.521460 0.057289 0.657645
O O18 0.519086 0.964484 0.734325
O O19 0.250000 0.611654 0.092941
O O20 0.750000 0.578687 0.441286
O O21 0.497706 0.550299 0.550560
O O22 0.750000 0.419285 0.338446
#
# Coordination Sequence:
#
# PCOD9450265 Si02
#       8
#     8   8   8   8   8   8   8   8
#     4   9  19  39  64  87 112 141 179 233 293 346
#     4   9  17  28  43  67 100 137 175 214 257 309
#     4  10  21  37  60  90 119 149 185 226 278 339
#     4   9  17  29  45  68 101 140 179 219 268 322
#     4  10  21  38  55  78 114 152 194 239 281 333
#     4  11  21  33  54  83 116 152 189 229 277 334
#     4  10  20  34  53  77 109 149 191 237 284 333
#     4  10  22  38  59  83 108 144 190 240 292 342
#
# _framework density 23.825005999999998
#
# number of rings (size 3 to 8) (size 9 to 14) (size 15 to 20)
#    0.000    2.250    1.250    1.500    0.000    4.250 
#    0.000    1.875    0.000    0.000    0.000    0.000 
#    0.000    0.000    0.000    0.000    0.000    0.000 
#
# Total GULP energy -356660.744457 kJ/mol
# GULP energy per Si atom -5572.824132 kJ/mol
# Density = 2.377078 g / cm^3
# Si number density = 23.825006 Si / 1000 Ang^3
#
#
#
# Elastic Constant Matrix: (Units=GPa)
#
#
# Indices 1 2 3 4 5 6 
#
# 1 55.9464 14.7703 -1.8528 0.0000 0.0000 0.0000
# 2 14.7703 112.7373 31.0625 0.0000 0.0000 0.0000
# 3 -1.8528 31.0625 96.8467 0.0000 0.0000 0.0000
# 4 0.0000 0.0000 0.0000 34.9813 0.0000 0.0000
# 5 0.0000 0.0000 0.0000 0.0000 15.3294 0.0000
# 6 0.0000 0.0000 0.0000 0.0000 0.0000 -1.2325
#
#
#
# Elastic Compliance Matrix: (Units=1/GPa)
#
#
# Indices 1 2 3 4 5 6 
#
# 1 0.018652 -0.002788 0.001251 0.000000 0.000000 0.000000
# 2 -0.002788 0.010147 -0.003308 0.000000 0.000000 0.000000
# 3 0.001251 -0.003308 0.011410 0.000000 0.000000 0.000000
# 4 0.000000 0.000000 0.000000 0.028587 0.000000 0.000000
# 5 0.000000 0.000000 0.000000 0.000000 0.065234 0.000000
# 6 0.000000 0.000000 0.000000 0.000000 0.000000 -0.811387
#
#
# Mechanical properties :
#
#
# Convention : Reuss Voigt Hill
#
# Bulk Modulus (GPa) = 32.76636 39.27669 36.02153
# Shear Modulus (GPa) = -7.60464 24.58568 8.49052
#
# Velocity S-wave (km/s) = -1.78852 3.21585 1.88982
# Velocity P-wave (km/s) = 3.08508 5.50547 4.46250
#
# Compressibility (1/GPa) = 0.03051911
#
# Stress axis : x y z
#
# Youngs Moduli (GPa) = 53.61397 98.55210 87.63861
#
# Poissons Ratio (x) = 0.27480 -0.10965
# Poissons Ratio (y) = 0.14950 0.28990
# Poissons Ratio (z) = -0.06708 0.32600
#
# Static dielectric constant tensor:
#      x y z
#    x 1.852720 0.000000 0.000000 
#    y 0.000000 2.084240 0.000000 
#    z 0.000000 0.000000 1.907820 
# 
# From -- ./inp_files/21452.got.cif
#   From: 2010.05.17/outbox.cif.g08.bks.cpg/sg59_11_cif.got.tgz:21452.got - 2010.06.03 14:40:33.
