data_PCOD9450103
_publ_section_title
;
Structure prediction by ZEFSAII (Michael W. Deem and Ramdas Pophale) SiO2 
 PCOD9450103
Probable space group: P M M N
;
_chemical_formula_sum "Si O2"
_cell_formula_units_Z 64
_cell_length_a 8.184416
_cell_length_b 28.647049
_cell_length_c 14.455442
_cell_angle_alpha 90.000000
_cell_angle_beta 90.000000
_cell_angle_gamma 90.000000
_cell_volume 3389.213769
_symmetry_space_group_name_H-M "P M M N"
_symmetry_group_IT_number 59
_space_group.IT_coordinate_system_code '2'
_symmetry_cell_setting 'orthorhombic'
loop_
_space_group_symop_operation_xyz
x,y,z
1/2-x,1/2-y,z
1/2+x,-y,-z
-x,1/2+y,-z
-x,-y,-z
1/2+x,1/2+y,-z
1/2-x,y,z
x,1/2-y,z
loop_
_atom_site_type_symbol
_atom_site_label
_atom_site_fract_x
_atom_site_fract_y
_atom_site_fract_z
Si Si1 0.445270 0.028443 0.711538
Si Si2 0.936553 0.693396 0.138444
Si Si3 0.946720 0.068873 0.376249
Si Si4 0.053432 0.893997 0.427557
Si Si5 0.549787 0.803735 0.935359
Si Si6 0.054882 0.486397 0.102245
Si Si7 0.055922 0.697635 0.338413
Si Si8 0.552558 0.611518 0.809557
O O1 0.250000 0.029670 0.706407
O O2 0.513215 0.072908 0.658489
O O3 0.506245 0.981990 0.657239
O O4 0.494440 0.021609 0.818074
O O5 0.750000 0.676495 0.147318
O O6 0.932385 0.750000 0.133835
O O7 0.028947 0.681853 0.232270
O O8 0.003467 0.679644 0.037995
O O9 0.750000 0.066381 0.380318
O O10 0.009204 0.084087 0.476645
O O11 0.994045 0.104505 0.295061
O O12 0.250000 0.891252 0.435209
O O13 0.989316 0.842180 0.405619
O O14 0.750000 0.803260 0.938342
O O15 0.498367 0.750000 0.919358
O O16 0.497611 0.841020 0.859077
O O17 0.250000 0.485923 0.104491
O O18 0.997169 0.434571 0.133596
O O19 0.000000 0.500000 0.000000
O O20 0.250000 0.700709 0.353104
O O21 0.986501 0.750000 0.349280
O O22 0.750000 0.611493 0.809790
#
# Coordination Sequence:
#
# PCOD9450103 Si02
#       8
#     8   8   8   8   8   8   8   8
#     4  10  20  34  53  76  99 126 164 208 251 294
#     4   8  14  26  45  67  92 124 159 195 236 280
#     4   9  19  35  52  71  98 129 160 200 251 299
#     4  10  20  34  52  73  97 127 164 205 248 293
#     4   8  14  27  48  72  96 124 160 199 238 281
#     4  10  20  34  51  74 106 138 166 198 241 296
#     4   9  18  32  48  68  97 130 160 192 237 293
#     4   9  18  32  51  73  97 128 163 199 241 289
#
# _framework density 18.883437000000001
#
# number of rings (size 3 to 8) (size 9 to 14) (size 15 to 20)
#    0.000    2.875    0.000    1.875    0.000    3.000 
#    0.000    2.500    0.000    1.875    0.000    0.000 
#    0.000    0.000    0.000    0.000    0.000    0.000 
#
# Total GULP energy -356749.740388 kJ/mol
# GULP energy per Si atom -5574.214694 kJ/mol
# Density = 1.884046 g / cm^3
# Si number density = 18.883437 Si / 1000 Ang^3
#
#
#
# Elastic Constant Matrix: (Units=GPa)
#
#
# Indices 1 2 3 4 5 6 
#
# 1 5.7953 5.9647 1.1368 0.0000 0.0000 0.0000
# 2 5.9647 78.8378 63.2229 0.0000 0.0000 0.0000
# 3 1.1368 63.2229 116.1025 0.0000 0.0000 0.0000
# 4 0.0000 0.0000 0.0000 25.2143 0.0000 0.0000
# 5 0.0000 0.0000 0.0000 0.0000 20.7008 0.0000
# 6 0.0000 0.0000 0.0000 0.0000 0.0000 13.0309
#
#
#
# Elastic Compliance Matrix: (Units=1/GPa)
#
#
# Indices 1 2 3 4 5 6 
#
# 1 0.194527 -0.023415 0.010846 0.000000 0.000000 0.000000
# 2 -0.023415 0.025336 -0.013567 0.000000 0.000000 0.000000
# 3 0.010846 -0.013567 0.015895 0.000000 0.000000 0.000000
# 4 0.000000 0.000000 0.000000 0.039660 0.000000 0.000000
# 5 0.000000 0.000000 0.000000 0.000000 0.048307 0.000000
# 6 0.000000 0.000000 0.000000 0.000000 0.000000 0.076741
#
#
# Mechanical properties :
#
#
# Convention : Reuss Voigt Hill
#
# Bulk Modulus (GPa) = 5.45005 37.93160 21.69082
# Shear Modulus (GPa) = 9.72952 20.48328 15.10640
#
# Velocity S-wave (km/s) = 2.27235 3.29709 2.83146
# Velocity P-wave (km/s) = 3.12685 5.88432 4.71182
#
# Compressibility (1/GPa) = 0.18348455
#
# Stress axis : x y z
#
# Youngs Moduli (GPa) = 5.14068 39.46982 62.91360
#
# Poissons Ratio (x) = 0.92419 -0.68235
# Poissons Ratio (y) = 0.12037 0.85356
# Poissons Ratio (z) = -0.05575 0.53549
#
# Static dielectric constant tensor:
#      x y z
#    x 1.659060 0.000000 0.000000 
#    y 0.000000 1.674650 0.000000 
#    z 0.000000 0.000000 1.654470 
# 
# From -- ./inp_files/15079.got.cif
#   From: 2010.05.17/outbox.cif.g08.bks.cpg/sg59_8_cif.got.tgz:15079.got - 2010.06.03 14:40:33.
