data_PCOD9450389
_publ_section_title
;
Structure prediction by ZEFSAII (Michael W. Deem and Ramdas Pophale) SiO2 
 PCOD9450389
Probable space group: P M M N
;
_chemical_formula_sum "Si O2"
_cell_formula_units_Z 40
_cell_length_a 7.706972
_cell_length_b 9.407569
_cell_length_c 26.780012
_cell_angle_alpha 90.000000
_cell_angle_beta 90.000000
_cell_angle_gamma 90.000000
_cell_volume 1941.654532
_symmetry_space_group_name_H-M "P M M N"
_symmetry_group_IT_number 59
_space_group.IT_coordinate_system_code '2'
_symmetry_cell_setting 'orthorhombic'
loop_
_space_group_symop_operation_xyz
x,y,z
1/2-x,1/2-y,z
1/2+x,-y,-z
-x,1/2+y,-z
-x,-y,-z
1/2+x,1/2+y,-z
1/2-x,y,z
x,1/2-y,z
loop_
_atom_site_type_symbol
_atom_site_label
_atom_site_fract_x
_atom_site_fract_y
_atom_site_fract_z
Si Si1 0.461572 0.915731 0.841217
Si Si2 0.043555 0.588339 0.450464
Si Si3 0.537194 0.586290 0.255930
Si Si4 0.957160 0.411104 0.352022
Si Si5 0.958198 0.411022 0.048724
O O1 0.250000 0.918502 0.840353
O O2 0.511183 0.750000 0.834788
O O3 0.518253 0.963891 0.896672
O O4 0.520179 0.012143 0.795423
O O5 0.250000 0.598645 0.448161
O O6 0.972680 0.750000 0.451760
O O7 0.000000 0.500000 0.500000
O O8 0.986331 0.501830 0.401786
O O9 0.750000 0.585615 0.256139
O O10 0.482791 0.750000 0.259351
O O11 0.477114 0.495315 0.303532
O O12 0.750000 0.399941 0.345636
O O13 0.026062 0.250000 0.356102
O O14 0.750000 0.405182 0.051862
O O15 0.023449 0.250000 0.042808
O O16 0.000000 0.500000 0.000000
#
# Coordination Sequence:
#
# PCOD9450389 Si02
#       5
#     8   8   8   8   8
#     4   8  14  26  43  64  93 127 162 203 250 299
#     4  11  24  40  58  81 108 138 173 212 253 297
#     4   9  16  26  44  72 102 130 163 205 251 297
#     4  10  20  34  54  80 108 138 171 206 248 299
#     4   9  18  31  47  69  97 129 166 208 254 303
#
# _framework density 20.600987
#
# number of rings (size 3 to 8) (size 9 to 14) (size 15 to 20)
#    0.000    2.600    0.000    3.600    0.000    8.800 
#    0.000    2.000    0.000    1.200    0.000    5.600 
#    0.000    0.000    0.000    0.000    0.000    0.000 
#
# Total GULP energy -223261.236035 kJ/mol
# GULP energy per Si atom -5581.530901 kJ/mol
# Density = 2.055410 g / cm^3
# Si number density = 20.600987 Si / 1000 Ang^3
#
#
#
# Elastic Constant Matrix: (Units=GPa)
#
#
# Indices 1 2 3 4 5 6 
#
# 1 31.5245 7.3494 2.1105 0.0000 0.0000 0.0000
# 2 7.3494 188.0670 143.0795 0.0000 0.0000 0.0000
# 3 2.1105 143.0795 242.8746 0.0000 0.0000 0.0000
# 4 0.0000 0.0000 0.0000 42.6398 0.0000 0.0000
# 5 0.0000 0.0000 0.0000 0.0000 19.7250 0.0000
# 6 0.0000 0.0000 0.0000 0.0000 0.0000 13.7237
#
#
#
# Elastic Compliance Matrix: (Units=1/GPa)
#
#
# Indices 1 2 3 4 5 6 
#
# 1 0.032106 -0.001889 0.000834 0.000000 0.000000 0.000000
# 2 -0.001889 0.009747 -0.005726 0.000000 0.000000 0.000000
# 3 0.000834 -0.005726 0.007483 0.000000 0.000000 0.000000
# 4 0.000000 0.000000 0.000000 0.023452 0.000000 0.000000
# 5 0.000000 0.000000 0.000000 0.000000 0.050697 0.000000
# 6 0.000000 0.000000 0.000000 0.000000 0.000000 0.072867
#
#
# Mechanical properties :
#
#
# Convention : Reuss Voigt Hill
#
# Bulk Modulus (GPa) = 27.95293 85.28277 56.61785
# Shear Modulus (GPa) = 22.53887 35.87948 29.20917
#
# Velocity S-wave (km/s) = 3.31126 4.17782 3.76952
# Velocity P-wave (km/s) = 5.31201 8.04733 6.81825
#
# Compressibility (1/GPa) = 0.03577443
#
# Stress axis : x y z
#
# Youngs Moduli (GPa) = 31.14692 102.59432 133.63334
#
# Poissons Ratio (x) = 0.19381 -0.11143
# Poissons Ratio (y) = 0.05884 0.76514
# Poissons Ratio (z) = -0.02597 0.58742
#
# Static dielectric constant tensor:
#      x y z
#    x 1.787780 0.000000 0.000000 
#    y 0.000000 1.720220 0.000000 
#    z 0.000000 0.000000 1.821560 
# 
# From -- ./inp_files/31144.got.cif
#   From: 2010.05.17/outbox.cif.g08.bks.cpg/sg59_16_cif.got.tgz:31144.got - 2010.06.03 14:40:33.
