data_PCOD9450111
_publ_section_title
;
Structure prediction by ZEFSAII (Michael W. Deem and Ramdas Pophale) SiO2 
 PCOD9450111
Probable space group: P M M N
;
_chemical_formula_sum "Si O2"
_cell_formula_units_Z 64
_cell_length_a 19.052413
_cell_length_b 7.468292
_cell_length_c 21.133089
_cell_angle_alpha 90.000000
_cell_angle_beta 90.000000
_cell_angle_gamma 90.000000
_cell_volume 3007.005754
_symmetry_space_group_name_H-M "P M M N"
_symmetry_group_IT_number 59
_space_group.IT_coordinate_system_code '2'
_symmetry_cell_setting 'orthorhombic'
loop_
_space_group_symop_operation_xyz
x,y,z
1/2-x,1/2-y,z
1/2+x,-y,-z
-x,1/2+y,-z
-x,-y,-z
1/2+x,1/2+y,-z
1/2-x,y,z
x,1/2-y,z
loop_
_atom_site_type_symbol
_atom_site_label
_atom_site_fract_x
_atom_site_fract_y
_atom_site_fract_z
Si Si1 0.330039 0.535423 0.563737
Si Si2 0.670078 0.963959 0.579453
Si Si3 0.583340 0.463871 0.317156
Si Si4 0.428886 0.467167 0.922754
Si Si5 0.329822 0.035026 0.809212
Si Si6 0.330028 0.030826 0.185995
Si Si7 0.409581 0.039570 0.064141
Si Si8 0.924432 0.969370 0.695900
O O1 0.250000 0.466776 0.570159
O O2 0.326646 0.750000 0.570531
O O3 0.353975 0.498859 0.492208
O O4 0.380121 0.466082 0.619029
O O5 0.750000 0.033970 0.586062
O O6 0.674040 0.750000 0.586998
O O7 0.617853 0.028778 0.633589
O O8 0.576881 0.250000 0.324637
O O9 0.632856 0.495963 0.257114
O O10 0.504740 0.531666 0.305228
O O11 0.427866 0.250000 0.923572
O O12 0.378199 0.530460 0.867009
O O13 0.509811 0.520703 0.913450
O O14 0.406400 0.532829 0.992653
O O15 0.250000 0.967190 0.811014
O O16 0.326650 0.250000 0.815397
O O17 0.250000 0.976347 0.197496
O O18 0.331006 0.250000 0.185487
O O19 0.358827 0.967302 0.118242
O O20 0.381927 0.974346 0.241924
O O21 0.393617 0.250000 0.058808
O O22 0.924993 0.750000 0.696318
#
# Coordination Sequence:
#
# PCOD9450111 Si02
#       8
#     8   8   8   8   8   8   8   8
#     4   9  18  32  48  67  93 123 154 192 239 286
#     4   9  17  30  49  71  95 125 158 191 232 284
#     4  10  20  34  52  72  95 125 161 200 240 283
#     4   9  18  32  49  70  98 129 158 193 239 284
#     4  10  21  35  50  70  98 130 162 199 243 288
#     4   9  16  26  44  71  98 122 153 196 239 275
#     4   9  17  30  50  74  97 125 162 198 232 278
#     4   9  17  29  46  70  98 124 154 196 240 279
#
# _framework density 21.283631
#
# number of rings (size 3 to 8) (size 9 to 14) (size 15 to 20)
#    0.000    2.750    0.000    1.500    0.000    5.250 
#    0.000    4.375    0.000    1.125    0.000    3.500 
#    0.000    0.000    0.000    0.000    0.000    0.000 
#
# Total GULP energy -357381.257199 kJ/mol
# GULP energy per Si atom -5584.082144 kJ/mol
# Density = 2.123519 g / cm^3
# Si number density = 21.283631 Si / 1000 Ang^3
#
#
#
# Elastic Constant Matrix: (Units=GPa)
#
#
# Indices 1 2 3 4 5 6 
#
# 1 52.0651 -12.3293 25.2875 0.0000 0.0000 0.0000
# 2 -12.3293 59.8784 -13.1363 0.0000 0.0000 0.0000
# 3 25.2875 -13.1363 79.3754 0.0000 0.0000 0.0000
# 4 0.0000 0.0000 0.0000 44.6818 0.0000 0.0000
# 5 0.0000 0.0000 0.0000 0.0000 42.2726 0.0000
# 6 0.0000 0.0000 0.0000 0.0000 0.0000 12.2035
#
#
#
# Elastic Compliance Matrix: (Units=1/GPa)
#
#
# Indices 1 2 3 4 5 6 
#
# 1 0.023332 0.003293 -0.006888 0.000000 0.000000 0.000000
# 2 0.003293 0.017794 0.001896 0.000000 0.000000 0.000000
# 3 -0.006888 0.001896 0.015107 0.000000 0.000000 0.000000
# 4 0.000000 0.000000 0.000000 0.022380 0.000000 0.000000
# 5 0.000000 0.000000 0.000000 0.000000 0.023656 0.000000
# 6 0.000000 0.000000 0.000000 0.000000 0.000000 0.081944
#
#
# Mechanical properties :
#
#
# Convention : Reuss Voigt Hill
#
# Bulk Modulus (GPa) = 18.92702 21.21807 20.07254
# Shear Modulus (GPa) = 24.36371 32.59804 28.48088
#
# Velocity S-wave (km/s) = 3.38704 3.91781 3.66205
# Velocity P-wave (km/s) = 4.92017 5.51874 5.22803
#
# Compressibility (1/GPa) = 0.05283451
#
# Stress axis : x y z
#
# Youngs Moduli (GPa) = 42.85947 56.19718 66.19646
#
# Poissons Ratio (x) = -0.18506 0.45597
# Poissons Ratio (y) = -0.14114 -0.12550
# Poissons Ratio (z) = 0.29522 -0.10654
#
# Static dielectric constant tensor:
#      x y z
#    x 1.733510 0.000000 0.000000 
#    y 0.000000 1.817200 0.000000 
#    z 0.000000 0.000000 1.739550 
# 
# From -- ./inp_files/30824.got.cif
#   From: 2010.05.17/outbox.cif.g08.bks.cpg/sg59_16_cif.got.tgz:30824.got - 2010.06.03 14:40:33.
