data_PCOD9450765
_publ_section_title
;
Structure prediction by ZEFSAII (Michael W. Deem and Ramdas Pophale) SiO2 
 PCOD9450765
Probable space group: P M M N
;
_chemical_formula_sum "Si O2"
_cell_formula_units_Z 40
_cell_length_a 26.353275
_cell_length_b 8.436036
_cell_length_c 9.855502
_cell_angle_alpha 90.000000
_cell_angle_beta 90.000000
_cell_angle_gamma 90.000000
_cell_volume 2191.047379
_symmetry_space_group_name_H-M "P M M N"
_symmetry_group_IT_number 59
_space_group.IT_coordinate_system_code '2'
_symmetry_cell_setting 'orthorhombic'
loop_
_space_group_symop_operation_xyz
x,y,z
1/2-x,1/2-y,z
1/2+x,-y,-z
-x,1/2+y,-z
-x,-y,-z
1/2+x,1/2+y,-z
1/2-x,y,z
x,1/2-y,z
loop_
_atom_site_type_symbol
_atom_site_label
_atom_site_fract_x
_atom_site_fract_y
_atom_site_fract_z
Si Si1 0.250000 0.056162 0.906756
Si Si2 0.343664 0.441681 0.092691
Si Si3 0.955627 0.438365 0.903805
Si Si4 0.157719 0.057096 0.405053
Si Si5 0.250000 0.055784 0.593859
Si Si6 0.043307 0.060112 0.400772
O O1 0.250000 0.250000 0.906755
O O2 0.250000 0.004604 0.750319
O O3 0.200051 0.005728 0.989752
O O4 0.344461 0.250000 0.092577
O O5 0.399779 0.499921 0.055423
O O6 0.332559 0.491679 0.248657
O O7 0.955228 0.250000 0.904839
O O8 0.965004 0.499045 0.751320
O O9 0.000000 0.500000 0.000000
O O10 0.158973 0.250000 0.405392
O O11 0.200432 0.003650 0.509899
O O12 0.100395 0.008388 0.441808
O O13 0.250000 0.250000 0.594481
O O14 0.042911 0.250000 0.398766
O O15 0.000000 0.000000 0.500000
#
# Coordination Sequence:
#
# PCOD9450765 Si02
#       6
#     4   8   8   8   4   8
#     4   9  17  27  46  75 106 136 172 217 264 313
#     4   9  17  32  51  74 103 138 176 215 261 320
#     4  11  22  37  56  79 106 141 182 229 280 332
#     4   8  15  27  45  67  98 134 169 207 251 302
#     4   9  15  25  43  73 102 126 162 211 258 301
#     4  10  20  35  54  80 110 143 180 221 268 323
#
# _framework density 18.256108999999999
#
# number of rings (size 3 to 8) (size 9 to 14) (size 15 to 20)
#    0.000    2.600    0.000    4.200    0.000    4.000 
#    0.000    4.500    0.000    0.000    0.000    9.100 
#    0.000    0.000    0.000    0.000    0.000    0.000 
#
# Total GULP energy -223146.779451 kJ/mol
# GULP energy per Si atom -5578.669486 kJ/mol
# Density = 1.821456 g / cm^3
# Si number density = 18.256109 Si / 1000 Ang^3
#
#
#
# Elastic Constant Matrix: (Units=GPa)
#
#
# Indices 1 2 3 4 5 6 
#
# 1 206.7281 33.0853 150.0406 0.0000 0.0000 0.0000
# 2 33.0853 35.8655 27.3453 0.0000 0.0000 0.0000
# 3 150.0406 27.3453 143.3056 0.0000 0.0000 0.0000
# 4 0.0000 0.0000 0.0000 18.5368 0.0000 0.0000
# 5 0.0000 0.0000 0.0000 0.0000 39.6041 0.0000
# 6 0.0000 0.0000 0.0000 0.0000 0.0000 24.7829
#
#
#
# Elastic Compliance Matrix: (Units=1/GPa)
#
#
# Indices 1 2 3 4 5 6 
#
# 1 0.020413 -0.002967 -0.020806 0.000000 0.000000 0.000000
# 2 -0.002967 0.033060 -0.003202 0.000000 0.000000 0.000000
# 3 -0.020806 -0.003202 0.029373 0.000000 0.000000 0.000000
# 4 0.000000 0.000000 0.000000 0.053947 0.000000 0.000000
# 5 0.000000 0.000000 0.000000 0.000000 0.025250 0.000000
# 6 0.000000 0.000000 0.000000 0.000000 0.000000 0.040350
#
#
# Mechanical properties :
#
#
# Convention : Reuss Voigt Hill
#
# Bulk Modulus (GPa) = 34.60694 89.64906 62.12800
# Shear Modulus (GPa) = 18.79869 28.27996 23.53932
#
# Velocity S-wave (km/s) = 3.21241 3.94009 3.59471
# Velocity P-wave (km/s) = 5.72337 8.36134 7.16481
#
# Compressibility (1/GPa) = 0.02889594
#
# Stress axis : x y z
#
# Youngs Moduli (GPa) = 48.98837 30.24774 34.04475
#
# Poissons Ratio (x) = 0.08975 0.70834
# Poissons Ratio (y) = 0.14536 0.10901
# Poissons Ratio (z) = 1.01926 0.09685
#
# Static dielectric constant tensor:
#      x y z
#    x 1.621110 0.000000 0.000000 
#    y 0.000000 1.632050 0.000000 
#    z 0.000000 0.000000 1.602630 
# 
# From -- ./inp_files/12399.got.cif
#   From: 2010.05.17/outbox.cif.g08.bks.cpg/sg59_7_cif.got.tgz:12399.got - 2010.06.03 14:40:33.
