data_PCOD9450151
_publ_section_title
;
Structure prediction by ZEFSAII (Michael W. Deem and Ramdas Pophale) SiO2 
 PCOD9450151
Probable space group: P M M N
;
_chemical_formula_sum "Si O2"
_cell_formula_units_Z 48
_cell_length_a 7.395260
_cell_length_b 28.652240
_cell_length_c 9.960428
_cell_angle_alpha 90.000000
_cell_angle_beta 90.000000
_cell_angle_gamma 90.000000
_cell_volume 2110.522702
_symmetry_space_group_name_H-M "P M M N"
_symmetry_group_IT_number 59
_space_group.IT_coordinate_system_code '2'
_symmetry_cell_setting 'orthorhombic'
loop_
_space_group_symop_operation_xyz
x,y,z
1/2-x,1/2-y,z
1/2+x,-y,-z
-x,1/2+y,-z
-x,-y,-z
1/2+x,1/2+y,-z
1/2-x,y,z
x,1/2-y,z
loop_
_atom_site_type_symbol
_atom_site_label
_atom_site_fract_x
_atom_site_fract_y
_atom_site_fract_z
Si Si1 0.959676 0.952857 0.180978
Si Si2 0.458812 0.958699 0.664939
Si Si3 0.970474 0.901951 0.923369
Si Si4 0.038550 0.300877 0.109542
Si Si5 0.030594 0.895381 0.428409
Si Si6 0.531497 0.198343 0.426458
O O1 0.750000 0.965109 0.157394
O O2 0.970323 0.908751 0.280073
O O3 0.042491 0.996096 0.263093
O O4 0.034604 0.937840 0.037312
O O5 0.250000 0.970012 0.634486
O O6 0.466711 0.918822 0.778175
O O7 0.535163 0.936220 0.529777
O O8 0.750000 0.901985 0.922767
O O9 0.033943 0.849131 0.949674
O O10 0.250000 0.299290 0.074172
O O11 0.959525 0.250000 0.075091
O O12 0.026042 0.306022 0.271241
O O13 0.250000 0.895554 0.431096
O O14 0.969882 0.845512 0.485745
O O15 0.750000 0.197450 0.426327
O O16 0.474123 0.250000 0.473587
#
# Coordination Sequence:
#
# PCOD9450151 Si02
#       6
#     8   8   8   8   8   8
#     4  10  22  36  50  73 107 140 170 209 254 302
#     4  10  20  35  54  76 101 132 175 217 252 298
#     4  10  20  34  52  76 103 133 169 208 255 305
#     4   9  17  30  50  75 100 127 163 206 249 298
#     4  10  20  34  52  76 102 132 171 210 253 303
#     4   9  17  31  52  76 101 128 163 210 256 298
#
# _framework density 22.743181
#
# number of rings (size 3 to 8) (size 9 to 14) (size 15 to 20)
#    0.000    2.333    1.667    1.000    0.000    2.667 
#    0.000    0.833    0.000    1.000    0.000    0.000 
#    0.000    0.000    0.000    0.000    0.000    0.000 
#
# Total GULP energy -268063.880190 kJ/mol
# GULP energy per Si atom -5584.664171 kJ/mol
# Density = 2.269142 g / cm^3
# Si number density = 22.743181 Si / 1000 Ang^3
#
#
#
# Elastic Constant Matrix: (Units=GPa)
#
#
# Indices 1 2 3 4 5 6 
#
# 1 84.1677 3.7255 -8.1423 0.0000 0.0000 0.0000
# 2 3.7255 103.2356 -12.7377 0.0000 0.0000 0.0000
# 3 -8.1423 -12.7377 50.0790 0.0000 0.0000 0.0000
# 4 0.0000 0.0000 0.0000 13.3344 0.0000 0.0000
# 5 0.0000 0.0000 0.0000 0.0000-5478.1240 0.0000
# 6 0.0000 0.0000 0.0000 0.0000 0.0000 5.4842
#
#
#
# Elastic Compliance Matrix: (Units=1/GPa)
#
#
# Indices 1 2 3 4 5 6 
#
# 1 0.012075 -0.000200 0.001912 0.000000 0.000000 0.000000
# 2 -0.000200 0.010004 0.002512 0.000000 0.000000 0.000000
# 3 0.001912 0.002512 0.020918 0.000000 0.000000 0.000000
# 4 0.000000 0.000000 0.000000 0.074994 0.000000 0.000000
# 5 0.000000 0.000000 0.000000 0.000000 -0.000183 0.000000
# 6 0.000000 0.000000 0.000000 0.000000 0.000000 0.182341
#
#
# Mechanical properties :
#
#
# Convention : Reuss Voigt Hill
#
# Bulk Modulus (GPa) = 19.43779 22.57482 21.00630
# Shear Modulus (GPa) = 16.18914 -1074.88528 -529.34807
#
# Velocity S-wave (km/s) = 2.67090 -21.76338 -15.27270
# Velocity P-wave (km/s) = 4.25168 24.93148 17.37098
#
# Compressibility (1/GPa) = 0.05144618
#
# Stress axis : x y z
#
# Youngs Moduli (GPa) = 82.81651 99.96271 47.80503
#
# Poissons Ratio (x) = 0.01997 -0.09142
# Poissons Ratio (y) = 0.01655 -0.12009
# Poissons Ratio (z) = -0.15838 -0.25110
#
# Static dielectric constant tensor:
#      x y z
#    x 1.835740 0.000000 0.000000 
#    y 0.000000 1.901330 0.000000 
#    z 0.000000 0.000000 1.772080 
# 
# From -- ./inp_files/6192.got.cif
#   From: 2010.05.17/outbox.cif.g08.bks.cpg/sg59_4_cif.got.tgz:6192.got - 2010.06.03 14:40:33.
