data_PCOD9450545
_publ_section_title
;
Structure prediction by ZEFSAII (Michael W. Deem and Ramdas Pophale) SiO2 
 PCOD9450545
Probable space group: P M M N
;
_chemical_formula_sum "Si O2"
_cell_formula_units_Z 48
_cell_length_a 8.462186
_cell_length_b 15.448457
_cell_length_c 19.621539
_cell_angle_alpha 90.000000
_cell_angle_beta 90.000000
_cell_angle_gamma 90.000000
_cell_volume 2565.078989
_symmetry_space_group_name_H-M "P M M N"
_symmetry_group_IT_number 59
_space_group.IT_coordinate_system_code '2'
_symmetry_cell_setting 'orthorhombic'
loop_
_space_group_symop_operation_xyz
x,y,z
1/2-x,1/2-y,z
1/2+x,-y,-z
-x,1/2+y,-z
-x,-y,-z
1/2+x,1/2+y,-z
1/2-x,y,z
x,1/2-y,z
loop_
_atom_site_type_symbol
_atom_site_label
_atom_site_fract_x
_atom_site_fract_y
_atom_site_fract_z
Si Si1 0.559334 0.109288 0.159407
Si Si2 0.058971 0.250000 0.423543
Si Si3 0.561220 0.906198 0.480094
Si Si4 0.559357 0.250000 0.269596
Si Si5 0.557359 0.250000 0.050314
Si Si6 0.940836 0.420245 0.810833
Si Si7 0.943273 0.250000 0.894036
Si Si8 0.440509 0.850477 0.332761
O O1 0.750000 0.107017 0.159331
O O2 0.509825 0.165776 0.225598
O O3 0.508879 0.165617 0.093712
O O4 0.497161 0.012275 0.161780
O O5 0.250000 0.250000 0.423390
O O6 0.004473 0.166005 0.465947
O O7 0.002799 0.250000 0.346007
O O8 0.750000 0.906002 0.481998
O O9 0.507416 0.881614 0.404339
O O10 0.500000 0.000000 0.500000
O O11 0.750000 0.250000 0.271248
O O12 0.750000 0.250000 0.049815
O O13 0.504139 0.250000 0.972480
O O14 0.750000 0.419553 0.811116
O O15 0.993345 0.337249 0.855028
O O16 0.993527 0.405199 0.732724
O O17 0.750000 0.250000 0.893317
O O18 0.250000 0.855192 0.336074
O O19 0.483078 0.750000 0.321555
#
# Coordination Sequence:
#
# PCOD9450545 Si02
#       8
#     8   4   8   4   4   8   4   8
#     4   9  19  36  55  80 109 142 182 223 269 324
#     4  10  23  40  56  78 109 138 176 230 278 318
#     4  11  24  41  58  82 112 145 184 229 278 332
#     4   9  20  37  56  76 104 142 184 221 264 328
#     4   8  16  34  58  78 109 149 182 219 267 324
#     4  10  20  34  55  83 111 141 183 227 267 320
#     4   9  17  33  56  82 110 147 186 220 265 324
#     4  10  20  37  58  79 108 146 185 229 276 328
#
# _framework density 18.712875
#
# number of rings (size 3 to 8) (size 9 to 14) (size 15 to 20)
#    0.000    2.333    1.667    1.500    2.333    3.333 
#    0.000    1.667    0.000    1.000    0.000    0.000 
#    0.000    0.000    0.000    0.000    0.000    0.000 
#
# Total GULP energy -267897.234251 kJ/mol
# GULP energy per Si atom -5581.192380 kJ/mol
# Density = 1.867028 g / cm^3
# Si number density = 18.712875 Si / 1000 Ang^3
#
#
#
# Elastic Constant Matrix: (Units=GPa)
#
#
# Indices 1 2 3 4 5 6 
#
# 1 7.1370 24.1027 21.4806 0.0000 0.0000 0.0000
# 2 24.1027 168.4279 80.4323 0.0000 0.0000 0.0000
# 3 21.4806 80.4323 163.1234 0.0000 0.0000 0.0000
# 4 0.0000 0.0000 0.0000 -5.4761 0.0000 0.0000
# 5 0.0000 0.0000 0.0000 0.0000 12.3476 0.0000
# 6 0.0000 0.0000 0.0000 0.0000 0.0000 30.6772
#
#
#
# Elastic Compliance Matrix: (Units=1/GPa)
#
#
# Indices 1 2 3 4 5 6 
#
# 1 0.345932 -0.036297 -0.027656 0.000000 0.000000 0.000000
# 2 -0.036297 0.011574 -0.000927 0.000000 0.000000 0.000000
# 3 -0.027656 -0.000927 0.010229 0.000000 0.000000 0.000000
# 4 0.000000 0.000000 0.000000 -0.182611 0.000000 0.000000
# 5 0.000000 0.000000 0.000000 0.000000 0.080987 0.000000
# 6 0.000000 0.000000 0.000000 0.000000 0.000000 0.032597
#
#
# Mechanical properties :
#
#
# Convention : Reuss Voigt Hill
#
# Bulk Modulus (GPa) = 4.20213 65.63551 34.91882
# Shear Modulus (GPa) = 9.84649 21.68793 15.76721
#
# Velocity S-wave (km/s) = 2.29637 3.40808 2.90588
# Velocity P-wave (km/s) = 3.04656 7.11603 5.47355
#
# Compressibility (1/GPa) = 0.23797445
#
# Stress axis : x y z
#
# Youngs Moduli (GPa) = 2.89074 86.39774 97.75733
#
# Poissons Ratio (x) = 3.13599 2.70359
# Poissons Ratio (y) = 0.10493 0.09065
# Poissons Ratio (z) = 0.07995 0.08012
#
# Static dielectric constant tensor:
#      x y z
#    x 1.650040 0.000000 0.000000 
#    y 0.000000 1.626750 0.000000 
#    z 0.000000 0.000000 1.632650 
# 
# From -- ./inp_files/25698.got.cif
#   From: 2010.05.17/outbox.cif.g08.bks.cpg/sg59_13_cif.got.tgz:25698.got - 2010.06.03 14:40:33.
