data_PCOD9450396
_publ_section_title
;
Structure prediction by ZEFSAII (Michael W. Deem and Ramdas Pophale) SiO2 
 PCOD9450396
Probable space group: P M M N
;
_chemical_formula_sum "Si O2"
_cell_formula_units_Z 48
_cell_length_a 7.831405
_cell_length_b 9.345255
_cell_length_c 32.039002
_cell_angle_alpha 90.000000
_cell_angle_beta 90.000000
_cell_angle_gamma 90.000000
_cell_volume 2344.821674
_symmetry_space_group_name_H-M "P M M N"
_symmetry_group_IT_number 59
_space_group.IT_coordinate_system_code '2'
_symmetry_cell_setting 'orthorhombic'
loop_
_space_group_symop_operation_xyz
x,y,z
1/2-x,1/2-y,z
1/2+x,-y,-z
-x,1/2+y,-z
-x,-y,-z
1/2+x,1/2+y,-z
1/2-x,y,z
x,1/2-y,z
loop_
_atom_site_type_symbol
_atom_site_label
_atom_site_fract_x
_atom_site_fract_y
_atom_site_fract_z
Si Si1 0.454136 0.413584 0.368175
Si Si2 0.455681 0.413461 0.877412
Si Si3 0.455836 0.413323 0.205692
Si Si4 0.953006 0.088234 0.459258
Si Si5 0.040652 0.914594 0.287467
Si Si6 0.044131 0.586369 0.958369
O O1 0.250000 0.405134 0.363518
O O2 0.521674 0.250000 0.366000
O O3 0.489015 0.471814 0.414523
O O4 0.517530 0.510229 0.330213
O O5 0.250000 0.407116 0.880527
O O6 0.519832 0.250000 0.876752
O O7 0.498417 0.497205 0.835247
O O8 0.519210 0.501236 0.917637
O O9 0.250000 0.407397 0.208031
O O10 0.519438 0.250000 0.203388
O O11 0.515435 0.494431 0.247357
O O12 0.750000 0.096367 0.457673
O O13 0.024100 0.250000 0.462417
O O14 0.000000 0.000000 0.500000
O O15 0.250000 0.914588 0.287503
O O16 0.986091 0.750000 0.284706
O O17 0.250000 0.592434 0.955582
O O18 0.980616 0.750000 0.959723
O O19 0.000000 0.500000 0.000000
#
# Coordination Sequence:
#
# PCOD9450396 Si02
#       6
#     8   8   8   8   8   8
#     4   9  17  31  51  73  99 133 171 211 258 311
#     4  10  21  37  56  78 106 140 176 216 264 315
#     4  10  20  34  54  80 108 140 179 219 258 305
#     4  10  21  36  54  77 105 137 174 215 259 309
#     4   9  17  30  50  76 104 134 171 216 262 306
#     4  10  21  37  57  80 106 138 176 217 263 315
#
# _framework density 20.470638999999998
#
# number of rings (size 3 to 8) (size 9 to 14) (size 15 to 20)
#    0.000    2.333    0.000    2.500    0.000    7.333 
#    0.000    2.500    0.000    3.000    0.000    0.000 
#    0.000    0.000    0.000    0.000    0.000    0.000 
#
# Total GULP energy -268067.137518 kJ/mol
# GULP energy per Si atom -5584.732032 kJ/mol
# Density = 2.042405 g / cm^3
# Si number density = 20.470639 Si / 1000 Ang^3
#
#
#
# Elastic Constant Matrix: (Units=GPa)
#
#
# Indices 1 2 3 4 5 6 
#
# 1 23.3488 8.9817 1.8928 0.0000 0.0000 0.0000
# 2 8.9817 192.3166 136.4253 0.0000 0.0000 0.0000
# 3 1.8928 136.4253 236.8201 0.0000 0.0000 0.0000
# 4 0.0000 0.0000 0.0000 41.8592 0.0000 0.0000
# 5 0.0000 0.0000 0.0000 0.0000 26.2290 0.0000
# 6 0.0000 0.0000 0.0000 0.0000 0.0000 16.3121
#
#
#
# Elastic Compliance Matrix: (Units=1/GPa)
#
#
# Indices 1 2 3 4 5 6 
#
# 1 0.043886 -0.003045 0.001404 0.000000 0.000000 0.000000
# 2 -0.003045 0.009004 -0.005163 0.000000 0.000000 0.000000
# 3 0.001404 -0.005163 0.007186 0.000000 0.000000 0.000000
# 4 0.000000 0.000000 0.000000 0.023890 0.000000 0.000000
# 5 0.000000 0.000000 0.000000 0.000000 0.038126 0.000000
# 6 0.000000 0.000000 0.000000 0.000000 0.000000 0.061304
#
#
# Mechanical properties :
#
#
# Convention : Reuss Voigt Hill
#
# Bulk Modulus (GPa) = 21.52057 83.00948 52.26503
# Shear Modulus (GPa) = 23.53009 37.22577 30.37793
#
# Velocity S-wave (km/s) = 3.39404 4.26901 3.85642
# Velocity P-wave (km/s) = 5.08872 8.05840 6.73917
#
# Compressibility (1/GPa) = 0.04646717
#
# Stress axis : x y z
#
# Youngs Moduli (GPa) = 22.78613 111.05705 139.16808
#
# Poissons Ratio (x) = 0.33819 -0.19532
# Poissons Ratio (y) = 0.06939 0.71850
# Poissons Ratio (z) = -0.03198 0.57337
#
# Static dielectric constant tensor:
#      x y z
#    x 1.756770 0.000000 0.000000 
#    y 0.000000 1.714010 0.000000 
#    z 0.000000 0.000000 1.693470 
# 
# From -- ./inp_files/32797.got.cif
#   From: 2010.05.17/outbox.cif.g08.bks.cpg/sg59_17_cif.got.tgz:32797.got - 2010.06.03 14:40:33.
