data_PCOD9450466
_publ_section_title
;
Structure prediction by ZEFSAII (Michael W. Deem and Ramdas Pophale) SiO2 
 PCOD9450466
Probable space group: P M M N
;
_chemical_formula_sum "Si O2"
_cell_formula_units_Z 56
_cell_length_a 19.444027
_cell_length_b 8.784154
_cell_length_c 18.217566
_cell_angle_alpha 90.000000
_cell_angle_beta 90.000000
_cell_angle_gamma 90.000000
_cell_volume 3111.548022
_symmetry_space_group_name_H-M "P M M N"
_symmetry_group_IT_number 59
_space_group.IT_coordinate_system_code '2'
_symmetry_cell_setting 'orthorhombic'
loop_
_space_group_symop_operation_xyz
x,y,z
1/2-x,1/2-y,z
1/2+x,-y,-z
-x,1/2+y,-z
-x,-y,-z
1/2+x,1/2+y,-z
1/2-x,y,z
x,1/2-y,z
loop_
_atom_site_type_symbol
_atom_site_label
_atom_site_fract_x
_atom_site_fract_y
_atom_site_fract_z
Si Si1 0.069454 0.566158 0.034600
Si Si2 0.171670 0.935253 0.908519
Si Si3 0.330908 0.431969 0.321130
Si Si4 0.084250 0.567015 0.765387
Si Si5 0.168690 0.431776 0.630745
Si Si6 0.434971 0.567165 0.204259
Si Si7 0.166503 0.925271 0.475889
O O1 0.065435 0.750000 0.032210
O O2 0.132418 0.517967 0.982507
O O3 0.076496 0.520642 0.119373
O O4 0.000000 0.500000 0.000000
O O5 0.250000 0.989862 0.904579
O O6 0.173453 0.750000 0.908096
O O7 0.127366 0.980983 0.837666
O O8 0.250000 0.471168 0.312287
O O9 0.336909 0.250000 0.320686
O O10 0.376113 0.503323 0.256974
O O11 0.354758 0.494886 0.400339
O O12 0.079569 0.750000 0.764997
O O13 0.124733 0.510415 0.694013
O O14 0.008617 0.496756 0.770679
O O15 0.250000 0.469861 0.639892
O O16 0.161988 0.250000 0.634998
O O17 0.146190 0.489190 0.550297
O O18 0.435567 0.750000 0.207752
O O19 0.250000 0.927236 0.475466
O O20 0.143963 0.750000 0.477479
#
# Coordination Sequence:
#
# PCOD9450466 Si02
#       7
#     8   8   8   8   8   8   8
#     4  10  20  36  58  81 109 147 188 232 280 338
#     4   9  18  33  55  83 111 143 186 234 282 332
#     4  10  21  38  60  85 114 148 188 235 286 338
#     4  11  21  35  56  80 112 153 193 236 282 337
#     4  10  20  34  54  82 117 153 190 234 283 337
#     4  11  23  37  57  84 114 151 191 233 285 344
#     4   9  17  32  56  84 113 147 189 233 280 336
#
# _framework density 17.997471999999998
#
# number of rings (size 3 to 8) (size 9 to 14) (size 15 to 20)
#    0.000    2.000    1.429    2.571    0.000    5.143 
#    0.000    2.143    0.000    1.286    0.000    0.000 
#    0.000    0.000    0.000    0.000    0.000    0.000 
#
# Total GULP energy -312651.544098 kJ/mol
# GULP energy per Si atom -5583.063287 kJ/mol
# Density = 1.795651 g / cm^3
# Si number density = 17.997472 Si / 1000 Ang^3
#
#
#
# Elastic Constant Matrix: (Units=GPa)
#
#
# Indices 1 2 3 4 5 6 
#
# 1 101.8874 39.9754 78.5197 0.0000 0.0000 0.0000
# 2 39.9754 52.6323 54.4202 0.0000 0.0000 0.0000
# 3 78.5197 54.4202 185.5043 0.0000 0.0000 0.0000
# 4 0.0000 0.0000 0.0000 23.6844 0.0000 0.0000
# 5 0.0000 0.0000 0.0000 0.0000 23.5743 0.0000
# 6 0.0000 0.0000 0.0000 0.0000 0.0000 24.1892
#
#
#
# Elastic Compliance Matrix: (Units=1/GPa)
#
#
# Indices 1 2 3 4 5 6 
#
# 1 0.016441 -0.007596 -0.004731 0.000000 0.000000 0.000000
# 2 -0.007596 0.030781 -0.005815 0.000000 0.000000 0.000000
# 3 -0.004731 -0.005815 0.009099 0.000000 0.000000 0.000000
# 4 0.000000 0.000000 0.000000 0.042222 0.000000 0.000000
# 5 0.000000 0.000000 0.000000 0.000000 0.042419 0.000000
# 6 0.000000 0.000000 0.000000 0.000000 0.000000 0.041341
#
#
# Mechanical properties :
#
#
# Convention : Reuss Voigt Hill
#
# Bulk Modulus (GPa) = 49.90447 76.20607 63.05527
# Shear Modulus (GPa) = 22.19608 25.43014 23.81311
#
# Velocity S-wave (km/s) = 3.51563 3.76305 3.64144
# Velocity P-wave (km/s) = 6.65345 7.83041 7.26580
#
# Compressibility (1/GPa) = 0.02003829
#
# Stress axis : x y z
#
# Youngs Moduli (GPa) = 60.82519 32.48709 109.90206
#
# Poissons Ratio (x) = 0.24676 0.51990
# Poissons Ratio (y) = 0.46201 0.63909
# Poissons Ratio (z) = 0.28774 0.18892
#
# Static dielectric constant tensor:
#      x y z
#    x 1.594150 0.000000 0.000000 
#    y 0.000000 1.601320 0.000000 
#    z 0.000000 0.000000 1.600860 
# 
# From -- ./inp_files/24233.got.cif
#   From: 2010.05.17/outbox.cif.g08.bks.cpg/sg59_13_cif.got.tgz:24233.got - 2010.06.03 14:40:33.
