data_PCOD9450637
_publ_section_title
;
Structure prediction by ZEFSAII (Michael W. Deem and Ramdas Pophale) SiO2 
 PCOD9450637
Probable space group: P M M N
;
_chemical_formula_sum "Si O2"
_cell_formula_units_Z 56
_cell_length_a 8.954317
_cell_length_b 19.348579
_cell_length_c 17.964212
_cell_angle_alpha 90.000000
_cell_angle_beta 90.000000
_cell_angle_gamma 90.000000
_cell_volume 3112.359188
_symmetry_space_group_name_H-M "P M M N"
_symmetry_group_IT_number 59
_space_group.IT_coordinate_system_code '2'
_symmetry_cell_setting 'orthorhombic'
loop_
_space_group_symop_operation_xyz
x,y,z
1/2-x,1/2-y,z
1/2+x,-y,-z
-x,1/2+y,-z
-x,-y,-z
1/2+x,1/2+y,-z
1/2-x,y,z
x,1/2-y,z
loop_
_atom_site_type_symbol
_atom_site_label
_atom_site_fract_x
_atom_site_fract_y
_atom_site_fract_z
Si Si1 0.070853 0.589134 0.873850
Si Si2 0.079200 0.668623 0.575179
Si Si3 0.427403 0.067766 0.537097
Si Si4 0.930041 0.331009 0.974852
Si Si5 0.075524 0.552747 0.305858
Si Si6 0.423565 0.387726 0.281593
Si Si7 0.928726 0.571187 0.148326
O O1 0.250000 0.594328 0.863409
O O2 0.034260 0.507243 0.878946
O O3 0.989470 0.618351 0.801030
O O4 0.029866 0.630901 0.947846
O O5 0.250000 0.642920 0.568469
O O6 0.077819 0.750000 0.562273
O O7 0.976248 0.630115 0.515916
O O8 0.018265 0.652658 0.657371
O O9 0.250000 0.060228 0.539450
O O10 0.492834 0.076372 0.619709
O O11 0.500000 0.000000 0.500000
O O12 0.750000 0.335438 0.967202
O O13 0.970779 0.250000 0.975953
O O14 0.005550 0.372935 0.908103
O O15 0.250000 0.571753 0.307920
O O16 0.066574 0.469093 0.302624
O O17 0.999128 0.578828 0.230246
O O18 0.250000 0.367473 0.284011
O O19 0.750000 0.576467 0.152331
#
# Coordination Sequence:
#
# PCOD9450637 Si02
#       7
#     8   8   8   8   8   8   8
#     4   9  19  35  56  82 114 149 189 234 283 343
#     4  11  24  40  58  82 117 159 197 237 290 349
#     4  12  23  37  61  89 118 152 193 241 287 339
#     4  10  21  37  56  79 110 150 192 235 288 348
#     4  10  20  36  59  87 115 147 188 236 286 340
#     4  10  20  34  56  85 115 148 186 234 286 341
#     4  10  20  35  57  84 113 146 187 239 289 338
#
# _framework density 17.992781000000001
#
# number of rings (size 3 to 8) (size 9 to 14) (size 15 to 20)
#    0.000    1.714    1.429    3.429    0.000    4.286 
#    0.000    2.143    0.000    4.286    0.000    0.000 
#    0.000    0.000    0.000    0.000    0.000    0.000 
#
# Total GULP energy -312873.975813 kJ/mol
# GULP energy per Si atom -5587.035282 kJ/mol
# Density = 1.795183 g / cm^3
# Si number density = 17.992781 Si / 1000 Ang^3
#
#
#
# Elastic Constant Matrix: (Units=GPa)
#
#
# Indices 1 2 3 4 5 6 
#
# 1 99.6590 50.5133 72.4927 0.0000 0.0000 0.0000
# 2 50.5133 77.0480 72.9252 0.0000 0.0000 0.0000
# 3 72.4927 72.9252 155.9398 0.0000 0.0000 0.0000
# 4 0.0000 0.0000 0.0000 18.0209 0.0000 0.0000
# 5 0.0000 0.0000 0.0000 0.0000 37.2836 0.0000
# 6 0.0000 0.0000 0.0000 0.0000 0.0000 24.4026
#
#
#
# Elastic Compliance Matrix: (Units=1/GPa)
#
#
# Indices 1 2 3 4 5 6 
#
# 1 0.016797 -0.006498 -0.004770 0.000000 0.000000 0.000000
# 2 -0.006498 0.025799 -0.009044 0.000000 0.000000 0.000000
# 3 -0.004770 -0.009044 0.012860 0.000000 0.000000 0.000000
# 4 0.000000 0.000000 0.000000 0.055491 0.000000 0.000000
# 5 0.000000 0.000000 0.000000 0.000000 0.026821 0.000000
# 6 0.000000 0.000000 0.000000 0.000000 0.000000 0.040979
#
#
# Mechanical properties :
#
#
# Convention : Reuss Voigt Hill
#
# Bulk Modulus (GPa) = 67.42084 80.50102 73.96093
# Shear Modulus (GPa) = 22.28991 25.05581 23.67286
#
# Velocity S-wave (km/s) = 3.52351 3.73573 3.63117
# Velocity P-wave (km/s) = 7.35567 7.96527 7.66653
#
# Compressibility (1/GPa) = 0.01483221
#
# Stress axis : x y z
#
# Youngs Moduli (GPa) = 59.53288 38.76068 77.76145
#
# Poissons Ratio (x) = 0.25186 0.37093
# Poissons Ratio (y) = 0.38683 0.70331
# Poissons Ratio (z) = 0.28398 0.35057
#
# Static dielectric constant tensor:
#      x y z
#    x 1.605940 0.000000 0.000000 
#    y 0.000000 1.600680 0.000000 
#    z 0.000000 0.000000 1.586220 
# 
# From -- ./inp_files/20973.got.cif
#   From: 2010.05.17/outbox.cif.g08.bks.cpg/sg59_11_cif.got.tgz:20973.got - 2010.06.03 14:40:33.
