data_PCOD9450120
_publ_section_title
;
Structure prediction by ZEFSAII (Michael W. Deem and Ramdas Pophale) SiO2 
 PCOD9450120
Probable space group: P M M N
;
_chemical_formula_sum "Si O2"
_cell_formula_units_Z 56
_cell_length_a 9.115101
_cell_length_b 19.017149
_cell_length_c 17.830387
_cell_angle_alpha 90.000000
_cell_angle_beta 90.000000
_cell_angle_gamma 90.000000
_cell_volume 3090.776944
_symmetry_space_group_name_H-M "P M M N"
_symmetry_group_IT_number 59
_space_group.IT_coordinate_system_code '2'
_symmetry_cell_setting 'orthorhombic'
loop_
_space_group_symop_operation_xyz
x,y,z
1/2-x,1/2-y,z
1/2+x,-y,-z
-x,1/2+y,-z
-x,-y,-z
1/2+x,1/2+y,-z
1/2-x,y,z
x,1/2-y,z
loop_
_atom_site_type_symbol
_atom_site_label
_atom_site_fract_x
_atom_site_fract_y
_atom_site_fract_z
Si Si1 0.073240 0.330795 0.027820
Si Si2 0.075662 0.576511 0.099731
Si Si3 0.920557 0.830292 0.218395
Si Si4 0.422998 0.389936 0.624775
Si Si5 0.074027 0.074051 0.162169
Si Si6 0.425407 0.575256 0.517390
Si Si7 0.925022 0.048379 0.319685
O O1 0.250000 0.333682 0.019670
O O2 0.026968 0.250000 0.016052
O O3 0.036425 0.359185 0.110793
O O4 0.003480 0.383989 0.968251
O O5 0.250000 0.578341 0.088610
O O6 0.030394 0.496087 0.115613
O O7 0.027873 0.619769 0.173241
O O8 0.750000 0.851932 0.205431
O O9 0.936123 0.750000 0.193227
O O10 0.946400 0.836741 0.307130
O O11 0.250000 0.391823 0.606026
O O12 0.513316 0.376795 0.549306
O O13 0.460344 0.466872 0.659889
O O14 0.250000 0.071447 0.170721
O O15 0.003192 0.071665 0.244024
O O16 0.500000 0.500000 0.500000
O O17 0.250000 0.568735 0.512391
O O18 0.462011 0.591198 0.604167
O O19 0.750000 0.051740 0.308529
#
# Coordination Sequence:
#
# PCOD9450120 Si02
#       7
#     8   8   8   8   8   8   8
#     4  10  22  40  58  75 100 136 175 212 255 311
#     4  11  22  35  53  80 108 132 167 215 263 313
#     4  10  20  34  52  73 103 144 182 215 258 314
#     4   9  17  30  47  71 101 134 174 214 253 300
#     4  10  21  35  54  80 105 132 170 215 262 306
#     4   9  17  28  45  71 101 133 168 207 254 302
#     4   9  17  30  49  75 103 132 167 210 256 303
#
# _framework density 18.118421000000001
#
# number of rings (size 3 to 8) (size 9 to 14) (size 15 to 20)
#    0.000    2.286    1.429    2.571    0.000    6.857 
#    0.000    0.000    0.000    0.857    0.000    6.000 
#    0.000    0.000    0.000    0.000    0.000    0.000 
#
# Total GULP energy -312257.777901 kJ/mol
# GULP energy per Si atom -5576.031748 kJ/mol
# Density = 1.807718 g / cm^3
# Si number density = 18.118421 Si / 1000 Ang^3
#
#
#
# Elastic Constant Matrix: (Units=GPa)
#
#
# Indices 1 2 3 4 5 6 
#
# 1 27.2575 12.9990 39.0800 0.0000 0.0000 0.0000
# 2 12.9990 26.6528 24.1058 0.0000 0.0000 0.0000
# 3 39.0800 24.1058 128.9290 0.0000 0.0000 0.0000
# 4 0.0000 0.0000 0.0000 5.8872 0.0000 0.0000
# 5 0.0000 0.0000 0.0000 0.0000 39.1483 0.0000
# 6 0.0000 0.0000 0.0000 0.0000 0.0000 14.7997
#
#
#
# Elastic Compliance Matrix: (Units=1/GPa)
#
#
# Indices 1 2 3 4 5 6 
#
# 1 0.071691 -0.018427 -0.018285 0.000000 0.000000 0.000000
# 2 -0.018427 0.049892 -0.003743 0.000000 0.000000 0.000000
# 3 -0.018285 -0.003743 0.013998 0.000000 0.000000 0.000000
# 4 0.000000 0.000000 0.000000 0.169859 0.000000 0.000000
# 5 0.000000 0.000000 0.000000 0.000000 0.025544 0.000000
# 6 0.000000 0.000000 0.000000 0.000000 0.000000 0.067569
#
#
# Mechanical properties :
#
#
# Convention : Reuss Voigt Hill
#
# Bulk Modulus (GPa) = 18.29113 37.24542 27.76827
# Shear Modulus (GPa) = 10.04648 19.07736 14.56192
#
# Velocity S-wave (km/s) = 2.35732 3.24840 2.83805
# Velocity P-wave (km/s) = 4.18646 5.88819 5.10868
#
# Compressibility (1/GPa) = 0.05467131
#
# Stress axis : x y z
#
# Youngs Moduli (GPa) = 13.94871 20.04336 71.43647
#
# Poissons Ratio (x) = 0.36934 1.30623
# Poissons Ratio (y) = 0.25704 0.26737
# Poissons Ratio (z) = 0.25505 0.07502
#
# Static dielectric constant tensor:
#      x y z
#    x 1.606510 0.000000 0.000000 
#    y 0.000000 1.618870 0.000000 
#    z 0.000000 0.000000 1.652240 
# 
# From -- ./inp_files/26139.got.cif
#   From: 2010.05.17/outbox.cif.g08.bks.cpg/sg59_14_cif.got.tgz:26139.got - 2010.06.03 14:40:33.
