data_PCOD9450692
_publ_section_title
;
Structure prediction by ZEFSAII (Michael W. Deem and Ramdas Pophale) SiO2 
 PCOD9450692
Probable space group: P M M N
;
_chemical_formula_sum "Si O2"
_cell_formula_units_Z 56
_cell_length_a 14.768190
_cell_length_b 8.991621
_cell_length_c 22.883552
_cell_angle_alpha 90.000000
_cell_angle_beta 90.000000
_cell_angle_gamma 90.000000
_cell_volume 3038.706123
_symmetry_space_group_name_H-M "P M M N"
_symmetry_group_IT_number 59
_space_group.IT_coordinate_system_code '2'
_symmetry_cell_setting 'orthorhombic'
loop_
_space_group_symop_operation_xyz
x,y,z
1/2-x,1/2-y,z
1/2+x,-y,-z
-x,1/2+y,-z
-x,-y,-z
1/2+x,1/2+y,-z
1/2-x,y,z
x,1/2-y,z
loop_
_atom_site_type_symbol
_atom_site_label
_atom_site_fract_x
_atom_site_fract_y
_atom_site_fract_z
Si Si1 0.857013 0.929372 0.612667
Si Si2 0.553414 0.429161 0.054076
Si Si3 0.639782 0.579349 0.482138
Si Si4 0.057600 0.070852 0.169028
Si Si5 0.988565 0.426858 0.707517
Si Si6 0.858022 0.424347 0.362626
Si Si7 0.750000 0.071082 0.014709
Si Si8 0.750000 0.571655 0.886603
O O1 0.750000 0.963176 0.619066
O O2 0.866389 0.750000 0.616726
O O3 0.887419 0.972256 0.546863
O O4 0.915598 0.007540 0.661877
O O5 0.546521 0.250000 0.049438
O O6 0.508093 0.471325 0.115390
O O7 0.658298 0.472380 0.047857
O O8 0.500000 0.500000 0.000000
O O9 0.750000 0.582734 0.483771
O O10 0.609576 0.750000 0.472884
O O11 0.614424 0.478220 0.427536
O O12 0.052929 0.250000 0.176858
O O13 0.159414 0.032791 0.148664
O O14 0.031535 0.991999 0.228743
O O15 0.984636 0.250000 0.707903
O O16 0.085262 0.483292 0.683959
O O17 0.750000 0.446629 0.356782
O O18 0.877692 0.250000 0.356019
O O19 0.750000 0.250000 0.009396
O O20 0.750000 0.003215 0.949970
O O21 0.750000 0.750000 0.895217
#
# Coordination Sequence:
#
# PCOD9450692 Si02
#       8
#     8   8   8   8   8   8   4   4
#     4   9  19  37  60  85 117 155 193 236 289 348
#     4  10  20  36  60  88 121 153 189 236 284 336
#     4   8  15  31  57  87 115 145 184 236 294 345
#     4  10  22  40  59  83 116 155 198 237 281 343
#     4  12  26  40  57  83 116 154 197 243 292 344
#     4  10  21  39  63  86 110 147 193 241 293 351
#     4  10  20  34  58  94 124 148 181 234 293 338
#     4  10  20  36  62  90 114 152 195 230 277 338
#
# _framework density 18.428896000000002
#
# number of rings (size 3 to 8) (size 9 to 14) (size 15 to 20)
#    0.000    2.143    1.429    2.571    1.000    3.429 
#    1.286    1.429    0.000    0.000    0.000    0.000 
#    0.000    0.000    0.000    0.000    0.000    0.000 
#
# Total GULP energy -312765.564589 kJ/mol
# GULP energy per Si atom -5585.099368 kJ/mol
# Density = 1.838695 g / cm^3
# Si number density = 18.428896 Si / 1000 Ang^3
#
#
#
# Elastic Constant Matrix: (Units=GPa)
#
#
# Indices 1 2 3 4 5 6 
#
# 1 113.9160 45.9221 79.3972 0.0000 0.0000 0.0000
# 2 45.9221 50.6680 62.3405 0.0000 0.0000 0.0000
# 3 79.3972 62.3405 165.0420 0.0000 0.0000 0.0000
# 4 0.0000 0.0000 0.0000 32.9846 0.0000 0.0000
# 5 0.0000 0.0000 0.0000 0.0000 29.1550 0.0000
# 6 0.0000 0.0000 0.0000 0.0000 0.0000 21.1569
#
#
#
# Elastic Compliance Matrix: (Units=1/GPa)
#
#
# Indices 1 2 3 4 5 6 
#
# 1 0.015069 -0.008852 -0.003906 0.000000 0.000000 0.000000
# 2 -0.008852 0.042073 -0.011633 0.000000 0.000000 0.000000
# 3 -0.003906 -0.011633 0.012332 0.000000 0.000000 0.000000
# 4 0.000000 0.000000 0.000000 0.030317 0.000000 0.000000
# 5 0.000000 0.000000 0.000000 0.000000 0.034299 0.000000
# 6 0.000000 0.000000 0.000000 0.000000 0.000000 0.047266
#
#
# Mechanical properties :
#
#
# Convention : Reuss Voigt Hill
#
# Bulk Modulus (GPa) = 48.32888 78.32728 63.32808
# Shear Modulus (GPa) = 21.09381 26.12370 23.60875
#
# Velocity S-wave (km/s) = 3.38687 3.76911 3.58309
# Velocity P-wave (km/s) = 6.44794 7.84451 7.18026
#
# Compressibility (1/GPa) = 0.02069156
#
# Stress axis : x y z
#
# Youngs Moduli (GPa) = 66.36106 23.76832 81.08890
#
# Poissons Ratio (x) = 0.21040 0.31670
# Poissons Ratio (y) = 0.58745 0.94334
# Poissons Ratio (z) = 0.25918 0.27651
#
# Static dielectric constant tensor:
#      x y z
#    x 1.656520 0.000000 0.000000 
#    y 0.000000 1.613550 0.000000 
#    z 0.000000 0.000000 1.597870 
# 
# From -- ./inp_files/30480.got.cif
#   From: 2010.05.17/outbox.cif.g08.bks.cpg/sg59_16_cif.got.tgz:30480.got - 2010.06.03 14:40:33.
