data_PCOD9450234
_publ_section_title
;
Structure prediction by ZEFSAII (Michael W. Deem and Ramdas Pophale) SiO2 
 PCOD9450234
Probable space group: P M M N
;
_chemical_formula_sum "Si O2"
_cell_formula_units_Z 64
_cell_length_a 13.032670
_cell_length_b 9.303076
_cell_length_c 25.614364
_cell_angle_alpha 90.000000
_cell_angle_beta 90.000000
_cell_angle_gamma 90.000000
_cell_volume 3105.585887
_symmetry_space_group_name_H-M "P M M N"
_symmetry_group_IT_number 59
_space_group.IT_coordinate_system_code '2'
_symmetry_cell_setting 'orthorhombic'
loop_
_space_group_symop_operation_xyz
x,y,z
1/2-x,1/2-y,z
1/2+x,-y,-z
-x,1/2+y,-z
-x,-y,-z
1/2+x,1/2+y,-z
1/2-x,y,z
x,1/2-y,z
loop_
_atom_site_type_symbol
_atom_site_label
_atom_site_fract_x
_atom_site_fract_y
_atom_site_fract_z
Si Si1 0.917007 0.419853 0.073333
Si Si2 0.365147 0.080621 0.707931
Si Si3 0.638584 0.918813 0.968812
Si Si4 0.567879 0.581743 0.174101
Si Si5 0.634175 0.581016 0.792471
Si Si6 0.865041 0.079716 0.458237
Si Si7 0.432368 0.081900 0.325552
Si Si8 0.567853 0.419106 0.575725
O O1 0.898851 0.250000 0.075272
O O2 0.039739 0.447082 0.066534
O O3 0.883063 0.496594 0.126116
O O4 0.870070 0.488144 0.021226
O O5 0.250000 0.042054 0.691477
O O6 0.382929 0.250000 0.696350
O O7 0.374544 0.064909 0.770740
O O8 0.454630 0.984749 0.683942
O O9 0.750000 0.943485 0.943921
O O10 0.632293 0.750000 0.983238
O O11 0.562799 0.750000 0.161609
O O12 0.454622 0.516642 0.183878
O O13 0.750000 0.546389 0.808728
O O14 0.614032 0.750000 0.804773
O O15 0.625297 0.565638 0.729584
O O16 0.750000 0.042105 0.441294
O O17 0.882453 0.250000 0.448225
O O18 0.874262 0.059399 0.520907
O O19 0.954743 0.986109 0.433258
O O20 0.439044 0.250000 0.337396
O O21 0.385303 0.998600 0.374464
O O22 0.561505 0.250000 0.585640
#
# Coordination Sequence:
#
# PCOD9450234 Si02
#       8
#     8   8   8   8   8   8   8   8
#     4  10  20  34  53  78 106 136 171 212 258 307
#     4   9  19  36  55  74  99 133 172 212 253 299
#     4   9  19  36  55  74 100 136 175 214 257 304
#     4  10  20  34  53  78 106 136 171 211 256 306
#     4   9  19  36  55  75 102 136 173 213 256 302
#     4   9  19  36  55  75 101 133 170 211 252 295
#     4  10  20  34  53  77 104 134 168 208 254 303
#     4  10  20  34  53  77 104 134 168 207 252 302
#
# _framework density 20.608027
#
# number of rings (size 3 to 8) (size 9 to 14) (size 15 to 20)
#    0.000    2.500    0.000    1.500    0.000    5.000 
#    0.000    2.500    0.000    0.000    0.000    0.000 
#    0.000    0.000    0.000    0.000    0.000    0.000 
#
# Total GULP energy -357513.040641 kJ/mol
# GULP energy per Si atom -5586.141260 kJ/mol
# Density = 2.056112 g / cm^3
# Si number density = 20.608027 Si / 1000 Ang^3
#
#
#
# Elastic Constant Matrix: (Units=GPa)
#
#
# Indices 1 2 3 4 5 6 
#
# 1 80.0671 16.0304 -10.7682 0.0000 0.0000 0.0000
# 2 16.0304 63.2422 38.1326 0.0000 0.0000 0.0000
# 3 -10.7682 38.1326 77.6068 0.0000 0.0000 0.0000
# 4 0.0000 0.0000 0.0000 36.5593 0.0000 0.0000
# 5 0.0000 0.0000 0.0000 0.0000 -11.5430 0.0000
# 6 0.0000 0.0000 0.0000 0.0000 0.0000 16.9818
#
#
#
# Elastic Compliance Matrix: (Units=1/GPa)
#
#
# Indices 1 2 3 4 5 6 
#
# 1 0.014629 -0.007008 0.005473 0.000000 0.000000 0.000000
# 2 -0.007008 0.025827 -0.013662 0.000000 0.000000 0.000000
# 3 0.005473 -0.013662 0.020358 0.000000 0.000000 0.000000
# 4 0.000000 0.000000 0.000000 0.027353 0.000000 0.000000
# 5 0.000000 0.000000 0.000000 0.000000 -0.086632 0.000000
# 6 0.000000 0.000000 0.000000 0.000000 0.000000 0.058887
#
#
# Mechanical properties :
#
#
# Convention : Reuss Voigt Hill
#
# Bulk Modulus (GPa) = 32.87460 34.18953 33.53207
# Shear Modulus (GPa) = 49.52705 20.23436 34.88071
#
# Velocity S-wave (km/s) = 4.90765 3.13688 4.11856
# Velocity P-wave (km/s) = 6.93544 5.45403 6.23886
#
# Compressibility (1/GPa) = 0.03041862
#
# Stress axis : x y z
#
# Youngs Moduli (GPa) = 68.35837 38.71972 49.12058
#
# Poissons Ratio (x) = 0.27136 -0.26885
# Poissons Ratio (y) = 0.47907 0.67111
# Poissons Ratio (z) = -0.37415 0.52901
#
# Static dielectric constant tensor:
#      x y z
#    x 1.750690 0.000000 0.000000 
#    y 0.000000 1.680840 0.000000 
#    z 0.000000 0.000000 1.748310 
# 
# From -- ./inp_files/32157.got.cif
#   From: 2010.05.17/outbox.cif.g08.bks.cpg/sg59_17_cif.got.tgz:32157.got - 2010.06.03 14:40:33.
