data_PCOD9450095
_publ_section_title
;
Structure prediction by ZEFSAII (Michael W. Deem and Ramdas Pophale) SiO2 
 PCOD9450095
Probable space group: P M M N
;
_chemical_formula_sum "Si O2"
_cell_formula_units_Z 56
_cell_length_a 8.840204
_cell_length_b 14.406996
_cell_length_c 21.350462
_cell_angle_alpha 90.000000
_cell_angle_beta 90.000000
_cell_angle_gamma 90.000000
_cell_volume 2719.211572
_symmetry_space_group_name_H-M "P M M N"
_symmetry_group_IT_number 59
_space_group.IT_coordinate_system_code '2'
_symmetry_cell_setting 'orthorhombic'
loop_
_space_group_symop_operation_xyz
x,y,z
1/2-x,1/2-y,z
1/2+x,-y,-z
-x,1/2+y,-z
-x,-y,-z
1/2+x,1/2+y,-z
1/2-x,y,z
x,1/2-y,z
loop_
_atom_site_type_symbol
_atom_site_label
_atom_site_fract_x
_atom_site_fract_y
_atom_site_fract_z
Si Si1 0.430465 0.464396 0.280355
Si Si2 0.068657 0.902056 0.980722
Si Si3 0.932575 0.350148 0.883022
Si Si4 0.070031 0.142258 0.667777
Si Si5 0.930576 0.639922 0.593266
Si Si6 0.421795 0.862823 0.464159
Si Si7 0.068808 0.950361 0.847646
O O1 0.250000 0.462995 0.276941
O O2 0.487789 0.569929 0.287311
O O3 0.478481 0.411586 0.343603
O O4 0.498625 0.420193 0.217920
O O5 0.250000 0.905885 0.978534
O O6 0.020882 0.889139 0.908442
O O7 0.032152 0.844059 0.042429
O O8 0.000000 0.000000 0.000000
O O9 0.750000 0.361052 0.876209
O O10 0.975933 0.250000 0.854390
O O11 0.012119 0.443523 0.859181
O O12 0.250000 0.134447 0.674371
O O13 0.026570 0.250000 0.678055
O O14 0.020839 0.116525 0.596846
O O15 0.750000 0.628627 0.585629
O O16 0.960259 0.750000 0.599777
O O17 0.011169 0.605162 0.530256
O O18 0.250000 0.895723 0.454614
O O19 0.418923 0.750000 0.467730
O O20 0.250000 0.950241 0.843526
#
# Coordination Sequence:
#
# PCOD9450095 Si02
#       7
#     8   8   8   8   8   8   8
#     4  11  23  37  55  78 105 142 184 222 263 314
#     4   8  15  29  49  71  94 123 158 196 239 285
#     4   9  17  31  53  79 104 131 167 210 254 303
#     4  10  21  37  56  78 107 142 178 219 267 318
#     4   9  19  37  58  78 102 134 175 223 272 320
#     4   9  17  31  54  82 108 135 171 218 270 320
#     4  10  20  34  51  72 103 139 172 209 254 307
#
# _framework density 20.594204999999999
#
# number of rings (size 3 to 8) (size 9 to 14) (size 15 to 20)
#    0.000    2.571    0.000    1.714    0.000    5.714 
#    0.000    0.714    0.000    0.857    0.000    0.000 
#    0.000    0.000    0.000    0.000    0.000    0.000 
#
# Total GULP energy -312345.454381 kJ/mol
# GULP energy per Si atom -5577.597400 kJ/mol
# Density = 2.054733 g / cm^3
# Si number density = 20.594205 Si / 1000 Ang^3
#
#
#
# Elastic Constant Matrix: (Units=GPa)
#
#
# Indices 1 2 3 4 5 6 
#
# 1 23.9588 2.2268 13.4311 0.0000 0.0000 0.0000
# 2 2.2268 36.1435 -2.8004 0.0000 0.0000 0.0000
# 3 13.4311 -2.8004 99.8411 0.0000 0.0000 0.0000
# 4 0.0000 0.0000 0.0000 15.8844 0.0000 0.0000
# 5 0.0000 0.0000 0.0000 0.0000 35.2150 0.0000
# 6 0.0000 0.0000 0.0000 0.0000 0.0000 11.8489
#
#
#
# Elastic Compliance Matrix: (Units=1/GPa)
#
#
# Indices 1 2 3 4 5 6 
#
# 1 0.045529 -0.003287 -0.006217 0.000000 0.000000 0.000000
# 2 -0.003287 0.027965 0.001227 0.000000 0.000000 0.000000
# 3 -0.006217 0.001227 0.010887 0.000000 0.000000 0.000000
# 4 0.000000 0.000000 0.000000 0.062955 0.000000 0.000000
# 5 0.000000 0.000000 0.000000 0.000000 0.028397 0.000000
# 6 0.000000 0.000000 0.000000 0.000000 0.000000 0.084396
#
#
# Mechanical properties :
#
#
# Convention : Reuss Voigt Hill
#
# Bulk Modulus (GPa) = 14.74353 20.62870 17.68612
# Shear Modulus (GPa) = 16.70613 22.39539 19.55076
#
# Velocity S-wave (km/s) = 2.85126 3.30124 3.08447
# Velocity P-wave (km/s) = 4.24431 4.95676 4.61430
#
# Compressibility (1/GPa) = 0.06782635
#
# Stress axis : x y z
#
# Youngs Moduli (GPa) = 21.96405 35.75900 91.85564
#
# Poissons Ratio (x) = 0.11753 0.57106
# Poissons Ratio (y) = 0.07219 -0.11266
# Poissons Ratio (z) = 0.13655 -0.04386
#
# Static dielectric constant tensor:
#      x y z
#    x 1.686480 0.000000 0.000000 
#    y 0.000000 1.761790 0.000000 
#    z 0.000000 0.000000 1.764310 
# 
# From -- ./inp_files/28977.got.cif
#   From: 2010.05.17/outbox.cif.g08.bks.cpg/sg59_15_cif.got.tgz:28977.got - 2010.06.03 14:40:33.
