data_PCOD9450293
_publ_section_title
;
Structure prediction by ZEFSAII (Michael W. Deem and Ramdas Pophale) SiO2 
 PCOD9450293
Probable space group: P M M N
;
_chemical_formula_sum "Si O2"
_cell_formula_units_Z 64
_cell_length_a 8.823932
_cell_length_b 23.335726
_cell_length_c 16.004183
_cell_angle_alpha 90.000000
_cell_angle_beta 90.000000
_cell_angle_gamma 90.000000
_cell_volume 3295.467084
_symmetry_space_group_name_H-M "P M M N"
_symmetry_group_IT_number 59
_space_group.IT_coordinate_system_code '2'
_symmetry_cell_setting 'orthorhombic'
loop_
_space_group_symop_operation_xyz
x,y,z
1/2-x,1/2-y,z
1/2+x,-y,-z
-x,1/2+y,-z
-x,-y,-z
1/2+x,1/2+y,-z
1/2-x,y,z
x,1/2-y,z
loop_
_atom_site_type_symbol
_atom_site_label
_atom_site_fract_x
_atom_site_fract_y
_atom_site_fract_z
Si Si1 0.929050 0.496929 0.592168
Si Si2 0.571912 0.408066 0.964374
Si Si3 0.928322 0.816780 0.668934
Si Si4 0.566621 0.817793 0.162511
Si Si5 0.930927 0.883265 0.334385
Si Si6 0.423417 0.817975 0.487595
Si Si7 0.426022 0.922406 0.719024
Si Si8 0.425797 0.032133 0.120685
O O1 0.750000 0.491929 0.584821
O O2 0.000000 0.500000 0.500000
O O3 0.992874 0.444367 0.647420
O O4 0.977083 0.552979 0.642669
O O5 0.750000 0.399441 0.983600
O O6 0.506505 0.354586 0.912459
O O7 0.560693 0.466523 0.909741
O O8 0.478741 0.425134 0.047113
O O9 0.750000 0.829881 0.669234
O O10 0.947429 0.750000 0.688842
O O11 0.998007 0.826249 0.576815
O O12 0.019535 0.857504 0.730776
O O13 0.750000 0.820329 0.155808
O O14 0.524408 0.750000 0.163757
O O15 0.524127 0.850187 0.249317
O O16 0.750000 0.890476 0.332892
O O17 0.981927 0.846092 0.413831
O O18 0.250000 0.840147 0.488822
O O19 0.417845 0.750000 0.473046
O O20 0.250000 0.926064 0.699368
O O21 0.467819 0.957841 0.800667
O O22 0.250000 0.042701 0.142465
#
# Coordination Sequence:
#
# PCOD9450293 Si02
#       8
#     8   8   8   8   8   8   8   8
#     4  12  25  41  59  83 118 158 201 247 300 356
#     4  10  21  38  62  91 119 149 188 237 290 343
#     4  10  21  38  59  81 108 145 187 230 279 334
#     4  10  22  39  59  85 120 162 202 242 294 358
#     4  11  22  37  57  82 114 153 199 247 296 350
#     4  10  20  34  53  78 109 147 192 239 285 334
#     4  12  24  39  60  87 118 149 187 234 284 339
#     4  10  21  39  64  91 119 152 190 234 287 348
#
# _framework density 19.420615000000002
#
# number of rings (size 3 to 8) (size 9 to 14) (size 15 to 20)
#    0.000    1.375    0.000    6.000    0.000    6.750 
#    0.000    0.625    0.000    3.750    0.000    0.000 
#    0.000    0.000    0.000    0.000    0.000    0.000 
#
# Total GULP energy -357713.365842 kJ/mol
# GULP energy per Si atom -5589.271341 kJ/mol
# Density = 1.937641 g / cm^3
# Si number density = 19.420615 Si / 1000 Ang^3
#
#
#
# Elastic Constant Matrix: (Units=GPa)
#
#
# Indices 1 2 3 4 5 6 
#
# 1 79.2913 37.5851 10.8250 0.0000 0.0000 0.0000
# 2 37.5851 97.1196 21.9217 0.0000 0.0000 0.0000
# 3 10.8250 21.9217 26.1373 0.0000 0.0000 0.0000
# 4 0.0000 0.0000 0.0000 26.3969 0.0000 0.0000
# 5 0.0000 0.0000 0.0000 0.0000 30.9921 0.0000
# 6 0.0000 0.0000 0.0000 0.0000 0.0000 32.2931
#
#
#
# Elastic Compliance Matrix: (Units=1/GPa)
#
#
# Indices 1 2 3 4 5 6 
#
# 1 0.015507 -0.005614 -0.001713 0.000000 0.000000 0.000000
# 2 -0.005614 0.014734 -0.010032 0.000000 0.000000 0.000000
# 3 -0.001713 -0.010032 0.047383 0.000000 0.000000 0.000000
# 4 0.000000 0.000000 0.000000 0.037883 0.000000 0.000000
# 5 0.000000 0.000000 0.000000 0.000000 0.032266 0.000000
# 6 0.000000 0.000000 0.000000 0.000000 0.000000 0.030966
#
#
# Mechanical properties :
#
#
# Convention : Reuss Voigt Hill
#
# Bulk Modulus (GPa) = 23.30791 38.13464 30.72127
# Shear Modulus (GPa) = 21.95282 26.75085 24.35184
#
# Velocity S-wave (km/s) = 3.36577 3.71542 3.54491
# Velocity P-wave (km/s) = 5.20886 6.17127 5.71038
#
# Compressibility (1/GPa) = 0.04290389
#
# Stress axis : x y z
#
# Youngs Moduli (GPa) = 64.48721 67.87130 21.10453
#
# Poissons Ratio (x) = 0.38106 0.03616
# Poissons Ratio (y) = 0.36206 0.21172
# Poissons Ratio (z) = 0.11050 0.68089
#
# Static dielectric constant tensor:
#      x y z
#    x 1.650790 0.000000 0.000000 
#    y 0.000000 1.738810 0.000000 
#    z 0.000000 0.000000 1.661320 
# 
# From -- ./inp_files/21477.got.cif
#   From: 2010.05.17/outbox.cif.g08.bks.cpg/sg59_11_cif.got.tgz:21477.got - 2010.06.03 14:40:33.
