data_PCOD9450353
_publ_section_title
;
Structure prediction by ZEFSAII (Michael W. Deem and Ramdas Pophale) SiO2 
 PCOD9450353
Probable space group: P M M N
;
_chemical_formula_sum "Si O2"
_cell_formula_units_Z 64
_cell_length_a 20.490588
_cell_length_b 9.019722
_cell_length_c 20.197377
_cell_angle_alpha 90.000000
_cell_angle_beta 90.000000
_cell_angle_gamma 90.000000
_cell_volume 3732.867248
_symmetry_space_group_name_H-M "P M M N"
_symmetry_group_IT_number 59
_space_group.IT_coordinate_system_code '2'
_symmetry_cell_setting 'orthorhombic'
loop_
_space_group_symop_operation_xyz
x,y,z
1/2-x,1/2-y,z
1/2+x,-y,-z
-x,1/2+y,-z
-x,-y,-z
1/2+x,1/2+y,-z
1/2-x,y,z
x,1/2-y,z
loop_
_atom_site_type_symbol
_atom_site_label
_atom_site_fract_x
_atom_site_fract_y
_atom_site_fract_z
Si Si1 0.394352 0.425993 0.311396
Si Si2 0.674523 0.074097 0.571040
Si Si3 0.674439 0.427850 0.943299
Si Si4 0.938212 0.926584 0.183604
Si Si5 0.577568 0.572926 0.839380
Si Si6 0.825144 0.428077 0.098297
Si Si7 0.531947 0.574701 0.332718
Si Si8 0.432031 0.073549 0.522375
O O1 0.388116 0.250000 0.320321
O O2 0.342757 0.510193 0.356679
O O3 0.392120 0.460180 0.233230
O O4 0.465757 0.480130 0.334990
O O5 0.750000 0.046009 0.555272
O O6 0.662696 0.250000 0.570550
O O7 0.626350 0.996360 0.519275
O O8 0.750000 0.465780 0.927966
O O9 0.667619 0.250000 0.935791
O O10 0.624185 0.509739 0.895901
O O11 0.663154 0.463014 0.020745
O O12 0.941425 0.750000 0.174442
O O13 0.934065 0.956853 0.262588
O O14 0.877569 0.993208 0.144258
O O15 0.006103 0.999059 0.159549
O O16 0.570776 0.750000 0.844941
O O17 0.750000 0.468825 0.113669
O O18 0.830677 0.250000 0.105204
O O19 0.513957 0.750000 0.332790
O O20 0.573308 0.547442 0.398680
O O21 0.434845 0.250000 0.510880
O O22 0.500000 0.000000 0.500000
#
# Coordination Sequence:
#
# PCOD9450353 Si02
#       8
#     8   8   8   8   8   8   8   8
#     4  10  20  34  54  78 105 140 179 220 268 322
#     4  11  24  39  54  77 111 148 186 228 272 322
#     4   9  19  36  56  77 104 142 185 224 269 328
#     4  10  20  35  56  82 110 142 180 223 270 323
#     4  10  21  35  53  81 113 143 179 224 273 322
#     4   9  19  37  58  79 106 141 181 226 276 328
#     4   9  19  35  55  80 109 138 174 219 267 321
#     4  11  21  35  59  85 108 140 182 226 273 326
#
# _framework density 17.144998000000001
#
# number of rings (size 3 to 8) (size 9 to 14) (size 15 to 20)
#    0.000    2.125    1.250    2.625    0.000    5.500 
#    0.000    4.375    0.000    3.750    0.000    0.000 
#    0.000    0.000    0.000    0.000    0.000    0.000 
#
# Total GULP energy -357215.679222 kJ/mol
# GULP energy per Si atom -5581.494988 kJ/mol
# Density = 1.710597 g / cm^3
# Si number density = 17.144998 Si / 1000 Ang^3
#
#
#
# Elastic Constant Matrix: (Units=GPa)
#
#
# Indices 1 2 3 4 5 6 
#
# 1 127.0317 75.5691 97.5471 0.0000 0.0000 0.0000
# 2 75.5691 73.0856 67.9477 0.0000 0.0000 0.0000
# 3 97.5471 67.9477 116.7711 0.0000 0.0000 0.0000
# 4 0.0000 0.0000 0.0000 27.2740 0.0000 0.0000
# 5 0.0000 0.0000 0.0000 0.0000 30.1459 0.0000
# 6 0.0000 0.0000 0.0000 0.0000 0.0000 32.6981
#
#
#
# Elastic Compliance Matrix: (Units=1/GPa)
#
#
# Indices 1 2 3 4 5 6 
#
# 1 0.028572 -0.016018 -0.014547 0.000000 0.000000 0.000000
# 2 -0.016018 0.038788 -0.009190 0.000000 0.000000 0.000000
# 3 -0.014547 -0.009190 0.026063 0.000000 0.000000 0.000000
# 4 0.000000 0.000000 0.000000 0.036665 0.000000 0.000000
# 5 0.000000 0.000000 0.000000 0.000000 0.033172 0.000000
# 6 0.000000 0.000000 0.000000 0.000000 0.000000 0.030583
#
#
# Mechanical properties :
#
#
# Convention : Reuss Voigt Hill
#
# Bulk Modulus (GPa) = 71.87066 88.77957 80.32511
# Shear Modulus (GPa) = 17.98622 23.07858 20.53240
#
# Velocity S-wave (km/s) = 3.24244 3.67288 3.46435
# Velocity P-wave (km/s) = 7.48520 8.35947 7.93439
#
# Compressibility (1/GPa) = 0.01391388
#
# Stress axis : x y z
#
# Youngs Moduli (GPa) = 34.99967 25.78098 38.36790
#
# Poissons Ratio (x) = 0.41296 0.55815
# Poissons Ratio (y) = 0.56062 0.35258
# Poissons Ratio (z) = 0.50915 0.23691
#
# Static dielectric constant tensor:
#      x y z
#    x 1.544400 0.000000 0.000000 
#    y 0.000000 1.570820 0.000000 
#    z 0.000000 0.000000 1.587580 
# 
# From -- ./inp_files/30811.got.cif
#   From: 2010.05.17/outbox.cif.g08.bks.cpg/sg59_16_cif.got.tgz:30811.got - 2010.06.03 14:40:33.
