data_PCOD9450627
_publ_section_title
;
Structure prediction by ZEFSAII (Michael W. Deem and Ramdas Pophale) SiO2 
 PCOD9450627
Probable space group: P M M N
;
_chemical_formula_sum "Si O2"
_cell_formula_units_Z 64
_cell_length_a 18.817652
_cell_length_b 8.723963
_cell_length_c 21.955894
_cell_angle_alpha 90.000000
_cell_angle_beta 90.000000
_cell_angle_gamma 90.000000
_cell_volume 3604.378356
_symmetry_space_group_name_H-M "P M M N"
_symmetry_group_IT_number 59
_space_group.IT_coordinate_system_code '2'
_symmetry_cell_setting 'orthorhombic'
loop_
_space_group_symop_operation_xyz
x,y,z
1/2-x,1/2-y,z
1/2+x,-y,-z
-x,1/2+y,-z
-x,-y,-z
1/2+x,1/2+y,-z
1/2-x,y,z
x,1/2-y,z
loop_
_atom_site_type_symbol
_atom_site_label
_atom_site_fract_x
_atom_site_fract_y
_atom_site_fract_z
Si Si1 0.525865 0.565935 0.563807
Si Si2 0.665602 0.930915 0.107243
Si Si3 0.671131 0.934768 0.624732
Si Si4 0.578886 0.066270 0.995434
Si Si5 0.332331 0.566487 0.760185
Si Si6 0.606577 0.065320 0.746548
Si Si7 0.540634 0.566382 0.314925
Si Si8 0.332304 0.936951 0.123119
O O1 0.500000 0.500000 0.500000
O O2 0.522859 0.750000 0.562600
O O3 0.606820 0.517893 0.580512
O O4 0.478883 0.503824 0.619740
O O5 0.750000 0.951208 0.097050
O O6 0.649792 0.750000 0.107769
O O7 0.622855 0.012024 0.053921
O O8 0.649018 0.001237 0.173162
O O9 0.750000 0.984429 0.605838
O O10 0.670046 0.750000 0.627413
O O11 0.653238 0.997503 0.691798
O O12 0.575369 0.250000 0.993967
O O13 0.620482 0.014036 0.934437
O O14 0.500000 0.000000 0.000000
O O15 0.250000 0.524390 0.747890
O O16 0.337419 0.750000 0.760963
O O17 0.386642 0.497641 0.711882
O O18 0.612293 0.250000 0.744507
O O19 0.525019 0.025355 0.730339
O O20 0.633413 0.013883 0.812672
O O21 0.543251 0.750000 0.319416
O O22 0.250000 0.986172 0.118188
O O23 0.332054 0.750000 0.123096
#
# Coordination Sequence:
#
# PCOD9450627 Si02
#       8
#     8   8   8   8   8   8   8   8
#     4  10  20  36  57  80 111 149 189 231 274 326
#     4  10  21  38  59  80 105 140 183 233 286 339
#     4   9  18  33  53  79 110 142 176 218 268 319
#     4  11  23  37  54  77 106 143 186 232 281 334
#     4  10  21  37  58  84 112 143 183 231 282 334
#     4   9  18  32  53  81 108 138 175 217 264 320
#     4  10  20  34  56  84 114 147 181 222 272 326
#     4   9  18  33  53  76 104 138 174 217 271 326
#
# _framework density 17.756184000000001
#
# number of rings (size 3 to 8) (size 9 to 14) (size 15 to 20)
#    0.000    2.250    0.000    2.625    1.750    3.750 
#    0.000    1.875    0.000    5.250    0.000    0.000 
#    0.000    0.000    0.000    0.000    0.000    0.000 
#
# Total GULP energy -357256.704153 kJ/mol
# GULP energy per Si atom -5582.136002 kJ/mol
# Density = 1.771577 g / cm^3
# Si number density = 17.756184 Si / 1000 Ang^3
#
#
#
# Elastic Constant Matrix: (Units=GPa)
#
#
# Indices 1 2 3 4 5 6 
#
# 1 127.3530 45.7663 118.6739 0.0000 0.0000 0.0000
# 2 45.7663 43.4932 46.2882 0.0000 0.0000 0.0000
# 3 118.6739 46.2882 162.2185 0.0000 0.0000 0.0000
# 4 0.0000 0.0000 0.0000 29.3313 0.0000 0.0000
# 5 0.0000 0.0000 0.0000 0.0000 21.9899 0.0000
# 6 0.0000 0.0000 0.0000 0.0000 0.0000 27.2043
#
#
#
# Elastic Compliance Matrix: (Units=1/GPa)
#
#
# Indices 1 2 3 4 5 6 
#
# 1 0.027889 -0.010962 -0.017275 0.000000 0.000000 0.000000
# 2 -0.010962 0.037328 -0.002632 0.000000 0.000000 0.000000
# 3 -0.017275 -0.002632 0.019553 0.000000 0.000000 0.000000
# 4 0.000000 0.000000 0.000000 0.034093 0.000000 0.000000
# 5 0.000000 0.000000 0.000000 0.000000 0.045475 0.000000
# 6 0.000000 0.000000 0.000000 0.000000 0.000000 0.036759
#
#
# Mechanical properties :
#
#
# Convention : Reuss Voigt Hill
#
# Bulk Modulus (GPa) = 43.41598 83.83574 63.62586
# Shear Modulus (GPa) = 18.48341 23.86083 21.17212
#
# Velocity S-wave (km/s) = 3.22989 3.66977 3.45683
# Velocity P-wave (km/s) = 6.19789 8.07922 7.20026
#
# Compressibility (1/GPa) = 0.02303299
#
# Stress axis : x y z
#
# Youngs Moduli (GPa) = 35.85646 26.78959 51.14216
#
# Poissons Ratio (x) = 0.29366 0.88347
# Poissons Ratio (y) = 0.39304 0.13462
# Poissons Ratio (z) = 0.61942 0.07052
#
# Static dielectric constant tensor:
#      x y z
#    x 1.605620 0.000000 0.000000 
#    y 0.000000 1.598110 0.000000 
#    z 0.000000 0.000000 1.570670 
# 
# From -- ./inp_files/30746.got.cif
#   From: 2010.05.17/outbox.cif.g08.bks.cpg/sg59_16_cif.got.tgz:30746.got - 2010.06.03 14:40:33.
