data_PCOD9450060
_publ_section_title
;
Structure prediction by ZEFSAII (Michael W. Deem and Ramdas Pophale) SiO2 
 PCOD9450060
Probable space group: P M M N
;
_chemical_formula_sum "Si O2"
_cell_formula_units_Z 48
_cell_length_a 8.147783
_cell_length_b 14.637687
_cell_length_c 20.861304
_cell_angle_alpha 90.000000
_cell_angle_beta 90.000000
_cell_angle_gamma 90.000000
_cell_volume 2488.017107
_symmetry_space_group_name_H-M "P M M N"
_symmetry_group_IT_number 59
_space_group.IT_coordinate_system_code '2'
_symmetry_cell_setting 'orthorhombic'
loop_
_space_group_symop_operation_xyz
x,y,z
1/2-x,1/2-y,z
1/2+x,-y,-z
-x,1/2+y,-z
-x,-y,-z
1/2+x,1/2+y,-z
1/2-x,y,z
x,1/2-y,z
loop_
_atom_site_type_symbol
_atom_site_label
_atom_site_fract_x
_atom_site_fract_y
_atom_site_fract_z
Si Si1 0.551562 0.550438 0.814766
Si Si2 0.551923 0.750000 0.358241
Si Si3 0.947914 0.058675 0.439222
Si Si4 0.550996 0.250000 0.492418
Si Si5 0.945078 0.750000 0.009015
Si Si6 0.445606 0.558477 0.060774
Si Si7 0.950761 0.750000 0.860020
Si Si8 0.948441 0.949466 0.314649
O O1 0.750000 0.552367 0.816179
O O2 0.491584 0.489946 0.874905
O O3 0.496816 0.655694 0.825685
O O4 0.499299 0.500218 0.750042
O O5 0.750000 0.750000 0.355305
O O6 0.505385 0.750000 0.433571
O O7 0.494202 0.655495 0.325116
O O8 0.750000 0.060632 0.435787
O O9 0.005895 0.160621 0.454379
O O10 0.007774 0.009928 0.374873
O O11 0.000000 0.000000 0.500000
O O12 0.750000 0.250000 0.493887
O O13 0.750000 0.750000 0.003998
O O14 0.998233 0.839275 0.047321
O O15 0.006127 0.750000 0.934830
O O16 0.250000 0.557290 0.064121
O O17 0.500000 0.500000 0.000000
O O18 0.750000 0.750000 0.860653
O O19 0.750000 0.946872 0.316377
#
# Coordination Sequence:
#
# PCOD9450060 Si02
#       8
#     8   4   8   4   4   8   4   8
#     4  10  22  40  61  84 118 156 194 241 291 350
#     4  10  20  37  58  81 113 153 190 234 287 341
#     4  10  20  35  56  83 114 146 187 237 285 337
#     4  10  20  33  56  88 115 145 187 236 287 339
#     4  11  21  38  63  90 123 159 196 250 305 350
#     4  11  22  38  61  91 121 155 201 249 297 356
#     4   9  18  38  61  83 113 153 193 236 295 348
#     4  10  22  38  57  84 118 152 192 239 288 346
#
# _framework density 19.292470999999999
#
# number of rings (size 3 to 8) (size 9 to 14) (size 15 to 20)
#    0.000    1.833    3.333    0.750    0.000    4.000 
#    0.000    2.917    0.000    0.000    0.000    0.000 
#    0.000    0.000    0.000    0.000    0.000    0.000 
#
# Total GULP energy -267952.512207 kJ/mol
# GULP energy per Si atom -5582.344004 kJ/mol
# Density = 1.924856 g / cm^3
# Si number density = 19.292471 Si / 1000 Ang^3
#
#
#
# Elastic Constant Matrix: (Units=GPa)
#
#
# Indices 1 2 3 4 5 6 
#
# 1 9.8842 19.2184 9.1704 0.0000 0.0000 0.0000
# 2 19.2184 247.1354 124.1294 0.0000 0.0000 0.0000
# 3 9.1704 124.1294 187.9894 0.0000 0.0000 0.0000
# 4 0.0000 0.0000 0.0000 33.9276 0.0000 0.0000
# 5 0.0000 0.0000 0.0000 0.0000 30.1669 0.0000
# 6 0.0000 0.0000 0.0000 0.0000 0.0000 22.4708
#
#
#
# Elastic Compliance Matrix: (Units=1/GPa)
#
#
# Indices 1 2 3 4 5 6 
#
# 1 0.119221 -0.009501 0.000458 0.000000 0.000000 0.000000
# 2 -0.009501 0.006811 -0.004034 0.000000 0.000000 0.000000
# 3 0.000458 -0.004034 0.007961 0.000000 0.000000 0.000000
# 4 0.000000 0.000000 0.000000 0.029475 0.000000 0.000000
# 5 0.000000 0.000000 0.000000 0.000000 0.033149 0.000000
# 6 0.000000 0.000000 0.000000 0.000000 0.000000 0.044502
#
#
# Mechanical properties :
#
#
# Convention : Reuss Voigt Hill
#
# Bulk Modulus (GPa) = 9.27314 83.33835 46.30575
# Shear Modulus (GPa) = 16.48969 36.81244 26.65107
#
# Velocity S-wave (km/s) = 2.92673 4.37295 3.72078
# Velocity P-wave (km/s) = 4.02965 8.29385 6.52020
#
# Compressibility (1/GPa) = 0.10783837
#
# Stress axis : x y z
#
# Youngs Moduli (GPa) = 8.38779 146.81168 125.61484
#
# Poissons Ratio (x) = 1.39488 -0.05752
# Poissons Ratio (y) = 0.07969 0.50675
# Poissons Ratio (z) = -0.00384 0.59226
#
# Static dielectric constant tensor:
#      x y z
#    x 1.682680 0.000000 0.000000 
#    y 0.000000 1.612160 0.000000 
#    z 0.000000 0.000000 1.636130 
# 
# From -- ./inp_files/25710.got.cif
#   From: 2010.05.17/outbox.cif.g08.bks.cpg/sg59_13_cif.got.tgz:25710.got - 2010.06.03 14:40:33.
