data_PCOD9450615
_publ_section_title
;
Structure prediction by ZEFSAII (Michael W. Deem and Ramdas Pophale) SiO2 
 PCOD9450615
Probable space group: P M M N
;
_chemical_formula_sum "Si O2"
_cell_formula_units_Z 48
_cell_length_a 8.673562
_cell_length_b 21.169477
_cell_length_c 14.449572
_cell_angle_alpha 90.000000
_cell_angle_beta 90.000000
_cell_angle_gamma 90.000000
_cell_volume 2653.154858
_symmetry_space_group_name_H-M "P M M N"
_symmetry_group_IT_number 59
_space_group.IT_coordinate_system_code '2'
_symmetry_cell_setting 'orthorhombic'
loop_
_space_group_symop_operation_xyz
x,y,z
1/2-x,1/2-y,z
1/2+x,-y,-z
-x,1/2+y,-z
-x,-y,-z
1/2+x,1/2+y,-z
1/2-x,y,z
x,1/2-y,z
loop_
_atom_site_type_symbol
_atom_site_label
_atom_site_fract_x
_atom_site_fract_y
_atom_site_fract_z
Si Si1 0.936076 0.124500 0.784606
Si Si2 0.065833 0.071750 0.393451
Si Si3 0.065729 0.431057 0.605125
Si Si4 0.434848 0.622542 0.788699
Si Si5 0.061959 0.750000 0.892645
Si Si6 0.565001 0.998230 0.896729
Si Si7 0.938091 0.250000 0.893699
O O1 0.750000 0.125503 0.777434
O O2 0.985932 0.187132 0.839056
O O3 0.005926 0.116347 0.682914
O O4 0.979827 0.062186 0.842838
O O5 0.250000 0.072992 0.383279
O O6 0.025673 0.087708 0.499740
O O7 0.990679 0.116076 0.316678
O O8 0.008651 0.999910 0.377405
O O9 0.250000 0.437468 0.610817
O O10 0.250000 0.619836 0.791613
O O11 0.486156 0.686885 0.838770
O O12 0.501212 0.562465 0.843279
O O13 0.250000 0.750000 0.893954
O O14 0.010441 0.750000 0.999515
O O15 0.750000 0.995537 0.899041
O O16 0.500000 0.000000 0.000000
O O17 0.750000 0.250000 0.895610
#
# Coordination Sequence:
#
# PCOD9450615 Si02
#       7
#     8   8   8   8   4   8   4
#     4  10  20  35  57  82 111 146 188 232 280 332
#     4  10  20  35  55  83 115 147 185 229 281 341
#     4  10  20  34  56  83 113 148 185 229 283 337
#     4  11  21  36  59  85 112 147 189 236 286 338
#     4   9  20  38  58  81 112 150 193 233 280 341
#     4  11  22  35  54  82 113 146 187 238 286 336
#     4   9  18  36  58  79 108 152 191 227 276 333
#
# _framework density 18.091667000000001
#
# number of rings (size 3 to 8) (size 9 to 14) (size 15 to 20)
#    0.000    1.833    1.667    3.000    0.000    5.333 
#    0.000    2.917    0.000    7.000    0.000    0.000 
#    0.000    0.000    0.000    0.000    0.000    0.000 
#
# Total GULP energy -268090.948559 kJ/mol
# GULP energy per Si atom -5585.228095 kJ/mol
# Density = 1.805049 g / cm^3
# Si number density = 18.091667 Si / 1000 Ang^3
#
#
#
# Elastic Constant Matrix: (Units=GPa)
#
#
# Indices 1 2 3 4 5 6 
#
# 1 32.2893 35.6027 38.9816 0.0000 0.0000 0.0000
# 2 35.6027 153.8917 97.4195 0.0000 0.0000 0.0000
# 3 38.9816 97.4195 175.3575 0.0000 0.0000 0.0000
# 4 0.0000 0.0000 0.0000 34.1990 0.0000 0.0000
# 5 0.0000 0.0000 0.0000 0.0000 35.8633 0.0000
# 6 0.0000 0.0000 0.0000 0.0000 0.0000 22.3768
#
#
#
# Elastic Compliance Matrix: (Units=1/GPa)
#
#
# Indices 1 2 3 4 5 6 
#
# 1 0.046138 -0.006449 -0.006673 0.000000 0.000000 0.000000
# 2 -0.006449 0.010925 -0.004635 0.000000 0.000000 0.000000
# 3 -0.006673 -0.004635 0.009761 0.000000 0.000000 0.000000
# 4 0.000000 0.000000 0.000000 0.029241 0.000000 0.000000
# 5 0.000000 0.000000 0.000000 0.000000 0.027884 0.000000
# 6 0.000000 0.000000 0.000000 0.000000 0.000000 0.044689
#
#
# Mechanical properties :
#
#
# Convention : Reuss Voigt Hill
#
# Bulk Modulus (GPa) = 31.94157 78.39401 55.16779
# Shear Modulus (GPa) = 23.30037 31.12348 27.21193
#
# Velocity S-wave (km/s) = 3.59263 4.15218 3.88250
# Velocity P-wave (km/s) = 5.90788 8.14942 7.11745
#
# Compressibility (1/GPa) = 0.03130716
#
# Stress axis : x y z
#
# Youngs Moduli (GPa) = 21.67428 91.53703 102.44536
#
# Poissons Ratio (x) = 0.59036 0.68365
# Poissons Ratio (y) = 0.13979 0.47488
# Poissons Ratio (z) = 0.14464 0.42431
#
# Static dielectric constant tensor:
#      x y z
#    x 1.614560 0.000000 0.000000 
#    y 0.000000 1.592570 0.000000 
#    z 0.000000 0.000000 1.624720 
# 
# From -- ./inp_files/20485.got.cif
#   From: 2010.05.17/outbox.cif.g08.bks.cpg/sg59_11_cif.got.tgz:20485.got - 2010.06.03 14:40:33.
