data_PCOD9450498
_publ_section_title
;
Structure prediction by ZEFSAII (Michael W. Deem and Ramdas Pophale) SiO2 
 PCOD9450498
Probable space group: P M M N
;
_chemical_formula_sum "Si O2"
_cell_formula_units_Z 56
_cell_length_a 8.811733
_cell_length_b 20.212095
_cell_length_c 17.687468
_cell_angle_alpha 90.000000
_cell_angle_beta 90.000000
_cell_angle_gamma 90.000000
_cell_volume 3150.201452
_symmetry_space_group_name_H-M "P M M N"
_symmetry_group_IT_number 59
_space_group.IT_coordinate_system_code '2'
_symmetry_cell_setting 'orthorhombic'
loop_
_space_group_symop_operation_xyz
x,y,z
1/2-x,1/2-y,z
1/2+x,-y,-z
-x,1/2+y,-z
-x,-y,-z
1/2+x,1/2+y,-z
1/2-x,y,z
x,1/2-y,z
loop_
_atom_site_type_symbol
_atom_site_label
_atom_site_fract_x
_atom_site_fract_y
_atom_site_fract_z
Si Si1 0.932070 0.174997 0.675276
Si Si2 0.432212 0.674155 0.890441
Si Si3 0.431949 0.559057 0.774573
Si Si4 0.069183 0.091591 0.550750
Si Si5 0.931143 0.545209 0.611566
Si Si6 0.567741 0.081851 0.815380
Si Si7 0.431595 0.173459 0.944339
O O1 0.750000 0.170725 0.666772
O O2 0.971085 0.250000 0.696646
O O3 0.977117 0.124151 0.741110
O O4 0.009729 0.153643 0.597472
O O5 0.250000 0.669762 0.901740
O O6 0.467129 0.750000 0.867975
O O7 0.475605 0.620770 0.827478
O O8 0.512908 0.661111 0.970262
O O9 0.250000 0.554521 0.772838
O O10 0.493248 0.566531 0.689520
O O11 0.498739 0.490999 0.807907
O O12 0.250000 0.084824 0.558628
O O13 0.033483 0.090405 0.461502
O O14 0.990567 0.027402 0.588079
O O15 0.750000 0.542098 0.621409
O O16 0.750000 0.077766 0.817403
O O17 0.508104 0.122385 0.887189
O O18 0.250000 0.167843 0.939980
O O19 0.473597 0.250000 0.925635
#
# Coordination Sequence:
#
# PCOD9450498 Si02
#       7
#     8   8   8   8   8   8   8
#     4  10  21  36  54  79 113 152 191 231 278 333
#     4   9  20  40  62  82 108 144 185 230 283 340
#     4  11  22  36  58  87 114 143 185 235 283 331
#     4  10  20  34  55  80 107 144 188 230 273 324
#     4  10  20  35  55  80 110 144 182 225 276 332
#     4  11  22  36  56  82 114 152 190 228 278 336
#     4  10  21  37  58  84 113 147 189 233 277 330
#
# _framework density 17.776641000000001
#
# number of rings (size 3 to 8) (size 9 to 14) (size 15 to 20)
#    0.000    1.857    1.429    2.571    0.000    5.714 
#    0.000    0.714    0.000    2.571    0.000    0.000 
#    0.000    0.000    0.000    0.000    0.000    0.000 
#
# Total GULP energy -312716.133019 kJ/mol
# GULP energy per Si atom -5584.216661 kJ/mol
# Density = 1.773618 g / cm^3
# Si number density = 17.776641 Si / 1000 Ang^3
#
#
#
# Elastic Constant Matrix: (Units=GPa)
#
#
# Indices 1 2 3 4 5 6 
#
# 1 45.3984 47.2765 50.9981 0.0000 0.0000 0.0000
# 2 47.2765 116.5484 89.3855 0.0000 0.0000 0.0000
# 3 50.9981 89.3855 140.6153 0.0000 0.0000 0.0000
# 4 0.0000 0.0000 0.0000 25.5350 0.0000 0.0000
# 5 0.0000 0.0000 0.0000 0.0000 32.6816 0.0000
# 6 0.0000 0.0000 0.0000 0.0000 0.0000 24.5163
#
#
#
# Elastic Compliance Matrix: (Units=1/GPa)
#
#
# Indices 1 2 3 4 5 6 
#
# 1 0.043092 -0.010720 -0.008814 0.000000 0.000000 0.000000
# 2 -0.010720 0.019409 -0.008450 0.000000 0.000000 0.000000
# 3 -0.008814 -0.008450 0.015680 0.000000 0.000000 0.000000
# 4 0.000000 0.000000 0.000000 0.039162 0.000000 0.000000
# 5 0.000000 0.000000 0.000000 0.000000 0.030598 0.000000
# 6 0.000000 0.000000 0.000000 0.000000 0.000000 0.040789
#
#
# Mechanical properties :
#
#
# Convention : Reuss Voigt Hill
#
# Bulk Modulus (GPa) = 45.01916 75.32024 60.16970
# Shear Modulus (GPa) = 19.83319 24.20669 22.01994
#
# Velocity S-wave (km/s) = 3.34382 3.69414 3.52334
# Velocity P-wave (km/s) = 6.34728 7.78832 7.10443
#
# Compressibility (1/GPa) = 0.02221277
#
# Stress axis : x y z
#
# Youngs Moduli (GPa) = 23.20623 51.52208 63.77626
#
# Poissons Ratio (x) = 0.55230 0.56214
# Poissons Ratio (y) = 0.24876 0.53891
# Poissons Ratio (z) = 0.20454 0.43537
#
# Static dielectric constant tensor:
#      x y z
#    x 1.595460 0.000000 0.000000 
#    y 0.000000 1.593190 0.000000 
#    z 0.000000 0.000000 1.594860 
# 
# From -- ./inp_files/21006.got.cif
#   From: 2010.05.17/outbox.cif.g08.bks.cpg/sg59_11_cif.got.tgz:21006.got - 2010.06.03 14:40:33.
