data_PCOD9450535
_publ_section_title
;
Structure prediction by ZEFSAII (Michael W. Deem and Ramdas Pophale) SiO2 
 PCOD9450535
Probable space group: P M M N
;
_chemical_formula_sum "Si O2"
_cell_formula_units_Z 56
_cell_length_a 14.520628
_cell_length_b 7.644623
_cell_length_c 22.688821
_cell_angle_alpha 90.000000
_cell_angle_beta 90.000000
_cell_angle_gamma 90.000000
_cell_volume 2518.566376
_symmetry_space_group_name_H-M "P M M N"
_symmetry_group_IT_number 59
_space_group.IT_coordinate_system_code '2'
_symmetry_cell_setting 'orthorhombic'
loop_
_space_group_symop_operation_xyz
x,y,z
1/2-x,1/2-y,z
1/2+x,-y,-z
-x,1/2+y,-z
-x,-y,-z
1/2+x,1/2+y,-z
1/2-x,y,z
x,1/2-y,z
loop_
_atom_site_type_symbol
_atom_site_label
_atom_site_fract_x
_atom_site_fract_y
_atom_site_fract_z
Si Si1 0.353827 0.959671 0.828944
Si Si2 0.152392 0.962551 0.139931
Si Si3 0.849734 0.038812 0.721875
Si Si4 0.353874 0.043322 0.461867
Si Si5 0.447997 0.536487 0.583692
Si Si6 0.445126 0.951717 0.709442
Si Si7 0.482712 0.456917 0.932154
O O1 0.250000 0.025484 0.822422
O O2 0.352883 0.750000 0.825090
O O3 0.414875 0.026728 0.773134
O O4 0.393323 0.996926 0.893948
O O5 0.250000 0.019637 0.114186
O O6 0.150179 0.750000 0.137567
O O7 0.150789 0.005559 0.208613
O O8 0.066583 0.035642 0.105432
O O9 0.750000 0.982760 0.696999
O O10 0.854939 0.250000 0.716321
O O11 0.944631 0.958559 0.701158
O O12 0.250000 0.971996 0.450737
O O13 0.350037 0.250000 0.448850
O O14 0.446194 0.973860 0.428844
O O15 0.382740 0.019447 0.530166
O O16 0.450187 0.750000 0.583814
O O17 0.411657 0.472768 0.647213
O O18 0.415266 0.750000 0.710601
O O19 0.488443 0.250000 0.928794
O O20 0.500000 0.500000 0.000000
#
# Coordination Sequence:
#
# PCOD9450535 Si02
#       7
#     8   8   8   8   8   8   8
#     4  10  22  40  58  78 110 150 188 228 276 327
#     4   8  15  30  52  75  99 131 168 205 255 316
#     4   9  17  31  52  77 105 138 174 213 263 325
#     4   9  18  34  54  76 107 146 186 229 275 324
#     4   9  19  34  53  80 110 144 184 228 277 329
#     4  10  20  34  55  82 112 144 182 228 277 327
#     4  11  22  37  59  84 110 142 181 226 274 327
#
# _framework density 22.234870999999998
#
# number of rings (size 3 to 8) (size 9 to 14) (size 15 to 20)
#    0.000    2.571    1.429    1.286    0.000    3.143 
#    0.000    4.286    0.000    1.286    0.000    0.000 
#    0.000    0.000    0.000    0.000    0.000    0.000 
#
# Total GULP energy -312140.050022 kJ/mol
# GULP energy per Si atom -5573.929465 kJ/mol
# Density = 2.218426 g / cm^3
# Si number density = 22.234871 Si / 1000 Ang^3
#
#
#
# Elastic Constant Matrix: (Units=GPa)
#
#
# Indices 1 2 3 4 5 6 
#
# 1 83.0464 -1.0135 32.7021 0.0000 0.0000 0.0000
# 2 -1.0135 46.0818 1.9181 0.0000 0.0000 0.0000
# 3 32.7021 1.9181 131.6655 0.0000 0.0000 0.0000
# 4 0.0000 0.0000 0.0000 15.1932 0.0000 0.0000
# 5 0.0000 0.0000 0.0000 0.0000 -6.5169 0.0000
# 6 0.0000 0.0000 0.0000 0.0000 0.0000 17.8731
#
#
#
# Elastic Compliance Matrix: (Units=1/GPa)
#
#
# Indices 1 2 3 4 5 6 
#
# 1 0.013355 0.000432 -0.003323 0.000000 0.000000 0.000000
# 2 0.000432 0.021728 -0.000424 0.000000 0.000000 0.000000
# 3 -0.003323 -0.000424 0.008427 0.000000 0.000000 0.000000
# 4 0.000000 0.000000 0.000000 0.065819 0.000000 0.000000
# 5 0.000000 0.000000 0.000000 0.000000 -0.153446 0.000000
# 6 0.000000 0.000000 0.000000 0.000000 0.000000 0.055950
#
#
# Mechanical properties :
#
#
# Convention : Reuss Voigt Hill
#
# Bulk Modulus (GPa) = 27.11542 36.44522 31.78032
# Shear Modulus (GPa) = 162.56957 20.45567 91.51262
#
# Velocity S-wave (km/s) = 8.55999 3.03641 6.42235
# Velocity P-wave (km/s) = 10.48424 5.35907 8.32583
#
# Compressibility (1/GPa) = 0.03687938
#
# Stress axis : x y z
#
# Youngs Moduli (GPa) = 74.87591 46.02419 118.67151
#
# Poissons Ratio (x) = -0.01989 0.39439
# Poissons Ratio (y) = -0.03235 0.05030
# Poissons Ratio (z) = 0.24884 0.01951
#
# Static dielectric constant tensor:
#      x y z
#    x 1.869410 0.000000 0.000000 
#    y 0.000000 1.830990 0.000000 
#    z 0.000000 0.000000 1.204740 
# 
# From -- ./inp_files/30343.got.cif
#   From: 2010.05.17/outbox.cif.g08.bks.cpg/sg59_16_cif.got.tgz:30343.got - 2010.06.03 14:40:33.
