data_PCOD9450282
_publ_section_title
;
Structure prediction by ZEFSAII (Michael W. Deem and Ramdas Pophale) SiO2 
 PCOD9450282
Probable space group: P M M N
;
_chemical_formula_sum "Si O2"
_cell_formula_units_Z 32
_cell_length_a 7.847538
_cell_length_b 9.261150
_cell_length_c 21.240717
_cell_angle_alpha 90.000000
_cell_angle_beta 90.000000
_cell_angle_gamma 90.000000
_cell_volume 1543.716401
_symmetry_space_group_name_H-M "P M M N"
_symmetry_group_IT_number 59
_space_group.IT_coordinate_system_code '2'
_symmetry_cell_setting 'orthorhombic'
loop_
_space_group_symop_operation_xyz
x,y,z
1/2-x,1/2-y,z
1/2+x,-y,-z
-x,1/2+y,-z
-x,-y,-z
1/2+x,1/2+y,-z
1/2-x,y,z
x,1/2-y,z
loop_
_atom_site_type_symbol
_atom_site_label
_atom_site_fract_x
_atom_site_fract_y
_atom_site_fract_z
Si Si1 0.541167 0.916612 0.187758
Si Si2 0.045687 0.913968 0.688437
Si Si3 0.544696 0.085277 0.063149
Si Si4 0.953168 0.085958 0.562954
O O1 0.750000 0.916752 0.187916
O O2 0.487001 0.750000 0.187503
O O3 0.482910 0.999230 0.250494
O O4 0.484741 0.000116 0.125076
O O5 0.250000 0.904909 0.694963
O O6 0.979000 0.750000 0.685751
O O7 0.010664 0.000009 0.624618
O O8 0.750000 0.091161 0.067130
O O9 0.480845 0.250000 0.061434
O O10 0.500000 0.000000 0.000000
O O11 0.750000 0.094474 0.565223
O O12 0.022046 0.250000 0.562030
O O13 0.000000 0.000000 0.500000
#
# Coordination Sequence:
#
# PCOD9450282 Si02
#       4
#     8   8   8   8
#     4   9  17  31  53  79 107 141 179 219 266 320
#     4  10  20  35  57  84 111 140 177 220 266 318
#     4  10  20  34  53  78 108 142 181 225 271 320
#     4  11  24  40  58  82 111 143 180 221 265 315
#
# _framework density 20.729196000000002
#
# number of rings (size 3 to 8) (size 9 to 14) (size 15 to 20)
#    0.000    2.000    0.000    3.750    0.000   11.000 
#    0.000    1.250    0.000    7.500    0.000    0.000 
#    0.000    0.000    0.000    0.000    0.000    0.000 
#
# Total GULP energy -178861.368414 kJ/mol
# GULP energy per Si atom -5589.417763 kJ/mol
# Density = 2.068202 g / cm^3
# Si number density = 20.729196 Si / 1000 Ang^3
#
#
#
# Elastic Constant Matrix: (Units=GPa)
#
#
# Indices 1 2 3 4 5 6 
#
# 1 23.5996 9.8924 0.1998 0.0000 0.0000 0.0000
# 2 9.8924 266.3537 158.1890 0.0000 0.0000 0.0000
# 3 0.1998 158.1890 247.7936 0.0000 0.0000 0.0000
# 4 0.0000 0.0000 0.0000 46.0956 0.0000 0.0000
# 5 0.0000 0.0000 0.0000 0.0000 28.1686 0.0000
# 6 0.0000 0.0000 0.0000 0.0000 0.0000 19.0141
#
#
#
# Elastic Compliance Matrix: (Units=1/GPa)
#
#
# Indices 1 2 3 4 5 6 
#
# 1 0.043435 -0.002565 0.001602 0.000000 0.000000 0.000000
# 2 -0.002565 0.006199 -0.003955 0.000000 0.000000 0.000000
# 3 0.001602 -0.003955 0.006559 0.000000 0.000000 0.000000
# 4 0.000000 0.000000 0.000000 0.021694 0.000000 0.000000
# 5 0.000000 0.000000 0.000000 0.000000 0.035500 0.000000
# 6 0.000000 0.000000 0.000000 0.000000 0.000000 0.052592
#
#
# Mechanical properties :
#
#
# Convention : Reuss Voigt Hill
#
# Bulk Modulus (GPa) = 21.57132 97.14547 59.35840
# Shear Modulus (GPa) = 26.14139 43.28673 34.71406
#
# Velocity S-wave (km/s) = 3.55504 4.57464 4.09668
# Velocity P-wave (km/s) = 5.22301 8.65268 7.14664
#
# Compressibility (1/GPa) = 0.04635785
#
# Stress axis : x y z
#
# Youngs Moduli (GPa) = 23.02284 161.32696 152.45779
#
# Poissons Ratio (x) = 0.41377 -0.24429
# Poissons Ratio (y) = 0.05905 0.60298
# Poissons Ratio (z) = -0.03689 0.63806
#
# Static dielectric constant tensor:
#      x y z
#    x 1.771330 0.000000 0.000000 
#    y 0.000000 1.730760 0.000000 
#    z 0.000000 0.000000 1.727990 
# 
# From -- ./inp_files/28568.got.cif
#   From: 2010.05.17/outbox.cif.g08.bks.cpg/sg59_15_cif.got.tgz:28568.got - 2010.06.03 14:40:33.
