data_PCOD9450971
_publ_section_title
;
Structure prediction by ZEFSAII (Michael W. Deem and Ramdas Pophale) SiO2 
 PCOD9450971
Probable space group: P M M N
;
_chemical_formula_sum "Si O2"
_cell_formula_units_Z 64
_cell_length_a 8.733420
_cell_length_b 22.177344
_cell_length_c 18.112397
_cell_angle_alpha 90.000000
_cell_angle_beta 90.000000
_cell_angle_gamma 90.000000
_cell_volume 3508.082581
_symmetry_space_group_name_H-M "P M M N"
_symmetry_group_IT_number 59
_space_group.IT_coordinate_system_code '2'
_symmetry_cell_setting 'orthorhombic'
loop_
_space_group_symop_operation_xyz
x,y,z
1/2-x,1/2-y,z
1/2+x,-y,-z
-x,1/2+y,-z
-x,-y,-z
1/2+x,1/2+y,-z
1/2-x,y,z
x,1/2-y,z
loop_
_atom_site_type_symbol
_atom_site_label
_atom_site_fract_x
_atom_site_fract_y
_atom_site_fract_z
Si Si1 0.571912 0.881694 0.750175
Si Si2 0.434662 0.454273 0.934808
Si Si3 0.567145 0.511148 0.233867
Si Si4 0.568161 0.464009 0.618738
Si Si5 0.075933 0.820640 0.618046
Si Si6 0.429266 0.418280 0.475754
Si Si7 0.578959 0.816295 0.898324
Si Si8 0.928278 0.319241 0.951640
O O1 0.750000 0.879026 0.728043
O O2 0.474270 0.836777 0.700780
O O3 0.560579 0.864551 0.835557
O O4 0.507269 0.948020 0.743585
O O5 0.250000 0.455733 0.942525
O O6 0.476965 0.475394 0.851230
O O7 0.489526 0.383615 0.934806
O O8 0.500000 0.500000 0.000000
O O9 0.750000 0.508513 0.235561
O O10 0.509787 0.551270 0.302962
O O11 0.750000 0.465556 0.629682
O O12 0.520458 0.420285 0.552198
O O13 0.520683 0.528391 0.581012
O O14 0.250000 0.841902 0.605551
O O15 0.068935 0.750000 0.605937
O O16 0.962526 0.856701 0.565677
O O17 0.250000 0.427809 0.490555
O O18 0.750000 0.823212 0.932673
O O19 0.577261 0.750000 0.862891
O O20 0.451971 0.818109 0.960234
O O21 0.750000 0.323866 0.931166
O O22 0.981299 0.250000 0.927972
#
# Coordination Sequence:
#
# PCOD9450971 Si02
#       8
#     8   8   8   8   8   8   8   8
#     4  11  21  33  50  75 107 146 188 229 277 334
#     4  11  24  40  60  88 120 158 199 247 305 358
#     4  11  23  37  55  81 114 147 186 236 289 343
#     4  10  20  35  58  85 110 142 181 228 283 334
#     4  11  23  36  52  77 112 153 191 229 274 328
#     4  10  20  35  57  83 111 144 183 227 276 328
#     4   9  18  32  50  72 101 141 187 233 279 334
#     4  10  21  37  58  83 111 147 193 243 297 358
#
# _framework density 18.243583999999998
#
# number of rings (size 3 to 8) (size 9 to 14) (size 15 to 20)
#    0.000    1.625    1.250    3.750    0.000    8.250 
#    0.000    1.250    0.000    0.750    0.000    3.500 
#    0.000    0.000    0.000    0.000    0.000    0.000 
#
# Total GULP energy -356480.123574 kJ/mol
# GULP energy per Si atom -5570.001931 kJ/mol
# Density = 1.820206 g / cm^3
# Si number density = 18.243584 Si / 1000 Ang^3
#
#
#
# Elastic Constant Matrix: (Units=GPa)
#
#
# Indices 1 2 3 4 5 6 
#
# 1 -70.9205 -61.2322 -82.5494 0.0000 0.0000 0.0000
# 2 -61.2322 -2.3060 -58.0145 0.0000 0.0000 0.0000
# 3 -82.5494 -58.0145 -10.1391 0.0000 0.0000 0.0000
# 4 0.0000 0.0000 0.0000 35.5387 0.0000 0.0000
# 5 0.0000 0.0000 0.0000 0.0000 27.3334 0.0000
# 6 0.0000 0.0000 0.0000 0.0000 0.0000 26.4665
#
#
#
# Elastic Compliance Matrix: (Units=1/GPa)
#
#
# Indices 1 2 3 4 5 6 
#
# 1 0.011302 -0.014095 -0.011369 0.000000 0.000000 0.000000
# 2 -0.014095 0.020612 -0.003180 0.000000 0.000000 0.000000
# 3 -0.011369 -0.003180 0.012126 0.000000 0.000000 0.000000
# 4 0.000000 0.000000 0.000000 0.028138 0.000000 0.000000
# 5 0.000000 0.000000 0.000000 0.000000 0.036585 0.000000
# 6 0.000000 0.000000 0.000000 0.000000 0.000000 0.037784
#
#
# Mechanical properties :
#
#
# Convention : Reuss Voigt Hill
#
# Bulk Modulus (GPa) = -75.48773 -54.10643 -64.79708
# Shear Modulus (GPa) = 25.07299 25.76308 25.41803
#
# Velocity S-wave (km/s) = 3.71124 3.76196 3.73669
# Velocity P-wave (km/s) = 4.80657 3.29429 4.12040
#
# Compressibility (1/GPa) = -0.01324719
#
# Stress axis : x y z
#
# Youngs Moduli (GPa) = 88.47864 48.51619 82.46965
#
# Poissons Ratio (x) = 0.68384 0.93758
# Poissons Ratio (y) = 1.24711 0.26222
# Poissons Ratio (z) = 1.00589 0.15426
#
# Static dielectric constant tensor:
#      x y z
#    x 1.659080 0.000000 0.000000 
#    y 0.000000 1.243720 0.000000 
#    z 0.000000 0.000000 1.673600 
# 
# From -- ./inp_files/26177.got.cif
#   From: 2010.05.17/outbox.cif.g08.bks.cpg/sg59_14_cif.got.tgz:26177.got - 2010.06.03 14:40:33.
