data_PCOD9450572
_publ_section_title
;
Structure prediction by ZEFSAII (Michael W. Deem and Ramdas Pophale) SiO2 
 PCOD9450572
Probable space group: P M M N
;
_chemical_formula_sum "Si O2"
_cell_formula_units_Z 56
_cell_length_a 14.285543
_cell_length_b 8.610303
_cell_length_c 22.482988
_cell_angle_alpha 90.000000
_cell_angle_beta 90.000000
_cell_angle_gamma 90.000000
_cell_volume 2765.471685
_symmetry_space_group_name_H-M "P M M N"
_symmetry_group_IT_number 59
_space_group.IT_coordinate_system_code '2'
_symmetry_cell_setting 'orthorhombic'
loop_
_space_group_symop_operation_xyz
x,y,z
1/2-x,1/2-y,z
1/2+x,-y,-z
-x,1/2+y,-z
-x,-y,-z
1/2+x,1/2+y,-z
1/2-x,y,z
x,1/2-y,z
loop_
_atom_site_type_symbol
_atom_site_label
_atom_site_fract_x
_atom_site_fract_y
_atom_site_fract_z
Si Si1 0.051738 0.567909 0.209605
Si Si2 0.360235 0.564120 0.334904
Si Si3 0.646398 0.068025 0.222445
Si Si4 0.353922 0.071786 0.649776
Si Si5 0.950526 0.934813 0.912846
Si Si6 0.010978 0.434997 0.433767
Si Si7 0.356934 0.437600 0.963280
O O1 0.070914 0.750000 0.208217
O O2 0.087688 0.509893 0.274112
O O3 0.090896 0.491604 0.149783
O O4 0.941327 0.533454 0.203806
O O5 0.250000 0.537897 0.327895
O O6 0.376544 0.750000 0.340285
O O7 0.399190 0.485193 0.394585
O O8 0.750000 0.021771 0.200178
O O9 0.631559 0.250000 0.209177
O O10 0.647545 0.039011 0.293248
O O11 0.250000 0.072633 0.623651
O O12 0.375482 0.250000 0.668818
O O13 0.427449 0.010805 0.603580
O O14 0.956544 0.750000 0.911767
O O15 0.886020 0.980462 0.968955
O O16 0.056085 0.997385 0.925120
O O17 0.004831 0.250000 0.435053
O O18 0.000000 0.500000 0.500000
O O19 0.250000 0.489189 0.949896
O O20 0.358552 0.250000 0.958421
#
# Coordination Sequence:
#
# PCOD9450572 Si02
#       7
#     8   8   8   8   8   8   8
#     4  11  22  37  60  87 121 162 201 244 298 359
#     4  10  23  44  66  89 121 160 203 252 303 357
#     4  10  20  34  55  84 116 150 189 236 292 352
#     4  10  20  36  59  86 116 149 187 233 289 353
#     4  10  21  36  57  87 120 154 198 249 299 353
#     4  12  25  41  64  90 120 157 200 249 302 358
#     4   9  19  38  61  84 115 156 200 247 300 356
#
# _framework density 20.249711000000001
#
# number of rings (size 3 to 8) (size 9 to 14) (size 15 to 20)
#    0.000    1.714    1.429    3.000    0.000    5.143 
#    0.000    0.000    0.000    0.000    0.000    0.000 
#    0.000    0.000    0.000    0.000    0.000    0.000 
#
# Total GULP energy -312594.407663 kJ/mol
# GULP energy per Si atom -5582.042994 kJ/mol
# Density = 2.020362 g / cm^3
# Si number density = 20.249711 Si / 1000 Ang^3
#
#
#
# Elastic Constant Matrix: (Units=GPa)
#
#
# Indices 1 2 3 4 5 6 
#
# 1 69.5156 11.2899 17.3124 0.0000 0.0000 0.0000
# 2 11.2899 36.1313 6.0845 0.0000 0.0000 0.0000
# 3 17.3124 6.0845 106.5578 0.0000 0.0000 0.0000
# 4 0.0000 0.0000 0.0000 33.1584 0.0000 0.0000
# 5 0.0000 0.0000 0.0000 0.0000 2.5935 0.0000
# 6 0.0000 0.0000 0.0000 0.0000 0.0000 22.0741
#
#
#
# Elastic Compliance Matrix: (Units=1/GPa)
#
#
# Indices 1 2 3 4 5 6 
#
# 1 0.015689 -0.004517 -0.002291 0.000000 0.000000 0.000000
# 2 -0.004517 0.029246 -0.000936 0.000000 0.000000 0.000000
# 3 -0.002291 -0.000936 0.009810 0.000000 0.000000 0.000000
# 4 0.000000 0.000000 0.000000 0.030158 0.000000 0.000000
# 5 0.000000 0.000000 0.000000 0.000000 0.385576 0.000000
# 6 0.000000 0.000000 0.000000 0.000000 0.000000 0.045302
#
#
# Mechanical properties :
#
#
# Convention : Reuss Voigt Hill
#
# Bulk Modulus (GPa) = 25.47275 31.28648 28.37962
# Shear Modulus (GPa) = 9.18518 23.39973 16.29245
#
# Velocity S-wave (km/s) = 2.13209 3.40304 2.83958
# Velocity P-wave (km/s) = 4.32061 5.56100 4.97958
#
# Compressibility (1/GPa) = 0.03925763
#
# Stress axis : x y z
#
# Youngs Moduli (GPa) = 63.73731 34.19299 101.93393
#
# Poissons Ratio (x) = 0.15444 0.23355
# Poissons Ratio (y) = 0.28788 0.09542
# Poissons Ratio (z) = 0.14603 0.03201
#
# Static dielectric constant tensor:
#      x y z
#    x 1.721480 0.000000 0.000000 
#    y 0.000000 1.691230 0.000000 
#    z 0.000000 0.000000 1.730070 
# 
# From -- ./inp_files/30368.got.cif
#   From: 2010.05.17/outbox.cif.g08.bks.cpg/sg59_16_cif.got.tgz:30368.got - 2010.06.03 14:40:33.
