data_PCOD9450792
_publ_section_title
;
Structure prediction by ZEFSAII (Michael W. Deem and Ramdas Pophale) SiO2 
 PCOD9450792
Probable space group: P M M N
;
_chemical_formula_sum "Si O2"
_cell_formula_units_Z 40
_cell_length_a 7.844088
_cell_length_b 26.695558
_cell_length_c 9.357934
_cell_angle_alpha 90.000000
_cell_angle_beta 90.000000
_cell_angle_gamma 90.000000
_cell_volume 1959.572961
_symmetry_space_group_name_H-M "P M M N"
_symmetry_group_IT_number 59
_space_group.IT_coordinate_system_code '2'
_symmetry_cell_setting 'orthorhombic'
loop_
_space_group_symop_operation_xyz
x,y,z
1/2-x,1/2-y,z
1/2+x,-y,-z
-x,1/2+y,-z
-x,-y,-z
1/2+x,1/2+y,-z
1/2-x,y,z
x,1/2-y,z
loop_
_atom_site_type_symbol
_atom_site_label
_atom_site_fract_x
_atom_site_fract_y
_atom_site_fract_z
Si Si1 0.044103 0.693677 0.170480
Si Si2 0.548113 0.402816 0.325898
Si Si3 0.955805 0.998250 0.166314
Si Si4 0.541682 0.193852 0.160038
Si Si5 0.548750 0.596531 0.346536
O O1 0.250000 0.693268 0.173902
O O2 0.988222 0.750000 0.210867
O O3 0.982166 0.649710 0.271727
O O4 0.992996 0.684869 0.005336
O O5 0.750000 0.402302 0.295825
O O6 0.478817 0.452240 0.247621
O O7 0.479239 0.351123 0.259339
O O8 0.525710 0.405383 0.495066
O O9 0.750000 0.997809 0.175992
O O10 0.019046 0.948101 0.245448
O O11 0.000000 0.000000 0.000000
O O12 0.750000 0.194544 0.163834
O O13 0.485733 0.250000 0.201149
O O14 0.750000 0.589162 0.362328
#
# Coordination Sequence:
#
# PCOD9450792 Si02
#       5
#     8   8   8   8   8
#     4   9  18  35  59  82 104 138 183 223 262 315
#     4  10  20  35  55  78 106 142 182 221 263 317
#     4  10  22  38  57  80 105 139 183 227 271 321
#     4   8  15  30  54  81 103 127 171 227 268 302
#     4  11  23  36  51  78 114 144 174 219 274 324
#
# _framework density 20.412611999999999
#
# number of rings (size 3 to 8) (size 9 to 14) (size 15 to 20)
#    0.000    2.400    0.000    3.600    0.000    5.200 
#    0.000    3.000    0.000    1.200    0.000    0.000 
#    0.000    0.000    0.000    0.000    0.000    0.000 
#
# Total GULP energy -223346.286544 kJ/mol
# GULP energy per Si atom -5583.657164 kJ/mol
# Density = 2.036615 g / cm^3
# Si number density = 20.412612 Si / 1000 Ang^3
#
#
#
# Elastic Constant Matrix: (Units=GPa)
#
#
# Indices 1 2 3 4 5 6 
#
# 1 16.3621 0.2287 -14.1967 0.0000 0.0000 0.0000
# 2 0.2287 188.1609 112.5252 0.0000 0.0000 0.0000
# 3 -14.1967 112.5252 132.9719 0.0000 0.0000 0.0000
# 4 0.0000 0.0000 0.0000 0.1792 0.0000 0.0000
# 5 0.0000 0.0000 0.0000 0.0000 21.4213 0.0000
# 6 0.0000 0.0000 0.0000 0.0000 0.0000 10.9494
#
#
#
# Elastic Compliance Matrix: (Units=1/GPa)
#
#
# Indices 1 2 3 4 5 6 
#
# 1 0.075564 -0.009954 0.016491 0.000000 0.000000 0.000000
# 2 -0.009954 0.012071 -0.011278 0.000000 0.000000 0.000000
# 3 0.016491 -0.011278 0.018825 0.000000 0.000000 0.000000
# 4 0.000000 0.000000 0.000000 5.581325 0.000000 0.000000
# 5 0.000000 0.000000 0.000000 0.000000 0.046682 0.000000
# 6 0.000000 0.000000 0.000000 0.000000 0.000000 0.091329
#
#
# Mechanical properties :
#
#
# Convention : Reuss Voigt Hill
#
# Bulk Modulus (GPa) = 10.31154 59.40104 34.85629
# Shear Modulus (GPa) = 0.85214 22.43916 11.64565
#
# Velocity S-wave (km/s) = 0.64681 3.31913 2.39113
# Velocity P-wave (km/s) = 2.37073 6.62210 4.97356
#
# Compressibility (1/GPa) = 0.09697870
#
# Stress axis : x y z
#
# Youngs Moduli (GPa) = 13.23376 82.84309 53.12220
#
# Poissons Ratio (x) = 0.82461 -0.87603
# Poissons Ratio (y) = 0.13173 0.59909
# Poissons Ratio (z) = -0.21824 0.93427
#
# Static dielectric constant tensor:
#      x y z
#    x 1.721760 0.000000 0.000000 
#    y 0.000000 1.737380 0.000000 
#    z 0.000000 0.000000 1.667570 
# 
# From -- ./inp_files/5632.got.cif
#   From: 2010.05.17/outbox.cif.g08.bks.cpg/sg59_3_cif.got.tgz:5632.got - 2010.06.03 14:40:33.
