data_PCOD9450386
_publ_section_title
;
Structure prediction by ZEFSAII (Michael W. Deem and Ramdas Pophale) SiO2 
 PCOD9450386
Probable space group: P M M N
;
_chemical_formula_sum "Si O2"
_cell_formula_units_Z 48
_cell_length_a 9.792385
_cell_length_b 7.718296
_cell_length_c 29.337406
_cell_angle_alpha 90.000000
_cell_angle_beta 90.000000
_cell_angle_gamma 90.000000
_cell_volume 2217.336576
_symmetry_space_group_name_H-M "P M M N"
_symmetry_group_IT_number 59
_space_group.IT_coordinate_system_code '2'
_symmetry_cell_setting 'orthorhombic'
loop_
_space_group_symop_operation_xyz
x,y,z
1/2-x,1/2-y,z
1/2+x,-y,-z
-x,1/2+y,-z
-x,-y,-z
1/2+x,1/2+y,-z
1/2-x,y,z
x,1/2-y,z
loop_
_atom_site_type_symbol
_atom_site_label
_atom_site_fract_x
_atom_site_fract_y
_atom_site_fract_z
Si Si1 0.406784 0.043164 0.131270
Si Si2 0.406430 0.537545 0.784844
Si Si3 0.250000 0.959423 0.470124
Si Si4 0.408243 0.456318 0.955956
Si Si5 0.602524 0.956830 0.707510
Si Si6 0.963614 0.459459 0.604557
Si Si7 0.250000 0.454869 0.575569
O O1 0.250000 0.976383 0.127012
O O2 0.394735 0.250000 0.136808
O O3 0.492151 0.979035 0.174928
O O4 0.502599 0.013371 0.087486
O O5 0.250000 0.479549 0.790325
O O6 0.402905 0.750000 0.785817
O O7 0.475768 0.480037 0.737436
O O8 0.250000 0.750000 0.472882
O O9 0.376888 0.016740 0.439114
O O10 0.250000 0.026050 0.521186
O O11 0.250000 0.524050 0.957145
O O12 0.397353 0.250000 0.954012
O O13 0.500000 0.500000 0.000000
O O14 0.750000 0.025075 0.723633
O O15 0.604879 0.750000 0.713670
O O16 0.590231 0.990980 0.653915
O O17 0.961496 0.250000 0.603031
O O18 0.114636 0.528986 0.597477
O O19 0.250000 0.250000 0.585361
#
# Coordination Sequence:
#
# PCOD9450386 Si02
#       7
#     8   8   4   8   8   8   4
#     4  10  20  36  60  88 118 154 195 238 288 344
#     4   9  18  33  55  83 114 147 184 229 280 330
#     4  10  20  36  56  76 102 138 176 214 261 322
#     4  11  24  40  59  86 120 157 200 247 293 344
#     4  10  20  34  54  80 107 139 182 227 268 319
#     4  10  21  37  54  76 107 140 172 214 269 324
#     4  10  22  36  54  78 106 136 172 216 265 318
#
# _framework density 21.647593000000001
#
# number of rings (size 3 to 8) (size 9 to 14) (size 15 to 20)
#    0.000    2.000    0.833    2.500    1.167    7.667 
#    0.000    0.833    0.000    3.000    0.000    0.000 
#    0.000    0.000    0.000    0.000    0.000    0.000 
#
# Total GULP energy -267988.721414 kJ/mol
# GULP energy per Si atom -5583.098363 kJ/mol
# Density = 2.159832 g / cm^3
# Si number density = 21.647593 Si / 1000 Ang^3
#
#
#
# Elastic Constant Matrix: (Units=GPa)
#
#
# Indices 1 2 3 4 5 6 
#
# 1 215.5071 9.4428 60.2255 0.0000 0.0000 0.0000
# 2 9.4428 32.0361 -12.6923 0.0000 0.0000 0.0000
# 3 60.2255 -12.6923 96.8469 0.0000 0.0000 0.0000
# 4 0.0000 0.0000 0.0000 16.7578 0.0000 0.0000
# 5 0.0000 0.0000 0.0000 0.0000 37.2356 0.0000
# 6 0.0000 0.0000 0.0000 0.0000 0.0000 -39.0352
#
#
#
# Elastic Compliance Matrix: (Units=1/GPa)
#
#
# Indices 1 2 3 4 5 6 
#
# 1 0.005947 -0.003394 -0.004143 0.000000 0.000000 0.000000
# 2 -0.003394 0.034862 0.006680 0.000000 0.000000 0.000000
# 3 -0.004143 0.006680 0.013777 0.000000 0.000000 0.000000
# 4 0.000000 0.000000 0.000000 0.059674 0.000000 0.000000
# 5 0.000000 0.000000 0.000000 0.000000 0.026856 0.000000
# 6 0.000000 0.000000 0.000000 0.000000 0.000000 -0.025618
#
#
# Mechanical properties :
#
#
# Convention : Reuss Voigt Hill
#
# Bulk Modulus (GPa) = 18.91415 50.92689 34.92052
# Shear Modulus (GPa) = 37.08209 22.15257 29.61733
#
# Velocity S-wave (km/s) = 4.14332 3.20242 3.70287
# Velocity P-wave (km/s) = 5.62545 6.10332 5.86925
#
# Compressibility (1/GPa) = 0.05287046
#
# Stress axis : x y z
#
# Youngs Moduli (GPa) = 168.16047 28.68489 72.58340
#
# Poissons Ratio (x) = 0.09736 0.30070
# Poissons Ratio (y) = 0.57077 -0.48482
# Poissons Ratio (z) = 0.69666 -0.19160
#
# Static dielectric constant tensor:
#      x y z
#    x 1.896900 0.000000 0.000000 
#    y 0.000000 1.798150 0.000000 
#    z 0.000000 0.000000 1.752890 
# 
# From -- ./inp_files/33061.got.cif
#   From: 2010.05.17/outbox.cif.g08.bks.cpg/sg59_17_cif.got.tgz:33061.got - 2010.06.03 14:40:33.
