data_PCOD9450472
_publ_section_title
;
Structure prediction by ZEFSAII (Michael W. Deem and Ramdas Pophale) SiO2 
 PCOD9450472
Probable space group: P M M N
;
_chemical_formula_sum "Si O2"
_cell_formula_units_Z 64
_cell_length_a 28.941222
_cell_length_b 7.520636
_cell_length_c 13.419241
_cell_angle_alpha 90.000000
_cell_angle_beta 90.000000
_cell_angle_gamma 90.000000
_cell_volume 2920.783634
_symmetry_space_group_name_H-M "P M M N"
_symmetry_group_IT_number 59
_space_group.IT_coordinate_system_code '2'
_symmetry_cell_setting 'orthorhombic'
loop_
_space_group_symop_operation_xyz
x,y,z
1/2-x,1/2-y,z
1/2+x,-y,-z
-x,1/2+y,-z
-x,-y,-z
1/2+x,1/2+y,-z
1/2-x,y,z
x,1/2-y,z
loop_
_atom_site_type_symbol
_atom_site_label
_atom_site_fract_x
_atom_site_fract_y
_atom_site_fract_z
Si Si1 0.353730 0.543160 0.848366
Si Si2 0.864867 0.036129 0.934952
Si Si3 0.357424 0.041227 0.446398
Si Si4 0.303553 0.965483 0.649445
Si Si5 0.949057 0.537000 0.461789
Si Si6 0.048384 0.033892 0.763827
Si Si7 0.968961 0.462664 0.902987
Si Si8 0.802386 0.963555 0.744082
O O1 0.339761 0.750000 0.851340
O O2 0.328426 0.468091 0.750498
O O3 0.408562 0.530215 0.828992
O O4 0.346106 0.467170 0.958681
O O5 0.868573 0.250000 0.945680
O O6 0.916907 0.967731 0.913737
O O7 0.831359 0.999815 0.843301
O O8 0.363462 0.250000 0.424275
O O9 0.408282 0.965419 0.468292
O O10 0.329343 0.965614 0.353160
O O11 0.329318 0.025788 0.549522
O O12 0.250000 0.018737 0.648007
O O13 0.305613 0.750000 0.648919
O O14 0.943385 0.750000 0.456946
O O15 0.944286 0.471059 0.348764
O O16 0.000000 0.500000 0.500000
O O17 0.049182 0.250000 0.765403
O O18 0.999743 0.973524 0.809990
O O19 0.965277 0.250000 0.892887
O O20 0.000000 0.500000 0.000000
O O21 0.750000 0.031994 0.749460
O O22 0.799330 0.750000 0.733803
#
# Coordination Sequence:
#
# PCOD9450472 Si02
#       8
#     8   8   8   8   8   8   8   8
#     4  10  20  36  57  83 114 149 188 231 282 342
#     4  10  22  38  58  85 116 153 196 235 283 343
#     4  10  21  40  62  84 112 149 191 233 283 344
#     4  10  21  36  57  86 113 139 179 233 289 341
#     4  10  22  37  55  83 116 150 186 226 280 342
#     4  10  20  35  55  80 114 150 188 233 280 334
#     4  10  20  34  54  83 114 147 186 229 273 328
#     4  10  23  42  61  82 110 147 194 246 293 338
#
# _framework density 21.911929000000001
#
# number of rings (size 3 to 8) (size 9 to 14) (size 15 to 20)
#    0.000    2.000    2.500    0.375    1.750    4.000 
#    0.000    1.250    0.000    0.000    0.000    0.000 
#    0.000    0.000    0.000    0.000    0.000    0.000 
#
# Total GULP energy -357567.081368 kJ/mol
# GULP energy per Si atom -5586.985646 kJ/mol
# Density = 2.186206 g / cm^3
# Si number density = 21.911929 Si / 1000 Ang^3
#
#
#
# Elastic Constant Matrix: (Units=GPa)
#
#
# Indices 1 2 3 4 5 6 
#
# 1 151.0839 -11.8457 91.9154 0.0000 0.0000 0.0000
# 2 -11.8457 52.9482 -8.6604 0.0000 0.0000 0.0000
# 3 91.9154 -8.6604 179.5845 0.0000 0.0000 0.0000
# 4 0.0000 0.0000 0.0000 63.8072 0.0000 0.0000
# 5 0.0000 0.0000 0.0000 0.0000 29.8025 0.0000
# 6 0.0000 0.0000 0.0000 0.0000 0.0000 81.9092
#
#
#
# Elastic Compliance Matrix: (Units=1/GPa)
#
#
# Indices 1 2 3 4 5 6 
#
# 1 0.009709 0.001370 -0.004903 0.000000 0.000000 0.000000
# 2 0.001370 0.019230 0.000226 0.000000 0.000000 0.000000
# 3 -0.004903 0.000226 0.008089 0.000000 0.000000 0.000000
# 4 0.000000 0.000000 0.000000 0.015672 0.000000 0.000000
# 5 0.000000 0.000000 0.000000 0.000000 0.033554 0.000000
# 6 0.000000 0.000000 0.000000 0.000000 0.000000 0.012209
#
#
# Mechanical properties :
#
#
# Convention : Reuss Voigt Hill
#
# Bulk Modulus (GPa) = 32.87966 58.49282 45.68624
# Shear Modulus (GPa) = 43.39689 55.91759 49.65724
#
# Velocity S-wave (km/s) = 4.45512 5.05714 4.76565
# Velocity P-wave (km/s) = 6.44221 7.80077 7.15381
#
# Compressibility (1/GPa) = 0.03041394
#
# Stress axis : x y z
#
# Youngs Moduli (GPa) = 102.99336 52.00237 123.62496
#
# Poissons Ratio (x) = -0.07125 0.60618
# Poissons Ratio (y) = -0.14112 -0.02795
# Poissons Ratio (z) = 0.50502 -0.01176
#
# Static dielectric constant tensor:
#      x y z
#    x 1.780840 0.000000 0.000000 
#    y 0.000000 1.817290 0.000000 
#    z 0.000000 0.000000 1.793810 
# 
# From -- ./inp_files/19276.got.cif
#   From: 2010.05.17/outbox.cif.g08.bks.cpg/sg59_10_cif.got.tgz:19276.got - 2010.06.03 14:40:33.
