data_PCOD9450553
_publ_section_title
;
Structure prediction by ZEFSAII (Michael W. Deem and Ramdas Pophale) SiO2 
 PCOD9450553
Probable space group: P M M N
;
_chemical_formula_sum "Si O2"
_cell_formula_units_Z 64
_cell_length_a 14.463397
_cell_length_b 8.649540
_cell_length_c 26.560037
_cell_angle_alpha 90.000000
_cell_angle_beta 90.000000
_cell_angle_gamma 90.000000
_cell_volume 3322.706601
_symmetry_space_group_name_H-M "P M M N"
_symmetry_group_IT_number 59
_space_group.IT_coordinate_system_code '2'
_symmetry_cell_setting 'orthorhombic'
loop_
_space_group_symop_operation_xyz
x,y,z
1/2-x,1/2-y,z
1/2+x,-y,-z
-x,1/2+y,-z
-x,-y,-z
1/2+x,1/2+y,-z
1/2-x,y,z
x,1/2-y,z
loop_
_atom_site_type_symbol
_atom_site_label
_atom_site_fract_x
_atom_site_fract_y
_atom_site_fract_z
Si Si1 0.856992 0.063073 0.723410
Si Si2 0.637346 0.928063 0.028941
Si Si3 0.856268 0.433524 0.135768
Si Si4 0.400690 0.064111 0.484806
Si Si5 0.849778 0.562904 0.406032
Si Si6 0.357962 0.063084 0.081161
Si Si7 0.449728 0.064294 0.377011
Si Si8 0.034274 0.565472 0.176948
O O1 0.750000 0.013543 0.726434
O O2 0.858577 0.250000 0.722416
O O3 0.913432 0.011748 0.772778
O O4 0.904699 0.001692 0.673102
O O5 0.750000 0.925628 0.025694
O O6 0.607248 0.750000 0.035908
O O7 0.614784 0.024123 0.078509
O O8 0.606874 0.988271 0.974174
O O9 0.750000 0.486102 0.142468
O O10 0.859444 0.250000 0.141547
O O11 0.928666 0.510962 0.173111
O O12 0.398489 0.250000 0.483562
O O13 0.345038 0.019097 0.534563
O O14 0.390342 0.013886 0.426767
O O15 0.500000 0.000000 0.500000
O O16 0.750000 0.518754 0.382999
O O17 0.857918 0.750000 0.403073
O O18 0.944054 0.492056 0.384038
O O19 0.250000 0.018462 0.086489
O O20 0.362054 0.250000 0.080705
O O21 0.414234 0.999287 0.127826
O O22 0.449803 0.250000 0.375405
O O23 0.037777 0.750000 0.175497
#
# Coordination Sequence:
#
# PCOD9450553 Si02
#       8
#     8   8   8   8   8   8   8   8
#     4  10  23  43  62  80 105 138 179 225 270 321
#     4   8  15  30  52  78 109 144 179 214 256 312
#     4  10  21  37  57  81 109 140 175 218 268 321
#     4   8  15  28  47  74 108 144 182 222 262 309
#     4   9  17  31  53  80 114 156 192 222 263 317
#     4   9  18  33  54  81 113 146 179 219 267 317
#     4  10  20  34  55  83 113 145 183 229 278 324
#     4  11  23  38  58  81 105 138 180 225 271 321
#
# _framework density 19.261406000000001
#
# number of rings (size 3 to 8) (size 9 to 14) (size 15 to 20)
#    0.000    2.625    0.000    2.250    0.000    5.000 
#    0.000    3.125    0.000    0.750    0.000    0.000 
#    0.000    0.000    0.000    0.000    0.000    0.000 
#
# Total GULP energy -356782.628564 kJ/mol
# GULP energy per Si atom -5574.728571 kJ/mol
# Density = 1.921757 g / cm^3
# Si number density = 19.261406 Si / 1000 Ang^3
#
#
#
# Elastic Constant Matrix: (Units=GPa)
#
#
# Indices 1 2 3 4 5 6 
#
# 1 117.8067 23.3153 76.3582 0.0000 0.0000 0.0000
# 2 23.3153 15.1185 23.8810 0.0000 0.0000 0.0000
# 3 76.3582 23.8810 134.4869 0.0000 0.0000 0.0000
# 4 0.0000 0.0000 0.0000 26.9226 0.0000 0.0000
# 5 0.0000 0.0000 0.0000 0.0000 26.9290 0.0000
# 6 0.0000 0.0000 0.0000 0.0000 0.0000 20.7428
#
#
#
# Elastic Compliance Matrix: (Units=1/GPa)
#
#
# Indices 1 2 3 4 5 6 
#
# 1 0.015220 -0.013651 -0.006218 0.000000 0.000000 0.000000
# 2 -0.013651 0.104173 -0.010748 0.000000 0.000000 0.000000
# 3 -0.006218 -0.010748 0.012874 0.000000 0.000000 0.000000
# 4 0.000000 0.000000 0.000000 0.037143 0.000000 0.000000
# 5 0.000000 0.000000 0.000000 0.000000 0.037135 0.000000
# 6 0.000000 0.000000 0.000000 0.000000 0.000000 0.048209
#
#
# Mechanical properties :
#
#
# Convention : Reuss Voigt Hill
#
# Bulk Modulus (GPa) = 14.07746 57.16900 35.62323
# Shear Modulus (GPa) = 14.72035 24.50939 19.61487
#
# Velocity S-wave (km/s) = 2.76749 3.57103 3.19462
# Velocity P-wave (km/s) = 4.18766 6.83725 5.66941
#
# Compressibility (1/GPa) = 0.07103553
#
# Stress axis : x y z
#
# Youngs Moduli (GPa) = 65.70219 9.59941 77.67386
#
# Poissons Ratio (x) = 0.13104 0.48295
# Poissons Ratio (y) = 0.89689 0.83481
# Poissons Ratio (z) = 0.40851 0.10317
#
# Static dielectric constant tensor:
#      x y z
#    x 1.709720 0.000000 0.000000 
#    y 0.000000 1.648860 0.000000 
#    z 0.000000 0.000000 1.672320 
# 
# From -- ./inp_files/32133.got.cif
#   From: 2010.05.17/outbox.cif.g08.bks.cpg/sg59_17_cif.got.tgz:32133.got - 2010.06.03 14:40:33.
