data_PCOD9450216
_publ_section_title
;
Structure prediction by ZEFSAII (Michael W. Deem and Ramdas Pophale) SiO2 
 PCOD9450216
Probable space group: P M M N
;
_chemical_formula_sum "Si O2"
_cell_formula_units_Z 48
_cell_length_a 12.832476
_cell_length_b 14.820783
_cell_length_c 10.307700
_cell_angle_alpha 90.000000
_cell_angle_beta 90.000000
_cell_angle_gamma 90.000000
_cell_volume 1960.394067
_symmetry_space_group_name_H-M "P M M N"
_symmetry_group_IT_number 59
_space_group.IT_coordinate_system_code '2'
_symmetry_cell_setting 'orthorhombic'
loop_
_space_group_symop_operation_xyz
x,y,z
1/2-x,1/2-y,z
1/2+x,-y,-z
-x,1/2+y,-z
-x,-y,-z
1/2+x,1/2+y,-z
1/2-x,y,z
x,1/2-y,z
loop_
_atom_site_type_symbol
_atom_site_label
_atom_site_fract_x
_atom_site_fract_y
_atom_site_fract_z
Si Si1 0.088009 0.903868 0.638541
Si Si2 0.626936 0.154104 0.073216
Si Si3 0.367513 0.107329 0.712135
Si Si4 0.593182 0.153349 0.643847
Si Si5 0.366027 0.048327 0.285851
Si Si6 0.375326 0.042714 0.994838
O O1 0.116315 0.853472 0.770899
O O2 0.124424 0.859584 0.506226
O O3 0.131616 0.004736 0.657914
O O4 0.962593 0.916481 0.631830
O O5 0.750000 0.156113 0.042858
O O6 0.580626 0.250000 0.029505
O O7 0.581865 0.060213 0.018164
O O8 0.250000 0.143037 0.696399
O O9 0.467451 0.153387 0.650337
O O10 0.395536 0.099103 0.865256
O O11 0.630439 0.250000 0.694531
O O12 0.628719 0.061218 0.713482
O O13 0.250000 0.075364 0.327205
O O14 0.388074 0.080275 0.139074
O O15 0.250000 0.030256 0.985520
#
# Coordination Sequence:
#
# PCOD9450216 Si02
#       6
#     8   8   8   8   8   8
#     4  10  20  34  53  76 104 136 179 219 243 293
#     4   9  17  30  51  78 107 139 171 210 263 310
#     4   9  18  35  58  79 100 132 173 216 259 303
#     4  11  24  36  49  77 109 136 171 212 256 307
#     4  10  21  37  56  77 103 137 172 210 257 305
#     4   8  16  32  54  79 103 129 170 216 254 302
#
# _framework density 24.484874000000001
#
# number of rings (size 3 to 8) (size 9 to 14) (size 15 to 20)
#    0.000    2.500    0.000    4.000    0.000   10.667 
#    0.000    1.667    0.000    2.500    0.000    4.667 
#    0.000    0.000    0.000    0.000    0.000    0.000 
#
# Total GULP energy -268274.104448 kJ/mol
# GULP energy per Si atom -5589.043843 kJ/mol
# Density = 2.442915 g / cm^3
# Si number density = 24.484874 Si / 1000 Ang^3
#
#
#
# Elastic Constant Matrix: (Units=GPa)
#
#
# Indices 1 2 3 4 5 6 
#
# 1 129.1453 -4.5443 -1.4676 0.0000 0.0000 0.0000
# 2 -4.5443 74.7480 1.0845 0.0000 0.0000 0.0000
# 3 -1.4676 1.0845 97.0286 0.0000 0.0000 0.0000
# 4 0.0000 0.0000 0.0000 -26.8718 0.0000 0.0000
# 5 0.0000 0.0000 0.0000 0.0000 -2.1591 0.0000
# 6 0.0000 0.0000 0.0000 0.0000 0.0000 -1.1695
#
#
#
# Elastic Compliance Matrix: (Units=1/GPa)
#
#
# Indices 1 2 3 4 5 6 
#
# 1 0.007761 0.000470 0.000112 0.000000 0.000000 0.000000
# 2 0.000470 0.013409 -0.000143 0.000000 0.000000 0.000000
# 3 0.000112 -0.000143 0.010310 0.000000 0.000000 0.000000
# 4 0.000000 0.000000 0.000000 -0.037214 0.000000 0.000000
# 5 0.000000 0.000000 0.000000 0.000000 -0.463160 0.000000
# 6 0.000000 0.000000 0.000000 0.000000 0.000000 -0.855038
#
#
# Mechanical properties :
#
#
# Convention : Reuss Voigt Hill
#
# Bulk Modulus (GPa) = 30.90365 32.34082 31.62224
# Shear Modulus (GPa) = -3.80510 14.34987 5.27238
#
# Velocity S-wave (km/s) = -1.24797 2.42352 1.46901
# Velocity P-wave (km/s) = 3.25151 4.59003 3.97748
#
# Compressibility (1/GPa) = 0.03235863
#
# Stress axis : x y z
#
# Youngs Moduli (GPa) = 128.84882 74.57706 96.99766
#
# Poissons Ratio (x) = -0.03507 -0.01088
# Poissons Ratio (y) = -0.06058 0.01385
# Poissons Ratio (z) = -0.01445 0.01065
#
# Static dielectric constant tensor:
#      x y z
#    x 1.993280 0.000000 0.000000 
#    y 0.000000 1.915860 0.000000 
#    z 0.000000 0.000000 1.898590 
# 
# From -- ./inp_files/17049.got.cif
#   From: 2010.05.17/outbox.cif.g08.bks.cpg/sg59_9_cif.got.tgz:17049.got - 2010.06.03 14:40:33.
