data_PCOD9450569
_publ_section_title
;
Structure prediction by ZEFSAII (Michael W. Deem and Ramdas Pophale) SiO2 
 PCOD9450569
Probable space group: P M M N
;
_chemical_formula_sum "Si O2"
_cell_formula_units_Z 56
_cell_length_a 8.540752
_cell_length_b 14.747660
_cell_length_c 24.473804
_cell_angle_alpha 90.000000
_cell_angle_beta 90.000000
_cell_angle_gamma 90.000000
_cell_volume 3082.625067
_symmetry_space_group_name_H-M "P M M N"
_symmetry_group_IT_number 59
_space_group.IT_coordinate_system_code '2'
_symmetry_cell_setting 'orthorhombic'
loop_
_space_group_symop_operation_xyz
x,y,z
1/2-x,1/2-y,z
1/2+x,-y,-z
-x,1/2+y,-z
-x,-y,-z
1/2+x,1/2+y,-z
1/2-x,y,z
x,1/2-y,z
loop_
_atom_site_type_symbol
_atom_site_label
_atom_site_fract_x
_atom_site_fract_y
_atom_site_fract_z
Si Si1 0.435128 0.141665 0.933519
Si Si2 0.059430 0.353570 0.649146
Si Si3 0.562995 0.492827 0.267079
Si Si4 0.564369 0.502288 0.854505
Si Si5 0.562360 0.645440 0.645911
Si Si6 0.437609 0.999195 0.561220
Si Si7 0.940930 0.854231 0.944350
O O1 0.250000 0.120003 0.928875
O O2 0.450298 0.250000 0.929263
O O3 0.526441 0.089756 0.886695
O O4 0.490747 0.116199 0.994763
O O5 0.250000 0.350336 0.649142
O O6 0.002794 0.250000 0.650115
O O7 0.012582 0.415313 0.700987
O O8 0.012093 0.411743 0.595886
O O9 0.750000 0.487057 0.271893
O O10 0.514204 0.494345 0.204373
O O11 0.491088 0.408444 0.300061
O O12 0.750000 0.512697 0.847339
O O13 0.506812 0.580970 0.895788
O O14 0.750000 0.644243 0.643185
O O15 0.509615 0.750000 0.645731
O O16 0.496282 0.587645 0.595240
O O17 0.250000 0.998124 0.560675
O O18 0.500000 0.000000 0.500000
O O19 0.750000 0.855437 0.945422
O O20 0.988750 0.750000 0.935879
#
# Coordination Sequence:
#
# PCOD9450569 Si02
#       7
#     8   8   8   8   8   8   8
#     4   9  18  34  54  73  97 133 174 214 260 317
#     4   8  16  33  55  75  97 132 176 216 255 300
#     4  10  21  36  54  77 105 138 178 223 267 316
#     4  11  21  32  51  78 106 135 169 215 268 319
#     4  10  21  38  59  80 106 144 185 226 275 322
#     4  10  20  34  55  84 116 146 178 220 265 314
#     4   8  16  32  52  73  98 131 171 212 259 319
#
# _framework density 18.166335
#
# number of rings (size 3 to 8) (size 9 to 14) (size 15 to 20)
#    0.000    2.571    0.000    3.857    0.000    3.143 
#    0.000    5.000    0.000   17.571    0.000    0.000 
#    0.000    0.000    0.000    0.000    0.000    0.000 
#
# Total GULP energy -312405.117336 kJ/mol
# GULP energy per Si atom -5578.662810 kJ/mol
# Density = 1.812499 g / cm^3
# Si number density = 18.166335 Si / 1000 Ang^3
#
#
#
# Elastic Constant Matrix: (Units=GPa)
#
#
# Indices 1 2 3 4 5 6 
#
# 1 30.7973 25.6953 25.0551 0.0000 0.0000 0.0000
# 2 25.6953 133.5907 72.6731 0.0000 0.0000 0.0000
# 3 25.0551 72.6731 158.4697 0.0000 0.0000 0.0000
# 4 0.0000 0.0000 0.0000 18.7955 0.0000 0.0000
# 5 0.0000 0.0000 0.0000 0.0000 28.8477 0.0000
# 6 0.0000 0.0000 0.0000 0.0000 0.0000 23.5351
#
#
#
# Elastic Compliance Matrix: (Units=1/GPa)
#
#
# Indices 1 2 3 4 5 6 
#
# 1 0.040285 -0.005707 -0.003752 0.000000 0.000000 0.000000
# 2 -0.005707 0.010782 -0.004042 0.000000 0.000000 0.000000
# 3 -0.003752 -0.004042 0.008757 0.000000 0.000000 0.000000
# 4 0.000000 0.000000 0.000000 0.053204 0.000000 0.000000
# 5 0.000000 0.000000 0.000000 0.000000 0.034665 0.000000
# 6 0.000000 0.000000 0.000000 0.000000 0.000000 0.042490
#
#
# Mechanical properties :
#
#
# Convention : Reuss Voigt Hill
#
# Bulk Modulus (GPa) = 30.46826 63.30051 46.88438
# Shear Modulus (GPa) = 21.91764 27.53128 24.72446
#
# Velocity S-wave (km/s) = 3.47724 3.89718 3.69318
# Velocity P-wave (km/s) = 5.73845 7.42774 6.63706
#
# Compressibility (1/GPa) = 0.03282104
#
# Stress axis : x y z
#
# Youngs Moduli (GPa) = 24.82333 92.74400 114.19006
#
# Poissons Ratio (x) = 0.52934 0.42842
# Poissons Ratio (y) = 0.14168 0.46159
# Poissons Ratio (z) = 0.09313 0.37490
#
# Static dielectric constant tensor:
#      x y z
#    x 1.641730 0.000000 0.000000 
#    y 0.000000 1.624840 0.000000 
#    z 0.000000 0.000000 1.597370 
# 
# From -- ./inp_files/28995.got.cif
#   From: 2010.05.17/outbox.cif.g08.bks.cpg/sg59_15_cif.got.tgz:28995.got - 2010.06.03 14:40:33.
