data_PCOD9450899
_publ_section_title
;
Structure prediction by ZEFSAII (Michael W. Deem and Ramdas Pophale) SiO2 
 PCOD9450899
Probable space group: P M M N
;
_chemical_formula_sum "Si O2"
_cell_formula_units_Z 48
_cell_length_a 14.013605
_cell_length_b 8.860111
_cell_length_c 21.184405
_cell_angle_alpha 90.000000
_cell_angle_beta 90.000000
_cell_angle_gamma 90.000000
_cell_volume 2630.300123
_symmetry_space_group_name_H-M "P M M N"
_symmetry_group_IT_number 59
_space_group.IT_coordinate_system_code '2'
_symmetry_cell_setting 'orthorhombic'
loop_
_space_group_symop_operation_xyz
x,y,z
1/2-x,1/2-y,z
1/2+x,-y,-z
-x,1/2+y,-z
-x,-y,-z
1/2+x,1/2+y,-z
1/2-x,y,z
x,1/2-y,z
loop_
_atom_site_type_symbol
_atom_site_label
_atom_site_fract_x
_atom_site_fract_y
_atom_site_fract_z
Si Si1 0.861751 0.429793 0.398536
Si Si2 0.362314 0.069397 0.220855
Si Si3 0.635282 0.575090 0.533765
Si Si4 0.958101 0.429944 0.902319
Si Si5 0.960837 0.070195 0.656400
Si Si6 0.360106 0.931224 0.964009
O O1 0.750000 0.463123 0.387982
O O2 0.874999 0.250000 0.396384
O O3 0.887168 0.490921 0.468398
O O4 0.931028 0.510662 0.349444
O O5 0.250000 0.031363 0.217964
O O6 0.371156 0.250000 0.225399
O O7 0.414424 0.010096 0.158385
O O8 0.409283 0.994529 0.282130
O O9 0.750000 0.572949 0.540308
O O10 0.604347 0.750000 0.530322
O O11 0.590908 0.494991 0.594210
O O12 0.958194 0.250000 0.893315
O O13 0.064108 0.487854 0.918825
O O14 0.893917 0.464441 0.964299
O O15 0.957907 0.250000 0.656102
O O16 0.250000 0.975214 0.954714
O O17 0.367655 0.750000 0.955620
#
# Coordination Sequence:
#
# PCOD9450899 Si02
#       6
#     8   8   8   8   8   8
#     4  10  21  38  59  81 107 141 182 228 278 331
#     4  11  24  41  60  82 111 147 185 225 272 329
#     4  10  20  35  56  82 112 144 181 227 276 327
#     4  10  20  35  57  86 118 150 187 231 277 325
#     4  12  24  37  56  81 111 145 182 227 276 329
#     4   9  18  34  57  85 118 154 190 229 273 322
#
# _framework density 18.248867000000001
#
# number of rings (size 3 to 8) (size 9 to 14) (size 15 to 20)
#    0.000    1.667    0.000    5.000    0.000    7.000 
#    0.000    0.833    0.000    5.000    0.000    0.000 
#    0.000    0.000    0.000    0.000    0.000    0.000 
#
# Total GULP energy -268326.328499 kJ/mol
# GULP energy per Si atom -5590.131844 kJ/mol
# Density = 1.820733 g / cm^3
# Si number density = 18.248867 Si / 1000 Ang^3
#
#
#
# Elastic Constant Matrix: (Units=GPa)
#
#
# Indices 1 2 3 4 5 6 
#
# 1 135.1144 70.8954 77.3157 0.0000 0.0000 0.0000
# 2 70.8954 105.5409 64.7844 0.0000 0.0000 0.0000
# 3 77.3157 64.7844 101.4968 0.0000 0.0000 0.0000
# 4 0.0000 0.0000 0.0000 33.4207 0.0000 0.0000
# 5 0.0000 0.0000 0.0000 0.0000 25.5730 0.0000
# 6 0.0000 0.0000 0.0000 0.0000 0.0000 28.7668
#
#
#
# Elastic Compliance Matrix: (Units=1/GPa)
#
#
# Indices 1 2 3 4 5 6 
#
# 1 0.014496 -0.004865 -0.007936 0.000000 0.000000 0.000000
# 2 -0.004865 0.017212 -0.007280 0.000000 0.000000 0.000000
# 3 -0.007936 -0.007280 0.020545 0.000000 0.000000 0.000000
# 4 0.000000 0.000000 0.000000 0.029922 0.000000 0.000000
# 5 0.000000 0.000000 0.000000 0.000000 0.039104 0.000000
# 6 0.000000 0.000000 0.000000 0.000000 0.000000 0.034762
#
#
# Mechanical properties :
#
#
# Convention : Reuss Voigt Hill
#
# Bulk Modulus (GPa) = 82.72232 85.34926 84.03579
# Shear Modulus (GPa) = 24.97089 26.16253 25.56671
#
# Velocity S-wave (km/s) = 3.70314 3.79047 3.74706
# Velocity P-wave (km/s) = 7.98203 8.12576 8.05422
#
# Compressibility (1/GPa) = 0.01208864
#
# Stress axis : x y z
#
# Youngs Moduli (GPa) = 68.98692 58.09918 48.67402
#
# Poissons Ratio (x) = 0.28268 0.38630
# Poissons Ratio (y) = 0.33565 0.35434
# Poissons Ratio (z) = 0.54751 0.42296
#
# Static dielectric constant tensor:
#      x y z
#    x 1.643110 0.000000 0.000000 
#    y 0.000000 1.606220 0.000000 
#    z 0.000000 0.000000 1.584520 
# 
# From -- ./inp_files/27392.got.cif
#   From: 2010.05.17/outbox.cif.g08.bks.cpg/sg59_14_cif.got.tgz:27392.got - 2010.06.03 14:40:33.
