data_PCOD9450642
_publ_section_title
;
Structure prediction by ZEFSAII (Michael W. Deem and Ramdas Pophale) SiO2 
 PCOD9450642
Probable space group: P M M N
;
_chemical_formula_sum "Si O2"
_cell_formula_units_Z 56
_cell_length_a 15.055822
_cell_length_b 8.463136
_cell_length_c 21.316362
_cell_angle_alpha 90.000000
_cell_angle_beta 90.000000
_cell_angle_gamma 90.000000
_cell_volume 2716.119531
_symmetry_space_group_name_H-M "P M M N"
_symmetry_group_IT_number 59
_space_group.IT_coordinate_system_code '2'
_symmetry_cell_setting 'orthorhombic'
loop_
_space_group_symop_operation_xyz
x,y,z
1/2-x,1/2-y,z
1/2+x,-y,-z
-x,1/2+y,-z
-x,-y,-z
1/2+x,1/2+y,-z
1/2-x,y,z
x,1/2-y,z
loop_
_atom_site_type_symbol
_atom_site_label
_atom_site_fract_x
_atom_site_fract_y
_atom_site_fract_z
Si Si1 0.146514 0.440875 0.974293
Si Si2 0.525743 0.561436 0.908099
Si Si3 0.035468 0.559185 0.228076
Si Si4 0.427992 0.929645 0.600508
Si Si5 0.894266 0.068628 0.642551
Si Si6 0.149558 0.425633 0.484544
Si Si7 0.154342 0.060074 0.716354
O O1 0.250000 0.494640 0.968361
O O2 0.149072 0.250000 0.973030
O O3 0.072955 0.494622 0.923286
O O4 0.097605 0.491286 0.039307
O O5 0.520370 0.750000 0.911561
O O6 0.556318 0.508626 0.839538
O O7 0.037943 0.750000 0.226383
O O8 0.099853 0.510706 0.285683
O O9 0.934025 0.512266 0.245963
O O10 0.457080 0.750000 0.611722
O O11 0.504116 0.052848 0.619322
O O12 0.402262 0.954173 0.528617
O O13 0.351348 0.974208 0.649308
O O14 0.864417 0.250000 0.641377
O O15 0.847825 0.969854 0.588435
O O16 0.250000 0.424688 0.508061
O O17 0.111698 0.250000 0.492062
O O18 0.250000 0.024920 0.746576
O O19 0.149698 0.250000 0.707422
#
# Coordination Sequence:
#
# PCOD9450642 Si02
#       7
#     8   8   8   8   8   8   8
#     4   9  19  37  59  82 112 150 185 216 259 316
#     4  10  20  34  56  86 115 142 179 227 268 307
#     4   9  19  35  54  76 105 144 180 211 258 316
#     4  11  21  33  52  76 102 132 169 215 268 323
#     4  10  21  38  57  75  99 133 175 217 257 309
#     4  11  23  37  53  74 101 132 168 214 268 320
#     4   9  18  33  51  72 101 137 178 221 265 319
#
# _framework density 20.617650000000001
#
# number of rings (size 3 to 8) (size 9 to 14) (size 15 to 20)
#    0.000    2.143    0.000    4.286    0.000    7.429 
#    0.000    2.143    0.000    2.571    0.000    0.000 
#    0.000    0.000    0.000    0.000    0.000    0.000 
#
# Total GULP energy -312226.359585 kJ/mol
# GULP energy per Si atom -5575.470707 kJ/mol
# Density = 2.057072 g / cm^3
# Si number density = 20.617650 Si / 1000 Ang^3
#
#
#
# Elastic Constant Matrix: (Units=GPa)
#
#
# Indices 1 2 3 4 5 6 
#
# 1 38.7953 -1.8007 -8.9960 0.0000 0.0000 0.0000
# 2 -1.8007 29.7060 9.0686 0.0000 0.0000 0.0000
# 3 -8.9960 9.0686 100.2097 0.0000 0.0000 0.0000
# 4 0.0000 0.0000 0.0000 32.5035 0.0000 0.0000
# 5 0.0000 0.0000 0.0000 0.0000 15.3101 0.0000
# 6 0.0000 0.0000 0.0000 0.0000 0.0000 14.2713
#
#
#
# Elastic Compliance Matrix: (Units=1/GPa)
#
#
# Indices 1 2 3 4 5 6 
#
# 1 0.026348 0.000900 0.002284 0.000000 0.000000 0.000000
# 2 0.000900 0.034650 -0.003055 0.000000 0.000000 0.000000
# 3 0.002284 -0.003055 0.010461 0.000000 0.000000 0.000000
# 4 0.000000 0.000000 0.000000 0.030766 0.000000 0.000000
# 5 0.000000 0.000000 0.000000 0.000000 0.065316 0.000000
# 6 0.000000 0.000000 0.000000 0.000000 0.000000 0.070071
#
#
# Mechanical properties :
#
#
# Convention : Reuss Voigt Hill
#
# Bulk Modulus (GPa) = 13.94387 18.36166 16.15277
# Shear Modulus (GPa) = 19.13809 23.77960 21.45885
#
# Velocity S-wave (km/s) = 3.05001 3.39980 3.22964
# Velocity P-wave (km/s) = 4.37963 4.93322 4.66464
#
# Compressibility (1/GPa) = 0.07171608
#
# Stress axis : x y z
#
# Youngs Moduli (GPa) = 37.95405 28.85975 95.59718
#
# Poissons Ratio (x) = -0.02597 -0.21833
# Poissons Ratio (y) = -0.03415 0.29204
# Poissons Ratio (z) = -0.08668 0.08816
#
# Static dielectric constant tensor:
#      x y z
#    x 1.790800 0.000000 0.000000 
#    y 0.000000 1.706240 0.000000 
#    z 0.000000 0.000000 1.748140 
# 
# From -- ./inp_files/30311.got.cif
#   From: 2010.05.17/outbox.cif.g08.bks.cpg/sg59_16_cif.got.tgz:30311.got - 2010.06.03 14:40:33.
