data_PCOD9450494
_publ_section_title
;
Structure prediction by ZEFSAII (Michael W. Deem and Ramdas Pophale) SiO2 
 PCOD9450494
Probable space group: P M M N
;
_chemical_formula_sum "Si O2"
_cell_formula_units_Z 56
_cell_length_a 9.892551
_cell_length_b 15.352250
_cell_length_c 18.091755
_cell_angle_alpha 90.000000
_cell_angle_beta 90.000000
_cell_angle_gamma 90.000000
_cell_volume 2747.647589
_symmetry_space_group_name_H-M "P M M N"
_symmetry_group_IT_number 59
_space_group.IT_coordinate_system_code '2'
_symmetry_cell_setting 'orthorhombic'
loop_
_space_group_symop_operation_xyz
x,y,z
1/2-x,1/2-y,z
1/2+x,-y,-z
-x,1/2+y,-z
-x,-y,-z
1/2+x,1/2+y,-z
1/2-x,y,z
x,1/2-y,z
loop_
_atom_site_type_symbol
_atom_site_label
_atom_site_fract_x
_atom_site_fract_y
_atom_site_fract_z
Si Si1 0.405092 0.386448 0.958753
Si Si2 0.094524 0.906903 0.585056
Si Si3 0.594698 0.410743 0.089715
Si Si4 0.100366 0.649161 0.174224
Si Si5 0.586643 0.148730 0.252325
Si Si6 0.904379 0.612387 0.454932
Si Si7 0.599478 0.850549 0.290830
O O1 0.250000 0.355005 0.956835
O O2 0.399181 0.489085 0.937093
O O3 0.505571 0.350630 0.896886
O O4 0.481313 0.370761 0.036066
O O5 0.250000 0.875929 0.580457
O O6 0.044279 0.892227 0.668937
O O7 0.000580 0.864882 0.522600
O O8 0.094202 0.008929 0.563312
O O9 0.750000 0.375897 0.080983
O O10 0.552959 0.398743 0.175174
O O11 0.250000 0.611102 0.161457
O O12 0.119654 0.750000 0.195244
O O13 0.012515 0.606364 0.239444
O O14 0.750000 0.147260 0.254514
O O15 0.543675 0.250000 0.248887
O O16 0.750000 0.637351 0.471469
O O17 0.942558 0.651233 0.375828
O O18 0.750000 0.891722 0.285047
O O19 0.614381 0.750000 0.266913
#
# Coordination Sequence:
#
# PCOD9450494 Si02
#       7
#     8   8   8   8   8   8   8
#     4  10  20  34  55  79 106 139 176 217 263 314
#     4   9  18  32  51  74 101 132 172 216 256 302
#     4   9  19  35  55  78 106 138 176 219 263 313
#     4  10  21  35  51  75 106 137 171 213 261 313
#     4   9  18  33  54  79 104 136 179 221 262 311
#     4   9  18  32  51  73 102 136 171 211 258 310
#     4   9  18  32  50  73 101 134 170 207 254 312
#
# _framework density 20.381070999999999
#
# number of rings (size 3 to 8) (size 9 to 14) (size 15 to 20)
#    0.000    2.714    0.000    0.857    2.000    3.143 
#    0.000    2.143    0.000    0.857    0.000    0.000 
#    0.000    0.000    0.000    0.000    0.000    0.000 
#
# Total GULP energy -311998.368386 kJ/mol
# GULP energy per Si atom -5571.399435 kJ/mol
# Density = 2.033468 g / cm^3
# Si number density = 20.381071 Si / 1000 Ang^3
#
#
#
# Elastic Constant Matrix: (Units=GPa)
#
#
# Indices 1 2 3 4 5 6 
#
# 1 133.1241 12.7119 109.6472 0.0000 0.0000 0.0000
# 2 12.7119 24.2468 14.3952 0.0000 0.0000 0.0000
# 3 109.6472 14.3952 188.8028 0.0000 0.0000 0.0000
# 4 0.0000 0.0000 0.0000 24.0849 0.0000 0.0000
# 5 0.0000 0.0000 0.0000 0.0000 35.1065 0.0000
# 6 0.0000 0.0000 0.0000 0.0000 0.0000 -1.1327
#
#
#
# Elastic Compliance Matrix: (Units=1/GPa)
#
#
# Indices 1 2 3 4 5 6 
#
# 1 0.014571 -0.002739 -0.008253 0.000000 0.000000 0.000000
# 2 -0.002739 0.043713 -0.001742 0.000000 0.000000 0.000000
# 3 -0.008253 -0.001742 0.010223 0.000000 0.000000 0.000000
# 4 0.000000 0.000000 0.000000 0.041520 0.000000 0.000000
# 5 0.000000 0.000000 0.000000 0.000000 0.028485 0.000000
# 6 0.000000 0.000000 0.000000 0.000000 0.000000 -0.882880
#
#
# Mechanical properties :
#
#
# Convention : Reuss Voigt Hill
#
# Bulk Modulus (GPa) = 23.23567 68.85359 46.04463
# Shear Modulus (GPa) = -7.09669 25.57303 9.23817
#
# Velocity S-wave (km/s) = -1.86804 3.54608 2.13133
# Velocity P-wave (km/s) = 2.60242 7.11496 5.35702
#
# Compressibility (1/GPa) = 0.04303728
#
# Stress axis : x y z
#
# Youngs Moduli (GPa) = 68.62839 22.87651 97.82338
#
# Poissons Ratio (x) = 0.06266 0.80737
# Poissons Ratio (y) = 0.18799 0.17041
# Poissons Ratio (z) = 0.56642 0.03985
#
# Static dielectric constant tensor:
#      x y z
#    x 1.759610 0.000000 0.000000 
#    y 0.000000 1.781830 0.000000 
#    z 0.000000 0.000000 1.717800 
# 
# From -- ./inp_files/21048.got.cif
#   From: 2010.05.17/outbox.cif.g08.bks.cpg/sg59_11_cif.got.tgz:21048.got - 2010.06.03 14:40:33.
