data_PCOD9450367
_publ_section_title
;
Structure prediction by ZEFSAII (Michael W. Deem and Ramdas Pophale) SiO2 
 PCOD9450367
Probable space group: P M M N
;
_chemical_formula_sum "Si O2"
_cell_formula_units_Z 64
_cell_length_a 19.872502
_cell_length_b 14.984989
_cell_length_c 10.451689
_cell_angle_alpha 90.000000
_cell_angle_beta 90.000000
_cell_angle_gamma 90.000000
_cell_volume 3112.400355
_symmetry_space_group_name_H-M "P M M N"
_symmetry_group_IT_number 59
_space_group.IT_coordinate_system_code '2'
_symmetry_cell_setting 'orthorhombic'
loop_
_space_group_symop_operation_xyz
x,y,z
1/2-x,1/2-y,z
1/2+x,-y,-z
-x,1/2+y,-z
-x,-y,-z
1/2+x,1/2+y,-z
1/2-x,y,z
x,1/2-y,z
loop_
_atom_site_type_symbol
_atom_site_label
_atom_site_fract_x
_atom_site_fract_y
_atom_site_fract_z
Si Si1 0.174430 0.640862 0.208687
Si Si2 0.675162 0.642215 0.427518
Si Si3 0.825961 0.142007 0.495375
Si Si4 0.540748 0.354066 0.907840
Si Si5 0.325158 0.359123 0.276440
Si Si6 0.469565 0.398801 0.646849
Si Si7 0.532922 0.394556 0.383541
Si Si8 0.955231 0.648651 0.863071
O O1 0.250000 0.614026 0.173214
O O2 0.172803 0.750000 0.209101
O O3 0.162110 0.614234 0.356711
O O4 0.115079 0.608357 0.117416
O O5 0.750000 0.613683 0.385845
O O6 0.674548 0.750000 0.426636
O O7 0.665809 0.613176 0.575599
O O8 0.610743 0.611011 0.349858
O O9 0.750000 0.113466 0.459836
O O10 0.826859 0.250000 0.493150
O O11 0.887392 0.110450 0.408515
O O12 0.550365 0.250000 0.943280
O O13 0.503559 0.358618 0.771592
O O14 0.494457 0.394415 0.018781
O O15 0.250000 0.385140 0.235580
O O16 0.327514 0.250000 0.277951
O O17 0.385908 0.392393 0.189192
O O18 0.497458 0.359325 0.513157
O O19 0.487087 0.502883 0.638559
O O20 0.505314 0.347550 0.257798
O O21 0.937413 0.750000 0.902501
#
# Coordination Sequence:
#
# PCOD9450367 Si02
#       8
#     8   8   8   8   8   8   8   8
#     4   8  14  27  49  75 101 130 168 217 267 310
#     4   9  17  31  54  80 102 132 176 224 270 309
#     4   9  17  31  54  80 102 132 176 224 270 309
#     4  10  20  34  54  79 105 138 181 225 270 315
#     4   8  14  27  49  75 101 130 168 217 267 310
#     4  11  22  34  51  77 108 142 175 210 264 322
#     4  11  22  34  51  77 108 142 175 210 264 322
#     4  10  20  34  54  79 105 138 181 225 270 315
#
# _framework density 20.562906999999999
#
# number of rings (size 3 to 8) (size 9 to 14) (size 15 to 20)
#    0.000    2.500    2.500    2.250    0.000    2.000 
#    0.000    1.250    0.000    5.250    0.000    0.000 
#    0.000    0.000    0.000    0.000    0.000    0.000 
#
# Total GULP energy -357125.158680 kJ/mol
# GULP energy per Si atom -5580.080604 kJ/mol
# Density = 2.051611 g / cm^3
# Si number density = 20.562907 Si / 1000 Ang^3
#
#
#
# Elastic Constant Matrix: (Units=GPa)
#
#
# Indices 1 2 3 4 5 6 
#
# 1 159.7865 -19.6307 44.1375 0.0000 0.0000 0.0000
# 2 -19.6307 32.6618 -14.4422 0.0000 0.0000 0.0000
# 3 44.1375 -14.4422 67.2117 0.0000 0.0000 0.0000
# 4 0.0000 0.0000 0.0000 0.5392 0.0000 0.0000
# 5 0.0000 0.0000 0.0000 0.0000 33.6269 0.0000
# 6 0.0000 0.0000 0.0000 0.0000 0.0000 10.3979
#
#
#
# Elastic Compliance Matrix: (Units=1/GPa)
#
#
# Indices 1 2 3 4 5 6 
#
# 1 0.007854 0.002696 -0.004579 0.000000 0.000000 0.000000
# 2 0.002696 0.034757 0.005698 0.000000 0.000000 0.000000
# 3 -0.004579 0.005698 0.019109 0.000000 0.000000 0.000000
# 4 0.000000 0.000000 0.000000 1.854665 0.000000 0.000000
# 5 0.000000 0.000000 0.000000 0.000000 0.029738 0.000000
# 6 0.000000 0.000000 0.000000 0.000000 0.000000 0.096174
#
#
# Mechanical properties :
#
#
# Convention : Reuss Voigt Hill
#
# Bulk Modulus (GPa) = 14.41933 31.08770 22.75351
# Shear Modulus (GPa) = 2.42980 25.55249 13.99115
#
# Velocity S-wave (km/s) = 1.08821 3.52895 2.61129
# Velocity P-wave (km/s) = 2.93368 5.63523 4.49234
#
# Compressibility (1/GPa) = 0.06935133
#
# Stress axis : x y z
#
# Youngs Moduli (GPa) = 127.31871 28.77140 52.33039
#
# Poissons Ratio (x) = -0.07757 0.23960
# Poissons Ratio (y) = -0.34327 -0.29817
# Poissons Ratio (z) = 0.58293 -0.16393
#
# Static dielectric constant tensor:
#      x y z
#    x 1.756350 0.000000 0.000000 
#    y 0.000000 1.784340 0.000000 
#    z 0.000000 0.000000 1.700900 
# 
# From -- ./inp_files/11599.got.cif
#   From: 2010.05.17/outbox.cif.g08.bks.cpg/sg59_6_cif.got.tgz:11599.got - 2010.06.03 14:40:33.
