data_PCOD9450922
_publ_section_title
;
Structure prediction by ZEFSAII (Michael W. Deem and Ramdas Pophale) SiO2 
 PCOD9450922
Probable space group: P M M N
;
_chemical_formula_sum "Si O2"
_cell_formula_units_Z 64
_cell_length_a 28.064228
_cell_length_b 7.714224
_cell_length_c 13.787775
_cell_angle_alpha 90.000000
_cell_angle_beta 90.000000
_cell_angle_gamma 90.000000
_cell_volume 2984.966992
_symmetry_space_group_name_H-M "P M M N"
_symmetry_group_IT_number 59
_space_group.IT_coordinate_system_code '2'
_symmetry_cell_setting 'orthorhombic'
loop_
_space_group_symop_operation_xyz
x,y,z
1/2-x,1/2-y,z
1/2+x,-y,-z
-x,1/2+y,-z
-x,-y,-z
1/2+x,1/2+y,-z
1/2-x,y,z
x,1/2-y,z
loop_
_atom_site_type_symbol
_atom_site_label
_atom_site_fract_x
_atom_site_fract_y
_atom_site_fract_z
Si Si1 0.374635 0.540533 0.356373
Si Si2 0.803325 0.541714 0.043454
Si Si3 0.696793 0.457532 0.474598
Si Si4 0.014598 0.047305 0.392705
Si Si5 0.163065 0.459874 0.742156
Si Si6 0.871608 0.041323 0.861769
Si Si7 0.443149 0.445194 0.759312
Si Si8 0.479100 0.541187 0.103075
O O1 0.372552 0.750000 0.357158
O O2 0.342451 0.477190 0.447265
O O3 0.430290 0.493265 0.369686
O O4 0.358036 0.482835 0.247972
O O5 0.750000 0.479272 0.020154
O O6 0.802514 0.750000 0.049936
O O7 0.816621 0.480805 0.153040
O O8 0.838857 0.501428 0.954548
O O9 0.750000 0.524514 0.496357
O O10 0.697511 0.250000 0.486322
O O11 0.685956 0.489146 0.360712
O O12 0.006619 0.250000 0.374258
O O13 0.000000 0.000000 0.500000
O O14 0.976350 0.938247 0.333229
O O15 0.165353 0.250000 0.742306
O O16 0.108252 0.521782 0.740240
O O17 0.872738 0.250000 0.858061
O O18 0.925638 0.977018 0.880478
O O19 0.433229 0.250000 0.797118
O O20 0.479723 0.537254 0.830261
O O21 0.476977 0.750000 0.119650
O O22 0.500000 0.500000 0.000000
#
# Coordination Sequence:
#
# PCOD9450922 Si02
#       8
#     8   8   8   8   8   8   8   8
#     4  10  21  41  63  85 120 158 198 246 297 355
#     4  10  22  40  61  86 118 157 200 248 303 356
#     4  10  22  39  61  88 116 151 195 247 303 355
#     4  12  24  37  57  85 118 156 196 238 289 350
#     4  10  21  38  62  88 117 156 198 245 300 358
#     4  10  21  38  61  87 118 156 198 246 297 352
#     4  10  20  37  58  83 116 151 192 237 288 345
#     4  10  20  35  56  83 116 153 191 236 287 343
#
# _framework density 21.440771000000002
#
# number of rings (size 3 to 8) (size 9 to 14) (size 15 to 20)
#    0.000    1.750    1.250    3.000    0.000    7.500 
#    0.000    1.250    0.000    0.000    0.000    0.000 
#    0.000    0.000    0.000    0.000    0.000    0.000 
#
# Total GULP energy -356869.278437 kJ/mol
# GULP energy per Si atom -5576.082476 kJ/mol
# Density = 2.139197 g / cm^3
# Si number density = 21.440771 Si / 1000 Ang^3
#
#
#
# Elastic Constant Matrix: (Units=GPa)
#
#
# Indices 1 2 3 4 5 6 
#
# 1 130.0543 8.8803 46.1549 0.0000 0.0000 0.0000
# 2 8.8803 53.9205 0.9695 0.0000 0.0000 0.0000
# 3 46.1549 0.9695 146.3000 0.0000 0.0000 0.0000
# 4 0.0000 0.0000 0.0000 20.2016 0.0000 0.0000
# 5 0.0000 0.0000 0.0000 0.0000 40.3426 0.0000
# 6 0.0000 0.0000 0.0000 0.0000 0.0000 19.8208
#
#
#
# Elastic Compliance Matrix: (Units=1/GPa)
#
#
# Indices 1 2 3 4 5 6 
#
# 1 0.008762 -0.001393 -0.002755 0.000000 0.000000 0.000000
# 2 -0.001393 0.018770 0.000315 0.000000 0.000000 0.000000
# 3 -0.002755 0.000315 0.007702 0.000000 0.000000 0.000000
# 4 0.000000 0.000000 0.000000 0.049501 0.000000 0.000000
# 5 0.000000 0.000000 0.000000 0.000000 0.024788 0.000000
# 6 0.000000 0.000000 0.000000 0.000000 0.000000 0.050452
#
#
# Mechanical properties :
#
#
# Convention : Reuss Voigt Hill
#
# Bulk Modulus (GPa) = 36.27468 49.14268 42.70868
# Shear Modulus (GPa) = 28.27570 34.35768 31.31669
#
# Velocity S-wave (km/s) = 3.63544 4.00740 3.82594
# Velocity P-wave (km/s) = 5.88024 6.66200 6.28329
#
# Compressibility (1/GPa) = 0.02756744
#
# Stress axis : x y z
#
# Youngs Moduli (GPa) = 114.12960 53.27751 129.83083
#
# Poissons Ratio (x) = 0.07424 0.35768
# Poissons Ratio (y) = 0.15904 -0.04093
# Poissons Ratio (z) = 0.31443 -0.01680
#
# Static dielectric constant tensor:
#      x y z
#    x 1.766400 0.000000 0.000000 
#    y 0.000000 1.820820 0.000000 
#    z 0.000000 0.000000 1.679900 
# 
# From -- ./inp_files/19272.got.cif
#   From: 2010.05.17/outbox.cif.g08.bks.cpg/sg59_10_cif.got.tgz:19272.got - 2010.06.03 14:40:33.
