data_PCOD9450885
_publ_section_title
;
Structure prediction by ZEFSAII (Michael W. Deem and Ramdas Pophale) SiO2 
 PCOD9450885
Probable space group: P M M N
;
_chemical_formula_sum "Si O2"
_cell_formula_units_Z 64
_cell_length_a 8.676276
_cell_length_b 23.564732
_cell_length_c 16.526960
_cell_angle_alpha 90.000000
_cell_angle_beta 90.000000
_cell_angle_gamma 90.000000
_cell_volume 3379.005042
_symmetry_space_group_name_H-M "P M M N"
_symmetry_group_IT_number 59
_space_group.IT_coordinate_system_code '2'
_symmetry_cell_setting 'orthorhombic'
loop_
_space_group_symop_operation_xyz
x,y,z
1/2-x,1/2-y,z
1/2+x,-y,-z
-x,1/2+y,-z
-x,-y,-z
1/2+x,1/2+y,-z
1/2-x,y,z
x,1/2-y,z
loop_
_atom_site_type_symbol
_atom_site_label
_atom_site_fract_x
_atom_site_fract_y
_atom_site_fract_z
Si Si1 0.564111 0.533023 0.889364
Si Si2 0.929166 0.316431 0.338656
Si Si3 0.074220 0.182487 0.508974
Si Si4 0.569532 0.922341 0.715706
Si Si5 0.934653 0.090309 0.954810
Si Si6 0.563244 0.816830 0.163997
Si Si7 0.062718 0.119492 0.671711
Si Si8 0.567111 0.996537 0.409737
O O1 0.750000 0.536453 0.896200
O O2 0.518105 0.549753 0.799316
O O3 0.519172 0.467850 0.907583
O O4 0.492101 0.575675 0.954972
O O5 0.750000 0.327315 0.322844
O O6 0.960613 0.250000 0.326967
O O7 0.969434 0.329739 0.432098
O O8 0.034499 0.355844 0.283893
O O9 0.250000 0.161987 0.492488
O O10 0.080215 0.250000 0.518264
O O11 0.021329 0.156466 0.593175
O O12 0.750000 0.933186 0.704419
O O13 0.478057 0.948582 0.641030
O O14 0.750000 0.094743 0.953653
O O15 0.004775 0.145440 0.911337
O O16 0.750000 0.817107 0.163796
O O17 0.515942 0.750000 0.163667
O O18 0.509789 0.850493 0.245491
O O19 0.250000 0.118433 0.677033
O O20 0.010516 0.056465 0.645940
O O21 0.750000 0.990873 0.417514
O O22 0.500000 0.000000 0.500000
#
# Coordination Sequence:
#
# PCOD9450885 Si02
#       8
#     8   8   8   8   8   8   8   8
#     4   9  20  38  60  85 110 140 179 223 272 328
#     4  10  21  36  53  75 104 136 172 216 266 318
#     4   9  16  29  51  75 100 135 181 227 266 308
#     4  11  22  37  57  80 107 138 177 222 268 322
#     4  10  20  36  59  85 112 140 174 220 273 328
#     4  10  20  35  56  81 112 150 189 229 275 332
#     4   9  18  32  51  76 105 142 188 230 268 317
#     4  11  22  35  53  79 114 153 191 234 283 332
#
# _framework density 18.940486
#
# number of rings (size 3 to 8) (size 9 to 14) (size 15 to 20)
#    0.000    2.125    0.000    3.375    0.000    5.000 
#    0.000    2.500    0.000    2.250    0.000    0.000 
#    0.000    0.000    0.000    0.000    0.000    0.000 
#
# Total GULP energy -357095.820673 kJ/mol
# GULP energy per Si atom -5579.622198 kJ/mol
# Density = 1.889738 g / cm^3
# Si number density = 18.940486 Si / 1000 Ang^3
#
#
#
# Elastic Constant Matrix: (Units=GPa)
#
#
# Indices 1 2 3 4 5 6 
#
# 1 22.3498 24.7111 19.8552 0.0000 0.0000 0.0000
# 2 24.7111 100.9687 52.2138 0.0000 0.0000 0.0000
# 3 19.8552 52.2138 83.2888 0.0000 0.0000 0.0000
# 4 0.0000 0.0000 0.0000 31.8792 0.0000 0.0000
# 5 0.0000 0.0000 0.0000 0.0000 21.3741 0.0000
# 6 0.0000 0.0000 0.0000 0.0000 0.0000 25.8426
#
#
#
# Elastic Compliance Matrix: (Units=1/GPa)
#
#
# Indices 1 2 3 4 5 6 
#
# 1 0.064883 -0.011661 -0.008157 0.000000 0.000000 0.000000
# 2 -0.011661 0.016751 -0.007721 0.000000 0.000000 0.000000
# 3 -0.008157 -0.007721 0.018791 0.000000 0.000000 0.000000
# 4 0.000000 0.000000 0.000000 0.031368 0.000000 0.000000
# 5 0.000000 0.000000 0.000000 0.000000 0.046785 0.000000
# 6 0.000000 0.000000 0.000000 0.000000 0.000000 0.038696
#
#
# Mechanical properties :
#
#
# Convention : Reuss Voigt Hill
#
# Bulk Modulus (GPa) = 22.05247 44.46304 33.25776
# Shear Modulus (GPa) = 17.39315 23.14100 20.26708
#
# Velocity S-wave (km/s) = 3.03364 3.49918 3.27470
# Velocity P-wave (km/s) = 4.89275 6.31283 5.64760
#
# Compressibility (1/GPa) = 0.04534639
#
# Stress axis : x y z
#
# Youngs Moduli (GPa) = 15.41235 59.69824 53.21591
#
# Poissons Ratio (x) = 0.69616 0.43408
# Poissons Ratio (y) = 0.17973 0.41089
# Poissons Ratio (z) = 0.12572 0.46094
#
# Static dielectric constant tensor:
#      x y z
#    x 1.654350 0.000000 0.000000 
#    y 0.000000 1.704080 0.000000 
#    z 0.000000 0.000000 1.636650 
# 
# From -- ./inp_files/21601.got.cif
#   From: 2010.05.17/outbox.cif.g08.bks.cpg/sg59_11_cif.got.tgz:21601.got - 2010.06.03 14:40:33.
