data_PCOD9450328
_publ_section_title
;
Structure prediction by ZEFSAII (Michael W. Deem and Ramdas Pophale) SiO2 
 PCOD9450328
Probable space group: P M M N
;
_chemical_formula_sum "Si O2"
_cell_formula_units_Z 56
_cell_length_a 8.501867
_cell_length_b 21.260328
_cell_length_c 16.542102
_cell_angle_alpha 90.000000
_cell_angle_beta 90.000000
_cell_angle_gamma 90.000000
_cell_volume 2990.025978
_symmetry_space_group_name_H-M "P M M N"
_symmetry_group_IT_number 59
_space_group.IT_coordinate_system_code '2'
_symmetry_cell_setting 'orthorhombic'
loop_
_space_group_symop_operation_xyz
x,y,z
1/2-x,1/2-y,z
1/2+x,-y,-z
-x,1/2+y,-z
-x,-y,-z
1/2+x,1/2+y,-z
1/2-x,y,z
x,1/2-y,z
loop_
_atom_site_type_symbol
_atom_site_label
_atom_site_fract_x
_atom_site_fract_y
_atom_site_fract_z
Si Si1 0.935632 0.038177 0.344834
Si Si2 0.938066 0.130293 0.478423
Si Si3 0.066216 0.750000 0.793548
Si Si4 0.063340 0.117125 0.201851
Si Si5 0.438064 0.000443 0.090382
Si Si6 0.434257 0.250000 0.383761
Si Si7 0.562659 0.823293 0.355854
Si Si8 0.562443 0.422657 0.757342
O O1 0.750000 0.024009 0.346066
O O2 0.983855 0.066040 0.431984
O O3 0.971056 0.094841 0.281820
O O4 0.023593 0.978591 0.306615
O O5 0.750000 0.137170 0.468517
O O6 0.024326 0.188523 0.435230
O O7 0.982570 0.137765 0.571649
O O8 0.250000 0.750000 0.811228
O O9 0.985458 0.686465 0.823464
O O10 0.036064 0.750000 0.697178
O O11 0.250000 0.113942 0.219131
O O12 0.024445 0.066549 0.133297
O O13 0.250000 0.994908 0.087421
O O14 0.493517 0.947698 0.154882
O O15 0.500000 0.000000 0.000000
O O16 0.250000 0.250000 0.362076
O O17 0.750000 0.824895 0.367545
O O18 0.512498 0.750000 0.357702
O O19 0.517409 0.859368 0.274137
O O20 0.750000 0.414585 0.759586
#
# Coordination Sequence:
#
# PCOD9450328 Si02
#       8
#     8   8   4   8   8   4   8   8
#     4  10  20  34  54  82 115 150 192 237 283 336
#     4  11  22  35  54  80 113 153 200 243 285 332
#     4  12  22  32  50  80 115 154 193 232 282 336
#     4  10  20  34  53  81 116 152 188 227 277 336
#     4   9  20  38  63  91 114 141 180 225 280 344
#     4  12  22  32  50  76 111 154 197 242 282 324
#     4  11  24  40  59  83 111 149 199 245 291 338
#     4  10  22  40  61  86 115 148 187 232 290 347
#
# _framework density 18.728933999999999
#
# number of rings (size 3 to 8) (size 9 to 14) (size 15 to 20)
#    0.000    1.571    2.143    4.286    0.000    6.571 
#    0.000    0.000    1.571    0.000    0.000    0.000 
#    0.000    0.000    0.000    0.000    0.000    0.000 
#
# Total GULP energy -312755.912513 kJ/mol
# GULP energy per Si atom -5584.927009 kJ/mol
# Density = 1.868631 g / cm^3
# Si number density = 18.728934 Si / 1000 Ang^3
#
#
#
# Elastic Constant Matrix: (Units=GPa)
#
#
# Indices 1 2 3 4 5 6 
#
# 1 23.4953 3.9579 5.9958 0.0000 0.0000 0.0000
# 2 3.9579 54.5946 45.4135 0.0000 0.0000 0.0000
# 3 5.9958 45.4135 109.1197 0.0000 0.0000 0.0000
# 4 0.0000 0.0000 0.0000 17.3642 0.0000 0.0000
# 5 0.0000 0.0000 0.0000 0.0000 27.2665 0.0000
# 6 0.0000 0.0000 0.0000 0.0000 0.0000 28.9011
#
#
#
# Elastic Compliance Matrix: (Units=1/GPa)
#
#
# Indices 1 2 3 4 5 6 
#
# 1 0.043279 -0.001773 -0.001640 0.000000 0.000000 0.000000
# 2 -0.001773 0.028088 -0.011592 0.000000 0.000000 0.000000
# 3 -0.001640 -0.011592 0.014079 0.000000 0.000000 0.000000
# 4 0.000000 0.000000 0.000000 0.057590 0.000000 0.000000
# 5 0.000000 0.000000 0.000000 0.000000 0.036675 0.000000
# 6 0.000000 0.000000 0.000000 0.000000 0.000000 0.034601
#
#
# Mechanical properties :
#
#
# Convention : Reuss Voigt Hill
#
# Bulk Modulus (GPa) = 18.03926 33.10490 25.57208
# Shear Modulus (GPa) = 19.02579 23.49586 21.26083
#
# Velocity S-wave (km/s) = 3.19070 3.54577 3.37291
# Velocity P-wave (km/s) = 4.81941 5.87175 5.37141
#
# Compressibility (1/GPa) = 0.05543466
#
# Stress axis : x y z
#
# Youngs Moduli (GPa) = 23.10591 35.60209 71.02848
#
# Poissons Ratio (x) = 0.06314 0.11649
# Poissons Ratio (y) = 0.04098 0.82339
# Poissons Ratio (z) = 0.03789 0.41271
#
# Static dielectric constant tensor:
#      x y z
#    x 1.629840 0.000000 0.000000 
#    y 0.000000 1.666520 0.000000 
#    z 0.000000 0.000000 1.649700 
# 
# From -- ./inp_files/21230.got.cif
#   From: 2010.05.17/outbox.cif.g08.bks.cpg/sg59_11_cif.got.tgz:21230.got - 2010.06.03 14:40:33.
