data_PCOD9450546
_publ_section_title
;
Structure prediction by ZEFSAII (Michael W. Deem and Ramdas Pophale) SiO2 
 PCOD9450546
Probable space group: P M M N
;
_chemical_formula_sum "Si O2"
_cell_formula_units_Z 48
_cell_length_a 8.846778
_cell_length_b 18.304895
_cell_length_c 16.798887
_cell_angle_alpha 90.000000
_cell_angle_beta 90.000000
_cell_angle_gamma 90.000000
_cell_volume 2720.400713
_symmetry_space_group_name_H-M "P M M N"
_symmetry_group_IT_number 59
_space_group.IT_coordinate_system_code '2'
_symmetry_cell_setting 'orthorhombic'
loop_
_space_group_symop_operation_xyz
x,y,z
1/2-x,1/2-y,z
1/2+x,-y,-z
-x,1/2+y,-z
-x,-y,-z
1/2+x,1/2+y,-z
1/2-x,y,z
x,1/2-y,z
loop_
_atom_site_type_symbol
_atom_site_label
_atom_site_fract_x
_atom_site_fract_y
_atom_site_fract_z
Si Si1 0.931223 0.020280 0.415299
Si Si2 0.428413 0.397748 0.173279
Si Si3 0.069808 0.581075 0.993359
Si Si4 0.570712 0.051686 0.738431
Si Si5 0.930253 0.663907 0.143313
Si Si6 0.431195 0.831628 0.671446
O O1 0.750000 0.014836 0.417601
O O2 0.972452 0.103084 0.388571
O O3 0.000000 0.000000 0.500000
O O4 0.996124 0.968898 0.345516
O O5 0.250000 0.386994 0.160436
O O6 0.517644 0.387523 0.091628
O O7 0.451884 0.480940 0.204411
O O8 0.488304 0.347744 0.244812
O O9 0.250000 0.576248 0.998384
O O10 0.000000 0.500000 0.000000
O O11 0.006326 0.629662 0.065037
O O12 0.750000 0.061934 0.729041
O O13 0.495727 0.120208 0.781497
O O14 0.750000 0.652803 0.138796
O O15 0.960953 0.750000 0.148472
O O16 0.250000 0.836132 0.683701
O O17 0.467771 0.750000 0.643164
#
# Coordination Sequence:
#
# PCOD9450546 Si02
#       6
#     8   8   8   8   8   8
#     4  10  20  36  60  87 115 147 188 235 282 344
#     4  10  20  34  55  83 111 145 187 230 278 336
#     4  12  23  36  57  82 112 152 196 241 286 336
#     4  10  20  36  59  83 110 146 186 229 280 341
#     4  11  24  40  58  82 114 151 193 241 289 337
#     4   9  19  36  57  82 113 148 185 230 285 340
#
# _framework density 17.644458
#
# number of rings (size 3 to 8) (size 9 to 14) (size 15 to 20)
#    0.000    1.667    1.667    3.500    0.000    4.333 
#    0.000    0.833    0.000    3.000    0.000    0.000 
#    0.000    0.000    0.000    0.000    0.000    0.000 
#
# Total GULP energy -268177.655460 kJ/mol
# GULP energy per Si atom -5587.034489 kJ/mol
# Density = 1.760430 g / cm^3
# Si number density = 17.644458 Si / 1000 Ang^3
#
#
#
# Elastic Constant Matrix: (Units=GPa)
#
#
# Indices 1 2 3 4 5 6 
#
# 1 99.0692 75.2849 77.2191 0.0000 0.0000 0.0000
# 2 75.2849 121.7135 83.0527 0.0000 0.0000 0.0000
# 3 77.2191 83.0527 161.0029 0.0000 0.0000 0.0000
# 4 0.0000 0.0000 0.0000 17.5313 0.0000 0.0000
# 5 0.0000 0.0000 0.0000 0.0000 36.4813 0.0000
# 6 0.0000 0.0000 0.0000 0.0000 0.0000 24.2562
#
#
#
# Elastic Compliance Matrix: (Units=1/GPa)
#
#
# Indices 1 2 3 4 5 6 
#
# 1 0.021693 -0.009751 -0.005374 0.000000 0.000000 0.000000
# 2 -0.009751 0.017062 -0.004125 0.000000 0.000000 0.000000
# 3 -0.005374 -0.004125 0.010916 0.000000 0.000000 0.000000
# 4 0.000000 0.000000 0.000000 0.057041 0.000000 0.000000
# 5 0.000000 0.000000 0.000000 0.000000 0.027411 0.000000
# 6 0.000000 0.000000 0.000000 0.000000 0.000000 0.041227
#
#
# Mechanical properties :
#
#
# Convention : Reuss Voigt Hill
#
# Bulk Modulus (GPa) = 89.51308 94.76657 92.13982
# Shear Modulus (GPa) = 22.98087 25.40236 24.19162
#
# Velocity S-wave (km/s) = 3.61285 3.79843 3.70680
# Velocity P-wave (km/s) = 8.26107 8.54769 8.40560
#
# Compressibility (1/GPa) = 0.01117155
#
# Stress axis : x y z
#
# Youngs Moduli (GPa) = 46.09880 58.61082 91.60583
#
# Poissons Ratio (x) = 0.57149 0.49231
# Poissons Ratio (y) = 0.44949 0.37785
# Poissons Ratio (z) = 0.24775 0.24175
#
# Static dielectric constant tensor:
#      x y z
#    x 1.581640 0.000000 0.000000 
#    y 0.000000 1.600310 0.000000 
#    z 0.000000 0.000000 1.570140 
# 
# From -- ./inp_files/20396.got.cif
#   From: 2010.05.17/outbox.cif.g08.bks.cpg/sg59_11_cif.got.tgz:20396.got - 2010.06.03 14:40:33.
