data_PCOD9450558
_publ_section_title
;
Structure prediction by ZEFSAII (Michael W. Deem and Ramdas Pophale) SiO2 
 PCOD9450558
Probable space group: P M M N
;
_chemical_formula_sum "Si O2"
_cell_formula_units_Z 64
_cell_length_a 30.475159
_cell_length_b 7.905109
_cell_length_c 11.908438
_cell_angle_alpha 90.000000
_cell_angle_beta 90.000000
_cell_angle_gamma 90.000000
_cell_volume 2868.855293
_symmetry_space_group_name_H-M "P M M N"
_symmetry_group_IT_number 59
_space_group.IT_coordinate_system_code '2'
_symmetry_cell_setting 'orthorhombic'
loop_
_space_group_symop_operation_xyz
x,y,z
1/2-x,1/2-y,z
1/2+x,-y,-z
-x,1/2+y,-z
-x,-y,-z
1/2+x,1/2+y,-z
1/2-x,y,z
x,1/2-y,z
loop_
_atom_site_type_symbol
_atom_site_label
_atom_site_fract_x
_atom_site_fract_y
_atom_site_fract_z
Si Si1 0.890918 0.457315 0.928385
Si Si2 0.197968 0.059203 0.353209
Si Si3 0.481667 0.557235 0.663794
Si Si4 0.201322 0.554058 0.113527
Si Si5 0.200945 0.453943 0.604097
Si Si6 0.080370 0.551175 0.320264
Si Si7 0.390915 0.545548 0.559356
Si Si8 0.035041 0.445610 0.907506
O O1 0.892368 0.250000 0.929621
O O2 0.841056 0.519004 0.946035
O O3 0.909417 0.515297 0.805613
O O4 0.919573 0.525073 0.029702
O O5 0.250000 0.079297 0.338121
O O6 0.179629 0.250000 0.348503
O O7 0.196469 0.979662 0.476125
O O8 0.186182 0.953368 0.244212
O O9 0.486806 0.750000 0.624195
O O10 0.529018 0.471903 0.650446
O O11 0.437906 0.484149 0.606507
O O12 0.471251 0.552017 0.795859
O O13 0.250000 0.478635 0.098125
O O14 0.204642 0.750000 0.082125
O O15 0.250000 0.509155 0.647143
O O16 0.203364 0.250000 0.600025
O O17 0.150728 0.495544 0.638174
O O18 0.089411 0.750000 0.314227
O O19 0.108374 0.486311 0.427614
O O20 0.391700 0.750000 0.559050
O O21 0.028197 0.250000 0.877143
O O22 0.000000 0.500000 0.000000
#
# Coordination Sequence:
#
# PCOD9450558 Si02
#       8
#     8   8   8   8   8   8   8   8
#     4  10  20  34  55  83 115 149 187 231 277 330
#     4   8  14  25  41  64  98 139 180 221 264 313
#     4  11  23  39  59  83 114 149 188 233 281 337
#     4   9  17  29  47  74 109 147 182 219 270 328
#     4   9  18  32  50  74 106 146 191 236 280 328
#     4  10  20  35  55  82 118 154 187 228 279 335
#     4  10  22  37  55  84 117 151 191 232 279 336
#     4  12  24  40  62  85 109 140 185 236 286 337
#
# _framework density 22.30855
#
# number of rings (size 3 to 8) (size 9 to 14) (size 15 to 20)
#    0.000    2.125    1.250    3.375    0.000    3.750 
#    0.000    1.250    0.000    0.750    0.000    1.750 
#    0.000    0.000    0.000    0.000    0.000    0.000 
#
# Total GULP energy -356533.123331 kJ/mol
# GULP energy per Si atom -5570.830052 kJ/mol
# Density = 2.225777 g / cm^3
# Si number density = 22.308550 Si / 1000 Ang^3
#
#
#
# Elastic Constant Matrix: (Units=GPa)
#
#
# Indices 1 2 3 4 5 6 
#
# 1 119.6903 14.2739 1.5952 0.0000 0.0000 0.0000
# 2 14.2739 36.3620 -3.1117 0.0000 0.0000 0.0000
# 3 1.5952 -3.1117 31.6074 0.0000 0.0000 0.0000
# 4 0.0000 0.0000 0.0000 10.5637 0.0000 0.0000
# 5 0.0000 0.0000 0.0000 0.0000 23.3473 0.0000
# 6 0.0000 0.0000 0.0000 0.0000 0.0000 26.9340
#
#
#
# Elastic Compliance Matrix: (Units=1/GPa)
#
#
# Indices 1 2 3 4 5 6 
#
# 1 0.008785 -0.003516 -0.000790 0.000000 0.000000 0.000000
# 2 -0.003516 0.029142 0.003046 0.000000 0.000000 0.000000
# 3 -0.000790 0.003046 0.031978 0.000000 0.000000 0.000000
# 4 0.000000 0.000000 0.000000 0.094664 0.000000 0.000000
# 5 0.000000 0.000000 0.000000 0.000000 0.042832 0.000000
# 6 0.000000 0.000000 0.000000 0.000000 0.000000 0.037128
#
#
# Mechanical properties :
#
#
# Convention : Reuss Voigt Hill
#
# Bulk Modulus (GPa) = 14.83971 23.68606 19.26289
# Shear Modulus (GPa) = 18.55228 23.82915 21.19072
#
# Velocity S-wave (km/s) = 2.88691 3.27182 3.08538
# Velocity P-wave (km/s) = 4.21650 4.99135 4.62020
#
# Compressibility (1/GPa) = 0.06738676
#
# Stress axis : x y z
#
# Youngs Moduli (GPa) = 113.83396 34.31455 31.27152
#
# Poissons Ratio (x) = 0.12065 0.02469
# Poissons Ratio (y) = 0.40024 -0.09527
# Poissons Ratio (z) = 0.08987 -0.10454
#
# Static dielectric constant tensor:
#      x y z
#    x 1.919630 0.000000 0.000000 
#    y 0.000000 1.796520 0.000000 
#    z 0.000000 0.000000 1.822790 
# 
# From -- ./inp_files/19316.got.cif
#   From: 2010.05.17/outbox.cif.g08.bks.cpg/sg59_10_cif.got.tgz:19316.got - 2010.06.03 14:40:33.
