data_PCOD9450799
_publ_section_title
;
Structure prediction by ZEFSAII (Michael W. Deem and Ramdas Pophale) SiO2 
 PCOD9450799
Probable space group: P M M N
;
_chemical_formula_sum "Si O2"
_cell_formula_units_Z 64
_cell_length_a 7.704962
_cell_length_b 20.839271
_cell_length_c 18.821532
_cell_angle_alpha 90.000000
_cell_angle_beta 90.000000
_cell_angle_gamma 90.000000
_cell_volume 3022.094176
_symmetry_space_group_name_H-M "P M M N"
_symmetry_group_IT_number 59
_space_group.IT_coordinate_system_code '2'
_symmetry_cell_setting 'orthorhombic'
loop_
_space_group_symop_operation_xyz
x,y,z
1/2-x,1/2-y,z
1/2+x,-y,-z
-x,1/2+y,-z
-x,-y,-z
1/2+x,1/2+y,-z
1/2-x,y,z
x,1/2-y,z
loop_
_atom_site_type_symbol
_atom_site_label
_atom_site_fract_x
_atom_site_fract_y
_atom_site_fract_z
Si Si1 0.459012 0.958437 0.431837
Si Si2 0.542793 0.540807 0.703223
Si Si3 0.456192 0.071618 0.976223
Si Si4 0.958989 0.818910 0.275350
Si Si5 0.550113 0.181460 0.562532
Si Si6 0.953086 0.822171 0.745701
Si Si7 0.545347 0.178176 0.092222
Si Si8 0.460045 0.438735 0.816718
O O1 0.250000 0.951216 0.423069
O O2 0.531872 0.887762 0.450260
O O3 0.500000 0.000000 0.500000
O O4 0.524268 0.994861 0.360652
O O5 0.750000 0.545515 0.693086
O O6 0.473183 0.613898 0.707760
O O7 0.512251 0.504223 0.777700
O O8 0.250000 0.078746 0.972748
O O9 0.525491 0.074681 0.895841
O O10 0.515803 0.124672 0.032610
O O11 0.500000 0.000000 0.000000
O O12 0.750000 0.823753 0.285986
O O13 0.991988 0.750000 0.239558
O O14 0.018695 0.879862 0.232026
O O15 0.046160 0.817635 0.351852
O O16 0.750000 0.180931 0.537493
O O17 0.471764 0.250000 0.538953
O O18 0.750000 0.818957 0.726418
O O19 0.026916 0.750000 0.732939
O O20 0.962517 0.834417 0.830726
O O21 0.750000 0.179958 0.105947
O O22 0.489104 0.250000 0.068819
O O23 0.250000 0.438664 0.818743
#
# Coordination Sequence:
#
# PCOD9450799 Si02
#       8
#     8   8   8   8   8   8   8   8
#     4  10  21  36  54  80 111 143 178 217 264 318
#     4  10  20  35  55  79 106 135 174 221 268 321
#     4  11  23  37  53  76 107 145 186 229 278 331
#     4   9  17  30  49  74 102 130 164 207 252 301
#     4   9  17  32  54  77 104 138 173 208 248 300
#     4   9  18  34  57  81 104 136 177 222 275 330
#     4  10  21  37  56  79 109 144 185 232 277 328
#     4  10  21  34  51  76 104 136 175 219 269 318
#
# _framework density 21.177368999999999
#
# number of rings (size 3 to 8) (size 9 to 14) (size 15 to 20)
#    0.000    2.250    1.250    1.500    0.000    5.750 
#    0.000    1.875    0.000    2.250    0.000    0.000 
#    0.000    0.000    0.000    0.000    0.000    0.000 
#
# Total GULP energy -356820.200878 kJ/mol
# GULP energy per Si atom -5575.315639 kJ/mol
# Density = 2.112917 g / cm^3
# Si number density = 21.177369 Si / 1000 Ang^3
#
#
#
# Elastic Constant Matrix: (Units=GPa)
#
#
# Indices 1 2 3 4 5 6 
#
# 1 40.0151 2.6960 -6.5675 0.0000 0.0000 0.0000
# 2 2.6960 199.0455 32.5651 0.0000 0.0000 0.0000
# 3 -6.5675 32.5651 27.0380 0.0000 0.0000 0.0000
# 4 0.0000 0.0000 0.0000 30.9314 0.0000 0.0000
# 5 0.0000 0.0000 0.0000 0.0000 12.6486 0.0000
# 6 0.0000 0.0000 0.0000 0.0000 0.0000 15.6019
#
#
#
# Elastic Compliance Matrix: (Units=1/GPa)
#
#
# Indices 1 2 3 4 5 6 
#
# 1 0.026514 -0.001760 0.008559 0.000000 0.000000 0.000000
# 2 -0.001760 0.006374 -0.008104 0.000000 0.000000 0.000000
# 3 0.008559 -0.008104 0.048825 0.000000 0.000000 0.000000
# 4 0.000000 0.000000 0.000000 0.032330 0.000000 0.000000
# 5 0.000000 0.000000 0.000000 0.000000 0.079060 0.000000
# 6 0.000000 0.000000 0.000000 0.000000 0.000000 0.064095
#
#
# Mechanical properties :
#
#
# Convention : Reuss Voigt Hill
#
# Bulk Modulus (GPa) = 12.64154 35.94287 24.29221
# Shear Modulus (GPa) = 17.47194 27.66338 22.56766
#
# Velocity S-wave (km/s) = 2.87545 3.61816 3.26797
# Velocity P-wave (km/s) = 4.12390 5.87060 5.07299
#
# Compressibility (1/GPa) = 0.07910426
#
# Stress axis : x y z
#
# Youngs Moduli (GPa) = 37.71598 156.89547 20.48144
#
# Poissons Ratio (x) = 0.27606 -0.17531
# Poissons Ratio (y) = 0.06636 0.16598
# Poissons Ratio (z) = -0.32283 1.27148
#
# Static dielectric constant tensor:
#      x y z
#    x 0.846400 0.000000 0.000000 
#    y 0.000000 1.812860 0.000000 
#    z 0.000000 0.000000 1.734040 
# 
# From -- ./inp_files/26364.got.cif
#   From: 2010.05.17/outbox.cif.g08.bks.cpg/sg59_14_cif.got.tgz:26364.got - 2010.06.03 14:40:33.
