data_PCOD9450982
_publ_section_title
;
Structure prediction by ZEFSAII (Michael W. Deem and Ramdas Pophale) SiO2 
 PCOD9450982
Probable space group: P M M N
;
_chemical_formula_sum "Si O2"
_cell_formula_units_Z 48
_cell_length_a 8.705734
_cell_length_b 19.537226
_cell_length_c 15.528217
_cell_angle_alpha 90.000000
_cell_angle_beta 90.000000
_cell_angle_gamma 90.000000
_cell_volume 2641.130650
_symmetry_space_group_name_H-M "P M M N"
_symmetry_group_IT_number 59
_space_group.IT_coordinate_system_code '2'
_symmetry_cell_setting 'orthorhombic'
loop_
_space_group_symop_operation_xyz
x,y,z
1/2-x,1/2-y,z
1/2+x,-y,-z
-x,1/2+y,-z
-x,-y,-z
1/2+x,1/2+y,-z
1/2-x,y,z
x,1/2-y,z
loop_
_atom_site_type_symbol
_atom_site_label
_atom_site_fract_x
_atom_site_fract_y
_atom_site_fract_z
Si Si1 0.434959 0.670532 0.938545
Si Si2 0.935224 0.671113 0.124115
Si Si3 0.066899 0.570653 0.461800
Si Si4 0.064394 0.434317 0.728276
Si Si5 0.933958 0.670053 0.603323
Si Si6 0.935503 0.408986 0.232078
O O1 0.250000 0.668015 0.943712
O O2 0.479242 0.750000 0.922552
O O3 0.484002 0.623522 0.858896
O O4 0.502607 0.649866 0.030680
O O5 0.750000 0.669834 0.121137
O O6 0.983684 0.750000 0.139215
O O7 0.984529 0.620765 0.200276
O O8 0.250000 0.567317 0.464566
O O9 0.000000 0.500000 0.500000
O O10 0.008995 0.578737 0.364439
O O11 0.007403 0.631481 0.522309
O O12 0.250000 0.430824 0.719718
O O13 0.025032 0.511188 0.758450
O O14 0.750000 0.664268 0.598122
O O15 0.975663 0.750000 0.605274
O O16 0.992176 0.632803 0.689382
O O17 0.750000 0.403123 0.238024
#
# Coordination Sequence:
#
# PCOD9450982 Si02
#       6
#     8   8   8   8   8   8
#     4   9  18  33  53  78 110 148 190 237 291 345
#     4   9  19  36  56  79 111 151 193 238 289 342
#     4  12  24  40  62  86 116 154 194 237 289 349
#     4  10  21  37  58  84 113 150 194 240 290 346
#     4  11  24  40  60  88 119 151 192 241 290 345
#     4  10  20  35  57  83 114 152 192 238 290 346
#
# _framework density 18.174035
#
# number of rings (size 3 to 8) (size 9 to 14) (size 15 to 20)
#    0.000    1.833    1.667    2.500    0.000    4.667 
#    0.000    3.333    0.000    0.000    0.000    0.000 
#    0.000    0.000    0.000    0.000    0.000    0.000 
#
# Total GULP energy -268138.645388 kJ/mol
# GULP energy per Si atom -5586.221779 kJ/mol
# Density = 1.813267 g / cm^3
# Si number density = 18.174035 Si / 1000 Ang^3
#
#
#
# Elastic Constant Matrix: (Units=GPa)
#
#
# Indices 1 2 3 4 5 6 
#
# 1 33.3522 51.8406 53.4283 0.0000 0.0000 0.0000
# 2 51.8406 142.6529 122.8309 0.0000 0.0000 0.0000
# 3 53.4283 122.8309 215.4166 0.0000 0.0000 0.0000
# 4 0.0000 0.0000 0.0000 41.9883 0.0000 0.0000
# 5 0.0000 0.0000 0.0000 0.0000 37.1980 0.0000
# 6 0.0000 0.0000 0.0000 0.0000 0.0000 19.4794
#
#
#
# Elastic Compliance Matrix: (Units=1/GPa)
#
#
# Indices 1 2 3 4 5 6 
#
# 1 0.072420 -0.021318 -0.005806 0.000000 0.000000 0.000000
# 2 -0.021318 0.020047 -0.006143 0.000000 0.000000 0.000000
# 3 -0.005806 -0.006143 0.009585 0.000000 0.000000 0.000000
# 4 0.000000 0.000000 0.000000 0.023816 0.000000 0.000000
# 5 0.000000 0.000000 0.000000 0.000000 0.026883 0.000000
# 6 0.000000 0.000000 0.000000 0.000000 0.000000 0.051336
#
#
# Mechanical properties :
#
#
# Convention : Reuss Voigt Hill
#
# Bulk Modulus (GPa) = 28.15601 94.18015 61.16808
# Shear Modulus (GPa) = 17.70151 30.62127 24.16139
#
# Velocity S-wave (km/s) = 3.12428 4.10920 3.65011
# Velocity P-wave (km/s) = 5.34237 8.62831 7.17596
#
# Compressibility (1/GPa) = 0.03551640
#
# Stress axis : x y z
#
# Youngs Moduli (GPa) = 13.80837 49.88299 104.32831
#
# Poissons Ratio (x) = 1.06343 0.60573
# Poissons Ratio (y) = 0.29437 0.64092
# Poissons Ratio (z) = 0.08017 0.30645
#
# Static dielectric constant tensor:
#      x y z
#    x 1.615900 0.000000 0.000000 
#    y 0.000000 1.613950 0.000000 
#    z 0.000000 0.000000 1.587510 
# 
# From -- ./inp_files/20369.got.cif
#   From: 2010.05.17/outbox.cif.g08.bks.cpg/sg59_11_cif.got.tgz:20369.got - 2010.06.03 14:40:33.
