data_PCOD9450023
_publ_section_title
;
Structure prediction by ZEFSAII (Michael W. Deem and Ramdas Pophale) SiO2 
 PCOD9450023
Probable space group: P M M N
;
_chemical_formula_sum "Si O2"
_cell_formula_units_Z 64
_cell_length_a 8.421596
_cell_length_b 19.941461
_cell_length_c 21.221764
_cell_angle_alpha 90.000000
_cell_angle_beta 90.000000
_cell_angle_gamma 90.000000
_cell_volume 3563.960300
_symmetry_space_group_name_H-M "P M M N"
_symmetry_group_IT_number 59
_space_group.IT_coordinate_system_code '2'
_symmetry_cell_setting 'orthorhombic'
loop_
_space_group_symop_operation_xyz
x,y,z
1/2-x,1/2-y,z
1/2+x,-y,-z
-x,1/2+y,-z
-x,-y,-z
1/2+x,1/2+y,-z
1/2-x,y,z
x,1/2-y,z
loop_
_atom_site_type_symbol
_atom_site_label
_atom_site_fract_x
_atom_site_fract_y
_atom_site_fract_z
Si Si1 0.059192 0.461167 0.189209
Si Si2 0.559800 0.826350 0.258359
Si Si3 0.060091 0.540482 0.313746
Si Si4 0.941978 0.035843 0.937262
Si Si5 0.939555 0.035055 0.437064
Si Si6 0.056511 0.674987 0.614086
Si Si7 0.057973 0.825232 0.115628
Si Si8 0.558604 0.174566 0.239253
O O1 0.250000 0.465649 0.189308
O O2 0.001883 0.500755 0.251375
O O3 0.002856 0.495718 0.125012
O O4 0.009497 0.384379 0.197053
O O5 0.750000 0.830993 0.258877
O O6 0.514020 0.750000 0.275166
O O7 0.488200 0.882617 0.303324
O O8 0.499446 0.838182 0.186973
O O9 0.250000 0.535201 0.316567
O O10 0.989527 0.507304 0.375929
O O11 0.750000 0.035329 0.937595
O O12 0.993783 0.113251 0.928262
O O13 0.000000 0.000000 0.000000
O O14 0.750000 0.037667 0.439710
O O15 0.998607 0.111621 0.426455
O O16 0.000000 0.000000 0.500000
O O17 0.250000 0.675488 0.612960
O O18 0.004124 0.750000 0.595120
O O19 0.010813 0.664261 0.687423
O O20 0.250000 0.825372 0.116889
O O21 0.005108 0.750000 0.097484
O O22 0.750000 0.171623 0.237456
O O23 0.510096 0.250000 0.221101
#
# Coordination Sequence:
#
# PCOD9450023 Si02
#       8
#     8   8   8   8   8   8   8   8
#     4  10  20  34  53  79 111 140 176 222 271 324
#     4  10  20  33  53  84 115 141 178 229 279 326
#     4  11  21  36  57  81 110 145 183 224 271 330
#     4  10  21  37  53  78 109 144 183 224 272 326
#     4  11  22  37  57  82 113 148 185 231 280 330
#     4   8  15  30  53  79 105 136 177 222 267 319
#     4   9  17  33  56  78 105 141 180 224 274 330
#     4   9  17  31  53  81 108 136 178 226 269 318
#
# _framework density 17.957550999999999
#
# number of rings (size 3 to 8) (size 9 to 14) (size 15 to 20)
#    0.000    2.250    2.500    1.875    0.000    2.500 
#    0.000    1.250    0.000    6.000    0.000    0.000 
#    0.000    0.000    0.000    0.000    0.000    0.000 
#
# Total GULP energy -357009.462858 kJ/mol
# GULP energy per Si atom -5578.272857 kJ/mol
# Density = 1.791668 g / cm^3
# Si number density = 17.957551 Si / 1000 Ang^3
#
#
#
# Elastic Constant Matrix: (Units=GPa)
#
#
# Indices 1 2 3 4 5 6 
#
# 1 12.5687 20.3134 19.8144 0.0000 0.0000 0.0000
# 2 20.3134 174.5008 89.2277 0.0000 0.0000 0.0000
# 3 19.8144 89.2277 119.9362 0.0000 0.0000 0.0000
# 4 0.0000 0.0000 0.0000 28.7845 0.0000 0.0000
# 5 0.0000 0.0000 0.0000 0.0000 27.6809 0.0000
# 6 0.0000 0.0000 0.0000 0.0000 0.0000 25.6607
#
#
#
# Elastic Compliance Matrix: (Units=1/GPa)
#
#
# Indices 1 2 3 4 5 6 
#
# 1 0.111012 -0.005721 -0.014084 0.000000 0.000000 0.000000
# 2 -0.005721 0.009544 -0.006155 0.000000 0.000000 0.000000
# 3 -0.014084 -0.006155 0.015244 0.000000 0.000000 0.000000
# 4 0.000000 0.000000 0.000000 0.034741 0.000000 0.000000
# 5 0.000000 0.000000 0.000000 0.000000 0.036126 0.000000
# 6 0.000000 0.000000 0.000000 0.000000 0.000000 0.038970
#
#
# Mechanical properties :
#
#
# Convention : Reuss Voigt Hill
#
# Bulk Modulus (GPa) = 11.92183 62.85741 37.38962
# Shear Modulus (GPa) = 15.36017 28.26856 21.81437
#
# Velocity S-wave (km/s) = 2.92783 3.97191 3.48914
# Velocity P-wave (km/s) = 4.25240 7.49093 6.09085
#
# Compressibility (1/GPa) = 0.08387971
#
# Stress axis : x y z
#
# Youngs Moduli (GPa) = 9.00800 104.77857 65.60113
#
# Poissons Ratio (x) = 0.59948 0.92390
# Poissons Ratio (y) = 0.05154 0.40378
# Poissons Ratio (z) = 0.12687 0.64492
#
# Static dielectric constant tensor:
#      x y z
#    x 1.621010 0.000000 0.000000 
#    y 0.000000 1.648290 0.000000 
#    z 0.000000 0.000000 1.577310 
# 
# From -- ./inp_files/29386.got.cif
#   From: 2010.05.17/outbox.cif.g08.bks.cpg/sg59_15_cif.got.tgz:29386.got - 2010.06.03 14:40:33.
