data_PCOD9450067
_publ_section_title
;
Structure prediction by ZEFSAII (Michael W. Deem and Ramdas Pophale) SiO2 
 PCOD9450067
Probable space group: P M M N
;
_chemical_formula_sum "Si O2"
_cell_formula_units_Z 34
_cell_length_a 19.530998
_cell_length_b 10.849195
_cell_length_c 8.630471
_cell_angle_alpha 90.000000
_cell_angle_beta 90.000000
_cell_angle_gamma 90.000000
_cell_volume 1828.758881
_symmetry_space_group_name_H-M "P M M N"
_symmetry_group_IT_number 59
_space_group.IT_coordinate_system_code '2'
_symmetry_cell_setting 'orthorhombic'
loop_
_space_group_symop_operation_xyz
x,y,z
1/2-x,1/2-y,z
1/2+x,-y,-z
-x,1/2+y,-z
-x,-y,-z
1/2+x,1/2+y,-z
1/2-x,y,z
x,1/2-y,z
loop_
_atom_site_type_symbol
_atom_site_label
_atom_site_fract_x
_atom_site_fract_y
_atom_site_fract_z
Si Si1 0.250000 0.603249 0.638249
Si Si2 0.890486 0.395446 0.883728
Si Si3 0.636661 0.542747 0.179731
Si Si4 0.750000 0.399224 0.716705
Si Si5 0.506868 0.890252 0.376330
Si Si6 0.750000 0.750000 0.107461
O O1 0.250000 0.750000 0.638018
O O2 0.183100 0.553922 0.725315
O O3 0.250000 0.556833 0.460555
O O4 0.885464 0.250000 0.923114
O O5 0.818415 0.435482 0.806869
O O6 0.949232 0.408187 0.755597
O O7 0.900240 0.474676 0.037359
O O8 0.580269 0.599324 0.293556
O O9 0.689814 0.643267 0.117330
O O10 0.750000 0.250000 0.710802
O O11 0.498191 0.750000 0.439562
O O12 0.500000 0.000000 0.500000
#
# Coordination Sequence:
#
# PCOD9450067 Si02
#       6
#     4   8   8   4   8   2
#     4  10  20  33  62  93 120 163 210 260 318 381
#     4  10  21  37  63  92 124 163 210 267 317 376
#     4  11  21  39  61  88 127 167 213 260 325 383
#     4   9  17  33  53  86 124 149 197 257 311 367
#     4  11  24  43  64  92 129 173 214 269 328 389
#     4  10  22  38  60  84 128 172 200 258 322 384
#
# _framework density 18.591843000000001
#
# number of rings (size 3 to 8) (size 9 to 14) (size 15 to 20)
#    0.000    1.647    1.176    4.235    0.000    4.706 
#    2.118    0.000    0.000    0.000    0.000    0.000 
#    0.000    0.000    0.000    0.000    0.000    0.000 
#
# Total GULP energy -189293.498115 kJ/mol
# GULP energy per Si atom -5567.455827 kJ/mol
# Density = 1.854953 g / cm^3
# Si number density = 18.591843 Si / 1000 Ang^3
#
#
#
# Elastic Constant Matrix: (Units=GPa)
#
#
# Indices 1 2 3 4 5 6 
#
# 1 89.9316 27.4606 3.4822 0.0000 0.0000 0.0000
# 2 27.4606 116.6544 54.7113 0.0000 0.0000 0.0000
# 3 3.4822 54.7113 71.2126 0.0000 0.0000 0.0000
# 4 0.0000 0.0000 0.0000 22.8150 0.0000 0.0000
# 5 0.0000 0.0000 0.0000 0.0000 16.6421 0.0000
# 6 0.0000 0.0000 0.0000 0.0000 0.0000 26.6447
#
#
#
# Elastic Compliance Matrix: (Units=1/GPa)
#
#
# Indices 1 2 3 4 5 6 
#
# 1 0.012266 -0.004074 0.002530 0.000000 0.000000 0.000000
# 2 -0.004074 0.014754 -0.011136 0.000000 0.000000 0.000000
# 3 0.002530 -0.011136 0.022475 0.000000 0.000000 0.000000
# 4 0.000000 0.000000 0.000000 0.043831 0.000000 0.000000
# 5 0.000000 0.000000 0.000000 0.000000 0.060089 0.000000
# 6 0.000000 0.000000 0.000000 0.000000 0.000000 0.037531
#
#
# Mechanical properties :
#
#
# Convention : Reuss Voigt Hill
#
# Bulk Modulus (GPa) = 41.43478 49.90077 45.66778
# Shear Modulus (GPa) = 22.28665 26.02998 24.15831
#
# Velocity S-wave (km/s) = 3.46603 3.74582 3.60864
# Velocity P-wave (km/s) = 6.19296 6.75327 6.47917
#
# Compressibility (1/GPa) = 0.02413431
#
# Stress axis : x y z
#
# Youngs Moduli (GPa) = 81.52885 67.77680 44.49485
#
# Poissons Ratio (x) = 0.27612 -0.11258
# Poissons Ratio (y) = 0.33215 0.49551
# Poissons Ratio (z) = -0.20629 0.75478
#
# Static dielectric constant tensor:
#      x y z
#    x 1.628530 0.000000 0.000000 
#    y 0.000000 1.635750 0.000000 
#    z 0.000000 0.000000 1.629390 
# 
# From -- ./inp_files/5506.got.cif
#   From: 2010.05.17/outbox.cif.g08.bks.cpg/sg59_3_cif.got.tgz:5506.got - 2010.06.03 14:40:33.
