data_PCOD9450339
_publ_section_title
;
Structure prediction by ZEFSAII (Michael W. Deem and Ramdas Pophale) SiO2 
 PCOD9450339
Probable space group: P M M N
;
_chemical_formula_sum "Si O2"
_cell_formula_units_Z 48
_cell_length_a 16.148667
_cell_length_b 17.874702
_cell_length_c 9.786982
_cell_angle_alpha 90.000000
_cell_angle_beta 90.000000
_cell_angle_gamma 90.000000
_cell_volume 2825.037901
_symmetry_space_group_name_H-M "P M M N"
_symmetry_group_IT_number 59
_space_group.IT_coordinate_system_code '2'
_symmetry_cell_setting 'orthorhombic'
loop_
_space_group_symop_operation_xyz
x,y,z
1/2-x,1/2-y,z
1/2+x,-y,-z
-x,1/2+y,-z
-x,-y,-z
1/2+x,1/2+y,-z
1/2-x,y,z
x,1/2-y,z
loop_
_atom_site_type_symbol
_atom_site_label
_atom_site_fract_x
_atom_site_fract_y
_atom_site_fract_z
Si Si1 0.658962 0.839056 0.036397
Si Si2 0.344604 0.921890 0.227706
Si Si3 0.844734 0.339431 0.485737
Si Si4 0.508971 0.088499 0.977790
Si Si5 0.511053 0.339523 0.277702
Si Si6 0.840537 0.899782 0.726869
O O1 0.750000 0.861302 0.092190
O O2 0.650205 0.750000 0.050970
O O3 0.576507 0.880208 0.087124
O O4 0.661358 0.859974 0.875359
O O5 0.250000 0.905130 0.183972
O O6 0.358968 0.881773 0.372170
O O7 0.412586 0.897646 0.118293
O O8 0.349769 0.011553 0.248564
O O9 0.750000 0.355186 0.441858
O O10 0.851409 0.250000 0.507818
O O11 0.912014 0.360968 0.372843
O O12 0.519789 0.126316 0.126168
O O13 0.500000 0.000000 0.000000
O O14 0.507753 0.250000 0.266576
O O15 0.423968 0.368673 0.339704
O O16 0.750000 0.886399 0.661766
#
# Coordination Sequence:
#
# PCOD9450339 Si02
#       6
#     8   8   8   8   8   8
#     4   9  17  30  49  72 102 140 175 210 260 318
#     4  10  20  34  54  77 106 140 175 215 265 319
#     4   9  20  38  54  71 101 141 180 218 263 315
#     4  11  19  31  51  82 110 136 168 224 270 311
#     4  10  20  34  54  78 103 137 179 220 264 313
#     4   9  16  29  49  75 103 130 166 211 259 311
#
# _framework density 16.990921
#
# number of rings (size 3 to 8) (size 9 to 14) (size 15 to 20)
#    0.000    2.333    3.333    2.000    0.000    3.667 
#    0.000    0.000    0.000    1.000    0.000    0.000 
#    0.000    0.000    0.000    0.000    0.000    0.000 
#
# Total GULP energy -267356.450119 kJ/mol
# GULP energy per Si atom -5569.926044 kJ/mol
# Density = 1.695225 g / cm^3
# Si number density = 16.990921 Si / 1000 Ang^3
#
#
#
# Elastic Constant Matrix: (Units=GPa)
#
#
# Indices 1 2 3 4 5 6 
#
# 1 199.1953 61.5909 77.6984 0.0000 0.0000 0.0000
# 2 61.5909 54.0981 24.0709 0.0000 0.0000 0.0000
# 3 77.6984 24.0709 49.2208 0.0000 0.0000 0.0000
# 4 0.0000 0.0000 0.0000 7.7299 0.0000 0.0000
# 5 0.0000 0.0000 0.0000 0.0000 23.2592 0.0000
# 6 0.0000 0.0000 0.0000 0.0000 0.0000 31.1860
#
#
#
# Elastic Compliance Matrix: (Units=1/GPa)
#
#
# Indices 1 2 3 4 5 6 
#
# 1 0.015775 -0.008793 -0.020602 0.000000 0.000000 0.000000
# 2 -0.008793 0.028527 -0.000070 0.000000 0.000000 0.000000
# 3 -0.020602 -0.000070 0.052872 0.000000 0.000000 0.000000
# 4 0.000000 0.000000 0.000000 0.129368 0.000000 0.000000
# 5 0.000000 0.000000 0.000000 0.000000 0.042994 0.000000
# 6 0.000000 0.000000 0.000000 0.000000 0.000000 0.032066
#
#
# Mechanical properties :
#
#
# Convention : Reuss Voigt Hill
#
# Bulk Modulus (GPa) = 26.14790 69.91496 48.03143
# Shear Modulus (GPa) = 13.39479 21.71195 17.55337
#
# Velocity S-wave (km/s) = 2.81080 3.57859 3.21768
# Velocity P-wave (km/s) = 5.09479 7.63628 6.49114
#
# Compressibility (1/GPa) = 0.03824399
#
# Stress axis : x y z
#
# Youngs Moduli (GPa) = 63.39181 35.05417 18.91356
#
# Poissons Ratio (x) = 0.30824 0.38965
# Poissons Ratio (y) = 0.55741 0.00133
# Poissons Ratio (z) = 1.30597 0.00247
#
# Static dielectric constant tensor:
#      x y z
#    x 1.637430 0.000000 0.000000 
#    y 0.000000 1.565950 0.000000 
#    z 0.000000 0.000000 1.536500 
# 
# From -- ./inp_files/17040.got.cif
#   From: 2010.05.17/outbox.cif.g08.bks.cpg/sg59_9_cif.got.tgz:17040.got - 2010.06.03 14:40:33.
