data_PCOD9450539
_publ_section_title
;
Structure prediction by ZEFSAII (Michael W. Deem and Ramdas Pophale) SiO2 
 PCOD9450539
Probable space group: P M M N
;
_chemical_formula_sum "Si O2"
_cell_formula_units_Z 32
_cell_length_a 8.032614
_cell_length_b 9.448527
_cell_length_c 21.414830
_cell_angle_alpha 90.000000
_cell_angle_beta 90.000000
_cell_angle_gamma 90.000000
_cell_volume 1625.307867
_symmetry_space_group_name_H-M "P M M N"
_symmetry_group_IT_number 59
_space_group.IT_coordinate_system_code '2'
_symmetry_cell_setting 'orthorhombic'
loop_
_space_group_symop_operation_xyz
x,y,z
1/2-x,1/2-y,z
1/2+x,-y,-z
-x,1/2+y,-z
-x,-y,-z
1/2+x,1/2+y,-z
1/2-x,y,z
x,1/2-y,z
loop_
_atom_site_type_symbol
_atom_site_label
_atom_site_fract_x
_atom_site_fract_y
_atom_site_fract_z
Si Si1 0.551078 0.588210 0.560859
Si Si2 0.950282 0.411388 0.059879
Si Si3 0.549180 0.911369 0.317810
Si Si4 0.453213 0.914814 0.801785
O O1 0.500000 0.500000 0.500000
O O2 0.750000 0.595071 0.561778
O O3 0.486179 0.750000 0.559154
O O4 0.494196 0.505711 0.622500
O O5 0.750000 0.408961 0.061995
O O6 0.009554 0.250000 0.052891
O O7 0.006425 0.462000 0.128680
O O8 0.000000 0.500000 0.000000
O O9 0.750000 0.905511 0.314136
O O10 0.487936 0.750000 0.323927
O O11 0.487824 0.987444 0.254664
O O12 0.250000 0.917045 0.800808
O O13 0.501463 0.750000 0.793098
#
# Coordination Sequence:
#
# PCOD9450539 Si02
#       4
#     8   8   8   8
#     4  11  24  40  58  81 108 139 175 212 252 302
#     4   9  18  32  50  74 103 135 174 217 260 310
#     4  10  20  34  55  83 109 134 170 214 259 309
#     4   8  15  30  51  73 100 136 175 214 257 306
#
# _framework density 19.688579000000001
#
# number of rings (size 3 to 8) (size 9 to 14) (size 15 to 20)
#    0.000    2.500    0.000    3.750    0.000    8.000 
#    0.000    3.750    0.000    1.500    0.000    0.000 
#    0.000    0.000    0.000    0.000    0.000    0.000 
#
# Total GULP energy -178569.656142 kJ/mol
# GULP energy per Si atom -5580.301754 kJ/mol
# Density = 1.964377 g / cm^3
# Si number density = 19.688579 Si / 1000 Ang^3
#
#
#
# Elastic Constant Matrix: (Units=GPa)
#
#
# Indices 1 2 3 4 5 6 
#
# 1 14.1834 12.9603 10.9355 0.0000 0.0000 0.0000
# 2 12.9603 164.6779 134.6549 0.0000 0.0000 0.0000
# 3 10.9355 134.6549 233.0822 0.0000 0.0000 0.0000
# 4 0.0000 0.0000 0.0000 43.4701 0.0000 0.0000
# 5 0.0000 0.0000 0.0000 0.0000 28.5873 0.0000
# 6 0.0000 0.0000 0.0000 0.0000 0.0000 21.3728
#
#
#
# Elastic Compliance Matrix: (Units=1/GPa)
#
#
# Indices 1 2 3 4 5 6 
#
# 1 0.075973 -0.005808 -0.000209 0.000000 0.000000 0.000000
# 2 -0.005808 0.011953 -0.006633 0.000000 0.000000 0.000000
# 3 -0.000209 -0.006633 0.008132 0.000000 0.000000 0.000000
# 4 0.000000 0.000000 0.000000 0.023004 0.000000 0.000000
# 5 0.000000 0.000000 0.000000 0.000000 0.034981 0.000000
# 6 0.000000 0.000000 0.000000 0.000000 0.000000 0.046788
#
#
# Mechanical properties :
#
#
# Convention : Reuss Voigt Hill
#
# Bulk Modulus (GPa) = 14.13265 81.00501 47.56883
# Shear Modulus (GPa) = 20.02250 35.57890 27.80070
#
# Velocity S-wave (km/s) = 3.19244 4.25559 3.76176
# Velocity P-wave (km/s) = 4.55879 8.08574 6.56360
#
# Compressibility (1/GPa) = 0.07075815
#
# Stress axis : x y z
#
# Youngs Moduli (GPa) = 13.16251 83.65797 122.96798
#
# Poissons Ratio (x) = 0.48592 0.02568
# Poissons Ratio (y) = 0.07645 0.81567
# Poissons Ratio (z) = 0.00275 0.55492
#
# Static dielectric constant tensor:
#      x y z
#    x 1.716500 0.000000 0.000000 
#    y 0.000000 1.681880 0.000000 
#    z 0.000000 0.000000 1.677280 
# 
# From -- ./inp_files/25213.got.cif
#   From: 2010.05.17/outbox.cif.g08.bks.cpg/sg59_13_cif.got.tgz:25213.got - 2010.06.03 14:40:33.
