data_PCOD9450664
_publ_section_title
;
Structure prediction by ZEFSAII (Michael W. Deem and Ramdas Pophale) SiO2 
 PCOD9450664
Probable space group: P M M N
;
_chemical_formula_sum "Si O2"
_cell_formula_units_Z 64
_cell_length_a 8.565909
_cell_length_b 15.888803
_cell_length_c 24.465206
_cell_angle_alpha 90.000000
_cell_angle_beta 90.000000
_cell_angle_gamma 90.000000
_cell_volume 3329.764461
_symmetry_space_group_name_H-M "P M M N"
_symmetry_group_IT_number 59
_space_group.IT_coordinate_system_code '2'
_symmetry_cell_setting 'orthorhombic'
loop_
_space_group_symop_operation_xyz
x,y,z
1/2-x,1/2-y,z
1/2+x,-y,-z
-x,1/2+y,-z
-x,-y,-z
1/2+x,1/2+y,-z
1/2-x,y,z
x,1/2-y,z
loop_
_atom_site_type_symbol
_atom_site_label
_atom_site_fract_x
_atom_site_fract_y
_atom_site_fract_z
Si Si1 0.061545 0.153817 0.567054
Si Si2 0.940160 0.845256 0.559003
Si Si3 0.564760 0.656470 0.826039
Si Si4 0.565172 0.399628 0.061629
Si Si5 0.063506 0.588433 0.060200
Si Si6 0.436749 0.498116 0.364954
Si Si7 0.061935 0.343364 0.829056
Si Si8 0.436140 0.998112 0.757141
O O1 0.250000 0.150093 0.569179
O O2 0.015813 0.250000 0.580851
O O3 0.013964 0.137815 0.503921
O O4 0.993960 0.083485 0.606468
O O5 0.750000 0.845178 0.559799
O O6 0.989893 0.750000 0.573515
O O7 0.994615 0.917954 0.599660
O O8 0.750000 0.648199 0.818360
O O9 0.516240 0.750000 0.808162
O O10 0.525008 0.645712 0.889940
O O11 0.481841 0.582759 0.792833
O O12 0.750000 0.388191 0.070000
O O13 0.523026 0.498706 0.065156
O O14 0.525479 0.373960 0.999493
O O15 0.250000 0.573668 0.061277
O O16 0.012407 0.643198 0.111496
O O17 0.250000 0.496492 0.365885
O O18 0.493225 0.493046 0.302950
O O19 0.250000 0.349664 0.834637
O O20 0.024642 0.250000 0.808139
O O21 0.009152 0.418313 0.789400
O O22 0.250000 0.002954 0.752588
#
# Coordination Sequence:
#
# PCOD9450664 Si02
#       8
#     8   8   8   8   8   8   8   8
#     4   9  18  35  59  85 116 155 195 234 280 339
#     4   8  16  33  57  85 117 153 191 231 282 344
#     4  11  24  41  62  87 115 150 192 241 295 346
#     4  10  20  35  57  86 118 152 186 228 285 348
#     4  10  20  34  57  87 118 149 185 232 288 347
#     4  11  22  35  57  87 118 152 191 240 293 342
#     4  10  22  40  61  83 109 146 192 241 295 351
#     4  11  24  42  61  82 113 155 200 244 289 340
#
# _framework density 19.220579000000001
#
# number of rings (size 3 to 8) (size 9 to 14) (size 15 to 20)
#    0.000    2.000    1.250    3.000    0.000    5.000 
#    0.000    5.625    0.000    2.625    0.000    0.000 
#    0.000    0.000    0.000    0.000    0.000    0.000 
#
# Total GULP energy -357437.034902 kJ/mol
# GULP energy per Si atom -5584.953670 kJ/mol
# Density = 1.917683 g / cm^3
# Si number density = 19.220579 Si / 1000 Ang^3
#
#
#
# Elastic Constant Matrix: (Units=GPa)
#
#
# Indices 1 2 3 4 5 6 
#
# 1 18.5714 15.6074 15.6324 0.0000 0.0000 0.0000
# 2 15.6074 109.3510 62.6245 0.0000 0.0000 0.0000
# 3 15.6324 62.6245 105.6869 0.0000 0.0000 0.0000
# 4 0.0000 0.0000 0.0000 -4.5216 0.0000 0.0000
# 5 0.0000 0.0000 0.0000 0.0000 18.5788 0.0000
# 6 0.0000 0.0000 0.0000 0.0000 0.0000 23.0424
#
#
#
# Elastic Compliance Matrix: (Units=1/GPa)
#
#
# Indices 1 2 3 4 5 6 
#
# 1 0.063686 -0.005593 -0.006106 0.000000 0.000000 0.000000
# 2 -0.005593 0.014333 -0.007666 0.000000 0.000000 0.000000
# 3 -0.006106 -0.007666 0.014907 0.000000 0.000000 0.000000
# 4 0.000000 0.000000 0.000000 -0.221161 0.000000 0.000000
# 5 0.000000 0.000000 0.000000 0.000000 0.053825 0.000000
# 6 0.000000 0.000000 0.000000 0.000000 0.000000 0.043398
#
#
# Mechanical properties :
#
#
# Convention : Reuss Voigt Hill
#
# Bulk Modulus (GPa) = 18.45106 46.81531 32.63319
# Shear Modulus (GPa) = 193.92012 16.73626 105.32819
#
# Velocity S-wave (km/s) = 10.05539 2.95404 7.41071
# Velocity P-wave (km/s) = 12.01811 6.00374 9.49947
#
# Compressibility (1/GPa) = 0.05419742
#
# Stress axis : x y z
#
# Youngs Moduli (GPa) = 15.70202 69.76736 67.08050
#
# Poissons Ratio (x) = 0.39021 0.40958
# Poissons Ratio (y) = 0.08782 0.51423
# Poissons Ratio (z) = 0.09587 0.53483
#
# Static dielectric constant tensor:
#      x y z
#    x 1.654760 0.000000 0.000000 
#    y 0.000000 1.677310 0.000000 
#    z 0.000000 0.000000 1.643930 
# 
# From -- ./inp_files/31517.got.cif
#   From: 2010.05.17/outbox.cif.g08.bks.cpg/sg59_16_cif.got.tgz:31517.got - 2010.06.03 14:40:33.
