data_PCOD9450035
_publ_section_title
;
Structure prediction by ZEFSAII (Michael W. Deem and Ramdas Pophale) SiO2 
 PCOD9450035
Probable space group: P M M N
;
_chemical_formula_sum "Si O2"
_cell_formula_units_Z 64
_cell_length_a 13.584798
_cell_length_b 19.137873
_cell_length_c 13.601051
_cell_angle_alpha 90.000000
_cell_angle_beta 90.000000
_cell_angle_gamma 90.000000
_cell_volume 3536.057532
_symmetry_space_group_name_H-M "P M M N"
_symmetry_group_IT_number 59
_space_group.IT_coordinate_system_code '2'
_symmetry_cell_setting 'orthorhombic'
loop_
_space_group_symop_operation_xyz
x,y,z
1/2-x,1/2-y,z
1/2+x,-y,-z
-x,1/2+y,-z
-x,-y,-z
1/2+x,1/2+y,-z
1/2-x,y,z
x,1/2-y,z
loop_
_atom_site_type_symbol
_atom_site_label
_atom_site_fract_x
_atom_site_fract_y
_atom_site_fract_z
Si Si1 0.868322 0.168433 0.947232
Si Si2 0.632371 0.397672 0.359269
Si Si3 0.630967 0.112289 0.737204
Si Si4 0.367679 0.470101 0.349796
Si Si5 0.561490 0.331385 0.155145
Si Si6 0.365058 0.327630 0.252157
Si Si7 0.632530 0.953381 0.429561
Si Si8 0.976869 0.168030 0.549584
O O1 0.750000 0.164116 0.949260
O O2 0.896262 0.250000 0.944602
O O3 0.902871 0.135695 0.844816
O O4 0.906227 0.138275 0.050533
O O5 0.750000 0.391346 0.375682
O O6 0.604854 0.366455 0.253080
O O7 0.608543 0.480827 0.360269
O O8 0.577649 0.359247 0.450298
O O9 0.750000 0.115496 0.735975
O O10 0.592480 0.157169 0.645282
O O11 0.597129 0.032751 0.717764
O O12 0.250000 0.471366 0.341126
O O13 0.394093 0.391206 0.322661
O O14 0.389475 0.484830 0.462372
O O15 0.593313 0.250000 0.158126
O O16 0.443013 0.332533 0.164646
O O17 0.250000 0.334470 0.225082
O O18 0.377388 0.250000 0.296897
O O19 0.750000 0.938813 0.423269
O O20 0.569481 0.882771 0.426424
O O21 0.001561 0.250000 0.538654
#
# Coordination Sequence:
#
# PCOD9450035 Si02
#       8
#     8   8   8   8   8   8   8   8
#     4   9  18  34  54  76 108 146 180 218 268 330
#     4  11  22  36  55  82 116 148 177 219 279 341
#     4  10  20  35  56  83 112 143 179 224 277 328
#     4   9  17  32  54  77 105 142 180 220 267 318
#     4  10  20  33  54  83 112 144 180 222 275 332
#     4   9  18  32  52  78 107 141 182 229 274 317
#     4  10  22  39  56  76 109 153 190 224 270 325
#     4  12  24  35  56  86 112 144 185 230 276 326
#
# _framework density 18.099253000000001
#
# number of rings (size 3 to 8) (size 9 to 14) (size 15 to 20)
#    0.000    2.000    1.250    2.625    1.750    4.500 
#    0.000    1.875    0.000    0.750    0.000    1.750 
#    0.000    0.000    0.000    0.000    0.000    0.000 
#
# Total GULP energy -356800.659577 kJ/mol
# GULP energy per Si atom -5575.010306 kJ/mol
# Density = 1.805806 g / cm^3
# Si number density = 18.099253 Si / 1000 Ang^3
#
#
#
# Elastic Constant Matrix: (Units=GPa)
#
#
# Indices 1 2 3 4 5 6 
#
# 1 68.9432 43.4548 42.4653 0.0000 0.0000 0.0000
# 2 43.4548 121.7263 59.9134 0.0000 0.0000 0.0000
# 3 42.4653 59.9134 135.9950 0.0000 0.0000 0.0000
# 4 0.0000 0.0000 0.0000 23.4404 0.0000 0.0000
# 5 0.0000 0.0000 0.0000 0.0000 21.3579 0.0000
# 6 0.0000 0.0000 0.0000 0.0000 0.0000 22.2483
#
#
#
# Elastic Compliance Matrix: (Units=1/GPa)
#
#
# Indices 1 2 3 4 5 6 
#
# 1 0.020301 -0.005270 -0.004017 0.000000 0.000000 0.000000
# 2 -0.005270 0.011858 -0.003578 0.000000 0.000000 0.000000
# 3 -0.004017 -0.003578 0.010184 0.000000 0.000000 0.000000
# 4 0.000000 0.000000 0.000000 0.042661 0.000000 0.000000
# 5 0.000000 0.000000 0.000000 0.000000 0.046821 0.000000
# 6 0.000000 0.000000 0.000000 0.000000 0.000000 0.044947
#
#
# Mechanical properties :
#
#
# Convention : Reuss Voigt Hill
#
# Bulk Modulus (GPa) = 60.19979 68.70352 64.45166
# Shear Modulus (GPa) = 24.03374 25.46471 24.74923
#
# Velocity S-wave (km/s) = 3.64797 3.75500 3.70187
# Velocity P-wave (km/s) = 7.14680 7.53935 7.34569
#
# Compressibility (1/GPa) = 0.01661135
#
# Stress axis : x y z
#
# Youngs Moduli (GPa) = 49.25931 84.33333 98.19145
#
# Poissons Ratio (x) = 0.44442 0.39448
# Poissons Ratio (y) = 0.25958 0.35137
# Poissons Ratio (z) = 0.19789 0.30178
#
# Static dielectric constant tensor:
#      x y z
#    x 1.671640 0.000000 0.000000 
#    y 0.000000 1.653910 0.000000 
#    z 0.000000 0.000000 1.602640 
# 
# From -- ./inp_files/17189.got.cif
#   From: 2010.05.17/outbox.cif.g08.bks.cpg/sg59_9_cif.got.tgz:17189.got - 2010.06.03 14:40:33.
