data_PCOD9450104
_publ_section_title
;
Structure prediction by ZEFSAII (Michael W. Deem and Ramdas Pophale) SiO2 
 PCOD9450104
Probable space group: P M M N
;
_chemical_formula_sum "Si O2"
_cell_formula_units_Z 48
_cell_length_a 8.476793
_cell_length_b 26.571276
_cell_length_c 12.317329
_cell_angle_alpha 90.000000
_cell_angle_beta 90.000000
_cell_angle_gamma 90.000000
_cell_volume 2774.345409
_symmetry_space_group_name_H-M "P M M N"
_symmetry_group_IT_number 59
_space_group.IT_coordinate_system_code '2'
_symmetry_cell_setting 'orthorhombic'
loop_
_space_group_symop_operation_xyz
x,y,z
1/2-x,1/2-y,z
1/2+x,-y,-z
-x,1/2+y,-z
-x,-y,-z
1/2+x,1/2+y,-z
1/2-x,y,z
x,1/2-y,z
loop_
_atom_site_type_symbol
_atom_site_label
_atom_site_fract_x
_atom_site_fract_y
_atom_site_fract_z
Si Si1 0.439441 0.428597 0.731718
Si Si2 0.934827 0.118401 0.175831
Si Si3 0.439307 0.614586 0.474333
Si Si4 0.935377 0.466555 0.360112
Si Si5 0.062191 0.307909 0.349571
Si Si6 0.439530 0.556231 0.028302
O O1 0.250000 0.430818 0.738685
O O2 0.490863 0.386125 0.646199
O O3 0.503464 0.480699 0.678442
O O4 0.506487 0.426972 0.852624
O O5 0.750000 0.131626 0.164760
O O6 0.944327 0.071421 0.258838
O O7 0.019805 0.163778 0.237396
O O8 0.995210 0.096554 0.062034
O O9 0.250000 0.611873 0.469326
O O10 0.502696 0.564798 0.538910
O O11 0.485329 0.660898 0.551605
O O12 0.750000 0.474962 0.383633
O O13 0.250000 0.309543 0.363946
O O14 0.009872 0.250000 0.348175
O O15 0.250000 0.554492 0.022355
O O16 0.500000 0.500000 0.000000
#
# Coordination Sequence:
#
# PCOD9450104 Si02
#       6
#     8   8   8   8   8   8
#     4  11  20  32  49  73 108 146 181 216 258 306
#     4   9  18  34  53  76 106 139 180 220 257 309
#     4  10  20  34  51  75 105 138 177 216 261 317
#     4   8  15  29  47  70 102 137 173 212 250 298
#     4  10  21  37  58  83 106 130 168 220 276 325
#     4  11  21  34  51  75 108 147 186 221 258 312
#
# _framework density 17.301378
#
# number of rings (size 3 to 8) (size 9 to 14) (size 15 to 20)
#    0.000    2.167    1.667    3.500    0.000    2.667 
#    0.000    1.667    0.000    1.000    0.000    4.667 
#    0.000    0.000    0.000    0.000    0.000    0.000 
#
# Total GULP energy -267641.862906 kJ/mol
# GULP energy per Si atom -5575.872144 kJ/mol
# Density = 1.726200 g / cm^3
# Si number density = 17.301378 Si / 1000 Ang^3
#
#
#
# Elastic Constant Matrix: (Units=GPa)
#
#
# Indices 1 2 3 4 5 6 
#
# 1 39.3012 14.9892 25.5949 0.0000 0.0000 0.0000
# 2 14.9892 66.2276 44.5319 0.0000 0.0000 0.0000
# 3 25.5949 44.5319 146.1013 0.0000 0.0000 0.0000
# 4 0.0000 0.0000 0.0000 7.5442 0.0000 0.0000
# 5 0.0000 0.0000 0.0000 0.0000 28.2000 0.0000
# 6 0.0000 0.0000 0.0000 0.0000 0.0000 21.0298
#
#
#
# Elastic Compliance Matrix: (Units=1/GPa)
#
#
# Indices 1 2 3 4 5 6 
#
# 1 0.029554 -0.004034 -0.003948 0.000000 0.000000 0.000000
# 2 -0.004034 0.019543 -0.005250 0.000000 0.000000 0.000000
# 3 -0.003948 -0.005250 0.009136 0.000000 0.000000 0.000000
# 4 0.000000 0.000000 0.000000 0.132552 0.000000 0.000000
# 5 0.000000 0.000000 0.000000 0.000000 0.035461 0.000000
# 6 0.000000 0.000000 0.000000 0.000000 0.000000 0.047551
#
#
# Mechanical properties :
#
#
# Convention : Reuss Voigt Hill
#
# Bulk Modulus (GPa) = 31.47725 46.87359 39.17542
# Shear Modulus (GPa) = 16.08488 22.45575 19.27031
#
# Velocity S-wave (km/s) = 3.05239 3.60657 3.34099
# Velocity P-wave (km/s) = 5.53676 6.67041 6.12985
#
# Compressibility (1/GPa) = 0.03176897
#
# Stress axis : x y z
#
# Youngs Moduli (GPa) = 33.83616 51.17032 109.45333
#
# Poissons Ratio (x) = 0.20644 0.43210
# Poissons Ratio (y) = 0.13651 0.57461
# Poissons Ratio (z) = 0.13358 0.26864
#
# Static dielectric constant tensor:
#      x y z
#    x 1.596090 0.000000 0.000000 
#    y 0.000000 1.584670 0.000000 
#    z 0.000000 0.000000 1.607200 
# 
# From -- ./inp_files/14392.got.cif
#   From: 2010.05.17/outbox.cif.g08.bks.cpg/sg59_8_cif.got.tgz:14392.got - 2010.06.03 14:40:33.
