data_PCOD9450766
_publ_section_title
;
Structure prediction by ZEFSAII (Michael W. Deem and Ramdas Pophale) SiO2 
 PCOD9450766
Probable space group: P M M N
;
_chemical_formula_sum "Si O2"
_cell_formula_units_Z 56
_cell_length_a 8.685165
_cell_length_b 23.198619
_cell_length_c 15.127038
_cell_angle_alpha 90.000000
_cell_angle_beta 90.000000
_cell_angle_gamma 90.000000
_cell_volume 3047.853610
_symmetry_space_group_name_H-M "P M M N"
_symmetry_group_IT_number 59
_space_group.IT_coordinate_system_code '2'
_symmetry_cell_setting 'orthorhombic'
loop_
_space_group_symop_operation_xyz
x,y,z
1/2-x,1/2-y,z
1/2+x,-y,-z
-x,1/2+y,-z
-x,-y,-z
1/2+x,1/2+y,-z
1/2-x,y,z
x,1/2-y,z
loop_
_atom_site_type_symbol
_atom_site_label
_atom_site_fract_x
_atom_site_fract_y
_atom_site_fract_z
Si Si1 0.934084 0.644570 0.624280
Si Si2 0.062378 0.184885 0.570834
Si Si3 0.566550 0.448013 0.891880
Si Si4 0.565787 0.185506 0.192511
Si Si5 0.068119 0.521045 0.593246
Si Si6 0.566062 0.578870 0.918519
Si Si7 0.567536 0.908781 0.287014
O O1 0.750000 0.650848 0.630388
O O2 0.985598 0.667859 0.528346
O O3 0.009877 0.675946 0.707113
O O4 0.980408 0.577614 0.625568
O O5 0.250000 0.182190 0.570128
O O6 0.015860 0.250000 0.590545
O O7 0.010741 0.140196 0.645369
O O8 0.750000 0.447128 0.904182
O O9 0.518623 0.515541 0.881513
O O10 0.518428 0.413230 0.805404
O O11 0.487890 0.423211 0.979801
O O12 0.750000 0.183102 0.190083
O O13 0.516888 0.250000 0.163177
O O14 0.502216 0.132857 0.134100
O O15 0.250000 0.533387 0.583492
O O16 0.050263 0.469177 0.662013
O O17 0.000000 0.500000 0.500000
O O18 0.750000 0.582356 0.913542
O O19 0.750000 0.899764 0.271020
#
# Coordination Sequence:
#
# PCOD9450766 Si02
#       7
#     8   8   8   8   8   8   8
#     4  11  21  36  57  83 113 151 197 238 286 344
#     4   9  18  34  54  75 104 145 192 236 272 318
#     4  10  21  37  60  89 116 145 182 233 294 348
#     4  11  24  40  58  85 121 157 193 239 294 347
#     4  11  21  34  53  81 115 150 189 238 292 343
#     4  10  21  39  63  88 113 146 189 234 284 349
#     4  10  20  35  54  80 111 146 189 233 280 336
#
# _framework density 18.373586
#
# number of rings (size 3 to 8) (size 9 to 14) (size 15 to 20)
#    0.000    1.714    1.429    3.429    0.000    6.857 
#    0.000    0.714    0.000    4.714    0.000    0.000 
#    0.000    0.000    0.000    0.000    0.000    0.000 
#
# Total GULP energy -312813.888733 kJ/mol
# GULP energy per Si atom -5585.962299 kJ/mol
# Density = 1.833177 g / cm^3
# Si number density = 18.373586 Si / 1000 Ang^3
#
#
#
# Elastic Constant Matrix: (Units=GPa)
#
#
# Indices 1 2 3 4 5 6 
#
# 1 31.0338 25.7507 32.7829 0.0000 0.0000 0.0000
# 2 25.7507 121.1417 69.7738 0.0000 0.0000 0.0000
# 3 32.7829 69.7738 119.9157 0.0000 0.0000 0.0000
# 4 0.0000 0.0000 0.0000 17.6616 0.0000 0.0000
# 5 0.0000 0.0000 0.0000 0.0000 31.8087 0.0000
# 6 0.0000 0.0000 0.0000 0.0000 0.0000 24.0207
#
#
#
# Elastic Compliance Matrix: (Units=1/GPa)
#
#
# Indices 1 2 3 4 5 6 
#
# 1 0.046472 -0.003852 -0.010463 0.000000 0.000000 0.000000
# 2 -0.003852 0.012735 -0.006357 0.000000 0.000000 0.000000
# 3 -0.010463 -0.006357 0.014899 0.000000 0.000000 0.000000
# 4 0.000000 0.000000 0.000000 0.056620 0.000000 0.000000
# 5 0.000000 0.000000 0.000000 0.000000 0.031438 0.000000
# 6 0.000000 0.000000 0.000000 0.000000 0.000000 0.041631
#
#
# Mechanical properties :
#
#
# Convention : Reuss Voigt Hill
#
# Bulk Modulus (GPa) = 30.52384 58.74511 44.63447
# Shear Modulus (GPa) = 19.52675 24.28380 21.90527
#
# Velocity S-wave (km/s) = 3.26354 3.63942 3.45659
# Velocity P-wave (km/s) = 5.55427 7.05000 6.34635
#
# Compressibility (1/GPa) = 0.03276128
#
# Stress axis : x y z
#
# Youngs Moduli (GPa) = 21.51826 78.52421 67.12067
#
# Poissons Ratio (x) = 0.30246 0.70232
# Poissons Ratio (y) = 0.08288 0.42668
# Poissons Ratio (z) = 0.22516 0.49917
#
# Static dielectric constant tensor:
#      x y z
#    x 1.624960 0.000000 0.000000 
#    y 0.000000 1.630890 0.000000 
#    z 0.000000 0.000000 1.608860 
# 
# From -- ./inp_files/21000.got.cif
#   From: 2010.05.17/outbox.cif.g08.bks.cpg/sg59_11_cif.got.tgz:21000.got - 2010.06.03 14:40:33.
