data_PCOD9450513
_publ_section_title
;
Structure prediction by ZEFSAII (Michael W. Deem and Ramdas Pophale) SiO2 
 PCOD9450513
Probable space group: P M M N
;
_chemical_formula_sum "Si O2"
_cell_formula_units_Z 56
_cell_length_a 15.471068
_cell_length_b 8.097476
_cell_length_c 22.389597
_cell_angle_alpha 90.000000
_cell_angle_beta 90.000000
_cell_angle_gamma 90.000000
_cell_volume 2804.892628
_symmetry_space_group_name_H-M "P M M N"
_symmetry_group_IT_number 59
_space_group.IT_coordinate_system_code '2'
_symmetry_cell_setting 'orthorhombic'
loop_
_space_group_symop_operation_xyz
x,y,z
1/2-x,1/2-y,z
1/2+x,-y,-z
-x,1/2+y,-z
-x,-y,-z
1/2+x,1/2+y,-z
1/2-x,y,z
x,1/2-y,z
loop_
_atom_site_type_symbol
_atom_site_label
_atom_site_fract_x
_atom_site_fract_y
_atom_site_fract_z
Si Si1 0.149001 0.551069 0.001219
Si Si2 0.891978 0.558933 0.566309
Si Si3 0.497028 0.450102 0.909792
Si Si4 0.499245 0.050785 0.773342
Si Si5 0.342846 0.945985 0.305060
Si Si6 0.845676 0.446990 0.311480
Si Si7 0.587542 0.553591 0.437600
O O1 0.250000 0.492192 0.001736
O O2 0.153477 0.750000 0.004424
O O3 0.084292 0.494991 0.054957
O O4 0.090524 0.505452 0.943578
O O5 0.867617 0.750000 0.572491
O O6 0.857702 0.468211 0.624408
O O7 0.866995 0.501539 0.499593
O O8 0.995923 0.538537 0.567286
O O9 0.497434 0.250000 0.910844
O O10 0.498295 0.508123 0.841434
O O11 0.504972 0.250000 0.775508
O O12 0.579523 0.985115 0.734385
O O13 0.414969 0.006491 0.735990
O O14 0.250000 0.017704 0.288768
O O15 0.340995 0.750000 0.293967
O O16 0.750000 0.492010 0.291223
O O17 0.852109 0.250000 0.317464
O O18 0.862364 0.521601 0.376874
O O19 0.569949 0.750000 0.443064
#
# Coordination Sequence:
#
# PCOD9450513 Si02
#       7
#     8   8   8   8   8   8   8
#     4   9  18  34  57  85 116 148 182 222 268 318
#     4  10  20  34  55  81 108 140 179 227 284 340
#     4   9  19  35  56  83 113 147 186 226 269 317
#     4  10  21  38  58  80 110 148 187 227 273 326
#     4  10  21  36  55  80 109 143 184 229 278 333
#     4  11  24  39  56  80 109 144 186 232 282 333
#     4  10  20  35  56  80 106 139 181 229 283 338
#
# _framework density 19.965114
#
# number of rings (size 3 to 8) (size 9 to 14) (size 15 to 20)
#    0.000    2.143    1.429    1.286    0.000    5.714 
#    0.000    8.571    0.000    0.000    0.000    4.000 
#    0.000    0.000    0.000    0.000    0.000    0.000 
#
# Total GULP energy -312418.252332 kJ/mol
# GULP energy per Si atom -5578.897363 kJ/mol
# Density = 1.991967 g / cm^3
# Si number density = 19.965114 Si / 1000 Ang^3
#
#
#
# Elastic Constant Matrix: (Units=GPa)
#
#
# Indices 1 2 3 4 5 6 
#
# 1 169.2922 12.7529 96.2337 0.0000 0.0000 0.0000
# 2 12.7529 13.8986 12.1011 0.0000 0.0000 0.0000
# 3 96.2337 12.1011 172.5170 0.0000 0.0000 0.0000
# 4 0.0000 0.0000 0.0000 23.0662 0.0000 0.0000
# 5 0.0000 0.0000 0.0000 0.0000 -71.0469 0.0000
# 6 0.0000 0.0000 0.0000 0.0000 0.0000 9.2447
#
#
#
# Elastic Compliance Matrix: (Units=1/GPa)
#
#
# Indices 1 2 3 4 5 6 
#
# 1 0.008861 -0.004076 -0.004657 0.000000 0.000000 0.000000
# 2 -0.004076 0.078505 -0.003233 0.000000 0.000000 0.000000
# 3 -0.004657 -0.003233 0.008621 0.000000 0.000000 0.000000
# 4 0.000000 0.000000 0.000000 0.043353 0.000000 0.000000
# 5 0.000000 0.000000 0.000000 0.000000 -0.014075 0.000000
# 6 0.000000 0.000000 0.000000 0.000000 0.000000 0.108171
#
#
# Mechanical properties :
#
#
# Convention : Reuss Voigt Hill
#
# Bulk Modulus (GPa) = 13.87828 66.43145 40.15487
# Shear Modulus (GPa) = 17.76914 7.89413 12.83163
#
# Velocity S-wave (km/s) = 2.98654 1.99061 2.53791
# Velocity P-wave (km/s) = 4.34268 6.21526 5.36136
#
# Compressibility (1/GPa) = 0.07205505
#
# Stress axis : x y z
#
# Youngs Moduli (GPa) = 112.84985 12.73807 115.99379
#
# Poissons Ratio (x) = 0.05192 0.54020
# Poissons Ratio (y) = 0.45998 0.37500
# Poissons Ratio (z) = 0.52556 0.04118
#
# Static dielectric constant tensor:
#      x y z
#    x 1.716220 0.000000 0.000000 
#    y 0.000000 2.213290 0.000000 
#    z 0.000000 0.000000 1.698930 
# 
# From -- ./inp_files/30359.got.cif
#   From: 2010.05.17/outbox.cif.g08.bks.cpg/sg59_16_cif.got.tgz:30359.got - 2010.06.03 14:40:33.
