data_PCOD9450827
_publ_section_title
;
Structure prediction by ZEFSAII (Michael W. Deem and Ramdas Pophale) SiO2 
 PCOD9450827
Probable space group: P M M N
;
_chemical_formula_sum "Si O2"
_cell_formula_units_Z 64
_cell_length_a 21.355543
_cell_length_b 8.020272
_cell_length_c 17.172178
_cell_angle_alpha 90.000000
_cell_angle_beta 90.000000
_cell_angle_gamma 90.000000
_cell_volume 2941.203657
_symmetry_space_group_name_H-M "P M M N"
_symmetry_group_IT_number 59
_space_group.IT_coordinate_system_code '2'
_symmetry_cell_setting 'orthorhombic'
loop_
_space_group_symop_operation_xyz
x,y,z
1/2-x,1/2-y,z
1/2+x,-y,-z
-x,1/2+y,-z
-x,-y,-z
1/2+x,1/2+y,-z
1/2-x,y,z
x,1/2-y,z
loop_
_atom_site_type_symbol
_atom_site_label
_atom_site_fract_x
_atom_site_fract_y
_atom_site_fract_z
Si Si1 0.929567 0.948982 0.478341
Si Si2 0.181561 0.452088 0.818605
Si Si3 0.580333 0.948539 0.055524
Si Si4 0.182324 0.952066 0.062961
Si Si5 0.515905 0.941350 0.824250
Si Si6 0.414182 0.451677 0.697273
Si Si7 0.678737 0.048684 0.599344
Si Si8 0.852495 0.442977 0.772063
O O1 0.927339 0.750000 0.475620
O O2 0.918578 0.012200 0.390541
O O3 0.875692 0.002544 0.538567
O O4 0.000000 0.000000 0.500000
O O5 0.250000 0.521193 0.830323
O O6 0.183608 0.250000 0.826329
O O7 0.132118 0.510500 0.881976
O O8 0.153290 0.487866 0.734332
O O9 0.573068 0.750000 0.059834
O O10 0.515955 0.019874 0.091594
O O11 0.617950 0.990557 0.977261
O O12 0.250000 0.004941 0.027432
O O13 0.181001 0.750000 0.062040
O O14 0.181100 0.014235 0.151940
O O15 0.535640 0.750000 0.824589
O O16 0.464317 0.972081 0.756895
O O17 0.574869 0.048361 0.796740
O O18 0.423412 0.250000 0.699661
O O19 0.750000 0.993345 0.579894
O O20 0.679407 0.250000 0.601439
O O21 0.660929 0.986052 0.686534
O O22 0.832773 0.250000 0.767373
#
# Coordination Sequence:
#
# PCOD9450827 Si02
#       8
#     8   8   8   8   8   8   8   8
#     4  11  23  38  59  87 119 156 198 246 299 356
#     4   8  14  27  49  74  99 131 171 211 254 315
#     4  10  20  35  55  80 113 151 187 225 277 342
#     4  10  21  37  58  84 112 143 185 237 287 337
#     4  11  22  36  57  85 115 147 188 240 291 336
#     4   9  19  35  54  78 109 145 183 224 278 344
#     4  10  22  41  64  89 120 160 204 250 303 363
#     4  10  21  39  61  82 110 151 194 236 289 353
#
# _framework density 21.759798
#
# number of rings (size 3 to 8) (size 9 to 14) (size 15 to 20)
#    0.000    2.125    0.000    4.125    0.000    8.500 
#    0.000    1.250    0.000    5.625    0.000    0.000 
#    0.000    0.000    0.000    0.000    0.000    0.000 
#
# Total GULP energy -357125.661278 kJ/mol
# GULP energy per Si atom -5580.088457 kJ/mol
# Density = 2.171027 g / cm^3
# Si number density = 21.759798 Si / 1000 Ang^3
#
#
#
# Elastic Constant Matrix: (Units=GPa)
#
#
# Indices 1 2 3 4 5 6 
#
# 1 141.1906 -0.5062 43.5126 0.0000 0.0000 0.0000
# 2 -0.5062 34.7685 4.1893 0.0000 0.0000 0.0000
# 3 43.5126 4.1893 127.6059 0.0000 0.0000 0.0000
# 4 0.0000 0.0000 0.0000 20.2413 0.0000 0.0000
# 5 0.0000 0.0000 0.0000 0.0000 24.3744 0.0000
# 6 0.0000 0.0000 0.0000 0.0000 0.0000 15.7251
#
#
#
# Elastic Compliance Matrix: (Units=1/GPa)
#
#
# Indices 1 2 3 4 5 6 
#
# 1 0.007921 0.000443 -0.002716 0.000000 0.000000 0.000000
# 2 0.000443 0.028901 -0.001100 0.000000 0.000000 0.000000
# 3 -0.002716 -0.001100 0.008799 0.000000 0.000000 0.000000
# 4 0.000000 0.000000 0.000000 0.049404 0.000000 0.000000
# 5 0.000000 0.000000 0.000000 0.000000 0.041027 0.000000
# 6 0.000000 0.000000 0.000000 0.000000 0.000000 0.063593
#
#
# Mechanical properties :
#
#
# Convention : Reuss Voigt Hill
#
# Bulk Modulus (GPa) = 25.72352 44.21740 34.97046
# Shear Modulus (GPa) = 22.79488 29.15944 25.97716
#
# Velocity S-wave (km/s) = 3.24013 3.66465 3.45891
# Velocity P-wave (km/s) = 5.08381 6.18636 5.66199
#
# Compressibility (1/GPa) = 0.03887493
#
# Stress axis : x y z
#
# Youngs Moduli (GPa) = 126.24504 34.60134 113.65291
#
# Poissons Ratio (x) = -0.01531 0.30863
# Poissons Ratio (y) = -0.05587 0.12498
# Poissons Ratio (z) = 0.34283 0.03805
#
# Static dielectric constant tensor:
#      x y z
#    x 1.852070 0.000000 0.000000 
#    y 0.000000 1.777030 0.000000 
#    z 0.000000 0.000000 1.825100 
# 
# From -- ./inp_files/28164.got.cif
#   From: 2010.05.17/outbox.cif.g08.bks.cpg/sg59_15_cif.got.tgz:28164.got - 2010.06.03 14:40:33.
