data_PCOD9450202
_publ_section_title
;
Structure prediction by ZEFSAII (Michael W. Deem and Ramdas Pophale) SiO2 
 PCOD9450202
Probable space group: P M M N
;
_chemical_formula_sum "Si O2"
_cell_formula_units_Z 48
_cell_length_a 14.748078
_cell_length_b 9.410067
_cell_length_c 16.092251
_cell_angle_alpha 90.000000
_cell_angle_beta 90.000000
_cell_angle_gamma 90.000000
_cell_volume 2233.289064
_symmetry_space_group_name_H-M "P M M N"
_symmetry_group_IT_number 59
_space_group.IT_coordinate_system_code '2'
_symmetry_cell_setting 'orthorhombic'
loop_
_space_group_symop_operation_xyz
x,y,z
1/2-x,1/2-y,z
1/2+x,-y,-z
-x,1/2+y,-z
-x,-y,-z
1/2+x,1/2+y,-z
1/2-x,y,z
x,1/2-y,z
loop_
_atom_site_type_symbol
_atom_site_label
_atom_site_fract_x
_atom_site_fract_y
_atom_site_fract_z
Si Si1 0.140271 0.588379 0.709545
Si Si2 0.138385 0.586835 0.213742
Si Si3 0.907285 0.078538 0.478764
Si Si4 0.360758 0.084537 0.051690
Si Si5 0.353353 0.091356 0.368184
Si Si6 0.139383 0.084873 0.868312
O O1 0.250000 0.588746 0.712982
O O2 0.108312 0.750000 0.719409
O O3 0.116634 0.542167 0.616138
O O4 0.106856 0.496897 0.787079
O O5 0.250000 0.588546 0.214601
O O6 0.109224 0.750000 0.219127
O O7 0.109759 0.512449 0.128099
O O8 0.103767 0.496339 0.292585
O O9 0.906746 0.250000 0.487126
O O10 0.848342 0.004334 0.549746
O O11 0.000000 0.000000 0.500000
O O12 0.250000 0.083802 0.052263
O O13 0.387475 0.250000 0.062448
O O14 0.389301 0.032770 0.959868
O O15 0.250000 0.112290 0.341487
O O16 0.393228 0.250000 0.382220
O O17 0.250000 0.077623 0.867688
O O18 0.115026 0.250000 0.862657
#
# Coordination Sequence:
#
# PCOD9450202 Si02
#       6
#     8   8   8   8   8   8
#     4   9  18  32  50  72  98 128 161 200 246 292
#     4   9  16  25  40  65  96 129 163 199 240 285
#     4  11  23  38  54  73  99 130 166 208 254 302
#     4   8  13  22  36  58  92 129 160 193 235 280
#     4  10  20  34  53  76 101 131 167 206 249 297
#     4   8  14  24  40  64  94 127 161 197 237 282
#
# _framework density 21.492964000000001
#
# number of rings (size 3 to 8) (size 9 to 14) (size 15 to 20)
#    0.000    2.833    0.000    3.000    0.000    5.667 
#    0.000    5.000    0.000    0.000    0.000    1.167 
#    0.000    0.000    0.000    0.000    0.000    0.000 
#
# Total GULP energy -267752.109466 kJ/mol
# GULP energy per Si atom -5578.168947 kJ/mol
# Density = 2.144405 g / cm^3
# Si number density = 21.492964 Si / 1000 Ang^3
#
#
#
# Elastic Constant Matrix: (Units=GPa)
#
#
# Indices 1 2 3 4 5 6 
#
# 1 30.7351 7.4066 7.0457 0.0000 0.0000 0.0000
# 2 7.4066 134.6362 123.6655 0.0000 0.0000 0.0000
# 3 7.0457 123.6655 228.5369 0.0000 0.0000 0.0000
# 4 0.0000 0.0000 0.0000 43.7078 0.0000 0.0000
# 5 0.0000 0.0000 0.0000 0.0000 5.3195 0.0000
# 6 0.0000 0.0000 0.0000 0.0000 0.0000 5.7168
#
#
#
# Elastic Compliance Matrix: (Units=1/GPa)
#
#
# Indices 1 2 3 4 5 6 
#
# 1 0.032974 -0.001750 -0.000070 0.000000 0.000000 0.000000
# 2 -0.001750 0.014860 -0.007987 0.000000 0.000000 0.000000
# 3 -0.000070 -0.007987 0.008700 0.000000 0.000000 0.000000
# 4 0.000000 0.000000 0.000000 0.022879 0.000000 0.000000
# 5 0.000000 0.000000 0.000000 0.000000 0.187986 0.000000
# 6 0.000000 0.000000 0.000000 0.000000 0.000000 0.174923
#
#
# Mechanical properties :
#
#
# Convention : Reuss Voigt Hill
#
# Bulk Modulus (GPa) = 27.08548 74.46043 50.77295
# Shear Modulus (GPa) = 10.54314 28.00152 19.27233
#
# Velocity S-wave (km/s) = 2.21721 3.61338 2.99771
# Velocity P-wave (km/s) = 4.37997 7.21997 5.97127
#
# Compressibility (1/GPa) = 0.03692015
#
# Stress axis : x y z
#
# Youngs Moduli (GPa) = 30.32709 67.29529 114.94628
#
# Poissons Ratio (x) = 0.11777 0.00800
# Poissons Ratio (y) = 0.05307 0.91808
# Poissons Ratio (z) = 0.00211 0.53749
#
# Static dielectric constant tensor:
#      x y z
#    x 2.081210 0.000000 0.000000 
#    y 0.000000 1.754950 0.000000 
#    z 0.000000 0.000000 1.800250 
# 
# From -- ./inp_files/24109.got.cif
#   From: 2010.05.17/outbox.cif.g08.bks.cpg/sg59_13_cif.got.tgz:24109.got - 2010.06.03 14:40:33.
