data_PCOD9450727
_publ_section_title
;
Structure prediction by ZEFSAII (Michael W. Deem and Ramdas Pophale) SiO2 
 PCOD9450727
Probable space group: P M M N
;
_chemical_formula_sum "Si O2"
_cell_formula_units_Z 58
_cell_length_a 31.149945
_cell_length_b 7.910205
_cell_length_c 12.601013
_cell_angle_alpha 90.000000
_cell_angle_beta 90.000000
_cell_angle_gamma 90.000000
_cell_volume 3104.920484
_symmetry_space_group_name_H-M "P M M N"
_symmetry_group_IT_number 59
_space_group.IT_coordinate_system_code '2'
_symmetry_cell_setting 'orthorhombic'
loop_
_space_group_symop_operation_xyz
x,y,z
1/2-x,1/2-y,z
1/2+x,-y,-z
-x,1/2+y,-z
-x,-y,-z
1/2+x,1/2+y,-z
1/2-x,y,z
x,1/2-y,z
loop_
_atom_site_type_symbol
_atom_site_label
_atom_site_fract_x
_atom_site_fract_y
_atom_site_fract_z
Si Si1 0.609479 0.953417 0.019565
Si Si2 0.051924 0.050792 0.793798
Si Si3 0.088909 0.555089 0.351288
Si Si4 0.188933 0.549189 0.304041
Si Si5 0.455302 0.048270 0.555232
Si Si6 0.203178 0.548310 0.054615
Si Si7 0.959421 0.944104 0.848355
Si Si8 0.250000 0.250000 0.374908
O O1 0.606302 0.750000 0.018448
O O2 0.578007 0.015215 0.924728
O O3 0.659311 0.991944 0.000680
O O4 0.588755 0.018674 0.128929
O O5 0.060476 0.250000 0.782527
O O6 0.049177 0.978772 0.674650
O O7 0.005517 0.031944 0.849107
O O8 0.076531 0.750000 0.334048
O O9 0.138229 0.532677 0.321272
O O10 0.080698 0.511493 0.473216
O O11 0.059172 0.452210 0.270809
O O12 0.199709 0.750000 0.324207
O O13 0.199149 0.512637 0.180331
O O14 0.213267 0.403226 0.368103
O O15 0.454344 0.250000 0.561140
O O16 0.500000 0.000000 0.500000
O O17 0.250000 0.480680 0.018543
O O18 0.204350 0.750000 0.043730
O O19 0.967094 0.750000 0.878291
#
# Coordination Sequence:
#
# PCOD9450727 Si02
#       8
#     8   8   8   8   8   8   8   2
#     4  10  22  36  54  81 113 147 188 228 282 350
#     4  10  22  39  54  77 112 152 189 236 287 334
#     4  11  22  36  55  81 117 152 187 240 291 334
#     4  10  22  36  54  87 122 152 191 236 293 360
#     4  11  22  36  57  80 110 147 195 240 282 336
#     4  10  20  35  53  79 113 146 183 231 284 339
#     4  11  21  32  54  82 113 147 191 230 271 348
#     4  12  22  32  64  82 120 162 190 236 300 350
#
# _framework density 18.680026000000002
#
# number of rings (size 3 to 8) (size 9 to 14) (size 15 to 20)
#    0.000    1.517    3.448    1.862    2.897    1.931 
#    0.000    0.000    0.000    0.000    1.793    0.000 
#    0.000    0.000    0.000    0.000    0.000    0.000 
#
# Total GULP energy -323089.345134 kJ/mol
# GULP energy per Si atom -5570.505951 kJ/mol
# Density = 1.863751 g / cm^3
# Si number density = 18.680026 Si / 1000 Ang^3
#
#
#
# Elastic Constant Matrix: (Units=GPa)
#
#
# Indices 1 2 3 4 5 6 
#
# 1 126.8768 6.1351 57.3534 0.0000 0.0000 0.0000
# 2 6.1351 42.4657 2.5739 0.0000 0.0000 0.0000
# 3 57.3534 2.5739 94.4285 0.0000 0.0000 0.0000
# 4 0.0000 0.0000 0.0000 13.8132 0.0000 0.0000
# 5 0.0000 0.0000 0.0000 0.0000 23.7214 0.0000
# 6 0.0000 0.0000 0.0000 0.0000 0.0000 37.0064
#
#
#
# Elastic Compliance Matrix: (Units=1/GPa)
#
#
# Indices 1 2 3 4 5 6 
#
# 1 0.010923 -0.001178 -0.006602 0.000000 0.000000 0.000000
# 2 -0.001178 0.023714 0.000069 0.000000 0.000000 0.000000
# 3 -0.006602 0.000069 0.014598 0.000000 0.000000 0.000000
# 4 0.000000 0.000000 0.000000 0.072395 0.000000 0.000000
# 5 0.000000 0.000000 0.000000 0.000000 0.042156 0.000000
# 6 0.000000 0.000000 0.000000 0.000000 0.000000 0.027022
#
#
# Mechanical properties :
#
#
# Convention : Reuss Voigt Hill
#
# Bulk Modulus (GPa) = 29.57408 43.98842 36.78125
# Shear Modulus (GPa) = 22.98824 28.08875 25.53850
#
# Velocity S-wave (km/s) = 3.51184 3.88194 3.70152
# Velocity P-wave (km/s) = 5.68422 6.61000 6.16451
#
# Compressibility (1/GPa) = 0.03381339
#
# Stress axis : x y z
#
# Youngs Moduli (GPa) = 91.54878 42.16841 68.50143
#
# Poissons Ratio (x) = 0.04967 0.45227
# Poissons Ratio (y) = 0.10784 -0.00473
# Poissons Ratio (z) = 0.60444 -0.00291
#
# Static dielectric constant tensor:
#      x y z
#    x 1.655430 0.000000 0.000000 
#    y 0.000000 1.677330 0.000000 
#    z 0.000000 0.000000 1.670870 
# 
# From -- ./inp_files/19167.got.cif
#   From: 2010.05.17/outbox.cif.g08.bks.cpg/sg59_10_cif.got.tgz:19167.got - 2010.06.03 14:40:33.
