data_PCOD9450266
_publ_section_title
;
Structure prediction by ZEFSAII (Michael W. Deem and Ramdas Pophale) SiO2 
 PCOD9450266
Probable space group: P M M N
;
_chemical_formula_sum "Si O2"
_cell_formula_units_Z 48
_cell_length_a 8.428405
_cell_length_b 15.315851
_cell_length_c 19.857235
_cell_angle_alpha 90.000000
_cell_angle_beta 90.000000
_cell_angle_gamma 90.000000
_cell_volume 2563.334627
_symmetry_space_group_name_H-M "P M M N"
_symmetry_group_IT_number 59
_space_group.IT_coordinate_system_code '2'
_symmetry_cell_setting 'orthorhombic'
loop_
_space_group_symop_operation_xyz
x,y,z
1/2-x,1/2-y,z
1/2+x,-y,-z
-x,1/2+y,-z
-x,-y,-z
1/2+x,1/2+y,-z
1/2-x,y,z
x,1/2-y,z
loop_
_atom_site_type_symbol
_atom_site_label
_atom_site_fract_x
_atom_site_fract_y
_atom_site_fract_z
Si Si1 0.559291 0.057572 0.436254
Si Si2 0.058413 0.433369 0.685450
Si Si3 0.439537 0.527800 0.165822
Si Si4 0.443347 0.250000 0.623715
Si Si5 0.556844 0.842551 0.891990
Si Si6 0.440598 0.250000 0.467481
Si Si7 0.939560 0.590599 0.031735
O O1 0.750000 0.057797 0.438639
O O2 0.500315 0.157652 0.438071
O O3 0.500000 0.000000 0.500000
O O4 0.507616 0.006897 0.368387
O O5 0.250000 0.432931 0.685398
O O6 0.003371 0.338685 0.659326
O O7 0.000930 0.449788 0.760689
O O8 0.250000 0.525748 0.166177
O O9 0.499194 0.430871 0.143918
O O10 0.492238 0.594128 0.106706
O O11 0.250000 0.250000 0.624576
O O12 0.491150 0.250000 0.545870
O O13 0.750000 0.845031 0.889198
O O14 0.503657 0.750000 0.862363
O O15 0.514448 0.845122 0.971279
O O16 0.250000 0.250000 0.464296
O O17 0.750000 0.590689 0.036887
O O18 0.000000 0.500000 0.000000
#
# Coordination Sequence:
#
# PCOD9450266 Si02
#       7
#     8   8   8   4   8   4   8
#     4  11  22  38  62  90 119 154 195 245 298 351
#     4  10  21  39  60  81 113 150 189 234 286 348
#     4  10  20  34  53  77 110 145 181 226 280 339
#     4   9  18  37  61  83 107 146 189 230 285 349
#     4   8  15  30  52  76 101 134 180 226 266 319
#     4  11  21  39  63  89 119 152 197 246 291 353
#     4   9  16  29  52  76 100 134 176 222 272 324
#
# _framework density 18.725608000000001
#
# number of rings (size 3 to 8) (size 9 to 14) (size 15 to 20)
#    0.000    2.333    1.667    2.750    0.000    1.333 
#    3.000    0.417    0.000   17.000    0.000    0.000 
#    0.000    0.000    0.000    0.000    0.000    0.000 
#
# Total GULP energy -267510.851865 kJ/mol
# GULP energy per Si atom -5573.142747 kJ/mol
# Density = 1.868299 g / cm^3
# Si number density = 18.725608 Si / 1000 Ang^3
#
#
#
# Elastic Constant Matrix: (Units=GPa)
#
#
# Indices 1 2 3 4 5 6 
#
# 1 29.9486 23.9192 25.3435 0.0000 0.0000 0.0000
# 2 23.9192 142.4047 64.1563 0.0000 0.0000 0.0000
# 3 25.3435 64.1563 147.9658 0.0000 0.0000 0.0000
# 4 0.0000 0.0000 0.0000 17.3887 0.0000 0.0000
# 5 0.0000 0.0000 0.0000 0.0000 31.6453 0.0000
# 6 0.0000 0.0000 0.0000 0.0000 0.0000 19.6357
#
#
#
# Elastic Compliance Matrix: (Units=1/GPa)
#
#
# Indices 1 2 3 4 5 6 
#
# 1 0.041410 -0.004673 -0.005067 0.000000 0.000000 0.000000
# 2 -0.004673 0.009254 -0.003212 0.000000 0.000000 0.000000
# 3 -0.005067 -0.003212 0.009019 0.000000 0.000000 0.000000
# 4 0.000000 0.000000 0.000000 0.057509 0.000000 0.000000
# 5 0.000000 0.000000 0.000000 0.000000 0.031600 0.000000
# 6 0.000000 0.000000 0.000000 0.000000 0.000000 0.050928
#
#
# Mechanical properties :
#
#
# Convention : Reuss Voigt Hill
#
# Bulk Modulus (GPa) = 29.60335 60.79524 45.19930
# Shear Modulus (GPa) = 21.10744 27.52728 24.31736
#
# Velocity S-wave (km/s) = 3.36102 3.83826 3.60754
# Velocity P-wave (km/s) = 5.55925 7.22356 6.44535
#
# Compressibility (1/GPa) = 0.03377996
#
# Stress axis : x y z
#
# Youngs Moduli (GPa) = 24.14868 108.05806 110.87845
#
# Poissons Ratio (x) = 0.50495 0.56177
# Poissons Ratio (y) = 0.11284 0.35616
# Poissons Ratio (z) = 0.12235 0.34710
#
# Static dielectric constant tensor:
#      x y z
#    x 1.649360 0.000000 0.000000 
#    y 0.000000 1.680210 0.000000 
#    z 0.000000 0.000000 1.635870 
# 
# From -- ./inp_files/25572.got.cif
#   From: 2010.05.17/outbox.cif.g08.bks.cpg/sg59_13_cif.got.tgz:25572.got - 2010.06.03 14:40:33.
