data_PCOD9450195
_publ_section_title
;
Structure prediction by ZEFSAII (Michael W. Deem and Ramdas Pophale) SiO2 
 PCOD9450195
Probable space group: P M M N
;
_chemical_formula_sum "Si O2"
_cell_formula_units_Z 64
_cell_length_a 9.460199
_cell_length_b 22.881210
_cell_length_c 16.280800
_cell_angle_alpha 90.000000
_cell_angle_beta 90.000000
_cell_angle_gamma 90.000000
_cell_volume 3524.154992
_symmetry_space_group_name_H-M "P M M N"
_symmetry_group_IT_number 59
_space_group.IT_coordinate_system_code '2'
_symmetry_cell_setting 'orthorhombic'
loop_
_space_group_symop_operation_xyz
x,y,z
1/2-x,1/2-y,z
1/2+x,-y,-z
-x,1/2+y,-z
-x,-y,-z
1/2+x,1/2+y,-z
1/2-x,y,z
x,1/2-y,z
loop_
_atom_site_type_symbol
_atom_site_label
_atom_site_fract_x
_atom_site_fract_y
_atom_site_fract_z
Si Si1 0.411078 0.103815 0.810092
Si Si2 0.419524 0.814549 0.571767
Si Si3 0.410687 0.683066 0.297022
Si Si4 0.086275 0.977760 0.078022
Si Si5 0.912180 0.507546 0.337403
Si Si6 0.916252 0.183897 0.231984
Si Si7 0.584839 0.091117 0.553129
Si Si8 0.587238 0.926312 0.777084
O O1 0.250000 0.111812 0.836949
O O2 0.479801 0.160993 0.770484
O O3 0.410248 0.056255 0.735512
O O4 0.508377 0.077391 0.881153
O O5 0.250000 0.814108 0.556436
O O6 0.473001 0.750000 0.544266
O O7 0.439008 0.817633 0.669340
O O8 0.470892 0.872387 0.525044
O O9 0.250000 0.677514 0.264875
O O10 0.433854 0.750000 0.321253
O O11 0.418939 0.640195 0.374857
O O12 0.250000 0.965774 0.058066
O O13 0.083342 0.027713 0.148272
O O14 0.000000 0.000000 0.000000
O O15 0.750000 0.491375 0.355739
O O16 0.991080 0.537750 0.413801
O O17 0.998976 0.454508 0.297823
O O18 0.750000 0.172215 0.217623
O O19 0.947166 0.250000 0.204351
O O20 0.013529 0.133598 0.196256
O O21 0.750000 0.073787 0.542726
O O22 0.750000 0.917441 0.753324
#
# Coordination Sequence:
#
# PCOD9450195 Si02
#       8
#     8   8   8   8   8   8   8   8
#     4   9  17  29  45  66  94 126 157 190 228 271
#     4   8  14  26  45  68  93 124 165 211 254 293
#     4   9  16  25  40  64  93 127 165 200 235 277
#     4  10  20  34  54  79 102 122 147 184 230 281
#     4   9  17  29  45  66  94 127 161 198 241 287
#     4   9  18  33  53  75  98 127 164 203 243 288
#     4   9  15  25  43  66  93 125 164 209 251 289
#     4  10  20  34  53  76 100 126 158 195 236 285
#
# _framework density 18.160381999999998
#
# number of rings (size 3 to 8) (size 9 to 14) (size 15 to 20)
#    0.000    2.875    0.000    2.625    0.000    6.500 
#    0.000    1.250    0.000    2.625    0.000    3.500 
#    0.000    0.000    0.000    0.000    0.000    0.000 
#
# Total GULP energy -356835.706846 kJ/mol
# GULP energy per Si atom -5575.557919 kJ/mol
# Density = 1.811905 g / cm^3
# Si number density = 18.160382 Si / 1000 Ang^3
#
#
#
# Elastic Constant Matrix: (Units=GPa)
#
#
# Indices 1 2 3 4 5 6 
#
# 1 103.1976 37.6971 17.0006 0.0000 0.0000 0.0000
# 2 37.6971 54.2237 -3.4200 0.0000 0.0000 0.0000
# 3 17.0006 -3.4200 30.3527 0.0000 0.0000 0.0000
# 4 0.0000 0.0000 0.0000 19.4198 0.0000 0.0000
# 5 0.0000 0.0000 0.0000 0.0000 14.0185 0.0000
# 6 0.0000 0.0000 0.0000 0.0000 0.0000 25.5409
#
#
#
# Elastic Compliance Matrix: (Units=1/GPa)
#
#
# Indices 1 2 3 4 5 6 
#
# 1 0.015497 -0.011402 -0.009964 0.000000 0.000000 0.000000
# 2 -0.011402 0.026963 0.009424 0.000000 0.000000 0.000000
# 3 -0.009964 0.009424 0.039589 0.000000 0.000000 0.000000
# 4 0.000000 0.000000 0.000000 0.051494 0.000000 0.000000
# 5 0.000000 0.000000 0.000000 0.000000 0.071334 0.000000
# 6 0.000000 0.000000 0.000000 0.000000 0.000000 0.039153
#
#
# Mechanical properties :
#
#
# Convention : Reuss Voigt Hill
#
# Bulk Modulus (GPa) = 17.19247 32.25882 24.72565
# Shear Modulus (GPa) = 17.40326 20.89561 19.14944
#
# Velocity S-wave (km/s) = 3.09902 3.39575 3.25077
# Velocity P-wave (km/s) = 4.72152 5.75992 5.26638
#
# Compressibility (1/GPa) = 0.05816498
#
# Stress axis : x y z
#
# Youngs Moduli (GPa) = 64.52977 37.08735 25.25952
#
# Poissons Ratio (x) = 0.42287 0.25170
# Poissons Ratio (y) = 0.73577 -0.23806
# Poissons Ratio (z) = 0.64301 -0.34953
#
# Static dielectric constant tensor:
#      x y z
#    x 1.613510 0.000000 0.000000 
#    y 0.000000 1.643350 0.000000 
#    z 0.000000 0.000000 1.623650 
# 
# From -- ./inp_files/26163.got.cif
#   From: 2010.05.17/outbox.cif.g08.bks.cpg/sg59_14_cif.got.tgz:26163.got - 2010.06.03 14:40:33.
