data_PCOD9450281
_publ_section_title
;
Structure prediction by ZEFSAII (Michael W. Deem and Ramdas Pophale) SiO2 
 PCOD9450281
Probable space group: P M M N
;
_chemical_formula_sum "Si O2"
_cell_formula_units_Z 48
_cell_length_a 8.602191
_cell_length_b 9.323408
_cell_length_c 31.757896
_cell_angle_alpha 90.000000
_cell_angle_beta 90.000000
_cell_angle_gamma 90.000000
_cell_volume 2547.038403
_symmetry_space_group_name_H-M "P M M N"
_symmetry_group_IT_number 59
_space_group.IT_coordinate_system_code '2'
_symmetry_cell_setting 'orthorhombic'
loop_
_space_group_symop_operation_xyz
x,y,z
1/2-x,1/2-y,z
1/2+x,-y,-z
-x,1/2+y,-z
-x,-y,-z
1/2+x,1/2+y,-z
1/2-x,y,z
x,1/2-y,z
loop_
_atom_site_type_symbol
_atom_site_label
_atom_site_fract_x
_atom_site_fract_y
_atom_site_fract_z
Si Si1 0.436089 0.582472 0.120469
Si Si2 0.939668 0.415374 0.624426
Si Si3 0.938137 0.583710 0.540494
Si Si4 0.061968 0.083891 0.291882
Si Si5 0.436052 0.083002 0.788356
Si Si6 0.063673 0.584243 0.959721
O O1 0.250000 0.573886 0.119820
O O2 0.480871 0.750000 0.114537
O O3 0.497276 0.537593 0.166356
O O4 0.504619 0.489391 0.082878
O O5 0.750000 0.415062 0.624482
O O6 0.990787 0.250000 0.623096
O O7 0.988708 0.502948 0.583100
O O8 0.989466 0.494603 0.667107
O O9 0.750000 0.581489 0.539659
O O10 0.987731 0.750000 0.540349
O O11 0.000000 0.500000 0.500000
O O12 0.250000 0.079317 0.290724
O O13 0.014997 0.250000 0.295304
O O14 0.998624 0.011956 0.249664
O O15 0.250000 0.076398 0.789732
O O16 0.482570 0.250000 0.781705
O O17 0.250000 0.579792 0.960592
O O18 0.013494 0.750000 0.961442
O O19 0.000000 0.500000 0.000000
#
# Coordination Sequence:
#
# PCOD9450281 Si02
#       6
#     8   8   8   8   8   8
#     4  10  21  38  61  87 113 144 185 230 275 325
#     4   9  17  31  53  78 104 137 177 221 269 321
#     4  10  20  34  53  78 108 141 178 221 269 322
#     4  10  20  34  54  80 108 139 177 221 268 319
#     4  10  21  37  57  81 110 145 182 221 269 323
#     4  11  24  40  59  85 116 150 188 229 275 327
#
# _framework density 18.845417000000001
#
# number of rings (size 3 to 8) (size 9 to 14) (size 15 to 20)
#    0.000    2.000    0.000    3.500    0.000   10.000 
#    0.000    0.833    0.000    5.000    0.000    0.000 
#    0.000    0.000    0.000    0.000    0.000    0.000 
#
# Total GULP energy -268196.414549 kJ/mol
# GULP energy per Si atom -5587.425303 kJ/mol
# Density = 1.880252 g / cm^3
# Si number density = 18.845417 Si / 1000 Ang^3
#
#
#
# Elastic Constant Matrix: (Units=GPa)
#
#
# Indices 1 2 3 4 5 6 
#
# 1 19.0888 36.9963 36.6021 0.0000 0.0000 0.0000
# 2 36.9963 180.1551 139.5233 0.0000 0.0000 0.0000
# 3 36.6021 139.5233 217.4647 0.0000 0.0000 0.0000
# 4 0.0000 0.0000 0.0000 43.1896 0.0000 0.0000
# 5 0.0000 0.0000 0.0000 0.0000 33.8504 0.0000
# 6 0.0000 0.0000 0.0000 0.0000 0.0000 24.6184
#
#
#
# Elastic Compliance Matrix: (Units=1/GPa)
#
#
# Indices 1 2 3 4 5 6 
#
# 1 0.091628 -0.013660 -0.006658 0.000000 0.000000 0.000000
# 2 -0.013660 0.013069 -0.006086 0.000000 0.000000 0.000000
# 3 -0.006658 -0.006086 0.009624 0.000000 0.000000 0.000000
# 4 0.000000 0.000000 0.000000 0.023154 0.000000 0.000000
# 5 0.000000 0.000000 0.000000 0.000000 0.029542 0.000000
# 6 0.000000 0.000000 0.000000 0.000000 0.000000 0.040620
#
#
# Mechanical properties :
#
#
# Convention : Reuss Voigt Hill
#
# Bulk Modulus (GPa) = 16.25668 93.66131 54.95899
# Shear Modulus (GPa) = 17.79675 33.90412 25.85043
#
# Velocity S-wave (km/s) = 3.07637 4.24614 3.70768
# Velocity P-wave (km/s) = 4.61127 8.59344 6.89605
#
# Compressibility (1/GPa) = 0.06151319
#
# Stress axis : x y z
#
# Youngs Moduli (GPa) = 10.91364 76.51456 103.90925
#
# Poissons Ratio (x) = 1.04521 0.69182
# Poissons Ratio (y) = 0.14908 0.63239
# Poissons Ratio (z) = 0.07266 0.46567
#
# Static dielectric constant tensor:
#      x y z
#    x 1.645190 0.000000 0.000000 
#    y 0.000000 1.641520 0.000000 
#    z 0.000000 0.000000 1.608550 
# 
# From -- ./inp_files/32782.got.cif
#   From: 2010.05.17/outbox.cif.g08.bks.cpg/sg59_17_cif.got.tgz:32782.got - 2010.06.03 14:40:33.
