data_PCOD9450648
_publ_section_title
;
Structure prediction by ZEFSAII (Michael W. Deem and Ramdas Pophale) SiO2 
 PCOD9450648
Probable space group: P M M N
;
_chemical_formula_sum "Si O2"
_cell_formula_units_Z 56
_cell_length_a 14.487510
_cell_length_b 8.926481
_cell_length_c 22.915050
_cell_angle_alpha 90.000000
_cell_angle_beta 90.000000
_cell_angle_gamma 90.000000
_cell_volume 2963.431158
_symmetry_space_group_name_H-M "P M M N"
_symmetry_group_IT_number 59
_space_group.IT_coordinate_system_code '2'
_symmetry_cell_setting 'orthorhombic'
loop_
_space_group_symop_operation_xyz
x,y,z
1/2-x,1/2-y,z
1/2+x,-y,-z
-x,1/2+y,-z
-x,-y,-z
1/2+x,1/2+y,-z
1/2-x,y,z
x,1/2-y,z
loop_
_atom_site_type_symbol
_atom_site_label
_atom_site_fract_x
_atom_site_fract_y
_atom_site_fract_z
Si Si1 0.147479 0.920111 0.395916
Si Si2 0.858354 0.429819 0.800325
Si Si3 0.030166 0.074433 0.305356
Si Si4 0.407552 0.924836 0.524022
Si Si5 0.642817 0.430355 0.026711
Si Si6 0.855349 0.572097 0.354023
Si Si7 0.453208 0.429485 0.086564
O O1 0.250000 0.936990 0.370941
O O2 0.114385 0.750000 0.383177
O O3 0.152888 0.932744 0.465464
O O4 0.079402 0.037229 0.366923
O O5 0.750000 0.473299 0.801978
O O6 0.862702 0.250000 0.800485
O O7 0.908592 0.493069 0.743176
O O8 0.912466 0.494848 0.855908
O O9 0.027077 0.250000 0.294319
O O10 0.928514 0.006381 0.311845
O O11 0.420434 0.750000 0.538960
O O12 0.500000 0.000000 0.500000
O O13 0.370429 0.009467 0.580490
O O14 0.750000 0.470174 0.040185
O O15 0.640429 0.250000 0.017795
O O16 0.561641 0.464996 0.073610
O O17 0.606967 0.510367 0.967997
O O18 0.750000 0.542366 0.336822
O O19 0.871093 0.750000 0.354619
O O20 0.444896 0.250000 0.090410
#
# Coordination Sequence:
#
# PCOD9450648 Si02
#       7
#     8   8   8   8   8   8   8
#     4  10  21  37  57  81 113 150 184 225 282 345
#     4  11  24  42  63  85 115 156 196 237 291 353
#     4  12  25  40  61  86 113 146 188 241 292 343
#     4  11  21  35  58  86 116 150 187 230 286 346
#     4   9  18  34  56  84 122 165 201 236 288 348
#     4  11  24  42  63  85 113 151 193 237 288 349
#     4  10  20  34  56  88 122 156 200 250 293 339
#
# _framework density 18.897015
#
# number of rings (size 3 to 8) (size 9 to 14) (size 15 to 20)
#    0.000    1.429    1.429    4.286    0.000    8.000 
#    0.000    0.714    0.000    2.571    0.000    0.000 
#    0.000    0.000    0.000    0.000    0.000    0.000 
#
# Total GULP energy -312749.176519 kJ/mol
# GULP energy per Si atom -5584.806724 kJ/mol
# Density = 1.885400 g / cm^3
# Si number density = 18.897015 Si / 1000 Ang^3
#
#
#
# Elastic Constant Matrix: (Units=GPa)
#
#
# Indices 1 2 3 4 5 6 
#
# 1 169.9329 65.6000 54.8156 0.0000 0.0000 0.0000
# 2 65.6000 76.8408 38.6459 0.0000 0.0000 0.0000
# 3 54.8156 38.6459 86.3523 0.0000 0.0000 0.0000
# 4 0.0000 0.0000 0.0000 33.1928 0.0000 0.0000
# 5 0.0000 0.0000 0.0000 0.0000 24.3891 0.0000
# 6 0.0000 0.0000 0.0000 0.0000 0.0000 21.0120
#
#
#
# Elastic Compliance Matrix: (Units=1/GPa)
#
#
# Indices 1 2 3 4 5 6 
#
# 1 0.009362 -0.006457 -0.003053 0.000000 0.000000 0.000000
# 2 -0.006457 0.021247 -0.005410 0.000000 0.000000 0.000000
# 3 -0.003053 -0.005410 0.015940 0.000000 0.000000 0.000000
# 4 0.000000 0.000000 0.000000 0.030127 0.000000 0.000000
# 5 0.000000 0.000000 0.000000 0.000000 0.041002 0.000000
# 6 0.000000 0.000000 0.000000 0.000000 0.000000 0.047592
#
#
# Mechanical properties :
#
#
# Convention : Reuss Voigt Hill
#
# Bulk Modulus (GPa) = 59.84952 72.36098 66.10525
# Shear Modulus (GPa) = 24.91521 27.32308 26.11915
#
# Velocity S-wave (km/s) = 3.63502 3.80662 3.72181
# Velocity P-wave (km/s) = 7.02552 7.59578 7.31621
#
# Compressibility (1/GPa) = 0.01670857
#
# Stress axis : x y z
#
# Youngs Moduli (GPa) = 106.81225 47.06479 62.73571
#
# Poissons Ratio (x) = 0.30390 0.19155
# Poissons Ratio (y) = 0.68969 0.33941
# Poissons Ratio (z) = 0.32613 0.25462
#
# Static dielectric constant tensor:
#      x y z
#    x 1.689330 0.000000 0.000000 
#    y 0.000000 1.635300 0.000000 
#    z 0.000000 0.000000 1.653080 
# 
# From -- ./inp_files/30384.got.cif
#   From: 2010.05.17/outbox.cif.g08.bks.cpg/sg59_16_cif.got.tgz:30384.got - 2010.06.03 14:40:33.
