data_PCOD9450105
_publ_section_title
;
Structure prediction by ZEFSAII (Michael W. Deem and Ramdas Pophale) SiO2 
 PCOD9450105
Probable space group: P M M N
;
_chemical_formula_sum "Si O2"
_cell_formula_units_Z 64
_cell_length_a 15.738664
_cell_length_b 24.369614
_cell_length_c 9.064048
_cell_angle_alpha 90.000000
_cell_angle_beta 90.000000
_cell_angle_gamma 90.000000
_cell_volume 3476.471800
_symmetry_space_group_name_H-M "P M M N"
_symmetry_group_IT_number 59
_space_group.IT_coordinate_system_code '2'
_symmetry_cell_setting 'orthorhombic'
loop_
_space_group_symop_operation_xyz
x,y,z
1/2-x,1/2-y,z
1/2+x,-y,-z
-x,1/2+y,-z
-x,-y,-z
1/2+x,1/2+y,-z
1/2-x,y,z
x,1/2-y,z
loop_
_atom_site_type_symbol
_atom_site_label
_atom_site_fract_x
_atom_site_fract_y
_atom_site_fract_z
Si Si1 0.921046 0.541952 0.981115
Si Si2 0.348371 0.089487 0.716624
Si Si3 0.846396 0.107066 0.264219
Si Si4 0.952128 0.128772 0.988591
Si Si5 0.097147 0.511849 0.536648
Si Si6 0.153623 0.546464 0.216377
Si Si7 0.843378 0.185262 0.543624
Si Si8 0.985637 0.812913 0.272046
O O1 0.862445 0.512246 0.862351
O O2 0.874537 0.556342 0.134251
O O3 0.000000 0.500000 0.000000
O O4 0.966836 0.598473 0.939197
O O5 0.250000 0.106479 0.725087
O O6 0.413076 0.141025 0.701930
O O7 0.360806 0.045295 0.585974
O O8 0.750000 0.088826 0.236290
O O9 0.895286 0.054301 0.327895
O O10 0.847199 0.151215 0.394193
O O11 0.884744 0.133048 0.117696
O O12 0.910471 0.088463 0.864229
O O13 0.984623 0.180433 0.897857
O O14 0.137519 0.539083 0.390523
O O15 0.000000 0.500000 0.500000
O O16 0.250000 0.563682 0.189586
O O17 0.750000 0.172675 0.614243
O O18 0.843543 0.250000 0.513540
O O19 0.928704 0.174495 0.635318
O O20 0.959430 0.750000 0.302480
#
# Coordination Sequence:
#
# PCOD9450105 Si02
#       8
#     8   8   8   8   8   8   8   8
#     4   9  18  33  50  72 105 143 176 212 260 313
#     4  11  22  37  57  82 113 148 189 234 280 332
#     4  11  21  33  52  80 115 148 179 220 275 337
#     4  10  20  34  51  75 105 140 177 218 266 324
#     4  12  22  34  52  78 112 149 184 221 267 323
#     4  11  20  31  50  77 109 141 175 211 254 315
#     4   9  19  36  56  78 107 145 187 230 280 339
#     4  10  22  40  60  80 104 140 187 239 291 338
#
# _framework density 18.409468
#
# number of rings (size 3 to 8) (size 9 to 14) (size 15 to 20)
#    0.000    1.625    0.000    7.875    0.000    2.750 
#    0.000    0.000    0.000    0.000    0.000    0.000 
#    0.000    7.000    0.000    0.000    0.000    0.000 
#
# Total GULP energy -357035.591155 kJ/mol
# GULP energy per Si atom -5578.681112 kJ/mol
# Density = 1.836757 g / cm^3
# Si number density = 18.409468 Si / 1000 Ang^3
#
#
#
# Elastic Constant Matrix: (Units=GPa)
#
#
# Indices 1 2 3 4 5 6 
#
# 1 111.6523 40.5747 21.8572 0.0000 0.0000 0.0000
# 2 40.5747 66.8252 36.4863 0.0000 0.0000 0.0000
# 3 21.8572 36.4863 56.0302 0.0000 0.0000 0.0000
# 4 0.0000 0.0000 0.0000 24.1031 0.0000 0.0000
# 5 0.0000 0.0000 0.0000 0.0000 29.3255 0.0000
# 6 0.0000 0.0000 0.0000 0.0000 0.0000 8.4059
#
#
#
# Elastic Compliance Matrix: (Units=1/GPa)
#
#
# Indices 1 2 3 4 5 6 
#
# 1 0.011492 -0.007029 0.000094 0.000000 0.000000 0.000000
# 2 -0.007029 0.027520 -0.015179 0.000000 0.000000 0.000000
# 3 0.000094 -0.015179 0.027695 0.000000 0.000000 0.000000
# 4 0.000000 0.000000 0.000000 0.041489 0.000000 0.000000
# 5 0.000000 0.000000 0.000000 0.000000 0.034100 0.000000
# 6 0.000000 0.000000 0.000000 0.000000 0.000000 0.118964
#
#
# Mechanical properties :
#
#
# Convention : Reuss Voigt Hill
#
# Bulk Modulus (GPa) = 44.48416 48.03823 46.26120
# Shear Modulus (GPa) = 15.97541 21.40618 18.69079
#
# Velocity S-wave (km/s) = 2.94901 3.41366 3.18981
# Velocity P-wave (km/s) = 5.98429 6.45665 6.22495
#
# Compressibility (1/GPa) = 0.02247991
#
# Stress axis : x y z
#
# Youngs Moduli (GPa) = 87.01383 36.33718 36.10776
#
# Poissons Ratio (x) = 0.25543 -0.00341
# Poissons Ratio (y) = 0.61166 0.54807
# Poissons Ratio (z) = -0.00821 0.55155
#
# Static dielectric constant tensor:
#      x y z
#    x 1.649850 0.000000 0.000000 
#    y 0.000000 1.662980 0.000000 
#    z 0.000000 0.000000 1.651510 
# 
# From -- ./inp_files/9602.got.cif
#   From: 2010.05.17/outbox.cif.g08.bks.cpg/sg59_5_cif.got.tgz:9602.got - 2010.06.03 14:40:33.
