data_PCOD9450284
_publ_section_title
;
Structure prediction by ZEFSAII (Michael W. Deem and Ramdas Pophale) SiO2 
 PCOD9450284
Probable space group: P M M N
;
_chemical_formula_sum "Si O2"
_cell_formula_units_Z 40
_cell_length_a 8.265926
_cell_length_b 9.225813
_cell_length_c 26.544159
_cell_angle_alpha 90.000000
_cell_angle_beta 90.000000
_cell_angle_gamma 90.000000
_cell_volume 2024.254580
_symmetry_space_group_name_H-M "P M M N"
_symmetry_group_IT_number 59
_space_group.IT_coordinate_system_code '2'
_symmetry_cell_setting 'orthorhombic'
loop_
_space_group_symop_operation_xyz
x,y,z
1/2-x,1/2-y,z
1/2+x,-y,-z
-x,1/2+y,-z
-x,-y,-z
1/2+x,1/2+y,-z
1/2-x,y,z
x,1/2-y,z
loop_
_atom_site_type_symbol
_atom_site_label
_atom_site_fract_x
_atom_site_fract_y
_atom_site_fract_z
Si Si1 0.554396 0.583410 0.248720
Si Si2 0.443744 0.083687 0.950272
Si Si3 0.947771 0.082747 0.349412
Si Si4 0.554405 0.916633 0.450170
Si Si5 0.443711 0.416283 0.149192
O O1 0.750000 0.585695 0.249769
O O2 0.497987 0.750000 0.247914
O O3 0.499348 0.500743 0.299123
O O4 0.501941 0.498707 0.198977
O O5 0.250000 0.087162 0.950216
O O6 0.503492 0.250000 0.950371
O O7 0.500290 0.000435 0.900491
O O8 0.500000 0.000000 0.000000
O O9 0.750000 0.082307 0.349372
O O10 0.999840 0.250000 0.349298
O O11 0.000456 0.999967 0.399859
O O12 0.750000 0.915209 0.449263
O O13 0.498283 0.750000 0.450514
O O14 0.500000 0.000000 0.500000
O O15 0.250000 0.413418 0.149356
O O16 0.503425 0.250000 0.148781
#
# Coordination Sequence:
#
# PCOD9450284 Si02
#       5
#     8   8   8   8   8
#     4  10  20  35  57  84 111 141 181 227 274 327
#     4  11  24  41  62  89 118 149 188 231 275 326
#     4   9  17  31  53  79 107 141 180 223 273 328
#     4  10  20  34  53  78 108 142 181 226 275 328
#     4  11  24  40  58  83 115 150 188 229 274 326
#
# _framework density 19.760359999999999
#
# number of rings (size 3 to 8) (size 9 to 14) (size 15 to 20)
#    0.000    1.800    0.000    4.200    0.000   12.800 
#    0.000    1.000    0.000    6.000    0.000    0.000 
#    0.000    0.000    0.000    0.000    0.000    0.000 
#
# Total GULP energy -223606.540509 kJ/mol
# GULP energy per Si atom -5590.163513 kJ/mol
# Density = 1.971538 g / cm^3
# Si number density = 19.760360 Si / 1000 Ang^3
#
#
#
# Elastic Constant Matrix: (Units=GPa)
#
#
# Indices 1 2 3 4 5 6 
#
# 1 15.3365 24.8140 18.7773 0.0000 0.0000 0.0000
# 2 24.8140 254.1825 154.2853 0.0000 0.0000 0.0000
# 3 18.7773 154.2853 247.3248 0.0000 0.0000 0.0000
# 4 0.0000 0.0000 0.0000 46.4522 0.0000 0.0000
# 5 0.0000 0.0000 0.0000 0.0000 32.5342 0.0000
# 6 0.0000 0.0000 0.0000 0.0000 0.0000 24.6276
#
#
#
# Elastic Compliance Matrix: (Units=1/GPa)
#
#
# Indices 1 2 3 4 5 6 
#
# 1 0.077977 -0.006468 -0.001885 0.000000 0.000000 0.000000
# 2 -0.006468 0.006868 -0.003793 0.000000 0.000000 0.000000
# 3 -0.001885 -0.003793 0.006553 0.000000 0.000000 0.000000
# 4 0.000000 0.000000 0.000000 0.021528 0.000000 0.000000
# 5 0.000000 0.000000 0.000000 0.000000 0.030737 0.000000
# 6 0.000000 0.000000 0.000000 0.000000 0.000000 0.040605
#
#
# Mechanical properties :
#
#
# Convention : Reuss Voigt Hill
#
# Bulk Modulus (GPa) = 14.90211 101.39966 58.15089
# Shear Modulus (GPa) = 21.65170 41.98730 31.81950
#
# Velocity S-wave (km/s) = 3.31375 4.61458 4.01717
# Velocity P-wave (km/s) = 4.71158 8.93412 7.14204
#
# Compressibility (1/GPa) = 0.06710461
#
# Stress axis : x y z
#
# Youngs Moduli (GPa) = 12.82429 145.59963 152.60685
#
# Poissons Ratio (x) = 0.94174 0.28771
# Poissons Ratio (y) = 0.08295 0.57890
# Poissons Ratio (z) = 0.02418 0.55232
#
# Static dielectric constant tensor:
#      x y z
#    x 1.699960 0.000000 0.000000 
#    y 0.000000 1.683580 0.000000 
#    z 0.000000 0.000000 1.665830 
# 
# From -- ./inp_files/31135.got.cif
#   From: 2010.05.17/outbox.cif.g08.bks.cpg/sg59_16_cif.got.tgz:31135.got - 2010.06.03 14:40:33.
