data_PCOD9450674
_publ_section_title
;
Structure prediction by ZEFSAII (Michael W. Deem and Ramdas Pophale) SiO2 
 PCOD9450674
Probable space group: P M M N
;
_chemical_formula_sum "Si O2"
_cell_formula_units_Z 64
_cell_length_a 13.964585
_cell_length_b 24.557715
_cell_length_c 10.067967
_cell_angle_alpha 90.000000
_cell_angle_beta 90.000000
_cell_angle_gamma 90.000000
_cell_volume 3452.691473
_symmetry_space_group_name_H-M "P M M N"
_symmetry_group_IT_number 59
_space_group.IT_coordinate_system_code '2'
_symmetry_cell_setting 'orthorhombic'
loop_
_space_group_symop_operation_xyz
x,y,z
1/2-x,1/2-y,z
1/2+x,-y,-z
-x,1/2+y,-z
-x,-y,-z
1/2+x,1/2+y,-z
1/2-x,y,z
x,1/2-y,z
loop_
_atom_site_type_symbol
_atom_site_label
_atom_site_fract_x
_atom_site_fract_y
_atom_site_fract_z
Si Si1 0.361227 0.362723 0.845117
Si Si2 0.363535 0.684843 0.515488
Si Si3 0.510784 0.499474 0.657482
Si Si4 0.943388 0.120046 0.728156
Si Si5 0.638107 0.517043 0.113577
Si Si6 0.857010 0.812795 0.884255
Si Si7 0.015427 0.880217 0.736190
Si Si8 0.135759 0.907550 0.994411
O O1 0.250000 0.360597 0.799051
O O2 0.443499 0.364138 0.734131
O O3 0.374970 0.420282 0.923540
O O4 0.377476 0.318301 0.958227
O O5 0.250000 0.677483 0.543007
O O6 0.383470 0.750000 0.521566
O O7 0.388322 0.659411 0.371571
O O8 0.428592 0.649886 0.617235
O O9 0.500000 0.500000 0.500000
O O10 0.569308 0.443947 0.688898
O O11 0.416229 0.490610 0.747752
O O12 0.533029 0.561936 0.696667
O O13 0.907522 0.122779 0.879589
O O14 0.750000 0.507996 0.136969
O O15 0.608600 0.472262 0.005275
O O16 0.750000 0.835724 0.866490
O O17 0.856729 0.750000 0.847918
O O18 0.933280 0.843157 0.796433
O O19 0.091704 0.888798 0.855201
O O20 0.250000 0.901957 0.997140
#
# Coordination Sequence:
#
# PCOD9450674 Si02
#       8
#     8   8   8   8   8   8   8   8
#     4   9  18  34  57  84 116 153 190 231 290 356
#     4  11  25  44  63  84 118 164 204 242 298 359
#     4  10  20  35  56  84 118 153 190 233 295 358
#     4  11  21  38  60  89 124 154 191 252 299 350
#     4   8  17  31  52  79 114 151 186 227 283 349
#     4  10  21  37  58  86 117 150 194 246 296 346
#     4  11  21  40  64  85 118 158 199 246 295 358
#     4  10  20  34  57  91 121 151 194 244 296 350
#
# _framework density 18.536263999999999
#
# number of rings (size 3 to 8) (size 9 to 14) (size 15 to 20)
#    0.000    2.000    2.500    1.125    1.750    2.500 
#    0.000    1.875    0.000    3.000    0.000    0.000 
#    0.000    0.000    0.000    0.000    0.000    0.000 
#
# Total GULP energy -356533.883667 kJ/mol
# GULP energy per Si atom -5570.841932 kJ/mol
# Density = 1.849407 g / cm^3
# Si number density = 18.536264 Si / 1000 Ang^3
#
#
#
# Elastic Constant Matrix: (Units=GPa)
#
#
# Indices 1 2 3 4 5 6 
#
# 1 61.1148 29.7022 2.5742 0.0000 0.0000 0.0000
# 2 29.7022 80.6115 17.7172 0.0000 0.0000 0.0000
# 3 2.5742 17.7172 65.3078 0.0000 0.0000 0.0000
# 4 0.0000 0.0000 0.0000 21.7388 0.0000 0.0000
# 5 0.0000 0.0000 0.0000 0.0000 22.0815 0.0000
# 6 0.0000 0.0000 0.0000 0.0000 0.0000 25.4551
#
#
#
# Elastic Compliance Matrix: (Units=1/GPa)
#
#
# Indices 1 2 3 4 5 6 
#
# 1 0.020034 -0.007665 0.001290 0.000000 0.000000 0.000000
# 2 -0.007665 0.016124 -0.004072 0.000000 0.000000 0.000000
# 3 0.001290 -0.004072 0.016366 0.000000 0.000000 0.000000
# 4 0.000000 0.000000 0.000000 0.046001 0.000000 0.000000
# 5 0.000000 0.000000 0.000000 0.000000 0.045287 0.000000
# 6 0.000000 0.000000 0.000000 0.000000 0.000000 0.039285
#
#
# Mechanical properties :
#
#
# Convention : Reuss Voigt Hill
#
# Bulk Modulus (GPa) = 31.61651 34.11347 32.86499
# Shear Modulus (GPa) = 23.30627 24.32445 23.81536
#
# Velocity S-wave (km/s) = 3.54974 3.62645 3.58830
# Velocity P-wave (km/s) = 5.82189 5.99820 5.91070
#
# Compressibility (1/GPa) = 0.03162904
#
# Stress axis : x y z
#
# Youngs Moduli (GPa) = 49.91618 62.01753 61.10224
#
# Poissons Ratio (x) = 0.47537 -0.07881
# Poissons Ratio (y) = 0.38261 0.24882
# Poissons Ratio (z) = -0.06438 0.25255
#
# Static dielectric constant tensor:
#      x y z
#    x 1.651110 0.000000 0.000000 
#    y 0.000000 1.589670 0.000000 
#    z 0.000000 0.000000 1.613050 
# 
# From -- ./inp_files/9614.got.cif
#   From: 2010.05.17/outbox.cif.g08.bks.cpg/sg59_5_cif.got.tgz:9614.got - 2010.06.03 14:40:33.
