data_PCOD9450770
_publ_section_title
;
Structure prediction by ZEFSAII (Michael W. Deem and Ramdas Pophale) SiO2 
 PCOD9450770
Probable space group: P M M N
;
_chemical_formula_sum "Si O2"
_cell_formula_units_Z 48
_cell_length_a 8.189169
_cell_length_b 16.040348
_cell_length_c 18.104833
_cell_angle_alpha 90.000000
_cell_angle_beta 90.000000
_cell_angle_gamma 90.000000
_cell_volume 2378.198732
_symmetry_space_group_name_H-M "P M M N"
_symmetry_group_IT_number 59
_space_group.IT_coordinate_system_code '2'
_symmetry_cell_setting 'orthorhombic'
loop_
_space_group_symop_operation_xyz
x,y,z
1/2-x,1/2-y,z
1/2+x,-y,-z
-x,1/2+y,-z
-x,-y,-z
1/2+x,1/2+y,-z
1/2-x,y,z
x,1/2-y,z
loop_
_atom_site_type_symbol
_atom_site_label
_atom_site_fract_x
_atom_site_fract_y
_atom_site_fract_z
Si Si1 0.445815 0.390909 0.656146
Si Si2 0.444236 0.750000 0.232016
Si Si3 0.444418 0.588426 0.969561
Si Si4 0.447420 0.083021 0.335899
Si Si5 0.450294 0.750000 0.062119
Si Si6 0.947168 0.903169 0.504436
Si Si7 0.552879 0.656413 0.818120
O O1 0.250000 0.390186 0.656014
O O2 0.503648 0.330277 0.720516
O O3 0.504227 0.485822 0.666557
O O4 0.502516 0.363741 0.573223
O O5 0.250000 0.750000 0.227513
O O6 0.505945 0.750000 0.147507
O O7 0.250000 0.591794 0.971802
O O8 0.500397 0.599180 0.885466
O O9 0.500000 0.500000 0.000000
O O10 0.505121 0.667030 0.018442
O O11 0.250000 0.087179 0.335953
O O12 0.504114 0.123130 0.413842
O O13 0.507160 0.126975 0.261823
O O14 0.250000 0.750000 0.062179
O O15 0.750000 0.898163 0.504666
O O16 0.000000 0.000000 0.500000
O O17 0.750000 0.657066 0.815654
O O18 0.494822 0.750000 0.833835
#
# Coordination Sequence:
#
# PCOD9450770 Si02
#       7
#     8   4   8   8   4   8   8
#     4  10  20  35  54  83 115 146 188 241 287 327
#     4  11  23  39  57  78 109 152 190 229 281 339
#     4  11  23  42  65  90 116 151 192 237 296 354
#     4   9  18  34  57  83 111 152 194 228 274 340
#     4   9  22  43  63  82 113 150 190 235 283 347
#     4   8  15  30  52  77 107 145 185 228 276 325
#     4  10  21  38  59  87 119 149 189 236 280 336
#
# _framework density 20.183343000000001
#
# number of rings (size 3 to 8) (size 9 to 14) (size 15 to 20)
#    0.000    2.333    0.833    1.250    2.333    1.333 
#    1.500    2.500    0.000    0.000    0.000    0.000 
#    0.000    0.000    0.000    0.000    0.000    0.000 
#
# Total GULP energy -267763.006941 kJ/mol
# GULP energy per Si atom -5578.395978 kJ/mol
# Density = 2.013740 g / cm^3
# Si number density = 20.183343 Si / 1000 Ang^3
#
#
#
# Elastic Constant Matrix: (Units=GPa)
#
#
# Indices 1 2 3 4 5 6 
#
# 1 11.8042 3.1120 15.6672 0.0000 0.0000 0.0000
# 2 3.1120 67.2015 42.9078 0.0000 0.0000 0.0000
# 3 15.6672 42.9078 173.4717 0.0000 0.0000 0.0000
# 4 0.0000 0.0000 0.0000 33.6478 0.0000 0.0000
# 5 0.0000 0.0000 0.0000 0.0000 25.1445 0.0000
# 6 0.0000 0.0000 0.0000 0.0000 0.0000 12.8178
#
#
#
# Elastic Compliance Matrix: (Units=1/GPa)
#
#
# Indices 1 2 3 4 5 6 
#
# 1 0.096349 0.001300 -0.009023 0.000000 0.000000 0.000000
# 2 0.001300 0.017689 -0.004493 0.000000 0.000000 0.000000
# 3 -0.009023 -0.004493 0.007691 0.000000 0.000000 0.000000
# 4 0.000000 0.000000 0.000000 0.029720 0.000000 0.000000
# 5 0.000000 0.000000 0.000000 0.000000 0.039770 0.000000
# 6 0.000000 0.000000 0.000000 0.000000 0.000000 0.078017
#
#
# Mechanical properties :
#
#
# Convention : Reuss Voigt Hill
#
# Bulk Modulus (GPa) = 10.27788 41.76125 26.01956
# Shear Modulus (GPa) = 15.33270 27.04139 21.18704
#
# Velocity S-wave (km/s) = 2.75920 3.66428 3.24347
# Velocity P-wave (km/s) = 3.90567 6.21599 5.19099
#
# Compressibility (1/GPa) = 0.09729635
#
# Stress axis : x y z
#
# Youngs Moduli (GPa) = 10.37889 56.53231 130.02502
#
# Poissons Ratio (x) = -0.07347 1.17325
# Poissons Ratio (y) = -0.01349 0.58416
# Poissons Ratio (z) = 0.09365 0.25398
#
# Static dielectric constant tensor:
#      x y z
#    x 1.728220 0.000000 0.000000 
#    y 0.000000 1.687920 0.000000 
#    z 0.000000 0.000000 1.745510 
# 
# From -- ./inp_files/25555.got.cif
#   From: 2010.05.17/outbox.cif.g08.bks.cpg/sg59_13_cif.got.tgz:25555.got - 2010.06.03 14:40:33.
