data_PCOD9450443
_publ_section_title
;
Structure prediction by ZEFSAII (Michael W. Deem and Ramdas Pophale) SiO2 
 PCOD9450443
Probable space group: P M M N
;
_chemical_formula_sum "Si O2"
_cell_formula_units_Z 48
_cell_length_a 7.507305
_cell_length_b 9.694327
_cell_length_c 29.672338
_cell_angle_alpha 90.000000
_cell_angle_beta 90.000000
_cell_angle_gamma 90.000000
_cell_volume 2159.501413
_symmetry_space_group_name_H-M "P M M N"
_symmetry_group_IT_number 59
_space_group.IT_coordinate_system_code '2'
_symmetry_cell_setting 'orthorhombic'
loop_
_space_group_symop_operation_xyz
x,y,z
1/2-x,1/2-y,z
1/2+x,-y,-z
-x,1/2+y,-z
-x,-y,-z
1/2+x,1/2+y,-z
1/2-x,y,z
x,1/2-y,z
loop_
_atom_site_type_symbol
_atom_site_label
_atom_site_fract_x
_atom_site_fract_y
_atom_site_fract_z
Si Si1 0.031793 0.590289 0.129440
Si Si2 0.463685 0.250000 0.428612
Si Si3 0.032533 0.250000 0.531453
Si Si4 0.463294 0.408804 0.044132
Si Si5 0.042637 0.455838 0.606337
Si Si6 0.465125 0.098809 0.706436
Si Si7 0.960468 0.905643 0.787749
O O1 0.250000 0.593524 0.129233
O O2 0.973986 0.750000 0.126921
O O3 0.973554 0.496753 0.087186
O O4 0.970496 0.511607 0.174549
O O5 0.250000 0.250000 0.429424
O O6 0.530821 0.250000 0.480256
O O7 0.526311 0.384099 0.402678
O O8 0.250000 0.250000 0.528230
O O9 0.971912 0.378557 0.562025
O O10 0.250000 0.398806 0.048515
O O11 0.530572 0.250000 0.041703
O O12 0.500000 0.500000 0.000000
O O13 0.250000 0.415894 0.608386
O O14 0.967778 0.417743 0.655153
O O15 0.250000 0.097301 0.705145
O O16 0.521996 0.250000 0.723686
O O17 0.518859 0.976247 0.739242
O O18 0.750000 0.894325 0.796632
O O19 0.034139 0.750000 0.789858
#
# Coordination Sequence:
#
# PCOD9450443 Si02
#       7
#     8   4   4   8   8   8   8
#     4   9  17  32  55  80 108 146 188 225 269 329
#     4  11  23  35  53  85 117 139 171 225 274 313
#     4   9  18  37  61  81 105 141 185 225 262 315
#     4  10  20  34  54  81 113 149 190 235 280 328
#     4  10  20  38  60  79 104 145 185 217 263 327
#     4  10  21  38  59  80 103 138 184 226 265 318
#     4  10  21  36  56  83 113 143 175 219 274 328
#
# _framework density 22.227353999999998
#
# number of rings (size 3 to 8) (size 9 to 14) (size 15 to 20)
#    0.000    2.167    0.833    2.250    1.167    5.000 
#    0.000    2.083    0.000    5.000    0.000    0.000 
#    0.000    0.000    0.000    0.000    0.000    0.000 
#
# Total GULP energy -268127.371600 kJ/mol
# GULP energy per Si atom -5585.986908 kJ/mol
# Density = 2.217676 g / cm^3
# Si number density = 22.227354 Si / 1000 Ang^3
#
#
#
# Elastic Constant Matrix: (Units=GPa)
#
#
# Indices 1 2 3 4 5 6 
#
# 1 59.2545 2.7867 0.4676 0.0000 0.0000 0.0000
# 2 2.7867 218.1530 70.8565 0.0000 0.0000 0.0000
# 3 0.4676 70.8565 124.0379 0.0000 0.0000 0.0000
# 4 0.0000 0.0000 0.0000 37.1818 0.0000 0.0000
# 5 0.0000 0.0000 0.0000 0.0000 19.6703 0.0000
# 6 0.0000 0.0000 0.0000 0.0000 0.0000 125.2972
#
#
#
# Elastic Compliance Matrix: (Units=1/GPa)
#
#
# Indices 1 2 3 4 5 6 
#
# 1 0.016887 -0.000239 0.000073 0.000000 0.000000 0.000000
# 2 -0.000239 0.005632 -0.003216 0.000000 0.000000 0.000000
# 3 0.000073 -0.003216 0.009899 0.000000 0.000000 0.000000
# 4 0.000000 0.000000 0.000000 0.026895 0.000000 0.000000
# 5 0.000000 0.000000 0.000000 0.000000 0.050838 0.000000
# 6 0.000000 0.000000 0.000000 0.000000 0.000000 0.007981
#
#
# Mechanical properties :
#
#
# Convention : Reuss Voigt Hill
#
# Bulk Modulus (GPa) = 38.98226 61.07411 50.02819
# Shear Modulus (GPa) = 37.46795 58.25218 47.86007
#
# Velocity S-wave (km/s) = 4.11014 5.12487 4.64530
# Velocity P-wave (km/s) = 6.33249 7.90922 7.16436
#
# Compressibility (1/GPa) = 0.02565269
#
# Stress axis : x y z
#
# Youngs Moduli (GPa) = 59.21700 177.56926 101.02041
#
# Poissons Ratio (x) = 0.04252 -0.00739
# Poissons Ratio (y) = 0.01418 0.32490
# Poissons Ratio (z) = -0.00433 0.57109
#
# Static dielectric constant tensor:
#      x y z
#    x 1.869570 0.000000 0.000000 
#    y 0.000000 1.810340 0.000000 
#    z 0.000000 0.000000 1.786540 
# 
# From -- ./inp_files/32984.got.cif
#   From: 2010.05.17/outbox.cif.g08.bks.cpg/sg59_17_cif.got.tgz:32984.got - 2010.06.03 14:40:33.
