data_PCOD9450471
_publ_section_title
;
Structure prediction by ZEFSAII (Michael W. Deem and Ramdas Pophale) SiO2 
 PCOD9450471
Probable space group: P M M N
;
_chemical_formula_sum "Si O2"
_cell_formula_units_Z 48
_cell_length_a 18.291661
_cell_length_b 8.501756
_cell_length_c 16.498729
_cell_angle_alpha 90.000000
_cell_angle_beta 90.000000
_cell_angle_gamma 90.000000
_cell_volume 2565.737783
_symmetry_space_group_name_H-M "P M M N"
_symmetry_group_IT_number 59
_space_group.IT_coordinate_system_code '2'
_symmetry_cell_setting 'orthorhombic'
loop_
_space_group_symop_operation_xyz
x,y,z
1/2-x,1/2-y,z
1/2+x,-y,-z
-x,1/2+y,-z
-x,-y,-z
1/2+x,1/2+y,-z
1/2-x,y,z
x,1/2-y,z
loop_
_atom_site_type_symbol
_atom_site_label
_atom_site_fract_x
_atom_site_fract_y
_atom_site_fract_z
Si Si1 0.106009 0.439715 0.477624
Si Si2 0.250000 0.440135 0.384498
Si Si3 0.750000 0.060830 0.797426
Si Si4 0.835449 0.938936 0.069567
Si Si5 0.459137 0.939280 0.814792
Si Si6 0.033167 0.560762 0.628270
Si Si7 0.392792 0.939271 0.101914
O O1 0.103876 0.250000 0.481239
O O2 0.179397 0.490756 0.434147
O O3 0.096423 0.503802 0.568064
O O4 0.039827 0.492910 0.419090
O O5 0.250000 0.250000 0.379853
O O6 0.250000 0.504114 0.294163
O O7 0.750000 0.250000 0.799921
O O8 0.823970 0.007994 0.842693
O O9 0.750000 0.989754 0.073027
O O10 0.836515 0.750000 0.068056
O O11 0.885566 0.998808 0.143050
O O12 0.873559 0.002397 0.987952
O O13 0.458777 0.750000 0.816475
O O14 0.463683 0.993211 0.720974
O O15 0.530861 0.997027 0.863301
O O16 0.032599 0.750000 0.629807
O O17 0.395960 0.750000 0.101839
#
# Coordination Sequence:
#
# PCOD9450471 Si02
#       7
#     8   4   4   8   8   8   8
#     4   9  18  34  56  80 111 146 184 230 282 336
#     4  10  20  34  54  83 114 147 184 231 286 343
#     4  10  22  36  56  87 120 153 188 237 292 343
#     4  11  24  42  62  85 115 154 197 241 292 345
#     4  11  23  39  61  88 117 153 197 241 288 346
#     4   9  19  36  56  80 109 147 189 230 278 335
#     4  11  22  39  61  87 120 153 192 239 291 346
#
# _framework density 18.708069999999999
#
# number of rings (size 3 to 8) (size 9 to 14) (size 15 to 20)
#    0.000    1.833    0.833    3.000    0.000    5.667 
#    1.500    3.333    0.000    0.000    0.000    0.000 
#    0.000    0.000    0.000    0.000    0.000    0.000 
#
# Total GULP energy -268045.135132 kJ/mol
# GULP energy per Si atom -5584.273649 kJ/mol
# Density = 1.866549 g / cm^3
# Si number density = 18.708070 Si / 1000 Ang^3
#
#
#
# Elastic Constant Matrix: (Units=GPa)
#
#
# Indices 1 2 3 4 5 6 
#
# 1 82.2941 17.4265 87.4587 0.0000 0.0000 0.0000
# 2 17.4265 25.8635 27.2038 0.0000 0.0000 0.0000
# 3 87.4587 27.2038 165.8073 0.0000 0.0000 0.0000
# 4 0.0000 0.0000 0.0000 32.1456 0.0000 0.0000
# 5 0.0000 0.0000 0.0000 0.0000 30.0715 0.0000
# 6 0.0000 0.0000 0.0000 0.0000 0.0000 134.3350
#
#
#
# Elastic Compliance Matrix: (Units=1/GPa)
#
#
# Indices 1 2 3 4 5 6 
#
# 1 0.027996 -0.004026 -0.014107 0.000000 0.000000 0.000000
# 2 -0.004026 0.047307 -0.005638 0.000000 0.000000 0.000000
# 3 -0.014107 -0.005638 0.014397 0.000000 0.000000 0.000000
# 4 0.000000 0.000000 0.000000 0.031108 0.000000 0.000000
# 5 0.000000 0.000000 0.000000 0.000000 0.033254 0.000000
# 6 0.000000 0.000000 0.000000 0.000000 0.000000 0.007444
#
#
# Mechanical properties :
#
#
# Convention : Reuss Voigt Hill
#
# Bulk Modulus (GPa) = 23.71960 59.79368 41.75664
# Shear Modulus (GPa) = 22.41139 48.76881 35.59010
#
# Velocity S-wave (km/s) = 3.46490 5.11125 4.36637
# Velocity P-wave (km/s) = 5.35852 8.17704 6.91295
#
# Compressibility (1/GPa) = 0.04215922
#
# Stress axis : x y z
#
# Youngs Moduli (GPa) = 35.71951 21.13837 69.45903
#
# Poissons Ratio (x) = 0.08510 0.97983
# Poissons Ratio (y) = 0.14380 0.39163
# Poissons Ratio (z) = 0.50388 0.11918
#
# Static dielectric constant tensor:
#      x y z
#    x 1.643460 0.000000 0.000000 
#    y 0.000000 1.638750 0.000000 
#    z 0.000000 0.000000 1.620870 
# 
# From -- ./inp_files/20548.got.cif
#   From: 2010.05.17/outbox.cif.g08.bks.cpg/sg59_11_cif.got.tgz:20548.got - 2010.06.03 14:40:33.
