data_PCOD9450482
_publ_section_title
;
Structure prediction by ZEFSAII (Michael W. Deem and Ramdas Pophale) SiO2 
 PCOD9450482
Probable space group: P M M N
;
_chemical_formula_sum "Si O2"
_cell_formula_units_Z 64
_cell_length_a 8.601804
_cell_length_b 15.148400
_cell_length_c 26.879138
_cell_angle_alpha 90.000000
_cell_angle_beta 90.000000
_cell_angle_gamma 90.000000
_cell_volume 3502.447578
_symmetry_space_group_name_H-M "P M M N"
_symmetry_group_IT_number 59
_space_group.IT_coordinate_system_code '2'
_symmetry_cell_setting 'orthorhombic'
loop_
_space_group_symop_operation_xyz
x,y,z
1/2-x,1/2-y,z
1/2+x,-y,-z
-x,1/2+y,-z
-x,-y,-z
1/2+x,1/2+y,-z
1/2-x,y,z
x,1/2-y,z
loop_
_atom_site_type_symbol
_atom_site_label
_atom_site_fract_x
_atom_site_fract_y
_atom_site_fract_z
Si Si1 0.435415 0.901620 0.998751
Si Si2 0.438027 0.146786 0.368099
Si Si3 0.936065 0.494532 0.708374
Si Si4 0.561370 0.505183 0.180405
Si Si5 0.070172 0.150011 0.897194
Si Si6 0.937772 0.647288 0.367423
Si Si7 0.560775 0.154175 0.110267
Si Si8 0.936665 0.004659 0.444376
O O1 0.250000 0.902335 0.997319
O O2 0.490860 0.860138 0.946687
O O3 0.487334 0.857133 0.049846
O O4 0.500000 0.000000 0.000000
O O5 0.250000 0.147573 0.370083
O O6 0.488760 0.250000 0.365906
O O7 0.499823 0.090682 0.415153
O O8 0.484594 0.084154 0.321300
O O9 0.750000 0.490774 0.706724
O O10 0.993898 0.495474 0.764700
O O11 0.001883 0.408790 0.679645
O O12 0.750000 0.506729 0.184068
O O13 0.510060 0.587022 0.146082
O O14 0.511561 0.420806 0.148115
O O15 0.250000 0.123896 0.906564
O O16 0.065602 0.250000 0.879688
O O17 0.750000 0.648759 0.365682
O O18 0.990088 0.750000 0.369707
O O19 0.983365 0.584304 0.413950
O O20 0.750000 0.151640 0.109179
O O21 0.510615 0.250000 0.127630
O O22 0.750000 0.008532 0.444562
O O23 0.000000 0.000000 0.500000
#
# Coordination Sequence:
#
# PCOD9450482 Si02
#       8
#     8   8   8   8   8   8   8   8
#     4  11  20  34  56  79 106 138 174 214 264 320
#     4   9  19  37  58  78 107 149 189 226 275 328
#     4  10  21  36  55  81 109 137 176 229 279 322
#     4  10  20  36  54  75 105 141 177 215 265 324
#     4  10  21  37  55  77 105 138 177 218 263 319
#     4   9  19  37  59  80 105 144 189 225 265 321
#     4   9  18  33  53  76 102 133 171 213 258 313
#     4  10  20  34  54  84 119 151 186 228 270 318
#
# _framework density 18.272936000000001
#
# number of rings (size 3 to 8) (size 9 to 14) (size 15 to 20)
#    0.000    2.250    1.250    1.500    0.000    4.250 
#    0.000    2.500    0.000    1.500    0.000    0.000 
#    0.000    0.000    0.000    0.000    0.000    0.000 
#
# Total GULP energy -356899.026913 kJ/mol
# GULP energy per Si atom -5576.547296 kJ/mol
# Density = 1.823135 g / cm^3
# Si number density = 18.272936 Si / 1000 Ang^3
#
#
#
# Elastic Constant Matrix: (Units=GPa)
#
#
# Indices 1 2 3 4 5 6 
#
# 1 16.8141 29.6465 27.0256 0.0000 0.0000 0.0000
# 2 29.6465 161.5867 88.6714 0.0000 0.0000 0.0000
# 3 27.0256 88.6714 172.5506 0.0000 0.0000 0.0000
# 4 0.0000 0.0000 0.0000 36.3748 0.0000 0.0000
# 5 0.0000 0.0000 0.0000 0.0000 31.1649 0.0000
# 6 0.0000 0.0000 0.0000 0.0000 0.0000 16.0651
#
#
#
# Elastic Compliance Matrix: (Units=1/GPa)
#
#
# Indices 1 2 3 4 5 6 
#
# 1 0.095777 -0.013009 -0.008316 0.000000 0.000000 0.000000
# 2 -0.013009 0.010386 -0.003300 0.000000 0.000000 0.000000
# 3 -0.008316 -0.003300 0.008794 0.000000 0.000000 0.000000
# 4 0.000000 0.000000 0.000000 0.027492 0.000000 0.000000
# 5 0.000000 0.000000 0.000000 0.000000 0.032087 0.000000
# 6 0.000000 0.000000 0.000000 0.000000 0.000000 0.062247
#
#
# Mechanical properties :
#
#
# Convention : Reuss Voigt Hill
#
# Bulk Modulus (GPa) = 15.21891 71.29315 43.25603
# Shear Modulus (GPa) = 16.23721 30.42816 23.33269
#
# Velocity S-wave (km/s) = 2.98416 4.08512 3.57725
# Velocity P-wave (km/s) = 4.49671 7.83271 6.38638
#
# Compressibility (1/GPa) = 0.06570775
#
# Stress axis : x y z
#
# Youngs Moduli (GPa) = 10.44088 96.28191 113.71920
#
# Poissons Ratio (x) = 1.25253 0.94568
# Poissons Ratio (y) = 0.13583 0.37525
# Poissons Ratio (z) = 0.08683 0.31771
#
# Static dielectric constant tensor:
#      x y z
#    x 1.634360 0.000000 0.000000 
#    y 0.000000 1.633980 0.000000 
#    z 0.000000 0.000000 1.606850 
# 
# From -- ./inp_files/31424.got.cif
#   From: 2010.05.17/outbox.cif.g08.bks.cpg/sg59_16_cif.got.tgz:31424.got - 2010.06.03 14:40:33.
