data_PCOD9450752
_publ_section_title
;
Structure prediction by ZEFSAII (Michael W. Deem and Ramdas Pophale) SiO2 
 PCOD9450752
Probable space group: P M M N
;
_chemical_formula_sum "Si O2"
_cell_formula_units_Z 64
_cell_length_a 7.417348
_cell_length_b 29.873236
_cell_length_c 12.579279
_cell_angle_alpha 90.000000
_cell_angle_beta 90.000000
_cell_angle_gamma 90.000000
_cell_volume 2787.318997
_symmetry_space_group_name_H-M "P M M N"
_symmetry_group_IT_number 59
_space_group.IT_coordinate_system_code '2'
_symmetry_cell_setting 'orthorhombic'
loop_
_space_group_symop_operation_xyz
x,y,z
1/2-x,1/2-y,z
1/2+x,-y,-z
-x,1/2+y,-z
-x,-y,-z
1/2+x,1/2+y,-z
1/2-x,y,z
x,1/2-y,z
loop_
_atom_site_type_symbol
_atom_site_label
_atom_site_fract_x
_atom_site_fract_y
_atom_site_fract_z
Si Si1 0.471491 0.301542 0.356770
Si Si2 0.043749 0.700100 0.113268
Si Si3 0.965055 0.451167 0.049492
Si Si4 0.042838 0.384017 0.475858
Si Si5 0.459427 0.452151 0.646151
Si Si6 0.530016 0.049416 0.292013
Si Si7 0.969661 0.104916 0.852044
Si Si8 0.954386 0.695983 0.874385
O O1 0.250000 0.302359 0.352943
O O2 0.524748 0.250000 0.372787
O O3 0.533533 0.335395 0.447765
O O4 0.531938 0.318264 0.239296
O O5 0.250000 0.703407 0.149375
O O6 0.962267 0.750000 0.124904
O O7 0.964538 0.655676 0.165891
O O8 0.046969 0.688574 0.986984
O O9 0.750000 0.445655 0.055529
O O10 0.031890 0.447642 0.169905
O O11 0.031694 0.414727 0.965098
O O12 0.000000 0.500000 0.000000
O O13 0.250000 0.376403 0.509547
O O14 0.958383 0.417397 0.562073
O O15 0.037654 0.410884 0.365415
O O16 0.250000 0.457923 0.615578
O O17 0.532650 0.502161 0.657640
O O18 0.470543 0.428678 0.760481
O O19 0.750000 0.049735 0.292615
O O20 0.750000 0.105540 0.851869
O O21 0.750000 0.679159 0.884283
O O22 0.947216 0.750000 0.863757
#
# Coordination Sequence:
#
# PCOD9450752 Si02
#       8
#     8   8   8   8   8   8   8   8
#     4   8  15  30  50  73 103 134 165 209 262 308
#     4   9  18  32  49  72 103 136 169 209 259 309
#     4  10  20  35  54  78 107 138 172 211 261 317
#     4  10  21  35  55  81 103 133 181 221 255 312
#     4  10  21  38  55  75 105 140 178 222 267 307
#     4  10  21  36  54  77 110 142 168 214 272 315
#     4  10  21  35  54  77 103 139 179 214 254 315
#     4   8  14  26  45  68  95 128 163 199 245 301
#
# _framework density 22.961131000000002
#
# number of rings (size 3 to 8) (size 9 to 14) (size 15 to 20)
#    0.000    2.625    1.250    1.125    1.750    2.000 
#    0.000    0.625    0.000    1.125    0.000    0.000 
#    0.000    0.000    0.000    0.000    0.000    0.000 
#
# Total GULP energy -357226.570652 kJ/mol
# GULP energy per Si atom -5581.665166 kJ/mol
# Density = 2.290887 g / cm^3
# Si number density = 22.961131 Si / 1000 Ang^3
#
#
#
# Elastic Constant Matrix: (Units=GPa)
#
#
# Indices 1 2 3 4 5 6 
#
# 1 75.1940 -9.2872 -10.5933 0.0000 0.0000 0.0000
# 2 -9.2872 114.5206 -2.3345 0.0000 0.0000 0.0000
# 3 -10.5933 -2.3345 35.9496 0.0000 0.0000 0.0000
# 4 0.0000 0.0000 0.0000 29.5776 0.0000 0.0000
# 5 0.0000 0.0000 0.0000 0.0000 24.9072 0.0000
# 6 0.0000 0.0000 0.0000 0.0000 0.0000 -8.9240
#
#
#
# Elastic Compliance Matrix: (Units=1/GPa)
#
#
# Indices 1 2 3 4 5 6 
#
# 1 0.014044 0.001225 0.004218 0.000000 0.000000 0.000000
# 2 0.001225 0.008850 0.000936 0.000000 0.000000 0.000000
# 3 0.004218 0.000936 0.029120 0.000000 0.000000 0.000000
# 4 0.000000 0.000000 0.000000 0.033809 0.000000 0.000000
# 5 0.000000 0.000000 0.000000 0.000000 0.040149 0.000000
# 6 0.000000 0.000000 0.000000 0.000000 0.000000 -0.112057
#
#
# Mechanical properties :
#
#
# Convention : Reuss Voigt Hill
#
# Bulk Modulus (GPa) = 15.43860 20.13713 17.78787
# Shear Modulus (GPa) = 219.77798 25.63743 122.70771
#
# Velocity S-wave (km/s) = 9.79414 3.34512 7.31830
# Velocity P-wave (km/s) = 11.60339 4.86918 8.89796
#
# Compressibility (1/GPa) = 0.06477271
#
# Stress axis : x y z
#
# Youngs Moduli (GPa) = 71.20239 112.98843 34.34014
#
# Poissons Ratio (x) = -0.13840 -0.14485
# Poissons Ratio (y) = -0.08722 -0.03213
# Poissons Ratio (z) = -0.30034 -0.10572
#
# Static dielectric constant tensor:
#      x y z
#    x 1.811170 0.000000 0.000000 
#    y 0.000000 1.879790 0.000000 
#    z 0.000000 0.000000 1.839990 
# 
# From -- ./inp_files/15023.got.cif
#   From: 2010.05.17/outbox.cif.g08.bks.cpg/sg59_8_cif.got.tgz:15023.got - 2010.06.03 14:40:33.
