data_PCOD9450411
_publ_section_title
;
Structure prediction by ZEFSAII (Michael W. Deem and Ramdas Pophale) SiO2 
 PCOD9450411
Probable space group: P M M N
;
_chemical_formula_sum "Si O2"
_cell_formula_units_Z 64
_cell_length_a 8.805303
_cell_length_b 15.027588
_cell_length_c 25.036986
_cell_angle_alpha 90.000000
_cell_angle_beta 90.000000
_cell_angle_gamma 90.000000
_cell_volume 3312.955721
_symmetry_space_group_name_H-M "P M M N"
_symmetry_group_IT_number 59
_space_group.IT_coordinate_system_code '2'
_symmetry_cell_setting 'orthorhombic'
loop_
_space_group_symop_operation_xyz
x,y,z
1/2-x,1/2-y,z
1/2+x,-y,-z
-x,1/2+y,-z
-x,-y,-z
1/2+x,1/2+y,-z
1/2-x,y,z
x,1/2-y,z
loop_
_atom_site_type_symbol
_atom_site_label
_atom_site_fract_x
_atom_site_fract_y
_atom_site_fract_z
Si Si1 0.571185 0.152813 0.595386
Si Si2 0.430185 0.022792 0.676293
Si Si3 0.931547 0.649416 0.633137
Si Si4 0.066151 0.540139 0.126258
Si Si5 0.571429 0.408493 0.479191
Si Si6 0.066266 0.352979 0.774708
Si Si7 0.930257 0.352645 0.978433
Si Si8 0.067206 0.349419 0.095312
O O1 0.750000 0.137389 0.606648
O O2 0.526851 0.250000 0.616499
O O3 0.555235 0.152211 0.531612
O O4 0.475560 0.076032 0.622846
O O5 0.250000 0.012843 0.679291
O O6 0.505028 0.926239 0.672207
O O7 0.482587 0.085549 0.724894
O O8 0.750000 0.644351 0.632541
O O9 0.977658 0.750000 0.647383
O O10 0.991493 0.627681 0.573592
O O11 0.250000 0.544343 0.129996
O O12 0.023186 0.581136 0.068617
O O13 0.017601 0.436495 0.128136
O O14 0.995483 0.600504 0.172154
O O15 0.500000 0.500000 0.500000
O O16 0.750000 0.419570 0.467709
O O17 0.250000 0.352776 0.775629
O O18 0.016202 0.250000 0.770043
O O19 0.750000 0.364230 0.988146
O O20 0.953604 0.250000 0.960720
O O21 0.016630 0.364173 0.034076
O O22 0.250000 0.348207 0.097092
O O23 0.012817 0.250000 0.111309
#
# Coordination Sequence:
#
# PCOD9450411 Si02
#       8
#     8   8   8   8   8   8   8   8
#     4  10  21  36  56  83 115 149 185 226 274 332
#     4  11  23  40  62  84 110 145 185 234 287 338
#     4  11  24  41  61  86 117 153 193 235 280 334
#     4  10  20  34  54  80 110 147 188 230 277 329
#     4  11  21  35  57  86 120 156 191 229 277 332
#     4  10  23  42  61  84 112 140 176 226 283 340
#     4   9  17  29  47  75 110 145 185 231 277 329
#     4   9  18  32  50  76 111 149 188 228 271 321
#
# _framework density 19.318097999999999
#
# number of rings (size 3 to 8) (size 9 to 14) (size 15 to 20)
#    0.000    1.875    1.250    2.625    0.000    5.500 
#    0.000    1.875    0.000    2.250    0.000    0.000 
#    0.000    0.000    0.000    0.000    0.000    0.000 
#
# Total GULP energy -357298.608091 kJ/mol
# GULP energy per Si atom -5582.790751 kJ/mol
# Density = 1.927413 g / cm^3
# Si number density = 19.318098 Si / 1000 Ang^3
#
#
#
# Elastic Constant Matrix: (Units=GPa)
#
#
# Indices 1 2 3 4 5 6 
#
# 1 20.3204 42.0612 11.4272 0.0000 0.0000 0.0000
# 2 42.0612 184.0141 54.7864 0.0000 0.0000 0.0000
# 3 11.4272 54.7864 52.5615 0.0000 0.0000 0.0000
# 4 0.0000 0.0000 0.0000 28.0432 0.0000 0.0000
# 5 0.0000 0.0000 0.0000 0.0000 26.4334 0.0000
# 6 0.0000 0.0000 0.0000 0.0000 0.0000 23.8544
#
#
#
# Elastic Compliance Matrix: (Units=1/GPa)
#
#
# Indices 1 2 3 4 5 6 
#
# 1 0.093693 -0.022259 0.002832 0.000000 0.000000 0.000000
# 2 -0.022259 0.013168 -0.008886 0.000000 0.000000 0.000000
# 3 0.002832 -0.008886 0.027672 0.000000 0.000000 0.000000
# 4 0.000000 0.000000 0.000000 0.035659 0.000000 0.000000
# 5 0.000000 0.000000 0.000000 0.000000 0.037831 0.000000
# 6 0.000000 0.000000 0.000000 0.000000 0.000000 0.041921
#
#
# Mechanical properties :
#
#
# Convention : Reuss Voigt Hill
#
# Bulk Modulus (GPa) = 12.83594 52.60507 32.72051
# Shear Modulus (GPa) = 15.03581 25.57429 20.30505
#
# Velocity S-wave (km/s) = 2.79288 3.64242 3.24557
# Velocity P-wave (km/s) = 4.13028 6.70670 5.56951
#
# Compressibility (1/GPa) = 0.07790625
#
# Stress axis : x y z
#
# Youngs Moduli (GPa) = 10.67313 75.94230 36.13786
#
# Poissons Ratio (x) = 1.69041 -0.10233
# Poissons Ratio (y) = 0.23757 0.32112
# Poissons Ratio (z) = -0.03022 0.67482
#
# Static dielectric constant tensor:
#      x y z
#    x 1.650850 0.000000 0.000000 
#    y 0.000000 1.708460 0.000000 
#    z 0.000000 0.000000 1.656090 
# 
# From -- ./inp_files/31504.got.cif
#   From: 2010.05.17/outbox.cif.g08.bks.cpg/sg59_16_cif.got.tgz:31504.got - 2010.06.03 14:40:33.
