data_PCOD9450049
_publ_section_title
;
Structure prediction by ZEFSAII (Michael W. Deem and Ramdas Pophale) SiO2 
 PCOD9450049
Probable space group: P M M N
;
_chemical_formula_sum "Si O2"
_cell_formula_units_Z 48
_cell_length_a 18.793480
_cell_length_b 7.582385
_cell_length_c 16.732520
_cell_angle_alpha 90.000000
_cell_angle_beta 90.000000
_cell_angle_gamma 90.000000
_cell_volume 2384.374075
_symmetry_space_group_name_H-M "P M M N"
_symmetry_group_IT_number 59
_space_group.IT_coordinate_system_code '2'
_symmetry_cell_setting 'orthorhombic'
loop_
_space_group_symop_operation_xyz
x,y,z
1/2-x,1/2-y,z
1/2+x,-y,-z
-x,1/2+y,-z
-x,-y,-z
1/2+x,1/2+y,-z
1/2-x,y,z
x,1/2-y,z
loop_
_atom_site_type_symbol
_atom_site_label
_atom_site_fract_x
_atom_site_fract_y
_atom_site_fract_z
Si Si1 0.416621 0.538833 0.484531
Si Si2 0.331402 0.539766 0.329417
Si Si3 0.091188 0.960694 0.659262
Si Si4 0.674399 0.750000 0.255487
Si Si5 0.035450 0.460281 0.233931
Si Si6 0.670090 0.750000 0.067378
Si Si7 0.051335 0.539045 0.925969
O O1 0.500000 0.500000 0.500000
O O2 0.412020 0.750000 0.479978
O O3 0.373803 0.467912 0.407968
O O4 0.386285 0.483541 0.570659
O O5 0.250000 0.472594 0.322041
O O6 0.325972 0.750000 0.339912
O O7 0.383809 0.513646 0.253513
O O8 0.098288 0.750000 0.666421
O O9 0.010875 0.008099 0.687102
O O10 0.136636 0.071096 0.720210
O O11 0.750000 0.750000 0.296514
O O12 0.679832 0.750000 0.161762
O O13 0.036004 0.250000 0.227711
O O14 0.991778 0.520273 0.155003
O O15 0.750000 0.750000 0.030612
O O16 0.621364 0.576517 0.054708
O O17 0.065605 0.750000 0.919018
O O18 0.000000 0.500000 0.000000
#
# Coordination Sequence:
#
# PCOD9450049 Si02
#       7
#     8   8   8   4   8   4   8
#     4  10  20  33  55  81 112 154 206 264 313 367
#     4  10  22  37  56  84 119 162 209 264 325 377
#     4  10  21  37  58  86 119 160 208 260 311 371
#     4  11  24  38  60  92 121 163 209 250 317 377
#     4  10  21  37  60  90 120 156 208 255 308 381
#     4  11  24  42  66 102 141 171 209 268 331 383
#     4  11  23  42  71 103 130 170 220 266 316 393
#
# _framework density 20.131069
#
# number of rings (size 3 to 8) (size 9 to 14) (size 15 to 20)
#    0.000    1.667    4.167    0.000    3.500    1.667 
#    0.000    4.167    0.000    0.000    0.000    0.000 
#    0.000    0.000    0.000    0.000    0.000    0.000 
#
# Total GULP energy -267311.658957 kJ/mol
# GULP energy per Si atom -5568.992895 kJ/mol
# Density = 2.008525 g / cm^3
# Si number density = 20.131069 Si / 1000 Ang^3
#
#
#
# Elastic Constant Matrix: (Units=GPa)
#
#
# Indices 1 2 3 4 5 6 
#
# 1 161.3151 34.8802 40.5930 0.0000 0.0000 0.0000
# 2 34.8802 59.9776 15.2711 0.0000 0.0000 0.0000
# 3 40.5930 15.2711 71.0865 0.0000 0.0000 0.0000
# 4 0.0000 0.0000 0.0000 286.7505 0.0000 0.0000
# 5 0.0000 0.0000 0.0000 0.0000 20.9108 0.0000
# 6 0.0000 0.0000 0.0000 0.0000 0.0000 22.2182
#
#
#
# Elastic Compliance Matrix: (Units=1/GPa)
#
#
# Indices 1 2 3 4 5 6 
#
# 1 0.007932 -0.003660 -0.003743 0.000000 0.000000 0.000000
# 2 -0.003660 0.019326 -0.002062 0.000000 0.000000 0.000000
# 3 -0.003743 -0.002062 0.016648 0.000000 0.000000 0.000000
# 4 0.000000 0.000000 0.000000 0.003487 0.000000 0.000000
# 5 0.000000 0.000000 0.000000 0.000000 0.047822 0.000000
# 6 0.000000 0.000000 0.000000 0.000000 0.000000 0.045008
#
#
# Mechanical properties :
#
#
# Convention : Reuss Voigt Hill
#
# Bulk Modulus (GPa) = 40.03801 52.65198 46.34499
# Shear Modulus (GPa) = 29.85429 79.41823 54.63626
#
# Velocity S-wave (km/s) = 3.85515 6.28778 5.21528
# Velocity P-wave (km/s) = 6.30460 8.88405 7.70306
#
# Compressibility (1/GPa) = 0.02497627
#
# Stress axis : x y z
#
# Youngs Moduli (GPa) = 126.06488 51.74284 60.06754
#
# Poissons Ratio (x) = 0.18938 0.22486
# Poissons Ratio (y) = 0.46140 0.12384
# Poissons Ratio (z) = 0.47192 0.10668
#
# Static dielectric constant tensor:
#      x y z
#    x 1.815240 0.000000 0.000000 
#    y 0.000000 1.724460 0.000000 
#    z 0.000000 0.000000 1.744800 
# 
# From -- ./inp_files/23726.got.cif
#   From: 2010.05.17/outbox.cif.g08.bks.cpg/sg59_12_cif.got.tgz:23726.got - 2010.06.03 14:40:33.
