data_PCOD9450162
_publ_section_title
;
Structure prediction by ZEFSAII (Michael W. Deem and Ramdas Pophale) SiO2 
 PCOD9450162
Probable space group: P M M N
;
_chemical_formula_sum "Si O2"
_cell_formula_units_Z 56
_cell_length_a 14.742167
_cell_length_b 8.552618
_cell_length_c 23.400091
_cell_angle_alpha 90.000000
_cell_angle_beta 90.000000
_cell_angle_gamma 90.000000
_cell_volume 2950.379948
_symmetry_space_group_name_H-M "P M M N"
_symmetry_group_IT_number 59
_space_group.IT_coordinate_system_code '2'
_symmetry_cell_setting 'orthorhombic'
loop_
_space_group_symop_operation_xyz
x,y,z
1/2-x,1/2-y,z
1/2+x,-y,-z
-x,1/2+y,-z
-x,-y,-z
1/2+x,1/2+y,-z
1/2-x,y,z
x,1/2-y,z
loop_
_atom_site_type_symbol
_atom_site_label
_atom_site_fract_x
_atom_site_fract_y
_atom_site_fract_z
Si Si1 0.456419 0.562238 0.082948
Si Si2 0.644888 0.561027 0.029353
Si Si3 0.355589 0.062649 0.194562
Si Si4 0.347856 0.932376 0.409085
Si Si5 0.149201 0.058993 0.649050
Si Si6 0.035778 0.939454 0.302979
Si Si7 0.905123 0.565272 0.477775
O O1 0.453925 0.750000 0.080931
O O2 0.562299 0.514174 0.072379
O O3 0.412729 0.504247 0.141602
O O4 0.393922 0.496790 0.031538
O O5 0.750000 0.508688 0.039386
O O6 0.647136 0.750000 0.028931
O O7 0.250000 0.009530 0.193428
O O8 0.355254 0.250000 0.191034
O O9 0.406263 0.010384 0.252160
O O10 0.250000 0.942505 0.379791
O O11 0.365672 0.750000 0.422278
O O12 0.421995 0.986673 0.364158
O O13 0.344375 0.021873 0.468343
O O14 0.250000 0.007204 0.664704
O O15 0.149128 0.250000 0.647718
O O16 0.126612 0.005758 0.584099
O O17 0.069465 0.013824 0.692367
O O18 0.041766 0.750000 0.299443
O O19 0.911720 0.750000 0.471918
O O20 0.000000 0.500000 0.500000
#
# Coordination Sequence:
#
# PCOD9450162 Si02
#       7
#     8   8   8   8   8   8   8
#     4  10  20  34  56  86 116 150 192 230 268 320
#     4   9  18  34  56  84 120 156 187 225 272 318
#     4  11  24  40  57  79 109 144 182 226 276 326
#     4  10  20  34  52  77 107 136 170 216 271 327
#     4   9  18  34  56  79 103 135 176 219 265 323
#     4  10  20  37  58  78 103 137 179 224 269 320
#     4  11  20  33  53  77 107 139 175 216 267 327
#
# _framework density 18.980606999999999
#
# number of rings (size 3 to 8) (size 9 to 14) (size 15 to 20)
#    0.000    2.000    1.429    2.571    0.000    5.714 
#    0.000    0.714    0.000    6.429    0.000    0.000 
#    0.000    0.000    0.000    0.000    0.000    0.000 
#
# Total GULP energy -312224.893818 kJ/mol
# GULP energy per Si atom -5575.444532 kJ/mol
# Density = 1.893741 g / cm^3
# Si number density = 18.980607 Si / 1000 Ang^3
#
#
#
# Elastic Constant Matrix: (Units=GPa)
#
#
# Indices 1 2 3 4 5 6 
#
# 1 193.1707 24.9828 64.0639 0.0000 0.0000 0.0000
# 2 24.9828 12.9376 11.1059 0.0000 0.0000 0.0000
# 3 64.0639 11.1059 80.1139 0.0000 0.0000 0.0000
# 4 0.0000 0.0000 0.0000 28.0404 0.0000 0.0000
# 5 0.0000 0.0000 0.0000 0.0000 25.4941 0.0000
# 6 0.0000 0.0000 0.0000 0.0000 0.0000 22.1059
#
#
#
# Elastic Compliance Matrix: (Units=1/GPa)
#
#
# Indices 1 2 3 4 5 6 
#
# 1 0.008390 -0.011852 -0.005066 0.000000 0.000000 0.000000
# 2 -0.011852 0.104477 -0.005006 0.000000 0.000000 0.000000
# 3 -0.005066 -0.005006 0.017227 0.000000 0.000000 0.000000
# 4 0.000000 0.000000 0.000000 0.035663 0.000000 0.000000
# 5 0.000000 0.000000 0.000000 0.000000 0.039225 0.000000
# 6 0.000000 0.000000 0.000000 0.000000 0.000000 0.045237
#
#
# Mechanical properties :
#
#
# Convention : Reuss Voigt Hill
#
# Bulk Modulus (GPa) = 11.59464 54.05862 32.82663
# Shear Modulus (GPa) = 15.48878 27.53274 21.51076
#
# Velocity S-wave (km/s) = 2.85973 3.81277 3.37011
# Velocity P-wave (km/s) = 4.12626 6.92284 5.69876
#
# Compressibility (1/GPa) = 0.08624673
#
# Stress axis : x y z
#
# Youngs Moduli (GPa) = 119.19463 9.57147 58.04795
#
# Poissons Ratio (x) = 0.11344 0.29406
# Poissons Ratio (y) = 1.41268 0.29058
# Poissons Ratio (z) = 0.60382 0.04791
#
# Static dielectric constant tensor:
#      x y z
#    x 1.780780 0.000000 0.000000 
#    y 0.000000 1.654620 0.000000 
#    z 0.000000 0.000000 1.589040 
# 
# From -- ./inp_files/30330.got.cif
#   From: 2010.05.17/outbox.cif.g08.bks.cpg/sg59_16_cif.got.tgz:30330.got - 2010.06.03 14:40:33.
