data_PCOD9450585
_publ_section_title
;
Structure prediction by ZEFSAII (Michael W. Deem and Ramdas Pophale) SiO2 
 PCOD9450585
Probable space group: P M M N
;
_chemical_formula_sum "Si O2"
_cell_formula_units_Z 48
_cell_length_a 28.950597
_cell_length_b 8.638204
_cell_length_c 10.517505
_cell_angle_alpha 90.000000
_cell_angle_beta 90.000000
_cell_angle_gamma 90.000000
_cell_volume 2630.229880
_symmetry_space_group_name_H-M "P M M N"
_symmetry_group_IT_number 59
_space_group.IT_coordinate_system_code '2'
_symmetry_cell_setting 'orthorhombic'
loop_
_space_group_symop_operation_xyz
x,y,z
1/2-x,1/2-y,z
1/2+x,-y,-z
-x,1/2+y,-z
-x,-y,-z
1/2+x,1/2+y,-z
1/2-x,y,z
x,1/2-y,z
loop_
_atom_site_type_symbol
_atom_site_label
_atom_site_fract_x
_atom_site_fract_y
_atom_site_fract_z
Si Si1 0.697344 0.064834 0.647255
Si Si2 0.896128 0.562896 0.240640
Si Si3 0.448285 0.437133 0.013818
Si Si4 0.801957 0.563382 0.362528
Si Si5 0.551377 0.434591 0.485472
Si Si6 0.104339 0.064475 0.270182
O O1 0.750000 0.021479 0.682328
O O2 0.693238 0.250000 0.652184
O O3 0.690311 0.010041 0.501377
O O4 0.657505 0.988394 0.731041
O O5 0.898332 0.750000 0.245071
O O6 0.843093 0.517497 0.268312
O O7 0.926191 0.497300 0.356181
O O8 0.917407 0.512872 0.106564
O O9 0.450287 0.250000 0.013433
O O10 0.424032 0.484725 0.145420
O O11 0.500000 0.500000 0.000000
O O12 0.750000 0.521783 0.320608
O O13 0.803723 0.750000 0.377500
O O14 0.500000 0.500000 0.500000
O O15 0.550365 0.250000 0.482987
O O16 0.581263 0.491908 0.604938
O O17 0.102270 0.250000 0.280176
#
# Coordination Sequence:
#
# PCOD9450585 Si02
#       6
#     8   8   8   8   8   8
#     4  10  20  34  55  85 118 150 189 236 284 335
#     4  10  20  37  58  83 114 146 185 235 286 341
#     4  10  23  40  58  81 112 152 194 236 285 341
#     4   9  17  31  55  84 113 146 182 225 283 343
#     4  12  24  37  56  83 112 145 188 239 289 339
#     4  11  22  38  58  84 116 152 193 235 282 340
#
# _framework density 18.249355999999999
#
# number of rings (size 3 to 8) (size 9 to 14) (size 15 to 20)
#    0.000    1.667    1.667    3.500    0.000    5.667 
#    0.000    0.833    0.000    3.000    0.000    2.333 
#    0.000    0.000    0.000    0.000    0.000    0.000 
#
# Total GULP energy -268118.562315 kJ/mol
# GULP energy per Si atom -5585.803382 kJ/mol
# Density = 1.820782 g / cm^3
# Si number density = 18.249356 Si / 1000 Ang^3
#
#
#
# Elastic Constant Matrix: (Units=GPa)
#
#
# Indices 1 2 3 4 5 6 
#
# 1 115.5273 16.0935 19.1542 0.0000 0.0000 0.0000
# 2 16.0935 21.9641 9.2417 0.0000 0.0000 0.0000
# 3 19.1542 9.2417 65.8236 0.0000 0.0000 0.0000
# 4 0.0000 0.0000 0.0000 4.5857 0.0000 0.0000
# 5 0.0000 0.0000 0.0000 0.0000 33.9540 0.0000
# 6 0.0000 0.0000 0.0000 0.0000 0.0000 31.4734
#
#
#
# Elastic Compliance Matrix: (Units=1/GPa)
#
#
# Indices 1 2 3 4 5 6 
#
# 1 0.009876 -0.006405 -0.001974 0.000000 0.000000 0.000000
# 2 -0.006405 0.052542 -0.005513 0.000000 0.000000 0.000000
# 3 -0.001974 -0.005513 0.016541 0.000000 0.000000 0.000000
# 4 0.000000 0.000000 0.000000 0.218070 0.000000 0.000000
# 5 0.000000 0.000000 0.000000 0.000000 0.029452 0.000000
# 6 0.000000 0.000000 0.000000 0.000000 0.000000 0.031773
#
#
# Mechanical properties :
#
#
# Convention : Reuss Voigt Hill
#
# Bulk Modulus (GPa) = 19.54170 32.47709 26.00940
# Shear Modulus (GPa) = 12.40400 24.59099 18.49749
#
# Velocity S-wave (km/s) = 2.60992 3.67481 3.18716
# Velocity P-wave (km/s) = 4.45126 5.98670 5.27514
#
# Compressibility (1/GPa) = 0.05117262
#
# Stress axis : x y z
#
# Youngs Moduli (GPa) = 101.25965 19.03249 60.45699
#
# Poissons Ratio (x) = 0.12191 0.11937
# Poissons Ratio (y) = 0.64860 0.33330
# Poissons Ratio (z) = 0.19993 0.10493
#
# Static dielectric constant tensor:
#      x y z
#    x 1.642440 0.000000 0.000000 
#    y 0.000000 1.616670 0.000000 
#    z 0.000000 0.000000 1.595800 
# 
# From -- ./inp_files/12933.got.cif
#   From: 2010.05.17/outbox.cif.g08.bks.cpg/sg59_7_cif.got.tgz:12933.got - 2010.06.03 14:40:33.
