data_PCOD9450884
_publ_section_title
;
Structure prediction by ZEFSAII (Michael W. Deem and Ramdas Pophale) SiO2 
 PCOD9450884
Probable space group: P M M N
;
_chemical_formula_sum "Si O2"
_cell_formula_units_Z 64
_cell_length_a 15.100832
_cell_length_b 8.348398
_cell_length_c 24.979730
_cell_angle_alpha 90.000000
_cell_angle_beta 90.000000
_cell_angle_gamma 90.000000
_cell_volume 3149.138498
_symmetry_space_group_name_H-M "P M M N"
_symmetry_group_IT_number 59
_space_group.IT_coordinate_system_code '2'
_symmetry_cell_setting 'orthorhombic'
loop_
_space_group_symop_operation_xyz
x,y,z
1/2-x,1/2-y,z
1/2+x,-y,-z
-x,1/2+y,-z
-x,-y,-z
1/2+x,1/2+y,-z
1/2-x,y,z
x,1/2-y,z
loop_
_atom_site_type_symbol
_atom_site_label
_atom_site_fract_x
_atom_site_fract_y
_atom_site_fract_z
Si Si1 0.851569 0.941613 0.020084
Si Si2 0.901138 0.558821 0.512949
Si Si3 0.961095 0.943458 0.121930
Si Si4 0.847937 0.058795 0.899699
Si Si5 0.850753 0.440225 0.222724
Si Si6 0.848097 0.062692 0.402571
Si Si7 0.526282 0.936252 0.316874
Si Si8 0.849658 0.444086 0.631302
O O1 0.750000 0.967805 0.038659
O O2 0.862512 0.750000 0.012250
O O3 0.919304 0.998010 0.065425
O O4 0.861087 0.025547 0.962899
O O5 0.896168 0.750000 0.509944
O O6 0.846541 0.480750 0.464808
O O7 0.870961 0.504017 0.571508
O O8 0.000000 0.500000 0.500000
O O9 0.963203 0.750000 0.120046
O O10 0.914297 0.020171 0.272417
O O11 0.062443 0.002016 0.128278
O O12 0.897257 0.992762 0.169765
O O13 0.750000 0.993497 0.885072
O O14 0.844726 0.250000 0.891400
O O15 0.750000 0.502663 0.229647
O O16 0.845538 0.250000 0.217896
O O17 0.750000 0.036425 0.379451
O O18 0.870755 0.250000 0.396114
O O19 0.920326 0.957966 0.372281
O O20 0.520241 0.750000 0.302293
O O21 0.427507 0.998976 0.328763
O O22 0.750000 0.492551 0.646223
O O23 0.853376 0.250000 0.630154
#
# Coordination Sequence:
#
# PCOD9450884 Si02
#       8
#     8   8   8   8   8   8   8   8
#     4   9  17  29  48  77 112 149 190 236 284 336
#     4  12  23  36  57  86 120 158 196 236 283 337
#     4  10  20  35  56  81 111 150 193 236 283 337
#     4   9  18  32  51  79 115 153 192 233 278 331
#     4  11  25  43  62  85 113 144 181 233 293 345
#     4  11  23  38  58  85 119 155 188 231 285 338
#     4  11  23  40  64  88 112 148 190 233 281 339
#     4  10  22  41  63  88 119 153 190 235 286 339
#
# _framework density 20.323018999999999
#
# number of rings (size 3 to 8) (size 9 to 14) (size 15 to 20)
#    0.000    1.625    1.250    3.750    0.000    7.250 
#    0.000    1.875    0.000    3.750    0.000    0.000 
#    0.000    0.000    0.000    0.000    0.000    0.000 
#
# Total GULP energy -357452.169159 kJ/mol
# GULP energy per Si atom -5585.190143 kJ/mol
# Density = 2.027676 g / cm^3
# Si number density = 20.323019 Si / 1000 Ang^3
#
#
#
# Elastic Constant Matrix: (Units=GPa)
#
#
# Indices 1 2 3 4 5 6 
#
# 1 162.4936 17.3979 37.9269 0.0000 0.0000 0.0000
# 2 17.3979 13.5812 -6.9648 0.0000 0.0000 0.0000
# 3 37.9269 -6.9648 40.2705 0.0000 0.0000 0.0000
# 4 0.0000 0.0000 0.0000 29.3017 0.0000 0.0000
# 5 0.0000 0.0000 0.0000 0.0000 26.9713 0.0000
# 6 0.0000 0.0000 0.0000 0.0000 0.0000 15.1561
#
#
#
# Elastic Compliance Matrix: (Units=1/GPa)
#
#
# Indices 1 2 3 4 5 6 
#
# 1 0.012438 -0.024076 -0.015878 0.000000 0.000000 0.000000
# 2 -0.024076 0.127402 0.044709 0.000000 0.000000 0.000000
# 3 -0.015878 0.044709 0.047519 0.000000 0.000000 0.000000
# 4 0.000000 0.000000 0.000000 0.034128 0.000000 0.000000
# 5 0.000000 0.000000 0.000000 0.000000 0.037076 0.000000
# 6 0.000000 0.000000 0.000000 0.000000 0.000000 0.065980
#
#
# Mechanical properties :
#
#
# Convention : Reuss Voigt Hill
#
# Bulk Modulus (GPa) = 5.07954 34.78502 19.93228
# Shear Modulus (GPa) = 13.13528 25.48485 19.31006
#
# Velocity S-wave (km/s) = 2.54505 3.54501 3.08581
# Velocity P-wave (km/s) = 3.33784 5.82318 4.74608
#
# Compressibility (1/GPa) = 0.19686812
#
# Stress axis : x y z
#
# Youngs Moduli (GPa) = 80.39964 7.84920 21.04443
#
# Poissons Ratio (x) = 0.18898 0.33414
# Poissons Ratio (y) = 1.93570 -0.94088
# Poissons Ratio (z) = 1.27658 -0.35093
#
# Static dielectric constant tensor:
#      x y z
#    x 1.776340 0.000000 0.000000 
#    y 0.000000 1.698390 0.000000 
#    z 0.000000 0.000000 1.691410 
# 
# From -- ./inp_files/31681.got.cif
#   From: 2010.05.17/outbox.cif.g08.bks.cpg/sg59_16_cif.got.tgz:31681.got - 2010.06.03 14:40:33.
