data_PCOD9450873
_publ_section_title
;
Structure prediction by ZEFSAII (Michael W. Deem and Ramdas Pophale) SiO2 
 PCOD9450873
Probable space group: P M M N
;
_chemical_formula_sum "Si O2"
_cell_formula_units_Z 40
_cell_length_a 8.884369
_cell_length_b 17.064145
_cell_length_c 13.185919
_cell_angle_alpha 90.000000
_cell_angle_beta 90.000000
_cell_angle_gamma 90.000000
_cell_volume 1999.040185
_symmetry_space_group_name_H-M "P M M N"
_symmetry_group_IT_number 59
_space_group.IT_coordinate_system_code '2'
_symmetry_cell_setting 'orthorhombic'
loop_
_space_group_symop_operation_xyz
x,y,z
1/2-x,1/2-y,z
1/2+x,-y,-z
-x,1/2+y,-z
-x,-y,-z
1/2+x,1/2+y,-z
1/2-x,y,z
x,1/2-y,z
loop_
_atom_site_type_symbol
_atom_site_label
_atom_site_fract_x
_atom_site_fract_y
_atom_site_fract_z
Si Si1 0.572865 0.555410 0.820775
Si Si2 0.569523 0.615533 0.191676
Si Si3 0.578143 0.083836 0.381348
Si Si4 0.923828 0.160965 0.012548
Si Si5 0.423623 0.394370 0.584316
O O1 0.750000 0.538625 0.821246
O O2 0.479055 0.474908 0.822435
O O3 0.525789 0.597848 0.715997
O O4 0.524176 0.606223 0.916762
O O5 0.750000 0.623029 0.183843
O O6 0.526027 0.638746 0.306782
O O7 0.486301 0.659215 0.101507
O O8 0.750000 0.105193 0.358601
O O9 0.520634 0.122546 0.485108
O O10 0.574274 0.989341 0.400572
O O11 0.750000 0.134203 0.014107
O O12 0.929527 0.250000 0.050488
O O13 0.250000 0.372018 0.566947
#
# Coordination Sequence:
#
# PCOD9450873 Si02
#       5
#     8   8   8   8   8
#     4  11  21  34  55  80 108 140 176 217 260 310
#     4  10  20  35  56  81 109 139 175 217 259 308
#     4   9  16  27  46  74 107 138 170 211 257 304
#     4  11  24  40  56  75 103 138 176 219 267 317
#     4   8  15  27  45  73 106 137 168 207 255 304
#
# _framework density 20.009602000000001
#
# number of rings (size 3 to 8) (size 9 to 14) (size 15 to 20)
#    0.000    2.200    0.000    5.400    0.000    7.200 
#    0.000    0.000    0.000    1.200    0.000    5.600 
#    0.000    0.000    0.000    0.000    0.000    0.000 
#
# Total GULP energy -223275.422143 kJ/mol
# GULP energy per Si atom -5581.885554 kJ/mol
# Density = 1.996406 g / cm^3
# Si number density = 20.009602 Si / 1000 Ang^3
#
#
#
# Elastic Constant Matrix: (Units=GPa)
#
#
# Indices 1 2 3 4 5 6 
#
# 1 45.4697 -9.0804 5.6210 0.0000 0.0000 0.0000
# 2 -9.0804 12.8816 6.7748 0.0000 0.0000 0.0000
# 3 5.6210 6.7748 78.9079 0.0000 0.0000 0.0000
# 4 0.0000 0.0000 0.0000 -8.1153 0.0000 0.0000
# 5 0.0000 0.0000 0.0000 0.0000 40.1109 0.0000
# 6 0.0000 0.0000 0.0000 0.0000 0.0000 9.0665
#
#
#
# Elastic Compliance Matrix: (Units=1/GPa)
#
#
# Indices 1 2 3 4 5 6 
#
# 1 0.026572 0.020659 -0.003667 0.000000 0.000000 0.000000
# 2 0.020659 0.097363 -0.009831 0.000000 0.000000 0.000000
# 3 -0.003667 -0.009831 0.013778 0.000000 0.000000 0.000000
# 4 0.000000 0.000000 0.000000 -0.123224 0.000000 0.000000
# 5 0.000000 0.000000 0.000000 0.000000 0.024931 0.000000
# 6 0.000000 0.000000 0.000000 0.000000 0.000000 0.110296
#
#
# Mechanical properties :
#
#
# Convention : Reuss Voigt Hill
#
# Bulk Modulus (GPa) = 6.57741 15.98781 11.28261
# Shear Modulus (GPa) = 26.87146 17.14202 22.00674
#
# Velocity S-wave (km/s) = 3.66857 2.93010 3.31993
# Velocity P-wave (km/s) = 4.60856 4.41075 4.51074
#
# Compressibility (1/GPa) = 0.15203549
#
# Stress axis : x y z
#
# Youngs Moduli (GPa) = 37.63424 10.27084 72.57816
#
# Poissons Ratio (x) = -0.21218 0.26611
# Poissons Ratio (y) = -0.77748 0.71352
# Poissons Ratio (z) = 0.13799 0.10097
#
# Static dielectric constant tensor:
#      x y z
#    x 1.675270 0.000000 0.000000 
#    y 0.000000 1.715220 0.000000 
#    z 0.000000 0.000000 1.721930 
# 
# From -- ./inp_files/13836.got.cif
#   From: 2010.05.17/outbox.cif.g08.bks.cpg/sg59_7_cif.got.tgz:13836.got - 2010.06.03 14:40:33.
