data_PCOD9450877
_publ_section_title
;
Structure prediction by ZEFSAII (Michael W. Deem and Ramdas Pophale) SiO2 
 PCOD9450877
Probable space group: P M M N
;
_chemical_formula_sum "Si O2"
_cell_formula_units_Z 56
_cell_length_a 14.075924
_cell_length_b 8.898225
_cell_length_c 20.001735
_cell_angle_alpha 90.000000
_cell_angle_beta 90.000000
_cell_angle_gamma 90.000000
_cell_volume 2505.232087
_symmetry_space_group_name_H-M "P M M N"
_symmetry_group_IT_number 59
_space_group.IT_coordinate_system_code '2'
_symmetry_cell_setting 'orthorhombic'
loop_
_space_group_symop_operation_xyz
x,y,z
1/2-x,1/2-y,z
1/2+x,-y,-z
-x,1/2+y,-z
-x,-y,-z
1/2+x,1/2+y,-z
1/2-x,y,z
x,1/2-y,z
loop_
_atom_site_type_symbol
_atom_site_label
_atom_site_fract_x
_atom_site_fract_y
_atom_site_fract_z
Si Si1 0.634681 0.924292 0.003022
Si Si2 0.925355 0.084354 0.285597
Si Si3 0.380680 0.579776 0.445441
Si Si4 0.366867 0.750000 0.063866
Si Si5 0.864247 0.074418 0.140670
Si Si6 0.144099 0.040111 0.303377
Si Si7 0.859764 0.250000 0.787248
Si Si8 0.607124 0.919952 0.420883
O O1 0.750000 0.919249 0.996057
O O2 0.602607 0.750000 0.985847
O O3 0.610933 0.965380 0.079724
O O4 0.605705 0.082989 0.965828
O O5 0.880620 0.250000 0.288100
O O6 0.904927 0.023130 0.211826
O O7 0.038783 0.104798 0.293860
O O8 0.885316 0.989116 0.347245
O O9 0.348960 0.750000 0.437230
O O10 0.348078 0.483391 0.382628
O O11 0.354289 0.516649 0.517620
O O12 0.494513 0.583187 0.436859
O O13 0.250000 0.750000 0.056130
O O14 0.405609 0.750000 0.140051
O O15 0.750000 0.076512 0.144874
O O16 0.894217 0.250000 0.128290
O O17 0.250000 0.094966 0.281650
O O18 0.128068 0.889759 0.260982
O O19 0.750000 0.250000 0.806754
O O20 0.642043 0.750000 0.422659
#
# Coordination Sequence:
#
# PCOD9450877 Si02
#       8
#     8   8   8   4   8   8   4   8
#     4   9  16  28  51  84 116 148 190 239 297 363
#     4  10  21  35  55  84 115 152 191 240 295 347
#     4   9  16  29  51  74 100 133 176 238 284 324
#     4   9  16  30  54  84 117 152 192 245 299 352
#     4   9  17  33  56  82 113 147 186 236 293 359
#     4  10  20  35  56  81 109 146 200 246 283 341
#     4   9  18  34  56  82 110 150 198 239 286 344
#     4   9  18  31  50  76 105 139 184 227 282 341
#
# _framework density 22.353217999999998
#
# number of rings (size 3 to 8) (size 9 to 14) (size 15 to 20)
#    0.000    2.714    1.429    0.429    1.000    4.286 
#    0.000    1.429    0.000    6.000    0.000    0.000 
#    0.000    0.000    0.000    0.000    0.000    0.000 
#
# Total GULP energy -311769.744837 kJ/mol
# GULP energy per Si atom -5567.316872 kJ/mol
# Density = 2.230234 g / cm^3
# Si number density = 22.353218 Si / 1000 Ang^3
#
#
#
# Elastic Constant Matrix: (Units=GPa)
#
#
# Indices 1 2 3 4 5 6 
#
# 1 73.9204 6.1830 16.7770 0.0000 0.0000 0.0000
# 2 6.1830 117.0115 45.1455 0.0000 0.0000 0.0000
# 3 16.7770 45.1455 97.4208 0.0000 0.0000 0.0000
# 4 0.0000 0.0000 0.0000 -6.5755 0.0000 0.0000
# 5 0.0000 0.0000 0.0000 0.0000 48.7890 0.0000
# 6 0.0000 0.0000 0.0000 0.0000 0.0000 -7.6033
#
#
#
# Elastic Compliance Matrix: (Units=1/GPa)
#
#
# Indices 1 2 3 4 5 6 
#
# 1 0.014084 0.000233 -0.002533 0.000000 0.000000 0.000000
# 2 0.000233 0.010411 -0.004865 0.000000 0.000000 0.000000
# 3 -0.002533 -0.004865 0.012955 0.000000 0.000000 0.000000
# 4 0.000000 0.000000 0.000000 -0.152079 0.000000 0.000000
# 5 0.000000 0.000000 0.000000 0.000000 0.020496 0.000000
# 6 0.000000 0.000000 0.000000 0.000000 0.000000 -0.131521
#
#
# Mechanical properties :
#
#
# Convention : Reuss Voigt Hill
#
# Bulk Modulus (GPa) = 43.25247 47.17375 45.21311
# Shear Modulus (GPa) = -24.55583 21.60517 -1.47533
#
# Velocity S-wave (km/s) = -3.31801 3.11229 -0.81329
# Velocity P-wave (km/s) = 2.17085 5.83650 4.40326
#
# Compressibility (1/GPa) = 0.02312006
#
# Stress axis : x y z
#
# Youngs Moduli (GPa) = 71.00485 96.05512 77.18847
#
# Poissons Ratio (x) = -0.02241 0.19555
# Poissons Ratio (y) = -0.01656 0.37549
# Poissons Ratio (z) = 0.17989 0.46727
#
# Static dielectric constant tensor:
#      x y z
#    x 1.927590 0.000000 0.000000 
#    y 0.000000 1.811230 0.000000 
#    z 0.000000 0.000000 1.797880 
# 
# From -- ./inp_files/30484.got.cif
#   From: 2010.05.17/outbox.cif.g08.bks.cpg/sg59_16_cif.got.tgz:30484.got - 2010.06.03 14:40:33.
