data_PCOD9450983
_publ_section_title
;
Structure prediction by ZEFSAII (Michael W. Deem and Ramdas Pophale) SiO2 
 PCOD9450983
Probable space group: P M M N
;
_chemical_formula_sum "Si O2"
_cell_formula_units_Z 48
_cell_length_a 17.282937
_cell_length_b 7.872845
_cell_length_c 16.963811
_cell_angle_alpha 90.000000
_cell_angle_beta 90.000000
_cell_angle_gamma 90.000000
_cell_volume 2308.195942
_symmetry_space_group_name_H-M "P M M N"
_symmetry_group_IT_number 59
_space_group.IT_coordinate_system_code '2'
_symmetry_cell_setting 'orthorhombic'
loop_
_space_group_symop_operation_xyz
x,y,z
1/2-x,1/2-y,z
1/2+x,-y,-z
-x,1/2+y,-z
-x,-y,-z
1/2+x,1/2+y,-z
1/2-x,y,z
x,1/2-y,z
loop_
_atom_site_type_symbol
_atom_site_label
_atom_site_fract_x
_atom_site_fract_y
_atom_site_fract_z
Si Si1 0.419777 0.452844 0.454082
Si Si2 0.086541 0.454254 0.974830
Si Si3 0.250000 0.952798 0.524959
Si Si4 0.750000 0.045268 0.294574
Si Si5 0.060298 0.051276 0.277766
Si Si6 0.096534 0.049225 0.796345
Si Si7 0.837455 0.542384 0.866040
O O1 0.500000 0.500000 0.500000
O O2 0.421923 0.250000 0.451361
O O3 0.334008 0.497467 0.487864
O O4 0.425548 0.522550 0.364401
O O5 0.095135 0.250000 0.972021
O O6 0.101237 0.516969 0.886289
O O7 0.139198 0.517647 0.046742
O O8 0.000000 0.500000 0.000000
O O9 0.250000 0.750000 0.525017
O O10 0.250000 0.015164 0.615247
O O11 0.750000 0.250000 0.294651
O O12 0.675573 0.980625 0.248632
O O13 0.082124 0.250000 0.282672
O O14 0.107796 0.978312 0.203831
O O15 0.971557 0.037394 0.252547
O O16 0.079135 0.250000 0.799590
O O17 0.750000 0.497548 0.847937
O O18 0.843478 0.750000 0.868132
#
# Coordination Sequence:
#
# PCOD9450983 Si02
#       7
#     8   8   4   4   8   8   8
#     4  11  24  41  65  95 126 162 207 257 313 377
#     4  10  20  35  57  83 115 155 197 241 292 348
#     4  11  25  45  67  92 123 162 208 258 314 377
#     4  11  25  43  63  86 117 158 204 244 294 365
#     4  10  21  38  62  88 117 157 203 243 293 367
#     4  11  23  37  59  91 124 156 198 250 302 350
#     4   9  18  33  57  83 112 152 197 242 285 340
#
# _framework density 20.795461
#
# number of rings (size 3 to 8) (size 9 to 14) (size 15 to 20)
#    0.000    1.667    1.667    2.500    2.333    7.333 
#    0.000    0.000    0.000    1.000    0.000    0.000 
#    0.000    0.000    0.000    0.000    0.000    0.000 
#
# Total GULP energy -267907.786117 kJ/mol
# GULP energy per Si atom -5581.412211 kJ/mol
# Density = 2.074813 g / cm^3
# Si number density = 20.795461 Si / 1000 Ang^3
#
#
#
# Elastic Constant Matrix: (Units=GPa)
#
#
# Indices 1 2 3 4 5 6 
#
# 1 151.6239 -11.7008 92.1675 0.0000 0.0000 0.0000
# 2 -11.7008 33.4105 5.6291 0.0000 0.0000 0.0000
# 3 92.1675 5.6291 206.6009 0.0000 0.0000 0.0000
# 4 0.0000 0.0000 0.0000 15.7288 0.0000 0.0000
# 5 0.0000 0.0000 0.0000 0.0000 22.3697 0.0000
# 6 0.0000 0.0000 0.0000 0.0000 0.0000 28.2188
#
#
#
# Elastic Compliance Matrix: (Units=1/GPa)
#
#
# Indices 1 2 3 4 5 6 
#
# 1 0.009575 0.004092 -0.004383 0.000000 0.000000 0.000000
# 2 0.004092 0.031817 -0.002692 0.000000 0.000000 0.000000
# 3 -0.004383 -0.002692 0.006869 0.000000 0.000000 0.000000
# 4 0.000000 0.000000 0.000000 0.063578 0.000000 0.000000
# 5 0.000000 0.000000 0.000000 0.000000 0.044703 0.000000
# 6 0.000000 0.000000 0.000000 0.000000 0.000000 0.035437
#
#
# Mechanical properties :
#
#
# Convention : Reuss Voigt Hill
#
# Bulk Modulus (GPa) = 23.64367 62.64742 43.14555
# Shear Modulus (GPa) = 23.57980 33.63276 28.60628
#
# Velocity S-wave (km/s) = 3.37098 4.02595 3.71293
# Velocity P-wave (km/s) = 5.15225 7.19735 6.25890
#
# Compressibility (1/GPa) = 0.04229461
#
# Stress axis : x y z
#
# Youngs Moduli (GPa) = 104.43337 31.42933 145.58089
#
# Poissons Ratio (x) = -0.12861 0.63812
# Poissons Ratio (y) = -0.42734 0.39196
# Poissons Ratio (z) = 0.45776 0.08462
#
# Static dielectric constant tensor:
#      x y z
#    x 1.688420 0.000000 0.000000 
#    y 0.000000 1.764540 0.000000 
#    z 0.000000 0.000000 1.772280 
# 
# From -- ./inp_files/27453.got.cif
#   From: 2010.05.17/outbox.cif.g08.bks.cpg/sg59_14_cif.got.tgz:27453.got - 2010.06.03 14:40:33.
