data_PCOD9450706
_publ_section_title
;
Structure prediction by ZEFSAII (Michael W. Deem and Ramdas Pophale) SiO2 
 PCOD9450706
Probable space group: P M M N
;
_chemical_formula_sum "Si O2"
_cell_formula_units_Z 64
_cell_length_a 24.438738
_cell_length_b 8.862450
_cell_length_c 16.846446
_cell_angle_alpha 90.000000
_cell_angle_beta 90.000000
_cell_angle_gamma 90.000000
_cell_volume 3648.722776
_symmetry_space_group_name_H-M "P M M N"
_symmetry_group_IT_number 59
_space_group.IT_coordinate_system_code '2'
_symmetry_cell_setting 'orthorhombic'
loop_
_space_group_symop_operation_xyz
x,y,z
1/2-x,1/2-y,z
1/2+x,-y,-z
-x,1/2+y,-z
-x,-y,-z
1/2+x,1/2+y,-z
1/2-x,y,z
x,1/2-y,z
loop_
_atom_site_type_symbol
_atom_site_label
_atom_site_fract_x
_atom_site_fract_y
_atom_site_fract_z
Si Si1 0.910712 0.568692 0.960399
Si Si2 0.185936 0.570041 0.774827
Si Si3 0.414769 0.069230 0.860239
Si Si4 0.816281 0.922235 0.391840
Si Si5 0.978105 0.569179 0.804602
Si Si6 0.314168 0.568137 0.442032
Si Si7 0.380119 0.931471 0.285682
Si Si8 0.312663 0.931304 0.127605
O O1 0.909615 0.750000 0.959432
O O2 0.950529 0.519831 0.888836
O O3 0.851321 0.506211 0.937420
O O4 0.926199 0.519875 0.048809
O O5 0.250000 0.529321 0.787242
O O6 0.181211 0.750000 0.781963
O O7 0.144597 0.488935 0.834228
O O8 0.169762 0.518098 0.685914
O O9 0.416784 0.250000 0.856215
O O10 0.461503 0.999047 0.804681
O O11 0.750000 0.919889 0.394101
O O12 0.835586 0.750000 0.383883
O O13 0.832888 0.994996 0.475341
O O14 0.980142 0.750000 0.802311
O O15 0.937346 0.508314 0.737027
O O16 0.250000 0.528297 0.427627
O O17 0.316054 0.750000 0.449050
O O18 0.351954 0.522914 0.368086
O O19 0.387215 0.750000 0.286401
O O20 0.338516 0.967885 0.213556
O O21 0.250000 0.979903 0.122718
O O22 0.314775 0.750000 0.119017
#
# Coordination Sequence:
#
# PCOD9450706 Si02
#       8
#     8   8   8   8   8   8   8   8
#     4   9  20  35  50  71  98 130 167 209 254 297
#     4  10  21  37  56  78 104 132 163 201 247 298
#     4  11  22  36  55  76  98 127 165 207 252 301
#     4   9  17  30  49  74 104 135 166 202 245 292
#     4  10  20  35  53  73  99 130 168 211 252 294
#     4   9  16  27  47  75 105 137 172 207 243 288
#     4   9  17  30  48  71 101 136 172 208 246 289
#     4   9  17  29  46  69  99 135 171 206 246 293
#
# _framework density 17.540384
#
# number of rings (size 3 to 8) (size 9 to 14) (size 15 to 20)
#    0.000    2.500    0.000    2.250    0.000    6.500 
#    0.000    2.500    0.000    3.000    0.000    0.000 
#    0.000    0.000    0.000    0.000    0.000    0.000 
#
# Total GULP energy -356935.548469 kJ/mol
# GULP energy per Si atom -5577.117945 kJ/mol
# Density = 1.750046 g / cm^3
# Si number density = 17.540384 Si / 1000 Ang^3
#
#
#
# Elastic Constant Matrix: (Units=GPa)
#
#
# Indices 1 2 3 4 5 6 
#
# 1 68.6142 17.8114 8.3082 0.0000 0.0000 0.0000
# 2 17.8114 24.8296 11.7059 0.0000 0.0000 0.0000
# 3 8.3082 11.7059 48.1212 0.0000 0.0000 0.0000
# 4 0.0000 0.0000 0.0000 27.0085 0.0000 0.0000
# 5 0.0000 0.0000 0.0000 0.0000 16.5320 0.0000
# 6 0.0000 0.0000 0.0000 0.0000 0.0000 26.9980
#
#
#
# Elastic Compliance Matrix: (Units=1/GPa)
#
#
# Indices 1 2 3 4 5 6 
#
# 1 0.017909 -0.012865 0.000037 0.000000 0.000000 0.000000
# 2 -0.012865 0.054733 -0.011093 0.000000 0.000000 0.000000
# 3 0.000037 -0.011093 0.023473 0.000000 0.000000 0.000000
# 4 0.000000 0.000000 0.000000 0.037025 0.000000 0.000000
# 5 0.000000 0.000000 0.000000 0.000000 0.060489 0.000000
# 6 0.000000 0.000000 0.000000 0.000000 0.000000 0.037040
#
#
# Mechanical properties :
#
#
# Convention : Reuss Voigt Hill
#
# Bulk Modulus (GPa) = 20.71506 24.13510 22.42508
# Shear Modulus (GPa) = 16.97213 21.02369 18.99791
#
# Velocity S-wave (km/s) = 3.11401 3.46582 3.29461
# Velocity P-wave (km/s) = 4.97644 5.45944 5.22352
#
# Compressibility (1/GPa) = 0.04827405
#
# Stress axis : x y z
#
# Youngs Moduli (GPa) = 55.83711 18.27060 42.60235
#
# Poissons Ratio (x) = 0.23505 -0.00159
# Poissons Ratio (y) = 0.71833 0.47259
# Poissons Ratio (z) = -0.00209 0.20268
#
# Static dielectric constant tensor:
#      x y z
#    x 1.585300 0.000000 0.000000 
#    y 0.000000 1.589600 0.000000 
#    z 0.000000 0.000000 1.595150 
# 
# From -- ./inp_files/28476.got.cif
#   From: 2010.05.17/outbox.cif.g08.bks.cpg/sg59_15_cif.got.tgz:28476.got - 2010.06.03 14:40:33.
