data_PCOD9450215
_publ_section_title
;
Structure prediction by ZEFSAII (Michael W. Deem and Ramdas Pophale) SiO2 
 PCOD9450215
Probable space group: P M M N
;
_chemical_formula_sum "Si O2"
_cell_formula_units_Z 64
_cell_length_a 20.774816
_cell_length_b 7.634231
_cell_length_c 19.129333
_cell_angle_alpha 90.000000
_cell_angle_beta 90.000000
_cell_angle_gamma 90.000000
_cell_volume 3033.907323
_symmetry_space_group_name_H-M "P M M N"
_symmetry_group_IT_number 59
_space_group.IT_coordinate_system_code '2'
_symmetry_cell_setting 'orthorhombic'
loop_
_space_group_symop_operation_xyz
x,y,z
1/2-x,1/2-y,z
1/2+x,-y,-z
-x,1/2+y,-z
-x,-y,-z
1/2+x,1/2+y,-z
1/2-x,y,z
x,1/2-y,z
loop_
_atom_site_type_symbol
_atom_site_label
_atom_site_fract_x
_atom_site_fract_y
_atom_site_fract_z
Si Si1 0.322591 0.462120 0.937532
Si Si2 0.065940 0.460906 0.039770
Si Si3 0.822579 0.044006 0.224179
Si Si4 0.823918 0.963906 0.693719
Si Si5 0.429454 0.454299 0.197315
Si Si6 0.954279 0.951729 0.291335
Si Si7 0.176754 0.036127 0.465667
Si Si8 0.056721 0.039433 0.553720
O O1 0.250000 0.517527 0.955524
O O2 0.324013 0.250000 0.936913
O O3 0.335871 0.520738 0.858370
O O4 0.374952 0.525786 0.992601
O O5 0.071038 0.250000 0.042945
O O6 0.067131 0.529577 0.119205
O O7 0.000000 0.500000 0.000000
O O8 0.750000 0.975441 0.237366
O O9 0.822747 0.250000 0.239941
O O10 0.880476 0.960323 0.266814
O O11 0.750000 0.014473 0.708983
O O12 0.825557 0.750000 0.693349
O O13 0.875303 0.028337 0.750299
O O14 0.839419 0.017971 0.614007
O O15 0.412503 0.250000 0.189095
O O16 0.498187 0.462876 0.235531
O O17 0.974936 0.750000 0.293985
O O18 0.958610 0.029582 0.369045
O O19 0.250000 0.981754 0.481135
O O20 0.176161 0.250000 0.466121
O O21 0.123533 0.974620 0.520336
O O22 0.062617 0.250000 0.560382
O O23 0.000000 0.000000 0.500000
#
# Coordination Sequence:
#
# PCOD9450215 Si02
#       8
#     8   8   8   8   8   8   8   8
#     4   9  18  34  55  78 106 138 170 210 262 315
#     4  10  21  34  50  74 101 132 170 210 255 306
#     4  10  21  37  57  80 105 136 176 218 260 312
#     4   8  14  26  48  77 103 127 160 204 251 299
#     4  10  20  34  53  76 103 137 175 216 262 311
#     4  11  23  36  52  77 107 140 178 218 264 316
#     4   8  14  27  48  73  99 127 161 200 243 293
#     4  10  21  35  53  77 104 136 173 214 258 306
#
# _framework density 21.094909999999999
#
# number of rings (size 3 to 8) (size 9 to 14) (size 15 to 20)
#    0.000    2.500    0.000    3.000    0.000    6.750 
#    0.000    3.750    0.000    0.750    0.000    5.250 
#    0.000    0.000    0.000    0.000    0.000    0.000 
#
# Total GULP energy -357374.998973 kJ/mol
# GULP energy per Si atom -5583.984359 kJ/mol
# Density = 2.104690 g / cm^3
# Si number density = 21.094910 Si / 1000 Ang^3
#
#
#
# Elastic Constant Matrix: (Units=GPa)
#
#
# Indices 1 2 3 4 5 6 
#
# 1 75.6247 -9.3997 37.1221 0.0000 0.0000 0.0000
# 2 -9.3997 41.2527 -7.1616 0.0000 0.0000 0.0000
# 3 37.1221 -7.1616 71.2002 0.0000 0.0000 0.0000
# 4 0.0000 0.0000 0.0000 8.3696 0.0000 0.0000
# 5 0.0000 0.0000 0.0000 0.0000 43.1580 0.0000
# 6 0.0000 0.0000 0.0000 0.0000 0.0000 13.8799
#
#
#
# Elastic Compliance Matrix: (Units=1/GPa)
#
#
# Indices 1 2 3 4 5 6 
#
# 1 0.018025 0.002520 -0.009144 0.000000 0.000000 0.000000
# 2 0.002520 0.025024 0.001203 0.000000 0.000000 0.000000
# 3 -0.009144 0.001203 0.018934 0.000000 0.000000 0.000000
# 4 0.000000 0.000000 0.000000 0.119480 0.000000 0.000000
# 5 0.000000 0.000000 0.000000 0.000000 0.023171 0.000000
# 6 0.000000 0.000000 0.000000 0.000000 0.000000 0.072047
#
#
# Mechanical properties :
#
#
# Convention : Reuss Voigt Hill
#
# Bulk Modulus (GPa) = 19.55431 25.46657 22.51044
# Shear Modulus (GPa) = 16.41664 24.24929 20.33297
#
# Velocity S-wave (km/s) = 2.79270 3.39415 3.10801
# Velocity P-wave (km/s) = 4.43719 5.24013 4.85529
#
# Compressibility (1/GPa) = 0.05113963
#
# Stress axis : x y z
#
# Youngs Moduli (GPa) = 55.47813 39.96192 52.81606
#
# Poissons Ratio (x) = -0.10069 0.48297
# Poissons Ratio (y) = -0.13978 -0.06356
# Poissons Ratio (z) = 0.50732 -0.04809
#
# Static dielectric constant tensor:
#      x y z
#    x 1.727970 0.000000 0.000000 
#    y 0.000000 1.816730 0.000000 
#    z 0.000000 0.000000 1.748760 
# 
# From -- ./inp_files/28209.got.cif
#   From: 2010.05.17/outbox.cif.g08.bks.cpg/sg59_15_cif.got.tgz:28209.got - 2010.06.03 14:40:33.
