data_PCOD9450435
_publ_section_title
;
Structure prediction by ZEFSAII (Michael W. Deem and Ramdas Pophale) SiO2 
 PCOD9450435
Probable space group: P M M N
;
_chemical_formula_sum "Si O2"
_cell_formula_units_Z 56
_cell_length_a 8.168835
_cell_length_b 20.300925
_cell_length_c 17.793097
_cell_angle_alpha 90.000000
_cell_angle_beta 90.000000
_cell_angle_gamma 90.000000
_cell_volume 2950.716580
_symmetry_space_group_name_H-M "P M M N"
_symmetry_group_IT_number 59
_space_group.IT_coordinate_system_code '2'
_symmetry_cell_setting 'orthorhombic'
loop_
_space_group_symop_operation_xyz
x,y,z
1/2-x,1/2-y,z
1/2+x,-y,-z
-x,1/2+y,-z
-x,-y,-z
1/2+x,1/2+y,-z
1/2-x,y,z
x,1/2-y,z
loop_
_atom_site_type_symbol
_atom_site_label
_atom_site_fract_x
_atom_site_fract_y
_atom_site_fract_z
Si Si1 0.055633 0.956328 0.101711
Si Si2 0.055039 0.438019 0.733229
Si Si3 0.947844 0.325241 0.620692
Si Si4 0.942062 0.824549 0.809401
Si Si5 0.443515 0.579672 0.681372
Si Si6 0.950016 0.175105 0.447967
Si Si7 0.558143 0.099027 0.053797
O O1 0.250000 0.967720 0.092985
O O2 0.019762 0.929504 0.184092
O O3 0.003723 0.909541 0.032617
O O4 0.968945 0.026697 0.090140
O O5 0.250000 0.444207 0.742705
O O6 0.989826 0.506906 0.698148
O O7 0.016572 0.378246 0.677983
O O8 0.750000 0.328037 0.623088
O O9 0.996465 0.250000 0.638715
O O10 0.997635 0.338359 0.534134
O O11 0.750000 0.826755 0.791103
O O12 0.002179 0.750000 0.799435
O O13 0.031701 0.875084 0.754412
O O14 0.966365 0.848985 0.894443
O O15 0.250000 0.571756 0.667700
O O16 0.511153 0.620800 0.610687
O O17 0.750000 0.175173 0.445831
O O18 0.000998 0.250000 0.427942
O O19 0.750000 0.115036 0.055383
#
# Coordination Sequence:
#
# PCOD9450435 Si02
#       7
#     8   8   8   8   8   8   8
#     4  10  20  35  57  81 108 141 179 224 271 321
#     4  11  22  34  53  84 116 144 181 227 276 331
#     4   9  19  37  59  79 102 140 188 232 280 336
#     4  11  23  36  52  79 115 152 188 228 276 327
#     4  10  20  34  54  81 111 145 187 228 272 329
#     4   8  15  31  55  79 104 141 188 231 271 322
#     4  10  20  35  56  81 105 139 184 225 270 324
#
# _framework density 18.978441
#
# number of rings (size 3 to 8) (size 9 to 14) (size 15 to 20)
#    0.000    2.143    1.429    3.000    0.000    4.857 
#    0.000    1.429    0.000    1.714    0.000    0.000 
#    0.000    0.000    0.000    0.000    0.000    0.000 
#
# Total GULP energy -312562.166470 kJ/mol
# GULP energy per Si atom -5581.467258 kJ/mol
# Density = 1.893524 g / cm^3
# Si number density = 18.978441 Si / 1000 Ang^3
#
#
#
# Elastic Constant Matrix: (Units=GPa)
#
#
# Indices 1 2 3 4 5 6 
#
# 1 7.2497 -4.9183 -5.5841 0.0000 0.0000 0.0000
# 2 -4.9183 94.9983 63.6328 0.0000 0.0000 0.0000
# 3 -5.5841 63.6328 120.1055 0.0000 0.0000 0.0000
# 4 0.0000 0.0000 0.0000 24.4327 0.0000 0.0000
# 5 0.0000 0.0000 0.0000 0.0000 15.8531 0.0000
# 6 0.0000 0.0000 0.0000 0.0000 0.0000 12.7950
#
#
#
# Elastic Compliance Matrix: (Units=1/GPa)
#
#
# Indices 1 2 3 4 5 6 
#
# 1 0.144355 0.004616 0.004266 0.000000 0.000000 0.000000
# 2 0.004616 0.016465 -0.008509 0.000000 0.000000 0.000000
# 3 0.004266 -0.008509 0.013032 0.000000 0.000000 0.000000
# 4 0.000000 0.000000 0.000000 0.040929 0.000000 0.000000
# 5 0.000000 0.000000 0.000000 0.000000 0.063079 0.000000
# 6 0.000000 0.000000 0.000000 0.000000 0.000000 0.078156
#
#
# Mechanical properties :
#
#
# Convention : Reuss Voigt Hill
#
# Bulk Modulus (GPa) = 5.72743 36.51271 21.12007
# Shear Modulus (GPa) = 12.09284 21.89769 16.99527
#
# Velocity S-wave (km/s) = 2.52700 3.40048 2.99574
# Velocity P-wave (km/s) = 3.39687 5.89054 4.80818
#
# Compressibility (1/GPa) = 0.17459852
#
# Stress axis : x y z
#
# Youngs Moduli (GPa) = 6.92739 60.73572 76.73277
#
# Poissons Ratio (x) = -0.28036 -0.32734
# Poissons Ratio (y) = -0.03198 0.65288
# Poissons Ratio (z) = -0.02955 0.51677
#
# Static dielectric constant tensor:
#      x y z
#    x 1.667870 0.000000 0.000000 
#    y 0.000000 1.643890 0.000000 
#    z 0.000000 0.000000 1.655390 
# 
# From -- ./inp_files/26073.got.cif
#   From: 2010.05.17/outbox.cif.g08.bks.cpg/sg59_14_cif.got.tgz:26073.got - 2010.06.03 14:40:33.
