data_PCOD9450944
_publ_section_title
;
Structure prediction by ZEFSAII (Michael W. Deem and Ramdas Pophale) SiO2 
 PCOD9450944
Probable space group: P M M N
;
_chemical_formula_sum "Si O2"
_cell_formula_units_Z 56
_cell_length_a 14.398648
_cell_length_b 27.309848
_cell_length_c 7.208390
_cell_angle_alpha 90.000000
_cell_angle_beta 90.000000
_cell_angle_gamma 90.000000
_cell_volume 2834.518352
_symmetry_space_group_name_H-M "P M M N"
_symmetry_group_IT_number 59
_space_group.IT_coordinate_system_code '2'
_symmetry_cell_setting 'orthorhombic'
loop_
_space_group_symop_operation_xyz
x,y,z
1/2-x,1/2-y,z
1/2+x,-y,-z
-x,1/2+y,-z
-x,-y,-z
1/2+x,1/2+y,-z
1/2-x,y,z
x,1/2-y,z
loop_
_atom_site_type_symbol
_atom_site_label
_atom_site_fract_x
_atom_site_fract_y
_atom_site_fract_z
Si Si1 0.488652 0.807115 0.662067
Si Si2 0.361722 0.518590 0.935629
Si Si3 0.138627 0.867886 0.933502
Si Si4 0.356285 0.053619 0.233679
Si Si5 0.494649 0.853620 0.257343
Si Si6 0.141941 0.158922 0.055197
Si Si7 0.552862 0.957063 0.391662
O O1 0.466061 0.750000 0.667913
O O2 0.410406 0.838492 0.768630
O O3 0.493928 0.825432 0.451070
O O4 0.583632 0.815756 0.779621
O O5 0.250000 0.519810 0.949892
O O6 0.391089 0.574868 0.914711
O O7 0.386704 0.484700 0.761906
O O8 0.400776 0.491474 0.119654
O O9 0.250000 0.864756 0.930086
O O10 0.094676 0.847535 0.124437
O O11 0.250000 0.039483 0.263561
O O12 0.360290 0.101197 0.105363
O O13 0.393110 0.066613 0.435018
O O14 0.500013 0.911646 0.301323
O O15 0.583072 0.836822 0.133807
O O16 0.250000 0.173962 0.042748
O O17 0.500000 0.000000 0.500000
#
# Coordination Sequence:
#
# PCOD9450944 Si02
#       7
#     8   8   8   8   8   8   8
#     4  11  25  46  67  93 124 161 212 273 331 379
#     4  10  21  37  58  88 128 168 208 254 302 368
#     4  10  24  45  67  93 127 167 214 267 323 377
#     4  10  20  35  56  86 126 172 210 245 293 364
#     4  11  23  39  64  95 128 167 210 264 316 373
#     4  10  22  41  66  94 129 168 208 253 310 381
#     4  12  22  31  55  89 127 170 211 245 303 368
#
# _framework density 19.756443999999998
#
# number of rings (size 3 to 8) (size 9 to 14) (size 15 to 20)
#    0.000    1.429    2.857    2.143    2.000    5.714 
#    0.000    3.571    0.000    0.000    0.000    0.000 
#    0.000    0.000    0.000    0.000    0.000    0.000 
#
# Total GULP energy -312691.324422 kJ/mol
# GULP energy per Si atom -5583.773650 kJ/mol
# Density = 1.971148 g / cm^3
# Si number density = 19.756444 Si / 1000 Ang^3
#
#
#
# Elastic Constant Matrix: (Units=GPa)
#
#
# Indices 1 2 3 4 5 6 
#
# 1 88.9334 18.8667 53.4824 0.0000 0.0000 0.0000
# 2 18.8667 65.5344 32.1811 0.0000 0.0000 0.0000
# 3 53.4824 32.1811 160.5661 0.0000 0.0000 0.0000
# 4 0.0000 0.0000 0.0000 12.1163 0.0000 0.0000
# 5 0.0000 0.0000 0.0000 0.0000 19.3163 0.0000
# 6 0.0000 0.0000 0.0000 0.0000 0.0000 14.8295
#
#
#
# Elastic Compliance Matrix: (Units=1/GPa)
#
#
# Indices 1 2 3 4 5 6 
#
# 1 0.014287 -0.001970 -0.004364 0.000000 0.000000 0.000000
# 2 -0.001970 0.017197 -0.002790 0.000000 0.000000 0.000000
# 3 -0.004364 -0.002790 0.008241 0.000000 0.000000 0.000000
# 4 0.000000 0.000000 0.000000 0.082534 0.000000 0.000000
# 5 0.000000 0.000000 0.000000 0.000000 0.051770 0.000000
# 6 0.000000 0.000000 0.000000 0.000000 0.000000 0.067433
#
#
# Mechanical properties :
#
#
# Convention : Reuss Voigt Hill
#
# Bulk Modulus (GPa) = 46.56502 58.23270 52.39886
# Shear Modulus (GPa) = 18.73590 23.28600 21.01095
#
# Velocity S-wave (km/s) = 3.08286 3.43688 3.26467
# Velocity P-wave (km/s) = 6.02435 6.72969 6.38676
#
# Compressibility (1/GPa) = 0.02147535
#
# Stress axis : x y z
#
# Youngs Moduli (GPa) = 69.99561 58.15118 121.34816
#
# Poissons Ratio (x) = 0.11456 0.52954
# Poissons Ratio (y) = 0.13790 0.33861
# Poissons Ratio (z) = 0.30545 0.16226
#
# Static dielectric constant tensor:
#      x y z
#    x 1.730470 0.000000 0.000000 
#    y 0.000000 1.696410 0.000000 
#    z 0.000000 0.000000 1.739740 
# 
# From -- ./inp_files/2303.got.cif
#   From: 2010.05.17/outbox.cif.g08.bks.cpg/sg59_2_cif.got.tgz:2303.got - 2010.06.03 14:40:33.
