data_PCOD9450837
_publ_section_title
;
Structure prediction by ZEFSAII (Michael W. Deem and Ramdas Pophale) SiO2 
 PCOD9450837
Probable space group: P M M N
;
_chemical_formula_sum "Si O2"
_cell_formula_units_Z 40
_cell_length_a 19.962067
_cell_length_b 12.623566
_cell_length_c 8.258651
_cell_angle_alpha 90.000000
_cell_angle_beta 90.000000
_cell_angle_gamma 90.000000
_cell_volume 2081.117867
_symmetry_space_group_name_H-M "P M M N"
_symmetry_group_IT_number 59
_space_group.IT_coordinate_system_code '2'
_symmetry_cell_setting 'orthorhombic'
loop_
_space_group_symop_operation_xyz
x,y,z
1/2-x,1/2-y,z
1/2+x,-y,-z
-x,1/2+y,-z
-x,-y,-z
1/2+x,1/2+y,-z
1/2-x,y,z
x,1/2-y,z
loop_
_atom_site_type_symbol
_atom_site_label
_atom_site_fract_x
_atom_site_fract_y
_atom_site_fract_z
Si Si1 0.516298 0.449913 0.768836
Si Si2 0.109423 0.451395 0.991998
Si Si3 0.172020 0.482398 0.665951
Si Si4 0.169391 0.250000 0.170907
Si Si5 0.946463 0.129009 0.428983
Si Si6 0.168932 0.250000 0.542949
O O1 0.456791 0.417667 0.889857
O O2 0.525518 0.378586 0.611187
O O3 0.494463 0.563859 0.692625
O O4 0.582535 0.466288 0.874979
O O5 0.159184 0.497167 0.856984
O O6 0.142730 0.352976 0.080167
O O7 0.250000 0.494395 0.624309
O O8 0.123130 0.563735 0.576236
O O9 0.150101 0.361165 0.625346
O O10 0.250000 0.250000 0.169228
O O11 0.146100 0.250000 0.357319
O O12 0.938724 0.250000 0.379285
O O13 0.250000 0.250000 0.545048
#
# Coordination Sequence:
#
# PCOD9450837 Si02
#       6
#     8   8   8   4   8   4
#     4   9  21  39  54  84 112 153 199 234 296 332
#     4  10  20  35  55  82 116 148 187 244 286 352
#     4  10  20  37  59  85 116 152 193 237 291 348
#     4  11  21  31  53  87 115 151 186 235 304 351
#     4  10  21  38  60  83 113 153 196 244 282 349
#     4   9  19  35  55  81 117 151 189 231 282 353
#
# _framework density 19.220438000000001
#
# number of rings (size 3 to 8) (size 9 to 14) (size 15 to 20)
#    0.000    2.200    0.000    2.400    2.800    1.200 
#   10.800    2.000    0.000    0.000    0.000    0.000 
#    0.000    0.000    0.000    0.000    0.000    0.000 
#
# Total GULP energy -223297.687411 kJ/mol
# GULP energy per Si atom -5582.442185 kJ/mol
# Density = 1.917669 g / cm^3
# Si number density = 19.220438 Si / 1000 Ang^3
#
#
#
# Elastic Constant Matrix: (Units=GPa)
#
#
# Indices 1 2 3 4 5 6 
#
# 1 48.9441 24.0170 14.9885 0.0000 0.0000 0.0000
# 2 24.0170 89.0455 10.9432 0.0000 0.0000 0.0000
# 3 14.9885 10.9432 89.5772 0.0000 0.0000 0.0000
# 4 0.0000 0.0000 0.0000 12.1628 0.0000 0.0000
# 5 0.0000 0.0000 0.0000 0.0000 29.4288 0.0000
# 6 0.0000 0.0000 0.0000 0.0000 0.0000 27.3483
#
#
#
# Elastic Compliance Matrix: (Units=1/GPa)
#
#
# Indices 1 2 3 4 5 6 
#
# 1 0.024495 -0.006196 -0.003342 0.000000 0.000000 0.000000
# 2 -0.006196 0.012969 -0.000548 0.000000 0.000000 0.000000
# 3 -0.003342 -0.000548 0.011790 0.000000 0.000000 0.000000
# 4 0.000000 0.000000 0.000000 0.082218 0.000000 0.000000
# 5 0.000000 0.000000 0.000000 0.000000 0.033980 0.000000
# 6 0.000000 0.000000 0.000000 0.000000 0.000000 0.036565
#
#
# Mechanical properties :
#
#
# Convention : Reuss Voigt Hill
#
# Bulk Modulus (GPa) = 34.38456 36.38490 35.38473
# Shear Modulus (GPa) = 21.56268 25.62919 23.59593
#
# Velocity S-wave (km/s) = 3.35305 3.65558 3.50758
# Velocity P-wave (km/s) = 5.73751 6.06540 5.90374
#
# Compressibility (1/GPa) = 0.02908282
#
# Stress axis : x y z
#
# Youngs Moduli (GPa) = 40.82429 77.10884 84.82054
#
# Poissons Ratio (x) = 0.47777 0.28345
# Poissons Ratio (y) = 0.25295 0.04644
# Poissons Ratio (z) = 0.13642 0.04222
#
# Static dielectric constant tensor:
#      x y z
#    x 1.689710 0.000000 0.000000 
#    y 0.000000 1.646260 0.000000 
#    z 0.000000 0.000000 1.677060 
# 
# From -- ./inp_files/11177.got.cif
#   From: 2010.05.17/outbox.cif.g08.bks.cpg/sg59_6_cif.got.tgz:11177.got - 2010.06.03 14:40:33.
