data_PCOD9450110
_publ_section_title
;
Structure prediction by ZEFSAII (Michael W. Deem and Ramdas Pophale) SiO2 
 PCOD9450110
Probable space group: P M M N
;
_chemical_formula_sum "Si O2"
_cell_formula_units_Z 64
_cell_length_a 9.742006
_cell_length_b 16.223623
_cell_length_c 21.541880
_cell_angle_alpha 90.000000
_cell_angle_beta 90.000000
_cell_angle_gamma 90.000000
_cell_volume 3404.707762
_symmetry_space_group_name_H-M "P M M N"
_symmetry_group_IT_number 59
_space_group.IT_coordinate_system_code '2'
_symmetry_cell_setting 'orthorhombic'
loop_
_space_group_symop_operation_xyz
x,y,z
1/2-x,1/2-y,z
1/2+x,-y,-z
-x,1/2+y,-z
-x,-y,-z
1/2+x,1/2+y,-z
1/2-x,y,z
x,1/2-y,z
loop_
_atom_site_type_symbol
_atom_site_label
_atom_site_fract_x
_atom_site_fract_y
_atom_site_fract_z
Si Si1 0.093251 0.402849 0.875537
Si Si2 0.591639 0.649353 0.631789
Si Si3 0.092911 0.650966 0.745137
Si Si4 0.092127 0.648991 0.376699
Si Si5 0.592970 0.151887 0.989408
Si Si6 0.907485 0.849295 0.261512
Si Si7 0.908693 0.850541 0.492183
Si Si8 0.092376 0.599362 0.877718
O O1 0.250000 0.372037 0.884223
O O2 0.046681 0.373605 0.807542
O O3 0.096663 0.501348 0.875230
O O4 0.997019 0.375268 0.931340
O O5 0.750000 0.625691 0.641862
O O6 0.587761 0.750000 0.632236
O O7 0.495055 0.619740 0.687174
O O8 0.551354 0.623653 0.561993
O O9 0.250000 0.619246 0.742580
O O10 0.098471 0.750000 0.740733
O O11 0.031830 0.630034 0.812739
O O12 0.250000 0.621979 0.376196
O O13 0.092470 0.750000 0.376729
O O14 0.008052 0.621992 0.315888
O O15 0.010800 0.621968 0.438271
O O16 0.750000 0.118858 0.984577
O O17 0.599922 0.250000 0.989408
O O18 0.532160 0.124938 0.056024
O O19 0.750000 0.878895 0.270189
O O20 0.903974 0.750000 0.264585
O O21 0.750000 0.874639 0.480591
O O22 0.909947 0.750000 0.491630
O O23 0.250000 0.632632 0.878621
#
# Coordination Sequence:
#
# PCOD9450110 Si02
#       8
#     8   8   8   8   8   8   8   8
#     4  10  20  34  52  72  95 124 159 198 234 273
#     4   8  14  24  38  59  89 122 154 190 233 278
#     4   9  16  27  45  67  91 122 159 195 231 277
#     4   9  16  24  37  60  88 116 148 188 230 272
#     4  10  20  34  53  75  99 127 156 189 233 283
#     4   9  17  29  44  62  86 117 151 186 228 277
#     4   8  13  22  36  55  84 121 153 183 227 280
#     4   9  18  33  51  71  96 126 159 193 232 279
#
# _framework density 18.797501
#
# number of rings (size 3 to 8) (size 9 to 14) (size 15 to 20)
#    0.000    3.000    0.000    2.250    0.000    4.750 
#    0.000    5.000    0.000    1.500    0.000    0.875 
#    0.000    0.000    0.000    0.000    0.000    0.000 
#
# Total GULP energy -356672.955141 kJ/mol
# GULP energy per Si atom -5573.014924 kJ/mol
# Density = 1.875472 g / cm^3
# Si number density = 18.797501 Si / 1000 Ang^3
#
#
#
# Elastic Constant Matrix: (Units=GPa)
#
#
# Indices 1 2 3 4 5 6 
#
# 1 85.7565 8.2053 111.8692 0.0000 0.0000 0.0000
# 2 8.2053 11.6051 12.3390 0.0000 0.0000 0.0000
# 3 111.8692 12.3390 225.6432 0.0000 0.0000 0.0000
# 4 0.0000 0.0000 0.0000 -25.7485 0.0000 0.0000
# 5 0.0000 0.0000 0.0000 0.0000 37.5923 0.0000
# 6 0.0000 0.0000 0.0000 0.0000 0.0000 6.6670
#
#
#
# Elastic Compliance Matrix: (Units=1/GPa)
#
#
# Indices 1 2 3 4 5 6 
#
# 1 0.033450 -0.006389 -0.016234 0.000000 0.000000 0.000000
# 2 -0.006389 0.092709 -0.001902 0.000000 0.000000 0.000000
# 3 -0.016234 -0.001902 0.012584 0.000000 0.000000 0.000000
# 4 0.000000 0.000000 0.000000 -0.038837 0.000000 0.000000
# 5 0.000000 0.000000 0.000000 0.000000 0.026601 0.000000
# 6 0.000000 0.000000 0.000000 0.000000 0.000000 0.149993
#
#
# Mechanical properties :
#
#
# Convention : Reuss Voigt Hill
#
# Bulk Modulus (GPa) = 11.14928 65.31466 38.23197
# Shear Modulus (GPa) = 14.06671 16.40825 15.23748
#
# Velocity S-wave (km/s) = 2.73853 2.95769 2.85021
# Velocity P-wave (km/s) = 3.99293 6.81805 5.58701
#
# Compressibility (1/GPa) = 0.08969192
#
# Stress axis : x y z
#
# Youngs Moduli (GPa) = 29.89529 10.78645 79.46285
#
# Poissons Ratio (x) = 0.06892 1.29004
# Poissons Ratio (y) = 0.19101 0.15114
# Poissons Ratio (z) = 0.48533 0.02052
#
# Static dielectric constant tensor:
#      x y z
#    x 1.648700 0.000000 0.000000 
#    y 0.000000 1.648430 0.000000 
#    z 0.000000 0.000000 1.654260 
# 
# From -- ./inp_files/29529.got.cif
#   From: 2010.05.17/outbox.cif.g08.bks.cpg/sg59_15_cif.got.tgz:29529.got - 2010.06.03 14:40:33.
