data_PCOD9450378
_publ_section_title
;
Structure prediction by ZEFSAII (Michael W. Deem and Ramdas Pophale) SiO2 
 PCOD9450378
Probable space group: P M M N
;
_chemical_formula_sum "Si O2"
_cell_formula_units_Z 64
_cell_length_a 18.186275
_cell_length_b 9.144379
_cell_length_c 22.205990
_cell_angle_alpha 90.000000
_cell_angle_beta 90.000000
_cell_angle_gamma 90.000000
_cell_volume 3692.904795
_symmetry_space_group_name_H-M "P M M N"
_symmetry_group_IT_number 59
_space_group.IT_coordinate_system_code '2'
_symmetry_cell_setting 'orthorhombic'
loop_
_space_group_symop_operation_xyz
x,y,z
1/2-x,1/2-y,z
1/2+x,-y,-z
-x,1/2+y,-z
-x,-y,-z
1/2+x,1/2+y,-z
1/2-x,y,z
x,1/2-y,z
loop_
_atom_site_type_symbol
_atom_site_label
_atom_site_fract_x
_atom_site_fract_y
_atom_site_fract_z
Si Si1 0.476522 0.924180 0.938810
Si Si2 0.339530 0.581316 0.503929
Si Si3 0.839655 0.916795 0.615137
Si Si4 0.337928 0.575121 0.639851
Si Si5 0.906860 0.924902 0.245749
Si Si6 0.547110 0.575199 0.812449
Si Si7 0.161769 0.580236 0.263153
Si Si8 0.833798 0.075969 0.134415
O O1 0.542052 0.750000 0.805181
O O2 0.394623 0.963414 0.915415
O O3 0.529122 0.959540 0.882046
O O4 0.500000 0.000000 0.000000
O O5 0.250000 0.579401 0.503720
O O6 0.361339 0.750000 0.494122
O O7 0.364796 0.482550 0.448533
O O8 0.361001 0.536405 0.571479
O O9 0.750000 0.916968 0.613907
O O10 0.863985 0.750000 0.623274
O O11 0.861254 0.014709 0.672102
O O12 0.250000 0.549785 0.645425
O O13 0.349345 0.750000 0.647595
O O14 0.380056 0.485364 0.690318
O O15 0.910396 0.750000 0.244842
O O16 0.984389 0.996390 0.227023
O O17 0.851461 0.985338 0.194422
O O18 0.521683 0.250000 0.052526
O O19 0.623609 0.513580 0.788642
O O20 0.250000 0.570521 0.259628
O O21 0.140686 0.750000 0.258673
O O22 0.750000 0.053746 0.115075
O O23 0.843792 0.250000 0.147936
#
# Coordination Sequence:
#
# PCOD9450378 Si02
#       8
#     8   8   8   8   8   8   8   8
#     4   9  19  35  56  80 105 137 172 207 250 300
#     4   8  14  25  41  62  90 126 168 211 252 296
#     4   9  16  26  43  68  97 129 164 204 252 303
#     4   9  17  29  45  66  96 135 174 211 255 305
#     4  11  21  31  47  73 103 133 168 211 257 303
#     4  10  21  38  57  76 101 134 170 203 243 299
#     4  10  20  34  54  80 106 130 162 208 257 301
#     4   9  18  34  54  75 102 137 177 216 253 298
#
# _framework density 17.330531000000001
#
# number of rings (size 3 to 8) (size 9 to 14) (size 15 to 20)
#    0.000    2.625    0.000    4.125    0.000    7.250 
#    0.000    1.875    0.000    3.000    0.000    0.000 
#    0.000    0.000    0.000    0.000    0.000    0.000 
#
# Total GULP energy -356883.834894 kJ/mol
# GULP energy per Si atom -5576.309920 kJ/mol
# Density = 1.729109 g / cm^3
# Si number density = 17.330531 Si / 1000 Ang^3
#
#
#
# Elastic Constant Matrix: (Units=GPa)
#
#
# Indices 1 2 3 4 5 6 
#
# 1 32.8616 34.1274 46.3820 0.0000 0.0000 0.0000
# 2 34.1274 86.1352 68.8253 0.0000 0.0000 0.0000
# 3 46.3820 68.8253 127.1513 0.0000 0.0000 0.0000
# 4 0.0000 0.0000 0.0000 34.7437 0.0000 0.0000
# 5 0.0000 0.0000 0.0000 0.0000 17.4760 0.0000
# 6 0.0000 0.0000 0.0000 0.0000 0.0000 21.0450
#
#
#
# Elastic Compliance Matrix: (Units=1/GPa)
#
#
# Indices 1 2 3 4 5 6 
#
# 1 0.070040 -0.012927 -0.018552 0.000000 0.000000 0.000000
# 2 -0.012927 0.022844 -0.007650 0.000000 0.000000 0.000000
# 3 -0.018552 -0.007650 0.018773 0.000000 0.000000 0.000000
# 4 0.000000 0.000000 0.000000 0.028782 0.000000 0.000000
# 5 0.000000 0.000000 0.000000 0.000000 0.057221 0.000000
# 6 0.000000 0.000000 0.000000 0.000000 0.000000 0.047517
#
#
# Mechanical properties :
#
#
# Convention : Reuss Voigt Hill
#
# Bulk Modulus (GPa) = 29.94026 60.53528 45.23777
# Shear Modulus (GPa) = 14.94468 21.10717 18.02592
#
# Velocity S-wave (km/s) = 2.93974 3.49365 3.22860
# Velocity P-wave (km/s) = 5.36994 7.16099 6.32914
#
# Compressibility (1/GPa) = 0.03339984
#
# Stress axis : x y z
#
# Youngs Moduli (GPa) = 14.27752 43.77603 53.26887
#
# Poissons Ratio (x) = 0.56587 0.98825
# Poissons Ratio (y) = 0.18456 0.40748
# Poissons Ratio (z) = 0.26488 0.33487
#
# Static dielectric constant tensor:
#      x y z
#    x 1.604750 0.000000 0.000000 
#    y 0.000000 1.579260 0.000000 
#    z 0.000000 0.000000 1.570910 
# 
# From -- ./inp_files/30705.got.cif
#   From: 2010.05.17/outbox.cif.g08.bks.cpg/sg59_16_cif.got.tgz:30705.got - 2010.06.03 14:40:33.
