data_PCOD9450816
_publ_section_title
;
Structure prediction by ZEFSAII (Michael W. Deem and Ramdas Pophale) SiO2 
 PCOD9450816
Probable space group: P M M N
;
_chemical_formula_sum "Si O2"
_cell_formula_units_Z 64
_cell_length_a 9.556139
_cell_length_b 28.704810
_cell_length_c 12.877905
_cell_angle_alpha 90.000000
_cell_angle_beta 90.000000
_cell_angle_gamma 90.000000
_cell_volume 3532.501474
_symmetry_space_group_name_H-M "P M M N"
_symmetry_group_IT_number 59
_space_group.IT_coordinate_system_code '2'
_symmetry_cell_setting 'orthorhombic'
loop_
_space_group_symop_operation_xyz
x,y,z
1/2-x,1/2-y,z
1/2+x,-y,-z
-x,1/2+y,-z
-x,-y,-z
1/2+x,1/2+y,-z
1/2-x,y,z
x,1/2-y,z
loop_
_atom_site_type_symbol
_atom_site_label
_atom_site_fract_x
_atom_site_fract_y
_atom_site_fract_z
Si Si1 0.084831 0.199332 0.602119
Si Si2 0.908210 0.696915 0.933501
Si Si3 0.907431 0.095376 0.866904
Si Si4 0.010563 0.698398 0.162911
Si Si5 0.917869 0.603467 0.497803
Si Si6 0.083286 0.955835 0.336520
Si Si7 0.413210 0.063686 0.280785
Si Si8 0.581153 0.393089 0.096678
O O1 0.250000 0.200547 0.580537
O O2 0.024588 0.250000 0.571480
O O3 0.065221 0.195219 0.726272
O O4 0.030599 0.153515 0.544631
O O5 0.750000 0.684975 0.901444
O O6 0.939226 0.750000 0.900758
O O7 0.018079 0.658989 0.894471
O O8 0.915911 0.696924 0.059568
O O9 0.750000 0.076521 0.872105
O O10 0.972143 0.070440 0.767307
O O11 0.902884 0.150907 0.846610
O O12 0.967532 0.089326 0.982185
O O13 0.079646 0.750000 0.160359
O O14 0.750000 0.599439 0.479537
O O15 0.940298 0.596430 0.619914
O O16 0.998302 0.564074 0.433241
O O17 0.250000 0.945709 0.349426
O O18 0.068165 0.010726 0.319049
O O19 0.250000 0.069081 0.249494
O O20 0.514666 0.076263 0.186902
O O21 0.750000 0.392265 0.098657
#
# Coordination Sequence:
#
# PCOD9450816 Si02
#       8
#     8   8   8   8   8   8   8   8
#     4   9  16  27  46  73 105 135 163 202 254 307
#     4   9  17  30  51  79 108 138 174 213 256 313
#     4   9  18  32  49  74 107 138 171 212 265 323
#     4   9  15  25  45  73 106 138 169 204 249 311
#     4  10  20  35  55  80 106 134 176 221 262 316
#     4  10  20  36  56  78 106 138 172 219 279 328
#     4  10  22  38  55  75 103 140 183 229 270 316
#     4  10  21  36  54  76 105 140 179 222 265 315
#
# _framework density 18.117474000000001
#
# number of rings (size 3 to 8) (size 9 to 14) (size 15 to 20)
#    0.000    2.500    1.250    1.125    0.000    3.500 
#    0.000    3.750    0.000    2.625    0.000    0.000 
#    0.000    0.000    0.000    0.000    0.000    0.000 
#
# Total GULP energy -356374.692883 kJ/mol
# GULP energy per Si atom -5568.354576 kJ/mol
# Density = 1.807624 g / cm^3
# Si number density = 18.117474 Si / 1000 Ang^3
#
#
#
# Elastic Constant Matrix: (Units=GPa)
#
#
# Indices 1 2 3 4 5 6 
#
# 1 35.9529 9.7447 15.5178 0.0000 0.0000 0.0000
# 2 9.7447 52.6076 17.6962 0.0000 0.0000 0.0000
# 3 15.5178 17.6962 55.8109 0.0000 0.0000 0.0000
# 4 0.0000 0.0000 0.0000 2.0459 0.0000 0.0000
# 5 0.0000 0.0000 0.0000 0.0000 16.2828 0.0000
# 6 0.0000 0.0000 0.0000 0.0000 0.0000 23.9788
#
#
#
# Elastic Compliance Matrix: (Units=1/GPa)
#
#
# Indices 1 2 3 4 5 6 
#
# 1 0.032110 -0.003296 -0.007883 0.000000 0.000000 0.000000
# 2 -0.003296 0.021616 -0.005938 0.000000 0.000000 0.000000
# 3 -0.007883 -0.005938 0.021992 0.000000 0.000000 0.000000
# 4 0.000000 0.000000 0.000000 0.488780 0.000000 0.000000
# 5 0.000000 0.000000 0.000000 0.000000 0.061415 0.000000
# 6 0.000000 0.000000 0.000000 0.000000 0.000000 0.041704
#
#
# Mechanical properties :
#
#
# Convention : Reuss Voigt Hill
#
# Bulk Modulus (GPa) = 24.10491 25.58766 24.84628
# Shear Modulus (GPa) = 6.98638 15.22234 11.10436
#
# Velocity S-wave (km/s) = 1.96584 2.90177 2.47839
# Velocity P-wave (km/s) = 4.29958 5.03794 4.68333
#
# Compressibility (1/GPa) = 0.04148533
#
# Stress axis : x y z
#
# Youngs Moduli (GPa) = 31.14307 46.26099 45.47099
#
# Poissons Ratio (x) = 0.15249 0.35844
# Poissons Ratio (y) = 0.10265 0.26999
# Poissons Ratio (z) = 0.24549 0.27468
#
# Static dielectric constant tensor:
#      x y z
#    x 1.614970 0.000000 0.000000 
#    y 0.000000 1.647060 0.000000 
#    z 0.000000 0.000000 1.619170 
# 
# From -- ./inp_files/16327.got.cif
#   From: 2010.05.17/outbox.cif.g08.bks.cpg/sg59_9_cif.got.tgz:16327.got - 2010.06.03 14:40:33.
