data_PCOD9450688
_publ_section_title
;
Structure prediction by ZEFSAII (Michael W. Deem and Ramdas Pophale) SiO2 
 PCOD9450688
Probable space group: P M M N
;
_chemical_formula_sum "Si O2"
_cell_formula_units_Z 40
_cell_length_a 7.660454
_cell_length_b 11.630483
_cell_length_c 19.768673
_cell_angle_alpha 90.000000
_cell_angle_beta 90.000000
_cell_angle_gamma 90.000000
_cell_volume 1761.285572
_symmetry_space_group_name_H-M "P M M N"
_symmetry_group_IT_number 59
_space_group.IT_coordinate_system_code '2'
_symmetry_cell_setting 'orthorhombic'
loop_
_space_group_symop_operation_xyz
x,y,z
1/2-x,1/2-y,z
1/2+x,-y,-z
-x,1/2+y,-z
-x,-y,-z
1/2+x,1/2+y,-z
1/2-x,y,z
x,1/2-y,z
loop_
_atom_site_type_symbol
_atom_site_label
_atom_site_fract_x
_atom_site_fract_y
_atom_site_fract_z
Si Si1 0.962014 0.250000 0.846442
Si Si2 0.542257 0.502160 0.335120
Si Si3 0.039357 0.123561 0.200480
Si Si4 0.459246 0.520077 0.077914
Si Si5 0.041900 0.250000 0.686490
Si Si6 0.959727 0.122194 0.463843
O O1 0.750000 0.250000 0.845407
O O2 0.022703 0.361812 0.887882
O O3 0.016736 0.250000 0.767905
O O4 0.750000 0.508704 0.345730
O O5 0.511136 0.464535 0.258625
O O6 0.469713 0.631157 0.343849
O O7 0.477379 0.406456 0.387402
O O8 0.250000 0.127026 0.199431
O O9 0.972428 0.250000 0.216830
O O10 0.978520 0.081201 0.127267
O O11 0.250000 0.523631 0.082639
O O12 0.500000 0.500000 0.000000
O O13 0.250000 0.250000 0.674760
O O14 0.750000 0.130686 0.465450
O O15 0.025691 0.250000 0.485899
O O16 0.000000 0.000000 0.500000
#
# Coordination Sequence:
#
# PCOD9450688 Si02
#       6
#     4   8   8   8   4   8
#     4  10  20  38  58  78 108 145 188 235 286 343
#     4  10  21  38  61  88 118 151 192 241 291 344
#     4  10  21  37  57  82 111 146 189 234 286 346
#     4  10  22  37  54  77 107 144 185 233 285 339
#     4  10  20  34  58  90 114 145 192 239 292 349
#     4  10  23  42  64  93 127 163 204 248 297 355
#
# _framework density 22.710684000000001
#
# number of rings (size 3 to 8) (size 9 to 14) (size 15 to 20)
#    0.000    2.000    2.000    0.600    2.800    4.000 
#    0.000    0.000    0.000    0.000    0.000    0.000 
#    0.000    0.000    0.000    0.000    0.000    0.000 
#
# Total GULP energy -223278.943843 kJ/mol
# GULP energy per Si atom -5581.973596 kJ/mol
# Density = 2.265899 g / cm^3
# Si number density = 22.710684 Si / 1000 Ang^3
#
#
#
# Elastic Constant Matrix: (Units=GPa)
#
#
# Indices 1 2 3 4 5 6 
#
# 1 43.1997 15.1780 -5.6160 0.0000 0.0000 0.0000
# 2 15.1780 181.6526 30.0711 0.0000 0.0000 0.0000
# 3 -5.6160 30.0711 70.6141 0.0000 0.0000 0.0000
# 4 0.0000 0.0000 0.0000 35.9324 0.0000 0.0000
# 5 0.0000 0.0000 0.0000 0.0000 19.1110 0.0000
# 6 0.0000 0.0000 0.0000 0.0000 0.0000 15.0016
#
#
#
# Elastic Compliance Matrix: (Units=1/GPa)
#
#
# Indices 1 2 3 4 5 6 
#
# 1 0.024435 -0.002543 0.003026 0.000000 0.000000 0.000000
# 2 -0.002543 0.006187 -0.002837 0.000000 0.000000 0.000000
# 3 0.003026 -0.002837 0.015610 0.000000 0.000000 0.000000
# 4 0.000000 0.000000 0.000000 0.027830 0.000000 0.000000
# 5 0.000000 0.000000 0.000000 0.000000 0.052326 0.000000
# 6 0.000000 0.000000 0.000000 0.000000 0.000000 0.066659
#
#
# Mechanical properties :
#
#
# Convention : Reuss Voigt Hill
#
# Bulk Modulus (GPa) = 24.08164 41.63696 32.85930
# Shear Modulus (GPa) = 23.62984 31.06454 27.34719
#
# Velocity S-wave (km/s) = 3.22914 3.70244 3.47386
# Velocity P-wave (km/s) = 4.95275 6.05400 5.53085
#
# Compressibility (1/GPa) = 0.04152542
#
# Stress axis : x y z
#
# Youngs Moduli (GPa) = 40.92480 161.62648 64.06034
#
# Poissons Ratio (x) = 0.41095 -0.19385
# Poissons Ratio (y) = 0.10406 0.18174
# Poissons Ratio (z) = -0.12384 0.45853
#
# Static dielectric constant tensor:
#      x y z
#    x 1.846360 0.000000 0.000000 
#    y 0.000000 1.891950 0.000000 
#    z 0.000000 0.000000 1.825180 
# 
# From -- ./inp_files/28792.got.cif
#   From: 2010.05.17/outbox.cif.g08.bks.cpg/sg59_15_cif.got.tgz:28792.got - 2010.06.03 14:40:33.
