data_PCOD9450303
_publ_section_title
;
Structure prediction by ZEFSAII (Michael W. Deem and Ramdas Pophale) SiO2 
 PCOD9450303
Probable space group: P M M N
;
_chemical_formula_sum "Si O2"
_cell_formula_units_Z 64
_cell_length_a 7.563821
_cell_length_b 18.982663
_cell_length_c 20.579775
_cell_angle_alpha 90.000000
_cell_angle_beta 90.000000
_cell_angle_gamma 90.000000
_cell_volume 2954.874245
_symmetry_space_group_name_H-M "P M M N"
_symmetry_group_IT_number 59
_space_group.IT_coordinate_system_code '2'
_symmetry_cell_setting 'orthorhombic'
loop_
_space_group_symop_operation_xyz
x,y,z
1/2-x,1/2-y,z
1/2+x,-y,-z
-x,1/2+y,-z
-x,-y,-z
1/2+x,1/2+y,-z
1/2-x,y,z
x,1/2-y,z
loop_
_atom_site_type_symbol
_atom_site_label
_atom_site_fract_x
_atom_site_fract_y
_atom_site_fract_z
Si Si1 0.466335 0.914738 0.322497
Si Si2 0.039740 0.440826 0.914235
Si Si3 0.966149 0.927892 0.706657
Si Si4 0.545356 0.596210 0.944299
Si Si5 0.963029 0.329400 0.800778
Si Si6 0.039760 0.577355 0.470511
Si Si7 0.466595 0.171681 0.178189
Si Si8 0.958611 0.671129 0.590910
O O1 0.250000 0.912972 0.323721
O O2 0.523724 0.856921 0.269995
O O3 0.527447 0.910728 0.397200
O O4 0.521548 0.991462 0.296595
O O5 0.250000 0.450973 0.920279
O O6 0.962266 0.519459 0.909823
O O7 0.007229 0.387168 0.855678
O O8 0.969587 0.411039 0.983401
O O9 0.750000 0.929010 0.705850
O O10 0.023824 0.886262 0.770199
O O11 0.028587 0.883783 0.644103
O O12 0.750000 0.615714 0.953590
O O13 0.469137 0.651357 0.893433
O O14 0.750000 0.326798 0.798690
O O15 0.027065 0.250000 0.814990
O O16 0.250000 0.581993 0.467186
O O17 0.000000 0.500000 0.500000
O O18 0.976896 0.636238 0.520632
O O19 0.250000 0.170117 0.177557
O O20 0.519271 0.250000 0.197850
O O21 0.750000 0.676728 0.604899
O O22 0.033278 0.750000 0.594554
#
# Coordination Sequence:
#
# PCOD9450303 Si02
#       8
#     8   8   8   8   8   8   8   8
#     4   9  18  33  56  79 101 136 182 227 265 315
#     4  10  20  34  54  79 107 142 181 225 277 328
#     4   9  15  27  49  76 103 133 172 216 261 307
#     4   9  18  33  54  78 107 142 182 226 267 317
#     4  10  21  37  57  81 108 141 184 232 279 328
#     4  11  21  36  58  82 109 141 180 225 275 332
#     4   9  16  26  46  77 105 131 170 216 256 300
#     4  10  20  34  53  79 111 144 178 220 273 328
#
# _framework density 21.659129
#
# number of rings (size 3 to 8) (size 9 to 14) (size 15 to 20)
#    0.000    2.375    1.250    1.875    0.000    5.500 
#    0.000    3.750    0.000    0.375    0.000    0.000 
#    0.000    0.000    0.000    0.000    0.000    0.000 
#
# Total GULP energy -357328.140517 kJ/mol
# GULP energy per Si atom -5583.252196 kJ/mol
# Density = 2.160983 g / cm^3
# Si number density = 21.659129 Si / 1000 Ang^3
#
#
#
# Elastic Constant Matrix: (Units=GPa)
#
#
# Indices 1 2 3 4 5 6 
#
# 1 51.4301 -10.0277 -9.9548 0.0000 0.0000 0.0000
# 2 -10.0277 51.7643 17.1033 0.0000 0.0000 0.0000
# 3 -9.9548 17.1033 99.6994 0.0000 0.0000 0.0000
# 4 0.0000 0.0000 0.0000 -14.1236 0.0000 0.0000
# 5 0.0000 0.0000 0.0000 0.0000 13.9257 0.0000
# 6 0.0000 0.0000 0.0000 0.0000 0.0000 5.9491
#
#
#
# Elastic Compliance Matrix: (Units=1/GPa)
#
#
# Indices 1 2 3 4 5 6 
#
# 1 0.020400 0.003476 0.001441 0.000000 0.000000 0.000000
# 2 0.003476 0.021071 -0.003268 0.000000 0.000000 0.000000
# 3 0.001441 -0.003268 0.010735 0.000000 0.000000 0.000000
# 4 0.000000 0.000000 0.000000 -0.070804 0.000000 0.000000
# 5 0.000000 0.000000 0.000000 0.000000 0.071810 0.000000
# 6 0.000000 0.000000 0.000000 0.000000 0.000000 0.168093
#
#
# Mechanical properties :
#
#
# Convention : Reuss Voigt Hill
#
# Bulk Modulus (GPa) = 18.01667 21.90395 19.96031
# Shear Modulus (GPa) = 21.14085 14.86843 18.00464
#
# Velocity S-wave (km/s) = 3.12760 2.62291 2.88631
# Velocity P-wave (km/s) = 4.62373 4.39407 4.51036
#
# Compressibility (1/GPa) = 0.05550414
#
# Stress axis : x y z
#
# Youngs Moduli (GPa) = 49.01854 47.45775 93.15699
#
# Poissons Ratio (x) = -0.16496 -0.13421
# Poissons Ratio (y) = -0.17039 0.30441
# Poissons Ratio (z) = -0.07062 0.15508
#
# Static dielectric constant tensor:
#      x y z
#    x 1.869080 0.000000 0.000000 
#    y 0.000000 1.757750 0.000000 
#    z 0.000000 0.000000 1.782660 
# 
# From -- ./inp_files/29548.got.cif
#   From: 2010.05.17/outbox.cif.g08.bks.cpg/sg59_15_cif.got.tgz:29548.got - 2010.06.03 14:40:33.
