data_PCOD9450194
_publ_section_title
;
Structure prediction by ZEFSAII (Michael W. Deem and Ramdas Pophale) SiO2 
 PCOD9450194
Probable space group: P M M N
;
_chemical_formula_sum "Si O2"
_cell_formula_units_Z 64
_cell_length_a 21.582519
_cell_length_b 7.424877
_cell_length_c 17.073614
_cell_angle_alpha 90.000000
_cell_angle_beta 90.000000
_cell_angle_gamma 90.000000
_cell_volume 2736.004795
_symmetry_space_group_name_H-M "P M M N"
_symmetry_group_IT_number 59
_space_group.IT_coordinate_system_code '2'
_symmetry_cell_setting 'orthorhombic'
loop_
_space_group_symop_operation_xyz
x,y,z
1/2-x,1/2-y,z
1/2+x,-y,-z
-x,1/2+y,-z
-x,-y,-z
1/2+x,1/2+y,-z
1/2-x,y,z
x,1/2-y,z
loop_
_atom_site_type_symbol
_atom_site_label
_atom_site_fract_x
_atom_site_fract_y
_atom_site_fract_z
Si Si1 0.593282 0.966487 0.196435
Si Si2 0.920042 0.044527 0.456537
Si Si3 0.820452 0.970283 0.903141
Si Si4 0.640220 0.966201 0.730367
Si Si5 0.180611 0.468486 0.673319
Si Si6 0.990996 0.962845 0.671791
Si Si7 0.928415 0.965861 0.021700
Si Si8 0.183749 0.964216 0.436364
O O1 0.592790 0.750000 0.191871
O O2 0.656190 0.019035 0.240618
O O3 0.583881 0.036312 0.109283
O O4 0.539171 0.016709 0.256941
O O5 0.935733 0.250000 0.476599
O O6 0.978585 0.964245 0.409078
O O7 0.880309 0.960083 0.527287
O O8 0.867058 0.044604 0.389348
O O9 0.750000 0.024627 0.924417
O O10 0.820638 0.750000 0.903662
O O11 0.836043 0.029630 0.814402
O O12 0.876022 0.030303 0.960546
O O13 0.635205 0.750000 0.737654
O O14 0.573284 0.038638 0.703361
O O15 0.682533 0.006902 0.656219
O O16 0.250000 0.528072 0.659372
O O17 0.177881 0.250000 0.667031
O O18 0.983232 0.750000 0.658125
O O19 0.921628 0.750000 0.023213
O O20 0.000000 0.000000 0.000000
O O21 0.250000 0.034665 0.467660
O O22 0.182532 0.750000 0.451723
#
# Coordination Sequence:
#
# PCOD9450194 Si02
#       8
#     8   8   8   8   8   8   8   8
#     4   9  18  31  48  73 101 128 160 199 245 295
#     4   9  18  33  51  71  98 132 167 201 241 296
#     4   9  18  33  53  76 102 135 175 215 255 304
#     4  10  20  34  53  75  98 127 167 213 256 298
#     4   9  17  29  46  70 100 130 160 198 243 290
#     4   9  18  33  53  76 102 132 165 202 246 297
#     4  10  20  34  54  78 103 133 170 211 255 304
#     4  10  21  35  50  70  97 129 166 207 250 298
#
# _framework density 23.391770999999999
#
# number of rings (size 3 to 8) (size 9 to 14) (size 15 to 20)
#    0.000    2.625    0.000    1.500    0.000    5.000 
#    0.000    3.125    0.000    1.125    0.000    1.750 
#    0.000    0.000    0.000    0.000    0.000    0.000 
#
# Total GULP energy -357393.184252 kJ/mol
# GULP energy per Si atom -5584.268504 kJ/mol
# Density = 2.333853 g / cm^3
# Si number density = 23.391771 Si / 1000 Ang^3
#
#
#
# Elastic Constant Matrix: (Units=GPa)
#
#
# Indices 1 2 3 4 5 6 
#
# 1 167.8919 9.5078 65.3253 0.0000 0.0000 0.0000
# 2 9.5078 82.1716 7.7345 0.0000 0.0000 0.0000
# 3 65.3253 7.7345 157.1852 0.0000 0.0000 0.0000
# 4 0.0000 0.0000 0.0000 21.7567 0.0000 0.0000
# 5 0.0000 0.0000 0.0000 0.0000 37.6619 0.0000
# 6 0.0000 0.0000 0.0000 0.0000 0.0000 7.3435
#
#
#
# Elastic Compliance Matrix: (Units=1/GPa)
#
#
# Indices 1 2 3 4 5 6 
#
# 1 0.007130 -0.000549 -0.002936 0.000000 0.000000 0.000000
# 2 -0.000549 0.012268 -0.000376 0.000000 0.000000 0.000000
# 3 -0.002936 -0.000376 0.007601 0.000000 0.000000 0.000000
# 4 0.000000 0.000000 0.000000 0.045963 0.000000 0.000000
# 5 0.000000 0.000000 0.000000 0.000000 0.026552 0.000000
# 6 0.000000 0.000000 0.000000 0.000000 0.000000 0.136175
#
#
# Mechanical properties :
#
#
# Convention : Reuss Voigt Hill
#
# Bulk Modulus (GPa) = 51.87235 63.59821 57.73528
# Shear Modulus (GPa) = 20.01316 34.99781 27.50548
#
# Velocity S-wave (km/s) = 2.92818 3.87222 3.43280
# Velocity P-wave (km/s) = 5.80137 6.87309 6.35985
#
# Compressibility (1/GPa) = 0.01927809
#
# Stress axis : x y z
#
# Youngs Moduli (GPa) = 140.25885 81.50960 131.56821
#
# Poissons Ratio (x) = 0.04472 0.38629
# Poissons Ratio (y) = 0.07694 0.04943
# Poissons Ratio (z) = 0.41181 0.03062
#
# Static dielectric constant tensor:
#      x y z
#    x 1.904050 0.000000 0.000000 
#    y 0.000000 1.925640 0.000000 
#    z 0.000000 0.000000 1.871930 
# 
# From -- ./inp_files/28190.got.cif
#   From: 2010.05.17/outbox.cif.g08.bks.cpg/sg59_15_cif.got.tgz:28190.got - 2010.06.03 14:40:33.
