data_PCOD9450364
_publ_section_title
;
Structure prediction by ZEFSAII (Michael W. Deem and Ramdas Pophale) SiO2 
 PCOD9450364
Probable space group: P M M N
;
_chemical_formula_sum "Si O2"
_cell_formula_units_Z 40
_cell_length_a 7.484588
_cell_length_b 9.942939
_cell_length_c 23.863444
_cell_angle_alpha 90.000000
_cell_angle_beta 90.000000
_cell_angle_gamma 90.000000
_cell_volume 1775.888912
_symmetry_space_group_name_H-M "P M M N"
_symmetry_group_IT_number 59
_space_group.IT_coordinate_system_code '2'
_symmetry_cell_setting 'orthorhombic'
loop_
_space_group_symop_operation_xyz
x,y,z
1/2-x,1/2-y,z
1/2+x,-y,-z
-x,1/2+y,-z
-x,-y,-z
1/2+x,1/2+y,-z
1/2-x,y,z
x,1/2-y,z
loop_
_atom_site_type_symbol
_atom_site_label
_atom_site_fract_x
_atom_site_fract_y
_atom_site_fract_z
Si Si1 0.534528 0.035782 0.125065
Si Si2 0.963849 0.905573 0.553573
Si Si3 0.466396 0.750000 0.965073
Si Si4 0.031427 0.595393 0.344269
Si Si5 0.962116 0.604625 0.747975
Si Si6 0.041986 0.250000 0.904778
O O1 0.750000 0.035050 0.121378
O O2 0.462307 0.886195 0.118727
O O3 0.474038 0.123672 0.072300
O O4 0.489901 0.092418 0.185767
O O5 0.750000 0.894986 0.559037
O O6 0.030592 0.750000 0.549572
O O7 0.026916 0.992901 0.606834
O O8 0.000000 0.000000 0.500000
O O9 0.250000 0.750000 0.968103
O O10 0.533687 0.750000 0.028016
O O11 0.250000 0.600398 0.345652
O O12 0.971242 0.750000 0.350701
O O13 0.972426 0.524008 0.286531
O O14 0.750000 0.608069 0.738010
O O15 0.034568 0.750000 0.728873
O O16 0.250000 0.250000 0.888251
#
# Coordination Sequence:
#
# PCOD9450364 Si02
#       6
#     8   8   4   8   8   4
#     4  10  21  37  54  76 107 140 171 212 269 322
#     4  10  20  35  57  84 116 153 191 232 278 328
#     4  10  20  36  56  76 102 138 175 212 259 320
#     4   9  18  33  54  80 110 144 182 226 275 321
#     4  10  20  34  54  79 104 135 179 224 264 316
#     4  10  22  36  54  78 106 136 171 214 263 316
#
# _framework density 22.523933
#
# number of rings (size 3 to 8) (size 9 to 14) (size 15 to 20)
#    0.000    2.200    1.000    1.800    1.400    5.200 
#    0.000    1.000    0.000    3.600    0.000    0.000 
#    0.000    0.000    0.000    0.000    0.000    0.000 
#
# Total GULP energy -223384.217763 kJ/mol
# GULP energy per Si atom -5584.605444 kJ/mol
# Density = 2.247267 g / cm^3
# Si number density = 22.523933 Si / 1000 Ang^3
#
#
#
# Elastic Constant Matrix: (Units=GPa)
#
#
# Indices 1 2 3 4 5 6 
#
# 1 62.5291 7.9821 -15.8810 0.0000 0.0000 0.0000
# 2 7.9821 224.7596 53.5414 0.0000 0.0000 0.0000
# 3 -15.8810 53.5414 80.9372 0.0000 0.0000 0.0000
# 4 0.0000 0.0000 0.0000 40.9420 0.0000 0.0000
# 5 0.0000 0.0000 0.0000 0.0000 17.3090 0.0000
# 6 0.0000 0.0000 0.0000 0.0000 0.0000 -32.4908
#
#
#
# Elastic Compliance Matrix: (Units=1/GPa)
#
#
# Indices 1 2 3 4 5 6 
#
# 1 0.017359 -0.001695 0.004527 0.000000 0.000000 0.000000
# 2 -0.001695 0.005447 -0.003936 0.000000 0.000000 0.000000
# 3 0.004527 -0.003936 0.015847 0.000000 0.000000 0.000000
# 4 0.000000 0.000000 0.000000 0.024425 0.000000 0.000000
# 5 0.000000 0.000000 0.000000 0.000000 0.057774 0.000000
# 6 0.000000 0.000000 0.000000 0.000000 0.000000 -0.030778
#
#
# Mechanical properties :
#
#
# Convention : Reuss Voigt Hill
#
# Bulk Modulus (GPa) = 27.43795 51.05675 39.24735
# Shear Modulus (GPa) = 47.87946 26.65761 37.26853
#
# Velocity S-wave (km/s) = 4.61555 3.44397 4.07211
# Velocity P-wave (km/s) = 6.37280 6.20738 6.29063
#
# Compressibility (1/GPa) = 0.03644587
#
# Stress axis : x y z
#
# Youngs Moduli (GPa) = 57.60788 183.58818 63.10265
#
# Poissons Ratio (x) = 0.31117 -0.28568
# Poissons Ratio (y) = 0.09764 0.24836
# Poissons Ratio (z) = -0.26081 0.72257
#
# Static dielectric constant tensor:
#      x y z
#    x 1.851970 0.000000 0.000000 
#    y 0.000000 1.876950 0.000000 
#    z 0.000000 0.000000 1.778700 
# 
# From -- ./inp_files/29961.got.cif
#   From: 2010.05.17/outbox.cif.g08.bks.cpg/sg59_15_cif.got.tgz:29961.got - 2010.06.03 14:40:33.
