data_PCOD9450838
_publ_section_title
;
Structure prediction by ZEFSAII (Michael W. Deem and Ramdas Pophale) SiO2 
 PCOD9450838
Probable space group: P M M N
;
_chemical_formula_sum "Si O2"
_cell_formula_units_Z 58
_cell_length_a 20.323296
_cell_length_b 7.847589
_cell_length_c 17.865000
_cell_angle_alpha 90.000000
_cell_angle_beta 90.000000
_cell_angle_gamma 90.000000
_cell_volume 2849.268736
_symmetry_space_group_name_H-M "P M M N"
_symmetry_group_IT_number 59
_space_group.IT_coordinate_system_code '2'
_symmetry_cell_setting 'orthorhombic'
loop_
_space_group_symop_operation_xyz
x,y,z
1/2-x,1/2-y,z
1/2+x,-y,-z
-x,1/2+y,-z
-x,-y,-z
1/2+x,1/2+y,-z
1/2-x,y,z
x,1/2-y,z
loop_
_atom_site_type_symbol
_atom_site_label
_atom_site_fract_x
_atom_site_fract_y
_atom_site_fract_z
Si Si1 0.409514 0.553298 0.275842
Si Si2 0.354621 0.053060 0.570443
Si Si3 0.175022 0.952199 0.979952
Si Si4 0.824527 0.952450 0.591931
Si Si5 0.070687 0.451656 0.862321
Si Si6 0.549810 0.444823 0.308166
Si Si7 0.923875 0.042215 0.892522
Si Si8 0.750000 0.250000 0.400299
O O1 0.430421 0.750000 0.270493
O O2 0.349935 0.536817 0.332723
O O3 0.471125 0.454915 0.309833
O O4 0.398136 0.496655 0.190539
O O5 0.328874 0.250000 0.572440
O O6 0.366663 0.014115 0.482526
O O7 0.417287 0.044783 0.624198
O O8 0.306363 0.903706 0.597671
O O9 0.250000 0.020505 0.978950
O O10 0.180535 0.750000 0.993471
O O11 0.134316 0.975445 0.903559
O O12 0.126034 0.022053 0.044335
O O13 0.750000 0.007665 0.573640
O O14 0.824511 0.750000 0.604915
O O15 0.071767 0.250000 0.873859
O O16 0.069861 0.487510 0.773909
O O17 0.000314 0.516525 0.895543
O O18 0.570457 0.250000 0.312716
O O19 0.925545 0.250000 0.897930
#
# Coordination Sequence:
#
# PCOD9450838 Si02
#       8
#     8   8   8   8   8   8   8   2
#     4  10  21  36  60  89 118 152 196 251 306 358
#     4  11  23  41  63  89 124 160 205 259 298 360
#     4  10  20  35  55  82 116 149 187 236 290 354
#     4  10  22  39  58  83 119 159 201 249 301 355
#     4  10  20  37  59  82 111 148 192 241 292 350
#     4  11  22  40  62  87 117 154 201 247 302 366
#     4   8  17  35  57  82 110 147 193 237 289 352
#     4  12  22  40  64  94 116 164 210 240 312 370
#
# _framework density 20.356100000000001
#
# number of rings (size 3 to 8) (size 9 to 14) (size 15 to 20)
#    0.000    1.931    1.379    3.517    0.966    1.655 
#    1.241    4.828    0.000    0.000    0.000    0.000 
#    0.000    0.000    0.000    0.000    0.000    0.000 
#
# Total GULP energy -323020.714112 kJ/mol
# GULP energy per Si atom -5569.322657 kJ/mol
# Density = 2.030977 g / cm^3
# Si number density = 20.356100 Si / 1000 Ang^3
#
#
#
# Elastic Constant Matrix: (Units=GPa)
#
#
# Indices 1 2 3 4 5 6 
#
# 1 73.4749 6.0816 44.1418 0.0000 0.0000 0.0000
# 2 6.0816 60.5608 -4.2501 0.0000 0.0000 0.0000
# 3 44.1418 -4.2501 67.6258 0.0000 0.0000 0.0000
# 4 0.0000 0.0000 0.0000 18.6739 0.0000 0.0000
# 5 0.0000 0.0000 0.0000 0.0000 -20.1310 0.0000
# 6 0.0000 0.0000 0.0000 0.0000 0.0000 21.2692
#
#
#
# Elastic Compliance Matrix: (Units=1/GPa)
#
#
# Indices 1 2 3 4 5 6 
#
# 1 0.023062 -0.003387 -0.015266 0.000000 0.000000 0.000000
# 2 -0.003387 0.017083 0.003285 0.000000 0.000000 0.000000
# 3 -0.015266 0.003285 0.024959 0.000000 0.000000 0.000000
# 4 0.000000 0.000000 0.000000 0.053551 0.000000 0.000000
# 5 0.000000 0.000000 0.000000 0.000000 -0.049675 0.000000
# 6 0.000000 0.000000 0.000000 0.000000 0.000000 0.047016
#
#
# Mechanical properties :
#
#
# Convention : Reuss Voigt Hill
#
# Bulk Modulus (GPa) = 29.09881 32.62311 30.86096
# Shear Modulus (GPa) = 31.60772 14.34163 22.97468
#
# Velocity S-wave (km/s) = 3.94476 2.65719 3.36317
# Velocity P-wave (km/s) = 5.92234 5.04730 5.50224
#
# Compressibility (1/GPa) = 0.03436567
#
# Stress axis : x y z
#
# Youngs Moduli (GPa) = 43.36130 58.53774 40.06641
#
# Poissons Ratio (x) = 0.19828 0.61167
# Poissons Ratio (y) = 0.14688 -0.13160
# Poissons Ratio (z) = 0.66197 -0.19227
#
# Static dielectric constant tensor:
#      x y z
#    x 1.727960 0.000000 0.000000 
#    y 0.000000 1.765720 0.000000 
#    z 0.000000 0.000000 1.721930 
# 
# From -- ./inp_files/27894.got.cif
#   From: 2010.05.17/outbox.cif.g08.bks.cpg/sg59_14_cif.got.tgz:27894.got - 2010.06.03 14:40:33.
