data_PCOD9450514
_publ_section_title
;
Structure prediction by ZEFSAII (Michael W. Deem and Ramdas Pophale) SiO2 
 PCOD9450514
Probable space group: P M M N
;
_chemical_formula_sum "Si O2"
_cell_formula_units_Z 64
_cell_length_a 13.514894
_cell_length_b 22.962622
_cell_length_c 11.941666
_cell_angle_alpha 90.000000
_cell_angle_beta 90.000000
_cell_angle_gamma 90.000000
_cell_volume 3705.945605
_symmetry_space_group_name_H-M "P M M N"
_symmetry_group_IT_number 59
_space_group.IT_coordinate_system_code '2'
_symmetry_cell_setting 'orthorhombic'
loop_
_space_group_symop_operation_xyz
x,y,z
1/2-x,1/2-y,z
1/2+x,-y,-z
-x,1/2+y,-z
-x,-y,-z
1/2+x,1/2+y,-z
1/2-x,y,z
x,1/2-y,z
loop_
_atom_site_type_symbol
_atom_site_label
_atom_site_fract_x
_atom_site_fract_y
_atom_site_fract_z
Si Si1 0.567833 0.595594 0.677481
Si Si2 0.866126 0.319203 0.618398
Si Si3 0.137635 0.910219 0.584363
Si Si4 0.869058 0.685163 0.840458
Si Si5 0.496824 0.403596 0.755209
Si Si6 0.134788 0.455707 0.556114
Si Si7 0.133990 0.001386 0.140664
Si Si8 0.631251 0.903988 0.031943
O O1 0.449129 0.592501 0.674680
O O2 0.599277 0.658079 0.722735
O O3 0.606012 0.579681 0.554570
O O4 0.615338 0.549955 0.763660
O O5 0.750000 0.325163 0.652778
O O6 0.885017 0.250000 0.601936
O O7 0.875906 0.358726 0.505996
O O8 0.941721 0.349578 0.704685
O O9 0.250000 0.906722 0.627961
O O10 0.126281 0.974979 0.531260
O O11 0.750000 0.685260 0.843526
O O12 0.906262 0.750000 0.855678
O O13 0.902686 0.643298 0.940477
O O14 0.439173 0.436966 0.655033
O O15 0.572041 0.446591 0.818936
O O16 0.416472 0.389848 0.849835
O O17 0.250000 0.445061 0.586045
O O18 0.250000 0.987585 0.136938
O O19 0.106764 0.033092 0.023530
O O20 0.750000 0.901922 0.039744
#
# Coordination Sequence:
#
# PCOD9450514 Si02
#       8
#     8   8   8   8   8   8   8   8
#     4  11  18  34  53  80 109 140 175 221 267 319
#     4  10  22  38  54  75 106 147 194 230 259 313
#     4  10  20  35  54  78 111 149 182 216 264 325
#     4   9  19  36  58  79 101 140 190 230 266 316
#     4  12  20  34  56  81 111 144 179 221 277 332
#     4  11  21  32  51  84 118 143 171 217 279 339
#     4  10  20  34  55  81 108 140 180 224 267 321
#     4   9  20  36  54  80 110 140 177 225 278 327
#
# _framework density 17.269546999999999
#
# number of rings (size 3 to 8) (size 9 to 14) (size 15 to 20)
#    0.000    1.750    2.500    4.125    0.000    2.000 
#    0.000    0.000    0.000    4.125    0.000    0.000 
#    0.000    0.000    0.000    0.000    0.000    0.000 
#
# Total GULP energy -356863.690871 kJ/mol
# GULP energy per Si atom -5575.995170 kJ/mol
# Density = 1.723024 g / cm^3
# Si number density = 17.269547 Si / 1000 Ang^3
#
#
#
# Elastic Constant Matrix: (Units=GPa)
#
#
# Indices 1 2 3 4 5 6 
#
# 1 57.7186 28.9602 4.4017 0.0000 0.0000 0.0000
# 2 28.9602 102.7367 23.1195 0.0000 0.0000 0.0000
# 3 4.4017 23.1195 45.8329 0.0000 0.0000 0.0000
# 4 0.0000 0.0000 0.0000 12.7827 0.0000 0.0000
# 5 0.0000 0.0000 0.0000 0.0000 25.3509 0.0000
# 6 0.0000 0.0000 0.0000 0.0000 0.0000 23.0831
#
#
#
# Elastic Compliance Matrix: (Units=1/GPa)
#
#
# Indices 1 2 3 4 5 6 
#
# 1 0.020225 -0.005938 0.001053 0.000000 0.000000 0.000000
# 2 -0.005938 0.012723 -0.005848 0.000000 0.000000 0.000000
# 3 0.001053 -0.005848 0.024667 0.000000 0.000000 0.000000
# 4 0.000000 0.000000 0.000000 0.078231 0.000000 0.000000
# 5 0.000000 0.000000 0.000000 0.000000 0.039446 0.000000
# 6 0.000000 0.000000 0.000000 0.000000 0.000000 0.043322
#
#
# Mechanical properties :
#
#
# Convention : Reuss Voigt Hill
#
# Bulk Modulus (GPa) = 27.66299 35.47233 31.56766
# Shear Modulus (GPa) = 19.83112 22.23047 21.03079
#
# Velocity S-wave (km/s) = 3.39238 3.59174 3.49348
# Velocity P-wave (km/s) = 5.60334 6.14701 5.88146
#
# Compressibility (1/GPa) = 0.03614939
#
# Stress axis : x y z
#
# Youngs Moduli (GPa) = 49.44491 78.59512 40.53986
#
# Poissons Ratio (x) = 0.46670 -0.04269
# Poissons Ratio (y) = 0.29360 0.23707
# Poissons Ratio (z) = -0.05206 0.45961
#
# Static dielectric constant tensor:
#      x y z
#    x 1.601740 0.000000 0.000000 
#    y 0.000000 1.592290 0.000000 
#    z 0.000000 0.000000 1.569240 
# 
# From -- ./inp_files/16254.got.cif
#   From: 2010.05.17/outbox.cif.g08.bks.cpg/sg59_9_cif.got.tgz:16254.got - 2010.06.03 14:40:33.
