data_PCOD9450480
_publ_section_title
;
Structure prediction by ZEFSAII (Michael W. Deem and Ramdas Pophale) SiO2 
 PCOD9450480
Probable space group: P M M N
;
_chemical_formula_sum "Si O2"
_cell_formula_units_Z 64
_cell_length_a 20.479163
_cell_length_b 17.784292
_cell_length_c 9.604482
_cell_angle_alpha 90.000000
_cell_angle_beta 90.000000
_cell_angle_gamma 90.000000
_cell_volume 3498.023559
_symmetry_space_group_name_H-M "P M M N"
_symmetry_group_IT_number 59
_space_group.IT_coordinate_system_code '2'
_symmetry_cell_setting 'orthorhombic'
loop_
_space_group_symop_operation_xyz
x,y,z
1/2-x,1/2-y,z
1/2+x,-y,-z
-x,1/2+y,-z
-x,-y,-z
1/2+x,1/2+y,-z
1/2-x,y,z
x,1/2-y,z
loop_
_atom_site_type_symbol
_atom_site_label
_atom_site_fract_x
_atom_site_fract_y
_atom_site_fract_z
Si Si1 0.492236 0.337150 0.925991
Si Si2 0.990844 0.664188 0.560830
Si Si3 0.635327 0.167763 0.786603
Si Si4 0.678280 0.004337 0.444485
Si Si5 0.456560 0.429568 0.191849
Si Si6 0.639532 0.168722 0.450250
Si Si7 0.677554 0.496442 0.781192
Si Si8 0.549713 0.937103 0.306673
O O1 0.476745 0.250000 0.955028
O O2 0.563505 0.338856 0.853339
O O3 0.444108 0.376552 0.816130
O O4 0.489901 0.388347 0.062524
O O5 0.974772 0.750000 0.520893
O O6 0.948676 0.631934 0.686509
O O7 0.984158 0.606816 0.433822
O O8 0.066232 0.663701 0.608343
O O9 0.662405 0.250000 0.827838
O O10 0.631158 0.168745 0.618342
O O11 0.673498 0.091838 0.820197
O O12 0.750000 0.973760 0.409335
O O13 0.676594 0.093452 0.412720
O O14 0.669626 0.997827 0.612357
O O15 0.618001 0.967760 0.364311
O O16 0.385625 0.463055 0.155774
O O17 0.502602 0.496142 0.252033
O O18 0.668008 0.250000 0.411631
O O19 0.750000 0.525126 0.816664
#
# Coordination Sequence:
#
# PCOD9450480 Si02
#       8
#     8   8   8   8   8   8   8   8
#     4  11  23  38  58  86 117 146 188 242 295 344
#     4  11  20  33  57  86 113 144 187 237 291 341
#     4   9  17  31  53  82 115 148 183 223 280 347
#     4  10  20  34  54  84 117 152 192 239 287 340
#     4  12  22  36  59  87 118 149 192 241 292 338
#     4   9  16  29  51  83 117 149 180 222 284 350
#     4  10  20  34  55  84 118 152 189 237 288 343
#     4  12  20  36  61  84 113 149 191 243 289 335
#
# _framework density 18.296046
#
# number of rings (size 3 to 8) (size 9 to 14) (size 15 to 20)
#    0.000    1.500    5.000    2.250    0.000    0.500 
#    0.000    3.125    0.000    4.500    0.000    0.000 
#    0.000    0.000    0.000    0.000    0.000    0.000 
#
# Total GULP energy -356969.933540 kJ/mol
# GULP energy per Si atom -5577.655212 kJ/mol
# Density = 1.825440 g / cm^3
# Si number density = 18.296046 Si / 1000 Ang^3
#
#
#
# Elastic Constant Matrix: (Units=GPa)
#
#
# Indices 1 2 3 4 5 6 
#
# 1 94.7658 46.7929 10.9333 0.0000 0.0000 0.0000
# 2 46.7929 89.7398 24.8633 0.0000 0.0000 0.0000
# 3 10.9333 24.8633 45.6913 0.0000 0.0000 0.0000
# 4 0.0000 0.0000 0.0000 25.6418 0.0000 0.0000
# 5 0.0000 0.0000 0.0000 0.0000 6.1159 0.0000
# 6 0.0000 0.0000 0.0000 0.0000 0.0000 16.3980
#
#
#
# Elastic Compliance Matrix: (Units=1/GPa)
#
#
# Indices 1 2 3 4 5 6 
#
# 1 0.014233 -0.007628 0.000745 0.000000 0.000000 0.000000
# 2 -0.007628 0.017210 -0.007539 0.000000 0.000000 0.000000
# 3 0.000745 -0.007539 0.025810 0.000000 0.000000 0.000000
# 4 0.000000 0.000000 0.000000 0.038999 0.000000 0.000000
# 5 0.000000 0.000000 0.000000 0.000000 0.163507 0.000000
# 6 0.000000 0.000000 0.000000 0.000000 0.000000 0.060983
#
#
# Mechanical properties :
#
#
# Convention : Reuss Voigt Hill
#
# Bulk Modulus (GPa) = 35.20110 43.93065 39.56588
# Shear Modulus (GPa) = 13.92541 19.47164 16.69852
#
# Velocity S-wave (km/s) = 2.76183 3.26583 3.02434
# Velocity P-wave (km/s) = 5.42695 6.18741 5.81961
#
# Compressibility (1/GPa) = 0.02840820
#
# Stress axis : x y z
#
# Youngs Moduli (GPa) = 70.26029 58.10717 38.74410
#
# Poissons Ratio (x) = 0.44323 -0.02887
# Poissons Ratio (y) = 0.53593 0.29211
# Poissons Ratio (z) = -0.05235 0.43810
#
# Static dielectric constant tensor:
#      x y z
#    x 1.643440 0.000000 0.000000 
#    y 0.000000 1.661780 0.000000 
#    z 0.000000 0.000000 1.643710 
# 
# From -- ./inp_files/11603.got.cif
#   From: 2010.05.17/outbox.cif.g08.bks.cpg/sg59_6_cif.got.tgz:11603.got - 2010.06.03 14:40:33.
