data_PCOD9450172
_publ_section_title
;
Structure prediction by ZEFSAII (Michael W. Deem and Ramdas Pophale) SiO2 
 PCOD9450172
Probable space group: P M M N
;
_chemical_formula_sum "Si O2"
_cell_formula_units_Z 40
_cell_length_a 7.840511
_cell_length_b 30.741694
_cell_length_c 7.954651
_cell_angle_alpha 90.000000
_cell_angle_beta 90.000000
_cell_angle_gamma 90.000000
_cell_volume 1917.314224
_symmetry_space_group_name_H-M "P M M N"
_symmetry_group_IT_number 59
_space_group.IT_coordinate_system_code '2'
_symmetry_cell_setting 'orthorhombic'
loop_
_space_group_symop_operation_xyz
x,y,z
1/2-x,1/2-y,z
1/2+x,-y,-z
-x,1/2+y,-z
-x,-y,-z
1/2+x,1/2+y,-z
1/2-x,y,z
x,1/2-y,z
loop_
_atom_site_type_symbol
_atom_site_label
_atom_site_fract_x
_atom_site_fract_y
_atom_site_fract_z
Si Si1 0.938752 0.548260 0.457482
Si Si2 0.543026 0.359861 0.950685
Si Si3 0.459525 0.699701 0.743842
Si Si4 0.949383 0.142498 0.565158
Si Si5 0.546742 0.454867 0.915701
O O1 0.750000 0.553354 0.526691
O O2 0.000000 0.500000 0.500000
O O3 0.037533 0.592565 0.499648
O O4 0.945145 0.547896 0.256538
O O5 0.750000 0.356542 0.944201
O O6 0.481108 0.354272 0.756943
O O7 0.507080 0.409556 0.008707
O O8 0.482886 0.325484 0.088107
O O9 0.250000 0.698184 0.743594
O O10 0.509556 0.750000 0.743868
O O11 0.520384 0.674509 0.576662
O O12 0.750000 0.152875 0.580686
O O13 0.750000 0.454567 0.878573
O O14 0.500000 0.500000 0.000000
#
# Coordination Sequence:
#
# PCOD9450172 Si02
#       5
#     8   8   8   8   8
#     4  11  22  36  54  78 108 145 186 232 284 343
#     4   8  16  30  46  70 106 141 175 222 271 319
#     4   9  17  29  50  80 108 139 180 226 280 333
#     4   9  18  33  52  76 109 143 180 228 277 332
#     4  10  20  34  52  79 111 148 189 229 277 333
#
# _framework density 20.862518000000001
#
# number of rings (size 3 to 8) (size 9 to 14) (size 15 to 20)
#    0.000    2.600    0.000    3.600    2.800    0.800 
#    0.000    4.000    0.000    0.600    0.000    0.000 
#    0.000    0.000    0.000    0.000    0.000    0.000 
#
# Total GULP energy -222893.164609 kJ/mol
# GULP energy per Si atom -5572.329115 kJ/mol
# Density = 2.081503 g / cm^3
# Si number density = 20.862518 Si / 1000 Ang^3
#
#
#
# Elastic Constant Matrix: (Units=GPa)
#
#
# Indices 1 2 3 4 5 6 
#
# 1 31.7286 0.7678 3.8928 0.0000 0.0000 0.0000
# 2 0.7678 202.8669 105.8521 0.0000 0.0000 0.0000
# 3 3.8928 105.8521 108.8044 0.0000 0.0000 0.0000
# 4 0.0000 0.0000 0.0000 42.5759 0.0000 0.0000
# 5 0.0000 0.0000 0.0000 0.0000 6.8186 0.0000
# 6 0.0000 0.0000 0.0000 0.0000 0.0000 17.6446
#
#
#
# Elastic Compliance Matrix: (Units=1/GPa)
#
#
# Indices 1 2 3 4 5 6 
#
# 1 0.031748 0.000960 -0.002070 0.000000 0.000000 0.000000
# 2 0.000960 0.010040 -0.009802 0.000000 0.000000 0.000000
# 3 -0.002070 -0.009802 0.018801 0.000000 0.000000 0.000000
# 4 0.000000 0.000000 0.000000 0.023487 0.000000 0.000000
# 5 0.000000 0.000000 0.000000 0.000000 0.146658 0.000000
# 6 0.000000 0.000000 0.000000 0.000000 0.000000 0.056675
#
#
# Mechanical properties :
#
#
# Convention : Reuss Voigt Hill
#
# Bulk Modulus (GPa) = 25.79628 62.71392 44.25510
# Shear Modulus (GPa) = 15.52047 28.93363 22.22705
#
# Velocity S-wave (km/s) = 2.73049 3.72811 3.26760
# Velocity P-wave (km/s) = 4.72572 6.97550 5.95777
#
# Compressibility (1/GPa) = 0.03876529
#
# Stress axis : x y z
#
# Youngs Moduli (GPa) = 31.49804 99.59834 53.18836
#
# Poissons Ratio (x) = -0.09558 0.11008
# Poissons Ratio (y) = -0.03023 0.52136
# Poissons Ratio (z) = 0.06519 0.97629
#
# Static dielectric constant tensor:
#      x y z
#    x 1.778260 0.000000 0.000000 
#    y 0.000000 1.769970 0.000000 
#    z 0.000000 0.000000 1.742210 
# 
# From -- ./inp_files/5669.got.cif
#   From: 2010.05.17/outbox.cif.g08.bks.cpg/sg59_3_cif.got.tgz:5669.got - 2010.06.03 14:40:33.
