data_PCOD9450222
_publ_section_title
;
Structure prediction by ZEFSAII (Michael W. Deem and Ramdas Pophale) SiO2 
 PCOD9450222
Probable space group: P M M N
;
_chemical_formula_sum "Si O2"
_cell_formula_units_Z 56
_cell_length_a 8.616093
_cell_length_b 15.805204
_cell_length_c 21.485528
_cell_angle_alpha 90.000000
_cell_angle_beta 90.000000
_cell_angle_gamma 90.000000
_cell_volume 2925.880028
_symmetry_space_group_name_H-M "P M M N"
_symmetry_group_IT_number 59
_space_group.IT_coordinate_system_code '2'
_symmetry_cell_setting 'orthorhombic'
loop_
_space_group_symop_operation_xyz
x,y,z
1/2-x,1/2-y,z
1/2+x,-y,-z
-x,1/2+y,-z
-x,-y,-z
1/2+x,1/2+y,-z
1/2-x,y,z
x,1/2-y,z
loop_
_atom_site_type_symbol
_atom_site_label
_atom_site_fract_x
_atom_site_fract_y
_atom_site_fract_z
Si Si1 0.435571 0.490209 0.290302
Si Si2 0.063409 0.913237 0.971282
Si Si3 0.937806 0.342446 0.901282
Si Si4 0.063971 0.154277 0.644739
Si Si5 0.936106 0.656005 0.614184
Si Si6 0.434433 0.906276 0.487310
Si Si7 0.064027 0.983204 0.845092
O O1 0.250000 0.493509 0.291835
O O2 0.499728 0.581542 0.310351
O O3 0.486781 0.419233 0.340145
O O4 0.491292 0.466601 0.221673
O O5 0.250000 0.914891 0.969808
O O6 0.012847 0.917073 0.899334
O O7 0.020536 0.846996 0.024920
O O8 0.000000 0.000000 0.000000
O O9 0.750000 0.350245 0.896488
O O10 0.983005 0.250000 0.876536
O O11 0.012641 0.422897 0.867598
O O12 0.250000 0.151367 0.645924
O O13 0.013788 0.250000 0.660715
O O14 0.006935 0.131680 0.575284
O O15 0.750000 0.647527 0.604596
O O16 0.965222 0.750000 0.640012
O O17 0.018310 0.646455 0.547948
O O18 0.250000 0.910350 0.479921
O O19 0.500000 0.000000 0.500000
O O20 0.250000 0.981252 0.840457
#
# Coordination Sequence:
#
# PCOD9450222 Si02
#       7
#     8   8   8   8   8   8   8
#     4  11  23  39  60  83 112 154 197 238 281 339
#     4   8  15  29  49  73  99 131 169 211 261 312
#     4   9  17  31  53  80 108 138 178 226 274 330
#     4  11  24  41  61  86 118 153 189 237 294 347
#     4  10  22  41  63  86 113 147 189 240 296 346
#     4  12  23  37  61  90 119 151 189 236 289 344
#     4  10  20  34  53  76 108 146 183 226 275 331
#
# _framework density 19.139538999999999
#
# number of rings (size 3 to 8) (size 9 to 14) (size 15 to 20)
#    0.000    1.857    1.429    3.000    0.000    5.143 
#    0.000    0.714    0.000    0.857    0.000    0.000 
#    0.000    0.000    0.000    0.000    0.000    0.000 
#
# Total GULP energy -312470.057357 kJ/mol
# GULP energy per Si atom -5579.822453 kJ/mol
# Density = 1.909598 g / cm^3
# Si number density = 19.139539 Si / 1000 Ang^3
#
#
#
# Elastic Constant Matrix: (Units=GPa)
#
#
# Indices 1 2 3 4 5 6 
#
# 1 32.6980 8.8410 8.0428 0.0000 0.0000 0.0000
# 2 8.8410 53.8663 -13.4913 0.0000 0.0000 0.0000
# 3 8.0428 -13.4913 77.3393 0.0000 0.0000 0.0000
# 4 0.0000 0.0000 0.0000 12.1721 0.0000 0.0000
# 5 0.0000 0.0000 0.0000 0.0000 28.8492 0.0000
# 6 0.0000 0.0000 0.0000 0.0000 0.0000 19.3195
#
#
#
# Elastic Compliance Matrix: (Units=1/GPa)
#
#
# Indices 1 2 3 4 5 6 
#
# 1 0.033530 -0.006668 -0.004650 0.000000 0.000000 0.000000
# 2 -0.006668 0.020739 0.004311 0.000000 0.000000 0.000000
# 3 -0.004650 0.004311 0.014166 0.000000 0.000000 0.000000
# 4 0.000000 0.000000 0.000000 0.082155 0.000000 0.000000
# 5 0.000000 0.000000 0.000000 0.000000 0.034663 0.000000
# 6 0.000000 0.000000 0.000000 0.000000 0.000000 0.051761
#
#
# Mechanical properties :
#
#
# Convention : Reuss Voigt Hill
#
# Bulk Modulus (GPa) = 18.37545 18.96540 18.67042
# Shear Modulus (GPa) = 18.57586 22.76891 20.67238
#
# Velocity S-wave (km/s) = 3.11874 3.45284 3.29003
# Velocity P-wave (km/s) = 4.75293 5.08199 4.92021
#
# Compressibility (1/GPa) = 0.05442044
#
# Stress axis : x y z
#
# Youngs Moduli (GPa) = 29.82446 48.21926 70.59329
#
# Poissons Ratio (x) = 0.32151 0.32826
# Poissons Ratio (y) = 0.19886 -0.30434
# Poissons Ratio (z) = 0.13868 -0.20788
#
# Static dielectric constant tensor:
#      x y z
#    x 1.644860 0.000000 0.000000 
#    y 0.000000 1.690000 0.000000 
#    z 0.000000 0.000000 1.671980 
# 
# From -- ./inp_files/28976.got.cif
#   From: 2010.05.17/outbox.cif.g08.bks.cpg/sg59_15_cif.got.tgz:28976.got - 2010.06.03 14:40:33.
