data_PCOD9450623
_publ_section_title
;
Structure prediction by ZEFSAII (Michael W. Deem and Ramdas Pophale) SiO2 
 PCOD9450623
Probable space group: P M M N
;
_chemical_formula_sum "Si O2"
_cell_formula_units_Z 40
_cell_length_a 18.831879
_cell_length_b 8.572817
_cell_length_c 13.032468
_cell_angle_alpha 90.000000
_cell_angle_beta 90.000000
_cell_angle_gamma 90.000000
_cell_volume 2103.990989
_symmetry_space_group_name_H-M "P M M N"
_symmetry_group_IT_number 59
_space_group.IT_coordinate_system_code '2'
_symmetry_cell_setting 'orthorhombic'
loop_
_space_group_symop_operation_xyz
x,y,z
1/2-x,1/2-y,z
1/2+x,-y,-z
-x,1/2+y,-z
-x,-y,-z
1/2+x,1/2+y,-z
1/2-x,y,z
x,1/2-y,z
loop_
_atom_site_type_symbol
_atom_site_label
_atom_site_fract_x
_atom_site_fract_y
_atom_site_fract_z
Si Si1 0.420624 0.936906 0.988049
Si Si2 0.831077 0.936354 0.200588
Si Si3 0.070530 0.561431 0.375917
Si Si4 0.168656 0.940259 0.186928
Si Si5 0.413226 0.563824 0.610394
O O1 0.423019 0.750000 0.988632
O O2 0.383385 0.993013 0.884164
O O3 0.372960 0.989587 0.084828
O O4 0.500000 0.000000 0.000000
O O5 0.750000 0.989409 0.183288
O O6 0.833285 0.750000 0.192444
O O7 0.858236 0.986140 0.312456
O O8 0.063298 0.750000 0.372249
O O9 0.124908 0.512212 0.287710
O O10 0.095881 0.519729 0.490731
O O11 0.992893 0.488798 0.360086
O O12 0.250000 0.994016 0.187610
O O13 0.169809 0.750000 0.186871
O O14 0.407573 0.750000 0.618726
#
# Coordination Sequence:
#
# PCOD9450623 Si02
#       5
#     8   8   8   8   8
#     4  11  22  37  60  86 112 144 184 229 279 341
#     4  11  24  40  57  79 112 152 192 238 289 336
#     4   9  18  34  57  83 112 146 183 225 274 333
#     4   9  18  33  54  80 108 138 174 219 271 325
#     4  10  20  34  56  84 112 145 186 231 277 332
#
# _framework density 19.011489000000001
#
# number of rings (size 3 to 8) (size 9 to 14) (size 15 to 20)
#    0.000    2.000    0.000    3.600    0.000    5.600 
#    0.000    3.000    0.000    3.000    0.000    0.000 
#    0.000    0.000    0.000    0.000    0.000    0.000 
#
# Total GULP energy -223473.410374 kJ/mol
# GULP energy per Si atom -5586.835259 kJ/mol
# Density = 1.896822 g / cm^3
# Si number density = 19.011489 Si / 1000 Ang^3
#
#
#
# Elastic Constant Matrix: (Units=GPa)
#
#
# Indices 1 2 3 4 5 6 
#
# 1 89.2769 23.8679 38.3640 0.0000 0.0000 0.0000
# 2 23.8679 30.3577 18.9018 0.0000 0.0000 0.0000
# 3 38.3640 18.9018 73.7339 0.0000 0.0000 0.0000
# 4 0.0000 0.0000 0.0000 21.0181 0.0000 0.0000
# 5 0.0000 0.0000 0.0000 0.0000 5.5322 0.0000
# 6 0.0000 0.0000 0.0000 0.0000 0.0000 27.2561
#
#
#
# Elastic Compliance Matrix: (Units=1/GPa)
#
#
# Indices 1 2 3 4 5 6 
#
# 1 0.016235 -0.008930 -0.006158 0.000000 0.000000 0.000000
# 2 -0.008930 0.044109 -0.006661 0.000000 0.000000 0.000000
# 3 -0.006158 -0.006661 0.018474 0.000000 0.000000 0.000000
# 4 0.000000 0.000000 0.000000 0.047578 0.000000 0.000000
# 5 0.000000 0.000000 0.000000 0.000000 0.180760 0.000000
# 6 0.000000 0.000000 0.000000 0.000000 0.000000 0.036689
#
#
# Mechanical properties :
#
#
# Convention : Reuss Voigt Hill
#
# Bulk Modulus (GPa) = 28.31275 39.51507 33.91391
# Shear Modulus (GPa) = 12.52771 18.24360 15.38566
#
# Velocity S-wave (km/s) = 2.56980 3.10112 2.84787
# Velocity P-wave (km/s) = 4.87134 5.80108 5.35642
#
# Compressibility (1/GPa) = 0.03531978
#
# Stress axis : x y z
#
# Youngs Moduli (GPa) = 61.59688 22.67111 54.13091
#
# Poissons Ratio (x) = 0.20245 0.33332
# Poissons Ratio (y) = 0.55006 0.36057
# Poissons Ratio (z) = 0.37929 0.15101
#
# Static dielectric constant tensor:
#      x y z
#    x 1.630310 0.000000 0.000000 
#    y 0.000000 1.644440 0.000000 
#    z 0.000000 0.000000 1.647860 
# 
# From -- ./inp_files/13839.got.cif
#   From: 2010.05.17/outbox.cif.g08.bks.cpg/sg59_7_cif.got.tgz:13839.got - 2010.06.03 14:40:33.
