data_PCOD9450478
_publ_section_title
;
Structure prediction by ZEFSAII (Michael W. Deem and Ramdas Pophale) SiO2 
 PCOD9450478
Probable space group: P M M N
;
_chemical_formula_sum "Si O2"
_cell_formula_units_Z 56
_cell_length_a 8.610374
_cell_length_b 14.635018
_cell_length_c 24.954920
_cell_angle_alpha 90.000000
_cell_angle_beta 90.000000
_cell_angle_gamma 90.000000
_cell_volume 3144.643797
_symmetry_space_group_name_H-M "P M M N"
_symmetry_group_IT_number 59
_space_group.IT_coordinate_system_code '2'
_symmetry_cell_setting 'orthorhombic'
loop_
_space_group_symop_operation_xyz
x,y,z
1/2-x,1/2-y,z
1/2+x,-y,-z
-x,1/2+y,-z
-x,-y,-z
1/2+x,1/2+y,-z
1/2-x,y,z
x,1/2-y,z
loop_
_atom_site_type_symbol
_atom_site_label
_atom_site_fract_x
_atom_site_fract_y
_atom_site_fract_z
Si Si1 0.564360 0.492699 0.731254
Si Si2 0.563752 0.557722 0.154180
Si Si3 0.437744 0.355425 0.353891
Si Si4 0.937346 0.644654 0.354615
Si Si5 0.563418 0.250000 0.885480
Si Si6 0.937668 0.055465 0.050506
Si Si7 0.061011 0.750000 0.989349
Si Si8 0.435698 0.992877 0.559639
O O1 0.750000 0.494550 0.735731
O O2 0.491525 0.482776 0.789560
O O3 0.514292 0.582074 0.696988
O O4 0.512770 0.405838 0.695869
O O5 0.750000 0.563198 0.153781
O O6 0.497203 0.658581 0.142958
O O7 0.511792 0.492677 0.105232
O O8 0.250000 0.356619 0.355706
O O9 0.488473 0.250000 0.350483
O O10 0.499355 0.407301 0.406545
O O11 0.750000 0.641360 0.348717
O O12 0.984134 0.750000 0.359484
O O13 0.978623 0.583383 0.406203
O O14 0.750000 0.250000 0.884690
O O15 0.511637 0.250000 0.948194
O O16 0.750000 0.053874 0.049540
O O17 0.989721 0.159262 0.041366
O O18 0.000000 0.000000 0.000000
O O19 0.250000 0.750000 0.990444
O O20 0.250000 0.986748 0.558132
O O21 0.500000 0.000000 0.500000
#
# Coordination Sequence:
#
# PCOD9450478 Si02
#       8
#     8   8   8   8   4   8   4   8
#     4  10  21  37  57  80 108 141 182 227 273 329
#     4  11  23  37  55  82 114 144 177 224 277 331
#     4   9  19  38  61  81 106 146 191 236 282 326
#     4   9  19  36  56  77 106 143 180 221 270 320
#     4  11  21  35  59  83 107 143 183 222 267 326
#     4  10  20  36  57  79 107 141 179 222 273 326
#     4   9  18  35  57  79 105 139 177 220 269 324
#     4  10  20  34  54  83 116 148 184 226 272 324
#
# _framework density 17.808057999999999
#
# number of rings (size 3 to 8) (size 9 to 14) (size 15 to 20)
#    0.000    2.143    1.429    1.500    1.000    2.857 
#    1.286    1.786    0.000    0.000    0.000    0.000 
#    0.000    0.000    0.000    0.000    0.000    0.000 
#
# Total GULP energy -312560.177081 kJ/mol
# GULP energy per Si atom -5581.431734 kJ/mol
# Density = 1.776753 g / cm^3
# Si number density = 17.808058 Si / 1000 Ang^3
#
#
#
# Elastic Constant Matrix: (Units=GPa)
#
#
# Indices 1 2 3 4 5 6 
#
# 1 24.2785 33.9640 38.2228 0.0000 0.0000 0.0000
# 2 33.9640 184.5999 94.2217 0.0000 0.0000 0.0000
# 3 38.2228 94.2217 178.8214 0.0000 0.0000 0.0000
# 4 0.0000 0.0000 0.0000 10.3259 0.0000 0.0000
# 5 0.0000 0.0000 0.0000 0.0000 30.0258 0.0000
# 6 0.0000 0.0000 0.0000 0.0000 0.0000 19.1865
#
#
#
# Elastic Compliance Matrix: (Units=1/GPa)
#
#
# Indices 1 2 3 4 5 6 
#
# 1 0.068063 -0.006972 -0.010875 0.000000 0.000000 0.000000
# 2 -0.006972 0.008124 -0.002790 0.000000 0.000000 0.000000
# 3 -0.010875 -0.002790 0.009387 0.000000 0.000000 0.000000
# 4 0.000000 0.000000 0.000000 0.096843 0.000000 0.000000
# 5 0.000000 0.000000 0.000000 0.000000 0.033305 0.000000
# 6 0.000000 0.000000 0.000000 0.000000 0.000000 0.052120
#
#
# Mechanical properties :
#
#
# Convention : Reuss Voigt Hill
#
# Bulk Modulus (GPa) = 22.57369 80.05743 51.31556
# Shear Modulus (GPa) = 15.43770 26.66040 21.04905
#
# Velocity S-wave (km/s) = 2.94750 3.87343 3.44175
# Velocity P-wave (km/s) = 4.92822 8.06585 6.68376
#
# Compressibility (1/GPa) = 0.04429935
#
# Stress axis : x y z
#
# Youngs Moduli (GPa) = 14.69235 123.09014 106.53178
#
# Poissons Ratio (x) = 0.85820 1.15850
# Poissons Ratio (y) = 0.10244 0.29726
# Poissons Ratio (z) = 0.15977 0.34347
#
# Static dielectric constant tensor:
#      x y z
#    x 1.605060 0.000000 0.000000 
#    y 0.000000 1.610530 0.000000 
#    z 0.000000 0.000000 1.580530 
# 
# From -- ./inp_files/29227.got.cif
#   From: 2010.05.17/outbox.cif.g08.bks.cpg/sg59_15_cif.got.tgz:29227.got - 2010.06.03 14:40:33.
