data_PCOD9450960
_publ_section_title
;
Structure prediction by ZEFSAII (Michael W. Deem and Ramdas Pophale) SiO2 
 PCOD9450960
Probable space group: P M M N
;
_chemical_formula_sum "Si O2"
_cell_formula_units_Z 48
_cell_length_a 7.846804
_cell_length_b 18.716633
_cell_length_c 16.061883
_cell_angle_alpha 90.000000
_cell_angle_beta 90.000000
_cell_angle_gamma 90.000000
_cell_volume 2358.940504
_symmetry_space_group_name_H-M "P M M N"
_symmetry_group_IT_number 59
_space_group.IT_coordinate_system_code '2'
_symmetry_cell_setting 'orthorhombic'
loop_
_space_group_symop_operation_xyz
x,y,z
1/2-x,1/2-y,z
1/2+x,-y,-z
-x,1/2+y,-z
-x,-y,-z
1/2+x,1/2+y,-z
1/2-x,y,z
x,1/2-y,z
loop_
_atom_site_type_symbol
_atom_site_label
_atom_site_fract_x
_atom_site_fract_y
_atom_site_fract_z
Si Si1 0.954465 0.250000 0.087817
Si Si2 0.050525 0.986820 0.138265
Si Si3 0.454680 0.750000 0.721070
Si Si4 0.451385 0.102286 0.007562
Si Si5 0.040339 0.972364 0.326531
Si Si6 0.450636 0.829483 0.416579
Si Si7 0.952200 0.877071 0.598651
O O1 0.750000 0.250000 0.089462
O O2 0.015367 0.250000 0.183597
O O3 0.016950 0.319182 0.039581
O O4 0.250000 0.003594 0.148964
O O5 0.981296 0.979531 0.230951
O O6 0.977156 0.049068 0.079142
O O7 0.031889 0.916917 0.081145
O O8 0.250000 0.750000 0.720399
O O9 0.514419 0.679408 0.672264
O O10 0.250000 0.089013 0.999193
O O11 0.250000 0.971742 0.327800
O O12 0.979942 0.898053 0.366852
O O13 0.987408 0.043509 0.376537
O O14 0.250000 0.825912 0.396372
O O15 0.523649 0.750000 0.400606
O O16 0.467179 0.847406 0.514214
O O17 0.750000 0.880643 0.584704
#
# Coordination Sequence:
#
# PCOD9450960 Si02
#       7
#     4   8   4   8   8   8   8
#     4  11  23  37  55  82 111 144 185 229 274 333
#     4   9  18  36  58  80 110 147 189 228 270 330
#     4  11  23  37  55  82 115 144 181 233 284 333
#     4  10  20  35  57  82 114 149 180 226 283 332
#     4   9  19  35  56  83 110 146 193 232 268 325
#     4  10  20  36  56  78 112 150 185 228 278 327
#     4  11  21  35  57  82 112 147 186 229 278 332
#
# _framework density 20.348116999999998
#
# number of rings (size 3 to 8) (size 9 to 14) (size 15 to 20)
#    0.000    2.000    0.833    3.000    0.000    3.333 
#    1.500    3.333    0.000    0.000    0.000    0.000 
#    0.000    0.000    0.000    0.000    0.000    0.000 
#
# Total GULP energy -268025.643644 kJ/mol
# GULP energy per Si atom -5583.867576 kJ/mol
# Density = 2.030180 g / cm^3
# Si number density = 20.348117 Si / 1000 Ang^3
#
#
#
# Elastic Constant Matrix: (Units=GPa)
#
#
# Indices 1 2 3 4 5 6 
#
# 1 25.8057 -3.8008 -12.7843 0.0000 0.0000 0.0000
# 2 -3.8008 161.5021 39.2629 0.0000 0.0000 0.0000
# 3 -12.7843 39.2629 38.9602 0.0000 0.0000 0.0000
# 4 0.0000 0.0000 0.0000 29.4033 0.0000 0.0000
# 5 0.0000 0.0000 0.0000 0.0000 12.6157 0.0000
# 6 0.0000 0.0000 0.0000 0.0000 0.0000 17.9605
#
#
#
# Elastic Compliance Matrix: (Units=1/GPa)
#
#
# Indices 1 2 3 4 5 6 
#
# 1 0.047769 -0.003558 0.019261 0.000000 0.000000 0.000000
# 2 -0.003558 0.008466 -0.009700 0.000000 0.000000 0.000000
# 3 0.019261 -0.009700 0.041762 0.000000 0.000000 0.000000
# 4 0.000000 0.000000 0.000000 0.034010 0.000000 0.000000
# 5 0.000000 0.000000 0.000000 0.000000 0.079266 0.000000
# 6 0.000000 0.000000 0.000000 0.000000 0.000000 0.055678
#
#
# Mechanical properties :
#
#
# Convention : Reuss Voigt Hill
#
# Bulk Modulus (GPa) = 9.09065 30.18040 19.63552
# Shear Modulus (GPa) = 17.14600 25.56859 21.35729
#
# Velocity S-wave (km/s) = 2.90596 3.54864 3.24326
# Velocity P-wave (km/s) = 3.96696 5.62625 4.86783
#
# Compressibility (1/GPa) = 0.11000310
#
# Stress axis : x y z
#
# Youngs Moduli (GPa) = 20.93409 118.11680 23.94506
#
# Poissons Ratio (x) = 0.42029 -0.46120
# Poissons Ratio (y) = 0.07449 0.23226
# Poissons Ratio (z) = -0.40320 1.14568
#
# Static dielectric constant tensor:
#      x y z
#    x 1.755240 0.000000 0.000000 
#    y 0.000000 1.722210 0.000000 
#    z 0.000000 0.000000 1.697900 
# 
# From -- ./inp_files/20489.got.cif
#   From: 2010.05.17/outbox.cif.g08.bks.cpg/sg59_11_cif.got.tgz:20489.got - 2010.06.03 14:40:33.
