data_PCOD9450806
_publ_section_title
;
Structure prediction by ZEFSAII (Michael W. Deem and Ramdas Pophale) SiO2 
 PCOD9450806
Probable space group: P M M N
;
_chemical_formula_sum "Si O2"
_cell_formula_units_Z 48
_cell_length_a 8.527541
_cell_length_b 24.340290
_cell_length_c 12.991263
_cell_angle_alpha 90.000000
_cell_angle_beta 90.000000
_cell_angle_gamma 90.000000
_cell_volume 2696.503196
_symmetry_space_group_name_H-M "P M M N"
_symmetry_group_IT_number 59
_space_group.IT_coordinate_system_code '2'
_symmetry_cell_setting 'orthorhombic'
loop_
_space_group_symop_operation_xyz
x,y,z
1/2-x,1/2-y,z
1/2+x,-y,-z
-x,1/2+y,-z
-x,-y,-z
1/2+x,1/2+y,-z
1/2-x,y,z
x,1/2-y,z
loop_
_atom_site_type_symbol
_atom_site_label
_atom_site_fract_x
_atom_site_fract_y
_atom_site_fract_z
Si Si1 0.562045 0.998931 0.617018
Si Si2 0.060775 0.118815 0.299545
Si Si3 0.939012 0.312378 0.112455
Si Si4 0.941241 0.812779 0.501058
Si Si5 0.437751 0.113512 0.692873
Si Si6 0.439336 0.812909 0.124890
O O1 0.750000 0.998166 0.612468
O O2 0.509218 0.942961 0.673298
O O3 0.500000 0.000000 0.500000
O O4 0.505964 0.053065 0.676055
O O5 0.250000 0.119098 0.298173
O O6 0.008843 0.158036 0.393560
O O7 0.001754 0.143859 0.193139
O O8 0.750000 0.312805 0.115189
O O9 0.990682 0.250000 0.139731
O O10 0.985694 0.322821 0.993938
O O11 0.750000 0.812303 0.500730
O O12 0.995045 0.750000 0.494472
O O13 0.991053 0.848750 0.403387
O O14 0.250000 0.110116 0.689446
O O15 0.490207 0.143691 0.796508
O O16 0.250000 0.815349 0.129920
O O17 0.485943 0.750000 0.151683
#
# Coordination Sequence:
#
# PCOD9450806 Si02
#       6
#     8   8   8   8   8   8
#     4  11  22  38  57  79 109 148 189 230 277 328
#     4  10  20  35  55  79 108 143 184 225 271 326
#     4   9  19  36  57  82 113 146 180 223 276 330
#     4   9  17  30  49  76 110 140 168 215 274 324
#     4  11  21  35  55  82 112 145 187 228 274 330
#     4   9  19  37  58  81 113 149 182 223 277 329
#
# _framework density 17.800833000000001
#
# number of rings (size 3 to 8) (size 9 to 14) (size 15 to 20)
#    0.000    2.167    1.667    3.000    0.000    4.000 
#    0.000    2.500    0.000    3.000    0.000    0.000 
#    0.000    0.000    0.000    0.000    0.000    0.000 
#
# Total GULP energy -267940.007767 kJ/mol
# GULP energy per Si atom -5582.083495 kJ/mol
# Density = 1.776032 g / cm^3
# Si number density = 17.800833 Si / 1000 Ang^3
#
#
#
# Elastic Constant Matrix: (Units=GPa)
#
#
# Indices 1 2 3 4 5 6 
#
# 1 22.7179 29.3654 24.3157 0.0000 0.0000 0.0000
# 2 29.3654 163.2137 86.6824 0.0000 0.0000 0.0000
# 3 24.3157 86.6824 116.3784 0.0000 0.0000 0.0000
# 4 0.0000 0.0000 0.0000 23.1345 0.0000 0.0000
# 5 0.0000 0.0000 0.0000 0.0000 29.6656 0.0000
# 6 0.0000 0.0000 0.0000 0.0000 0.0000 25.7192
#
#
#
# Elastic Compliance Matrix: (Units=1/GPa)
#
#
# Indices 1 2 3 4 5 6 
#
# 1 0.061149 -0.006976 -0.007580 0.000000 0.000000 0.000000
# 2 -0.006976 0.010933 -0.006685 0.000000 0.000000 0.000000
# 3 -0.007580 -0.006685 0.015156 0.000000 0.000000 0.000000
# 4 0.000000 0.000000 0.000000 0.043226 0.000000 0.000000
# 5 0.000000 0.000000 0.000000 0.000000 0.033709 0.000000
# 6 0.000000 0.000000 0.000000 0.000000 0.000000 0.038881
#
#
# Mechanical properties :
#
#
# Convention : Reuss Voigt Hill
#
# Bulk Modulus (GPa) = 22.34435 64.78190 43.56313
# Shear Modulus (GPa) = 19.19716 26.50030 22.84873
#
# Velocity S-wave (km/s) = 3.28753 3.86257 3.58659
# Velocity P-wave (km/s) = 5.19520 7.50761 6.45578
#
# Compressibility (1/GPa) = 0.04475403
#
# Stress axis : x y z
#
# Youngs Moduli (GPa) = 16.35353 91.46863 65.98042
#
# Poissons Ratio (x) = 0.63809 0.50015
# Poissons Ratio (y) = 0.11408 0.44111
# Poissons Ratio (z) = 0.12396 0.61151
#
# Static dielectric constant tensor:
#      x y z
#    x 1.614950 0.000000 0.000000 
#    y 0.000000 1.595870 0.000000 
#    z 0.000000 0.000000 1.584060 
# 
# From -- ./inp_files/14326.got.cif
#   From: 2010.05.17/outbox.cif.g08.bks.cpg/sg59_8_cif.got.tgz:14326.got - 2010.06.03 14:40:33.
