data_PCOD9450243
_publ_section_title
;
Structure prediction by ZEFSAII (Michael W. Deem and Ramdas Pophale) SiO2 
 PCOD9450243
Probable space group: P M M N
;
_chemical_formula_sum "Si O2"
_cell_formula_units_Z 40
_cell_length_a 9.282174
_cell_length_b 7.557138
_cell_length_c 26.511187
_cell_angle_alpha 90.000000
_cell_angle_beta 90.000000
_cell_angle_gamma 90.000000
_cell_volume 1859.671482
_symmetry_space_group_name_H-M "P M M N"
_symmetry_group_IT_number 59
_space_group.IT_coordinate_system_code '2'
_symmetry_cell_setting 'orthorhombic'
loop_
_space_group_symop_operation_xyz
x,y,z
1/2-x,1/2-y,z
1/2+x,-y,-z
-x,1/2+y,-z
-x,-y,-z
1/2+x,1/2+y,-z
1/2-x,y,z
x,1/2-y,z
loop_
_atom_site_type_symbol
_atom_site_label
_atom_site_fract_x
_atom_site_fract_y
_atom_site_fract_z
Si Si1 0.586182 0.462494 0.051007
Si Si2 0.913717 0.537693 0.851432
Si Si3 0.413832 0.462270 0.551002
Si Si4 0.413927 0.462433 0.749428
Si Si5 0.083722 0.533258 0.349823
O O1 0.750000 0.530252 0.048849
O O2 0.594367 0.250000 0.055863
O O3 0.499991 0.530230 0.099811
O O4 0.500000 0.500000 0.000000
O O5 0.750000 0.469510 0.849124
O O6 0.905156 0.750000 0.856547
O O7 0.000202 0.501364 0.800407
O O8 0.500000 0.500000 0.500000
O O9 0.250000 0.530299 0.548945
O O10 0.405597 0.250000 0.555791
O O11 0.500439 0.526239 0.600024
O O12 0.250000 0.530062 0.751332
O O13 0.406088 0.250000 0.744912
O O14 0.500452 0.526010 0.700347
O O15 0.250000 0.477272 0.349823
O O16 0.083831 0.750000 0.349836
#
# Coordination Sequence:
#
# PCOD9450243 Si02
#       5
#     8   8   8   8   8
#     4  10  21  37  57  80 106 138 175 214 258 308
#     4  10  21  37  56  78 106 140 175 213 260 310
#     4  10  20  34  53  77 105 137 173 214 260 310
#     4  10  20  34  54  80 107 136 173 215 257 305
#     4   9  17  31  52  76 103 136 172 212 259 308
#
# _framework density 21.509174999999999
#
# number of rings (size 3 to 8) (size 9 to 14) (size 15 to 20)
#    0.000    2.200    0.000    3.000    0.000    8.000 
#    0.000    1.000    0.000    6.000    0.000    0.000 
#    0.000    0.000    0.000    0.000    0.000    0.000 
#
# Total GULP energy -223612.590302 kJ/mol
# GULP energy per Si atom -5590.314758 kJ/mol
# Density = 2.146022 g / cm^3
# Si number density = 21.509175 Si / 1000 Ang^3
#
#
#
# Elastic Constant Matrix: (Units=GPa)
#
#
# Indices 1 2 3 4 5 6 
#
# 1 283.5848 9.1297 168.9580 0.0000 0.0000 0.0000
# 2 9.1297 51.3123 -2.2201 0.0000 0.0000 0.0000
# 3 168.9580 -2.2201 259.4863 0.0000 0.0000 0.0000
# 4 0.0000 0.0000 0.0000 27.2899 0.0000 0.0000
# 5 0.0000 0.0000 0.0000 0.0000 47.8570 0.0000
# 6 0.0000 0.0000 0.0000 0.0000 0.0000 15.9280
#
#
#
# Elastic Compliance Matrix: (Units=1/GPa)
#
#
# Indices 1 2 3 4 5 6 
#
# 1 0.005835 -0.001203 -0.003809 0.000000 0.000000 0.000000
# 2 -0.001203 0.019744 0.000952 0.000000 0.000000 0.000000
# 3 -0.003809 0.000952 0.006342 0.000000 0.000000 0.000000
# 4 0.000000 0.000000 0.000000 0.036644 0.000000 0.000000
# 5 0.000000 0.000000 0.000000 0.000000 0.020896 0.000000
# 6 0.000000 0.000000 0.000000 0.000000 0.000000 0.062782
#
#
# Mechanical properties :
#
#
# Convention : Reuss Voigt Hill
#
# Bulk Modulus (GPa) = 42.01606 105.12428 73.57017
# Shear Modulus (GPa) = 29.70958 46.11603 37.91280
#
# Velocity S-wave (km/s) = 3.72055 4.63538 4.20293
# Velocity P-wave (km/s) = 6.16710 8.81074 7.60468
#
# Compressibility (1/GPa) = 0.02380042
#
# Stress axis : x y z
#
# Youngs Moduli (GPa) = 171.39165 50.64897 157.67219
#
# Poissons Ratio (x) = 0.06093 0.60063
# Poissons Ratio (y) = 0.20617 -0.15013
# Poissons Ratio (z) = 0.65289 -0.04823
#
# Static dielectric constant tensor:
#      x y z
#    x 1.756420 0.000000 0.000000 
#    y 0.000000 1.834710 0.000000 
#    z 0.000000 0.000000 1.713250 
# 
# From -- ./inp_files/26745.got.cif
#   From: 2010.05.17/outbox.cif.g08.bks.cpg/sg59_14_cif.got.tgz:26745.got - 2010.06.03 14:40:33.
