data_PCOD9450807
_publ_section_title
;
Structure prediction by ZEFSAII (Michael W. Deem and Ramdas Pophale) SiO2 
 PCOD9450807
Probable space group: P M M N
;
_chemical_formula_sum "Si O2"
_cell_formula_units_Z 64
_cell_length_a 7.566977
_cell_length_b 30.059165
_cell_length_c 12.810545
_cell_angle_alpha 90.000000
_cell_angle_beta 90.000000
_cell_angle_gamma 90.000000
_cell_volume 2913.848265
_symmetry_space_group_name_H-M "P M M N"
_symmetry_group_IT_number 59
_space_group.IT_coordinate_system_code '2'
_symmetry_cell_setting 'orthorhombic'
loop_
_space_group_symop_operation_xyz
x,y,z
1/2-x,1/2-y,z
1/2+x,-y,-z
-x,1/2+y,-z
-x,-y,-z
1/2+x,1/2+y,-z
1/2-x,y,z
x,1/2-y,z
loop_
_atom_site_type_symbol
_atom_site_label
_atom_site_fract_x
_atom_site_fract_y
_atom_site_fract_z
Si Si1 0.037883 0.300429 0.438737
Si Si2 0.542204 0.798933 0.001428
Si Si3 0.539063 0.158498 0.212697
Si Si4 0.538294 0.978643 0.111968
Si Si5 0.539905 0.550631 0.527065
Si Si6 0.454385 0.938462 0.763404
Si Si7 0.533187 0.621921 0.148025
Si Si8 0.965628 0.631278 0.385685
O O1 0.250000 0.298439 0.448667
O O2 0.969484 0.250000 0.439246
O O3 0.973510 0.330152 0.535588
O O4 0.001891 0.323696 0.328015
O O5 0.750000 0.796808 0.026889
O O6 0.466010 0.750000 0.023529
O O7 0.526850 0.810002 0.879131
O O8 0.470245 0.840544 0.067261
O O9 0.750000 0.156642 0.204054
O O10 0.466398 0.108235 0.198363
O O11 0.750000 0.975072 0.126698
O O12 0.471602 0.928222 0.122278
O O13 0.468732 0.015226 0.194500
O O14 0.500000 0.000000 0.000000
O O15 0.500000 0.500000 0.500000
O O16 0.750000 0.556135 0.537785
O O17 0.459679 0.562381 0.638670
O O18 0.480116 0.584480 0.437451
O O19 0.250000 0.938390 0.797707
O O20 0.750000 0.621260 0.144362
O O21 0.479588 0.634225 0.265882
O O22 0.750000 0.632047 0.384922
#
# Coordination Sequence:
#
# PCOD9450807 Si02
#       8
#     8   8   8   8   8   8   8   8
#     4  10  20  35  57  84 112 143 185 235 281 334
#     4  10  21  36  56  82 109 140 183 233 281 336
#     4  11  22  36  56  81 113 148 184 231 283 339
#     4  10  20  35  55  79 109 145 186 232 280 333
#     4  11  21  34  55  81 112 149 187 228 276 334
#     4  10  21  36  54  79 111 146 186 233 281 334
#     4   9  18  34  56  80 109 143 179 225 279 331
#     4   9  18  34  55  81 111 144 182 228 284 335
#
# _framework density 21.964082000000001
#
# number of rings (size 3 to 8) (size 9 to 14) (size 15 to 20)
#    0.000    2.000    1.250    2.625    0.000    5.500 
#    0.000    2.500    0.000    3.000    0.000    1.750 
#    0.000    0.000    0.000    0.000    0.000    0.000 
#
# Total GULP energy -357585.589392 kJ/mol
# GULP energy per Si atom -5587.274834 kJ/mol
# Density = 2.191409 g / cm^3
# Si number density = 21.964082 Si / 1000 Ang^3
#
#
#
# Elastic Constant Matrix: (Units=GPa)
#
#
# Indices 1 2 3 4 5 6 
#
# 1 52.7266 10.6640 -10.5516 0.0000 0.0000 0.0000
# 2 10.6640 204.3640 71.7225 0.0000 0.0000 0.0000
# 3 -10.5516 71.7225 122.2799 0.0000 0.0000 0.0000
# 4 0.0000 0.0000 0.0000 -2.9532 0.0000 0.0000
# 5 0.0000 0.0000 0.0000 0.0000 -5.8009 0.0000
# 6 0.0000 0.0000 0.0000 0.0000 0.0000 11.8515
#
#
#
# Elastic Compliance Matrix: (Units=1/GPa)
#
#
# Indices 1 2 3 4 5 6 
#
# 1 0.019974 -0.002074 0.002940 0.000000 0.000000 0.000000
# 2 -0.002074 0.006377 -0.003919 0.000000 0.000000 0.000000
# 3 0.002940 -0.003919 0.010731 0.000000 0.000000 0.000000
# 4 0.000000 0.000000 0.000000 -0.338619 0.000000 0.000000
# 5 0.000000 0.000000 0.000000 0.000000 -0.172388 0.000000
# 6 0.000000 0.000000 0.000000 0.000000 0.000000 0.084377
#
#
# Mechanical properties :
#
#
# Convention : Reuss Voigt Hill
#
# Bulk Modulus (GPa) = 32.28473 58.11558 45.20016
# Shear Modulus (GPa) = -13.40062 21.12188 3.86063
#
# Velocity S-wave (km/s) = -2.47273 3.10442 1.32722
# Velocity P-wave (km/s) = 2.56481 6.27429 4.79296
#
# Compressibility (1/GPa) = 0.03097439
#
# Stress axis : x y z
#
# Youngs Moduli (GPa) = 50.06609 156.81429 93.19206
#
# Poissons Ratio (x) = 0.32525 -0.27399
# Poissons Ratio (y) = 0.10384 0.36525
# Poissons Ratio (z) = -0.14720 0.61461
#
# Static dielectric constant tensor:
#      x y z
#    x 1.854970 0.000000 0.000000 
#    y 0.000000 1.821830 0.000000 
#    z 0.000000 0.000000 1.750430 
# 
# From -- ./inp_files/14883.got.cif
#   From: 2010.05.17/outbox.cif.g08.bks.cpg/sg59_8_cif.got.tgz:14883.got - 2010.06.03 14:40:33.
