data_PCOD9450643
_publ_section_title
;
Structure prediction by ZEFSAII (Michael W. Deem and Ramdas Pophale) SiO2 
 PCOD9450643
Probable space group: P M M N
;
_chemical_formula_sum "Si O2"
_cell_formula_units_Z 56
_cell_length_a 15.027056
_cell_length_b 8.353155
_cell_length_c 21.298336
_cell_angle_alpha 90.000000
_cell_angle_beta 90.000000
_cell_angle_gamma 90.000000
_cell_volume 2673.438015
_symmetry_space_group_name_H-M "P M M N"
_symmetry_group_IT_number 59
_space_group.IT_coordinate_system_code '2'
_symmetry_cell_setting 'orthorhombic'
loop_
_space_group_symop_operation_xyz
x,y,z
1/2-x,1/2-y,z
1/2+x,-y,-z
-x,1/2+y,-z
-x,-y,-z
1/2+x,1/2+y,-z
1/2-x,y,z
x,1/2-y,z
loop_
_atom_site_type_symbol
_atom_site_label
_atom_site_fract_x
_atom_site_fract_y
_atom_site_fract_z
Si Si1 0.147451 0.557687 0.972440
Si Si2 0.535365 0.941272 0.910404
Si Si3 0.036597 0.556319 0.227606
Si Si4 0.428672 0.930840 0.601975
Si Si5 0.893094 0.067430 0.643151
Si Si6 0.149274 0.427559 0.485510
Si Si7 0.154366 0.057202 0.718727
O O1 0.250000 0.498158 0.963911
O O2 0.151685 0.750000 0.967126
O O3 0.105516 0.513732 0.040183
O O4 0.066533 0.502285 0.926325
O O5 0.536705 0.750000 0.917798
O O6 0.559494 0.988957 0.839939
O O7 0.038886 0.750000 0.226480
O O8 0.100771 0.506501 0.285381
O O9 0.934805 0.507399 0.244506
O O10 0.459190 0.750000 0.614030
O O11 0.504623 0.056207 0.620483
O O12 0.402947 0.951814 0.529848
O O13 0.351571 0.974873 0.650676
O O14 0.861402 0.250000 0.642765
O O15 0.848214 0.969333 0.587776
O O16 0.250000 0.427929 0.508841
O O17 0.111472 0.250000 0.493765
O O18 0.250000 0.017368 0.748576
O O19 0.150564 0.250000 0.711449
#
# Coordination Sequence:
#
# PCOD9450643 Si02
#       7
#     8   8   8   8   8   8   8
#     4   9  19  37  59  83 114 150 184 219 263 314
#     4  10  20  34  56  86 116 145 181 226 268 310
#     4   9  19  35  54  76 105 144 180 211 258 316
#     4  11  21  33  52  76 102 133 171 215 266 323
#     4  10  21  38  57  75  99 133 175 217 257 310
#     4  11  23  37  53  74 101 131 166 215 272 321
#     4   9  18  33  51  73 104 140 179 222 267 318
#
# _framework density 20.946809999999999
#
# number of rings (size 3 to 8) (size 9 to 14) (size 15 to 20)
#    0.000    2.143    0.000    4.286    0.000    7.429 
#    0.000    0.714    0.000    0.857    0.000    0.000 
#    0.000    0.000    0.000    0.000    0.000    0.000 
#
# Total GULP energy -312227.816089 kJ/mol
# GULP energy per Si atom -5575.496716 kJ/mol
# Density = 2.089913 g / cm^3
# Si number density = 20.946810 Si / 1000 Ang^3
#
#
#
# Elastic Constant Matrix: (Units=GPa)
#
#
# Indices 1 2 3 4 5 6 
#
# 1 37.9245 -4.5277 -14.1484 0.0000 0.0000 0.0000
# 2 -4.5277 27.8143 0.1041 0.0000 0.0000 0.0000
# 3 -14.1484 0.1041 93.5118 0.0000 0.0000 0.0000
# 4 0.0000 0.0000 0.0000 24.7316 0.0000 0.0000
# 5 0.0000 0.0000 0.0000 0.0000 14.2561 0.0000
# 6 0.0000 0.0000 0.0000 0.0000 0.0000 12.9261
#
#
#
# Elastic Compliance Matrix: (Units=1/GPa)
#
#
# Indices 1 2 3 4 5 6 
#
# 1 0.028529 0.004628 0.004311 0.000000 0.000000 0.000000
# 2 0.004628 0.036704 0.000659 0.000000 0.000000 0.000000
# 3 0.004311 0.000659 0.011345 0.000000 0.000000 0.000000
# 4 0.000000 0.000000 0.000000 0.040434 0.000000 0.000000
# 5 0.000000 0.000000 0.000000 0.000000 0.070145 0.000000
# 6 0.000000 0.000000 0.000000 0.000000 0.000000 0.077363
#
#
# Mechanical properties :
#
#
# Convention : Reuss Voigt Hill
#
# Bulk Modulus (GPa) = 10.44109 13.56739 12.00424
# Shear Modulus (GPa) = 18.03437 22.23761 20.13599
#
# Velocity S-wave (km/s) = 2.93740 3.26179 3.10383
# Velocity P-wave (km/s) = 4.06199 4.54718 4.31142
#
# Compressibility (1/GPa) = 0.09577542
#
# Stress axis : x y z
#
# Youngs Moduli (GPa) = 35.05193 27.24526 88.14142
#
# Poissons Ratio (x) = -0.12609 -0.38001
# Poissons Ratio (y) = -0.16222 -0.05812
# Poissons Ratio (z) = -0.15112 -0.01796
#
# Static dielectric constant tensor:
#      x y z
#    x 1.813690 0.000000 0.000000 
#    y 0.000000 1.727370 0.000000 
#    z 0.000000 0.000000 1.749110 
# 
# From -- ./inp_files/30332.got.cif
#   From: 2010.05.17/outbox.cif.g08.bks.cpg/sg59_16_cif.got.tgz:30332.got - 2010.06.03 14:40:33.
