data_PCOD9450030
_publ_section_title
;
Structure prediction by ZEFSAII (Michael W. Deem and Ramdas Pophale) SiO2 
 PCOD9450030
Probable space group: P M M N
;
_chemical_formula_sum "Si O2"
_cell_formula_units_Z 64
_cell_length_a 7.467643
_cell_length_b 29.382261
_cell_length_c 12.940353
_cell_angle_alpha 90.000000
_cell_angle_beta 90.000000
_cell_angle_gamma 90.000000
_cell_volume 2839.323544
_symmetry_space_group_name_H-M "P M M N"
_symmetry_group_IT_number 59
_space_group.IT_coordinate_system_code '2'
_symmetry_cell_setting 'orthorhombic'
loop_
_space_group_symop_operation_xyz
x,y,z
1/2-x,1/2-y,z
1/2+x,-y,-z
-x,1/2+y,-z
-x,-y,-z
1/2+x,1/2+y,-z
1/2-x,y,z
x,1/2-y,z
loop_
_atom_site_type_symbol
_atom_site_label
_atom_site_fract_x
_atom_site_fract_y
_atom_site_fract_z
Si Si1 0.532825 0.388369 0.836019
Si Si2 0.963733 0.052166 0.029151
Si Si3 0.956798 0.547852 0.351092
Si Si4 0.531015 0.301909 0.950121
Si Si5 0.456768 0.199224 0.408124
Si Si6 0.034698 0.396585 0.458291
Si Si7 0.035757 0.953602 0.741706
Si Si8 0.452447 0.694971 0.824865
O O1 0.750000 0.390342 0.830728
O O2 0.463400 0.412346 0.733703
O O3 0.480018 0.336664 0.860609
O O4 0.469446 0.417044 0.935548
O O5 0.750000 0.059920 0.031395
O O6 0.033964 0.059546 0.145065
O O7 0.000000 0.000000 0.000000
O O8 0.750000 0.536498 0.374598
O O9 0.036690 0.568390 0.455945
O O10 0.035590 0.502191 0.300300
O O11 0.750000 0.301609 0.955906
O O12 0.472623 0.250000 0.934289
O O13 0.471876 0.319481 0.064052
O O14 0.250000 0.202549 0.439724
O O15 0.537035 0.250000 0.420330
O O16 0.535996 0.155116 0.464233
O O17 0.458177 0.187686 0.285327
O O18 0.250000 0.394092 0.471865
O O19 0.999332 0.416752 0.345657
O O20 0.250000 0.958758 0.753958
O O21 0.250000 0.676709 0.815904
O O22 0.443801 0.750000 0.835413
#
# Coordination Sequence:
#
# PCOD9450030 Si02
#       8
#     8   8   8   8   8   8   8   8
#     4  10  20  33  54  80 106 139 178 216 255 312
#     4  10  20  34  53  80 110 139 171 209 260 318
#     4  10  21  39  56  74 105 142 178 219 267 312
#     4   8  15  29  49  74 104 137 172 211 258 308
#     4   9  18  33  50  71 102 135 167 209 261 310
#     4  10  22  37  55  78 102 136 181 220 259 313
#     4  10  21  36  56  80 108 138 170 218 270 312
#     4   8  14  26  47  72  98 132 169 205 250 304
#
# _framework density 22.540579000000001
#
# number of rings (size 3 to 8) (size 9 to 14) (size 15 to 20)
#    0.000    2.625    1.250    1.125    1.750    2.000 
#    0.000    1.250    0.000    1.875    0.000    0.000 
#    0.000    0.000    0.000    0.000    0.000    0.000 
#
# Total GULP energy -357214.337861 kJ/mol
# GULP energy per Si atom -5581.474029 kJ/mol
# Density = 2.248928 g / cm^3
# Si number density = 22.540579 Si / 1000 Ang^3
#
#
#
# Elastic Constant Matrix: (Units=GPa)
#
#
# Indices 1 2 3 4 5 6 
#
# 1 61.6052 -10.6487 -8.0501 0.0000 0.0000 0.0000
# 2 -10.6487 61.4187 10.7653 0.0000 0.0000 0.0000
# 3 -8.0501 10.7653 80.3625 0.0000 0.0000 0.0000
# 4 0.0000 0.0000 0.0000 22.4968 0.0000 0.0000
# 5 0.0000 0.0000 0.0000 0.0000 5.4499 0.0000
# 6 0.0000 0.0000 0.0000 0.0000 0.0000 3.5972
#
#
#
# Elastic Compliance Matrix: (Units=1/GPa)
#
#
# Indices 1 2 3 4 5 6 
#
# 1 0.016871 0.002692 0.001329 0.000000 0.000000 0.000000
# 2 0.002692 0.017103 -0.002021 0.000000 0.000000 0.000000
# 3 0.001329 -0.002021 0.012848 0.000000 0.000000 0.000000
# 4 0.000000 0.000000 0.000000 0.044451 0.000000 0.000000
# 5 0.000000 0.000000 0.000000 0.000000 0.183489 0.000000
# 6 0.000000 0.000000 0.000000 0.000000 0.000000 0.277996
#
#
# Mechanical properties :
#
#
# Convention : Reuss Voigt Hill
#
# Bulk Modulus (GPa) = 19.67649 20.83549 20.25599
# Shear Modulus (GPa) = 8.83864 20.39678 14.61771
#
# Velocity S-wave (km/s) = 1.98235 3.01141 2.54934
# Velocity P-wave (km/s) = 3.74005 4.62115 4.20375
#
# Compressibility (1/GPa) = 0.05082208
#
# Stress axis : x y z
#
# Youngs Moduli (GPa) = 59.27174 58.47014 77.83571
#
# Poissons Ratio (x) = -0.15741 -0.10348
# Poissons Ratio (y) = -0.15957 0.15734
# Poissons Ratio (z) = -0.07880 0.11819
#
# Static dielectric constant tensor:
#      x y z
#    x 1.882250 0.000000 0.000000 
#    y 0.000000 1.847310 0.000000 
#    z 0.000000 0.000000 1.804070 
# 
# From -- ./inp_files/14972.got.cif
#   From: 2010.05.17/outbox.cif.g08.bks.cpg/sg59_8_cif.got.tgz:14972.got - 2010.06.03 14:40:33.
