data_PCOD9450383
_publ_section_title
;
Structure prediction by ZEFSAII (Michael W. Deem and Ramdas Pophale) SiO2 
 PCOD9450383
Probable space group: P M M N
;
_chemical_formula_sum "Si O2"
_cell_formula_units_Z 48
_cell_length_a 8.573675
_cell_length_b 30.832137
_cell_length_c 9.866481
_cell_angle_alpha 90.000000
_cell_angle_beta 90.000000
_cell_angle_gamma 90.000000
_cell_volume 2608.152179
_symmetry_space_group_name_H-M "P M M N"
_symmetry_group_IT_number 59
_space_group.IT_coordinate_system_code '2'
_symmetry_cell_setting 'orthorhombic'
loop_
_space_group_symop_operation_xyz
x,y,z
1/2-x,1/2-y,z
1/2+x,-y,-z
-x,1/2+y,-z
-x,-y,-z
1/2+x,1/2+y,-z
1/2-x,y,z
x,1/2-y,z
loop_
_atom_site_type_symbol
_atom_site_label
_atom_site_fract_x
_atom_site_fract_y
_atom_site_fract_z
Si Si1 0.938363 0.049158 0.352568
Si Si2 0.563322 0.800176 0.350858
Si Si3 0.063357 0.050943 0.649734
Si Si4 0.559757 0.124603 0.151218
Si Si5 0.436910 0.874448 0.159303
Si Si6 0.561588 0.299854 0.352242
O O1 0.750000 0.050659 0.361987
O O2 0.988523 0.082098 0.235441
O O3 0.005822 0.062295 0.498500
O O4 0.983761 0.999221 0.325748
O O5 0.750000 0.802474 0.350288
O O6 0.516102 0.750000 0.327508
O O7 0.496646 0.832390 0.239254
O O8 0.502773 0.812559 0.500423
O O9 0.250000 0.053581 0.653775
O O10 0.993572 0.083564 0.758668
O O11 0.750000 0.124692 0.149162
O O12 0.510527 0.166821 0.236531
O O13 0.506832 0.124882 0.996150
O O14 0.250000 0.873873 0.159026
O O15 0.750000 0.301109 0.358954
O O16 0.514375 0.250000 0.325284
#
# Coordination Sequence:
#
# PCOD9450383 Si02
#       6
#     8   8   8   8   8   8
#     4   9  18  35  57  78 103 138 179 222 266 311
#     4  10  21  37  56  79 107 137 172 216 263 311
#     4  10  20  34  54  80 107 136 175 221 266 313
#     4   9  19  34  52  76 105 138 177 219 260 306
#     4  11  22  35  53  77 107 142 177 213 257 312
#     4   9  17  32  56  82 105 133 172 217 264 313
#
# _framework density 18.403834
#
# number of rings (size 3 to 8) (size 9 to 14) (size 15 to 20)
#    0.000    2.333    0.000    2.500    0.000    4.333 
#    0.000    5.000    0.000    2.000    0.000    0.000 
#    0.000    0.000    0.000    0.000    0.000    0.000 
#
# Total GULP energy -267982.275649 kJ/mol
# GULP energy per Si atom -5582.964076 kJ/mol
# Density = 1.836195 g / cm^3
# Si number density = 18.403834 Si / 1000 Ang^3
#
#
#
# Elastic Constant Matrix: (Units=GPa)
#
#
# Indices 1 2 3 4 5 6 
#
# 1 20.6805 27.6311 33.1961 0.0000 0.0000 0.0000
# 2 27.6311 122.7530 126.4536 0.0000 0.0000 0.0000
# 3 33.1961 126.4536 206.1604 0.0000 0.0000 0.0000
# 4 0.0000 0.0000 0.0000 -8.4633 0.0000 0.0000
# 5 0.0000 0.0000 0.0000 0.0000 10.8074 0.0000
# 6 0.0000 0.0000 0.0000 0.0000 0.0000 13.4897
#
#
#
# Elastic Compliance Matrix: (Units=1/GPa)
#
#
# Indices 1 2 3 4 5 6 
#
# 1 0.070592 -0.011356 -0.004401 0.000000 0.000000 0.000000
# 2 -0.011356 0.023956 -0.012865 0.000000 0.000000 0.000000
# 3 -0.004401 -0.012865 0.013451 0.000000 0.000000 0.000000
# 4 0.000000 0.000000 0.000000 -0.118157 0.000000 0.000000
# 5 0.000000 0.000000 0.000000 0.000000 0.092530 0.000000
# 6 0.000000 0.000000 0.000000 0.000000 0.000000 0.074131
#
#
# Mechanical properties :
#
#
# Convention : Reuss Voigt Hill
#
# Bulk Modulus (GPa) = 19.70309 80.46171 50.08240
# Shear Modulus (GPa) = 21.67642 13.98762 17.83202
#
# Velocity S-wave (km/s) = 3.43566 2.75987 3.11614
# Velocity P-wave (km/s) = 5.14467 7.34648 6.34186
#
# Compressibility (1/GPa) = 0.05075346
#
# Stress axis : x y z
#
# Youngs Moduli (GPa) = 14.16583 41.74360 74.34627
#
# Poissons Ratio (x) = 0.47404 0.32723
# Poissons Ratio (y) = 0.16087 0.95649
# Poissons Ratio (z) = 0.06235 0.53705
#
# Static dielectric constant tensor:
#      x y z
#    x 1.618660 0.000000 0.000000 
#    y 0.000000 1.639560 0.000000 
#    z 0.000000 0.000000 1.598250 
# 
# From -- ./inp_files/6257.got.cif
#   From: 2010.05.17/outbox.cif.g08.bks.cpg/sg59_4_cif.got.tgz:6257.got - 2010.06.03 14:40:33.
