data_PCOD9450291
_publ_section_title
;
Structure prediction by ZEFSAII (Michael W. Deem and Ramdas Pophale) SiO2 
 PCOD9450291
Probable space group: P M M N
;
_chemical_formula_sum "Si O2"
_cell_formula_units_Z 40
_cell_length_a 8.771488
_cell_length_b 14.740811
_cell_length_c 17.191025
_cell_angle_alpha 90.000000
_cell_angle_beta 90.000000
_cell_angle_gamma 90.000000
_cell_volume 2222.779708
_symmetry_space_group_name_H-M "P M M N"
_symmetry_group_IT_number 59
_space_group.IT_coordinate_system_code '2'
_symmetry_cell_setting 'orthorhombic'
loop_
_space_group_symop_operation_xyz
x,y,z
1/2-x,1/2-y,z
1/2+x,-y,-z
-x,1/2+y,-z
-x,-y,-z
1/2+x,1/2+y,-z
1/2-x,y,z
x,1/2-y,z
loop_
_atom_site_type_symbol
_atom_site_label
_atom_site_fract_x
_atom_site_fract_y
_atom_site_fract_z
Si Si1 0.069209 0.750000 0.701708
Si Si2 0.931402 0.892342 0.585154
Si Si3 0.432577 0.250000 0.126891
Si Si4 0.567034 0.104878 0.580202
Si Si5 0.065687 0.750000 0.115966
Si Si6 0.433582 0.398633 0.998338
Si Si7 0.435237 0.750000 0.294697
O O1 0.250000 0.750000 0.700954
O O2 0.007349 0.835812 0.653510
O O3 0.009881 0.750000 0.789644
O O4 0.750000 0.880494 0.588502
O O5 0.991437 0.863754 0.500188
O O6 0.967807 0.999064 0.592161
O O7 0.250000 0.250000 0.137233
O O8 0.471624 0.338893 0.075318
O O9 0.750000 0.114090 0.571493
O O10 0.517905 0.163467 0.654133
O O11 0.250000 0.750000 0.111961
O O12 0.014849 0.750000 0.205760
O O13 0.001890 0.661513 0.071729
O O14 0.250000 0.401731 0.992068
O O15 0.500000 0.500000 0.000000
O O16 0.250000 0.750000 0.292261
#
# Coordination Sequence:
#
# PCOD9450291 Si02
#       7
#     4   8   4   8   4   8   4
#     4  12  24  36  54  79 108 143 184 231 278 323
#     4  10  20  34  53  78 109 145 184 226 274 324
#     4   9  21  40  58  80 111 143 179 224 275 332
#     4   9  18  34  55  78 107 144 185 225 266 319
#     4  10  20  35  56  84 114 144 184 228 273 330
#     4  10  21  39  62  85 111 145 181 222 275 331
#     4   9  18  33  54  79 107 142 179 217 266 321
#
# _framework density 17.995487000000001
#
# number of rings (size 3 to 8) (size 9 to 14) (size 15 to 20)
#    0.000    2.200    0.000    3.600    0.000    5.600 
#    0.000    6.000    0.000    0.000    0.000    0.000 
#    0.000    0.000    0.000    0.000    0.000    0.000 
#
# Total GULP energy -223304.914107 kJ/mol
# GULP energy per Si atom -5582.622853 kJ/mol
# Density = 1.795453 g / cm^3
# Si number density = 17.995487 Si / 1000 Ang^3
#
#
#
# Elastic Constant Matrix: (Units=GPa)
#
#
# Indices 1 2 3 4 5 6 
#
# 1 55.1412 59.1878 67.0526 0.0000 0.0000 0.0000
# 2 59.1878 150.4484 102.9765 0.0000 0.0000 0.0000
# 3 67.0526 102.9765 204.9145 0.0000 0.0000 0.0000
# 4 0.0000 0.0000 0.0000 16.5459 0.0000 0.0000
# 5 0.0000 0.0000 0.0000 0.0000 34.7367 0.0000
# 6 0.0000 0.0000 0.0000 0.0000 0.0000 43.9027
#
#
#
# Elastic Compliance Matrix: (Units=1/GPa)
#
#
# Indices 1 2 3 4 5 6 
#
# 1 0.037571 -0.009704 -0.007418 0.000000 0.000000 0.000000
# 2 -0.009704 0.012638 -0.003176 0.000000 0.000000 0.000000
# 3 -0.007418 -0.003176 0.008903 0.000000 0.000000 0.000000
# 4 0.000000 0.000000 0.000000 0.060438 0.000000 0.000000
# 5 0.000000 0.000000 0.000000 0.000000 0.028788 0.000000
# 6 0.000000 0.000000 0.000000 0.000000 0.000000 0.022778
#
#
# Mechanical properties :
#
#
# Convention : Reuss Voigt Hill
#
# Bulk Modulus (GPa) = 54.00121 96.54866 75.27494
# Shear Modulus (GPa) = 22.94810 31.12288 27.03549
#
# Velocity S-wave (km/s) = 3.57489 4.16322 3.88022
# Velocity P-wave (km/s) = 6.86390 8.76800 7.87372
#
# Compressibility (1/GPa) = 0.01851810
#
# Stress axis : x y z
#
# Youngs Moduli (GPa) = 26.61618 79.12623 112.31869
#
# Poissons Ratio (x) = 0.76782 0.83314
# Poissons Ratio (y) = 0.25828 0.35670
# Poissons Ratio (z) = 0.19743 0.25129
#
# Static dielectric constant tensor:
#      x y z
#    x 1.603710 0.000000 0.000000 
#    y 0.000000 1.616740 0.000000 
#    z 0.000000 0.000000 1.589910 
# 
# From -- ./inp_files/20038.got.cif
#   From: 2010.05.17/outbox.cif.g08.bks.cpg/sg59_11_cif.got.tgz:20038.got - 2010.06.03 14:40:33.
