data_PCOD9450695
_publ_section_title
;
Structure prediction by ZEFSAII (Michael W. Deem and Ramdas Pophale) SiO2 
 PCOD9450695
Probable space group: P M M N
;
_chemical_formula_sum "Si O2"
_cell_formula_units_Z 52
_cell_length_a 9.459976
_cell_length_b 13.784012
_cell_length_c 18.521784
_cell_angle_alpha 90.000000
_cell_angle_beta 90.000000
_cell_angle_gamma 90.000000
_cell_volume 2415.174376
_symmetry_space_group_name_H-M "P M M N"
_symmetry_group_IT_number 59
_space_group.IT_coordinate_system_code '2'
_symmetry_cell_setting 'orthorhombic'
loop_
_space_group_symop_operation_xyz
x,y,z
1/2-x,1/2-y,z
1/2+x,-y,-z
-x,1/2+y,-z
-x,-y,-z
1/2+x,1/2+y,-z
1/2-x,y,z
x,1/2-y,z
loop_
_atom_site_type_symbol
_atom_site_label
_atom_site_fract_x
_atom_site_fract_y
_atom_site_fract_z
Si Si1 0.404401 0.361452 0.850582
Si Si2 0.086613 0.865440 0.682202
Si Si3 0.410922 0.132119 0.458697
Si Si4 0.582315 0.865972 0.377665
Si Si5 0.250000 0.507056 0.030584
Si Si6 0.017484 0.362936 0.016621
Si Si7 0.583016 0.477745 0.747474
O O1 0.250000 0.400060 0.827759
O O2 0.414517 0.250000 0.825454
O O3 0.410600 0.360492 0.936625
O O4 0.532062 0.421161 0.818066
O O5 0.250000 0.894723 0.686153
O O6 0.078848 0.750000 0.689211
O O7 0.019477 0.892418 0.604409
O O8 0.992272 0.918829 0.741217
O O9 0.250000 0.098015 0.443051
O O10 0.404531 0.250000 0.460082
O O11 0.451804 0.103520 0.539956
O O12 0.750000 0.884207 0.366118
O O13 0.562539 0.750000 0.372594
O O14 0.486289 0.917268 0.318607
O O15 0.372532 0.580314 0.996665
O O16 0.125444 0.430986 0.059348
O O17 0.001964 0.250000 0.039532
O O18 0.750000 0.483137 0.742199
#
# Coordination Sequence:
#
# PCOD9450695 Si02
#       7
#     8   8   8   8   4   8   8
#     4  10  21  39  62  87 119 159 196 233 280 338
#     4  10  21  38  59  78  98 135 188 241 293 351
#     4   8  15  30  53  78 103 135 177 229 290 350
#     4   9  18  34  54  77 111 148 180 225 287 349
#     4  10  20  34  62  98 128 168 210 248 288 346
#     4  10  20  37  62  96 133 169 205 247 296 345
#     4  12  25  36  53  82 111 147 189 237 287 340
#
# _framework density 21.530536999999999
#
# number of rings (size 3 to 8) (size 9 to 14) (size 15 to 20)
#    0.000    2.154    0.769    3.692    1.077    4.615 
#    0.000    1.538    0.000    5.538    0.000    0.000 
#    0.000    0.000    0.000    0.000    0.000    0.000 
#
# Total GULP energy -289495.074071 kJ/mol
# GULP energy per Si atom -5567.212963 kJ/mol
# Density = 2.148153 g / cm^3
# Si number density = 21.530537 Si / 1000 Ang^3
#
#
#
# Elastic Constant Matrix: (Units=GPa)
#
#
# Indices 1 2 3 4 5 6 
#
# 1 154.5492 34.6723 10.6001 0.0000 0.0000 0.0000
# 2 34.6723 101.2608 -4.5841 0.0000 0.0000 0.0000
# 3 10.6001 -4.5841 34.0027 0.0000 0.0000 0.0000
# 4 0.0000 0.0000 0.0000 27.6055 0.0000 0.0000
# 5 0.0000 0.0000 0.0000 0.0000 -44.0219 0.0000
# 6 0.0000 0.0000 0.0000 0.0000 0.0000 28.7526
#
#
#
# Elastic Compliance Matrix: (Units=1/GPa)
#
#
# Indices 1 2 3 4 5 6 
#
# 1 0.007231 -0.002594 -0.002604 0.000000 0.000000 0.000000
# 2 -0.002594 0.010867 0.002274 0.000000 0.000000 0.000000
# 3 -0.002604 0.002274 0.030528 0.000000 0.000000 0.000000
# 4 0.000000 0.000000 0.000000 0.036225 0.000000 0.000000
# 5 0.000000 0.000000 0.000000 0.000000 -0.022716 0.000000
# 6 0.000000 0.000000 0.000000 0.000000 0.000000 0.034780
#
#
# Mechanical properties :
#
#
# Convention : Reuss Voigt Hill
#
# Bulk Modulus (GPa) = 23.37704 41.24326 32.31015
# Shear Modulus (GPa) = 42.72754 19.07552 30.90153
#
# Velocity S-wave (km/s) = 4.45962 2.97976 3.79257
# Velocity P-wave (km/s) = 6.11545 5.57099 5.84956
#
# Compressibility (1/GPa) = 0.04277701
#
# Stress axis : x y z
#
# Youngs Moduli (GPa) = 138.29477 92.02551 32.75712
#
# Poissons Ratio (x) = 0.23870 0.08530
# Poissons Ratio (y) = 0.35871 -0.07448
# Poissons Ratio (z) = 0.36010 -0.20923
#
# Static dielectric constant tensor:
#      x y z
#    x 1.733310 0.000000 0.000000 
#    y 0.000000 1.840370 0.000000 
#    z 0.000000 0.000000 1.835190 
# 
# From -- ./inp_files/28914.got.cif
#   From: 2010.05.17/outbox.cif.g08.bks.cpg/sg59_15_cif.got.tgz:28914.got - 2010.06.03 14:40:33.
