data_PCOD9450305
_publ_section_title
;
Structure prediction by ZEFSAII (Michael W. Deem and Ramdas Pophale) SiO2 
 PCOD9450305
Probable space group: P M M N
;
_chemical_formula_sum "Si O2"
_cell_formula_units_Z 48
_cell_length_a 8.557322
_cell_length_b 19.401763
_cell_length_c 15.527164
_cell_angle_alpha 90.000000
_cell_angle_beta 90.000000
_cell_angle_gamma 90.000000
_cell_volume 2577.930528
_symmetry_space_group_name_H-M "P M M N"
_symmetry_group_IT_number 59
_space_group.IT_coordinate_system_code '2'
_symmetry_cell_setting 'orthorhombic'
loop_
_space_group_symop_operation_xyz
x,y,z
1/2-x,1/2-y,z
1/2+x,-y,-z
-x,1/2+y,-z
-x,-y,-z
1/2+x,1/2+y,-z
1/2-x,y,z
x,1/2-y,z
loop_
_atom_site_type_symbol
_atom_site_label
_atom_site_fract_x
_atom_site_fract_y
_atom_site_fract_z
Si Si1 0.062755 0.329881 0.494222
Si Si2 0.563868 0.419836 0.650057
Si Si3 0.939690 0.067016 0.148667
Si Si4 0.060835 0.828897 0.999162
Si Si5 0.062310 0.090133 0.839999
Si Si6 0.437754 0.927168 0.654308
O O1 0.250000 0.332987 0.499857
O O2 0.014758 0.250000 0.489394
O O3 0.991767 0.367018 0.577626
O O4 0.007416 0.372124 0.410918
O O5 0.750000 0.424748 0.650295
O O6 0.503918 0.398258 0.744558
O O7 0.493452 0.495643 0.631706
O O8 0.750000 0.068098 0.147158
O O9 0.986177 0.085494 0.246322
O O10 0.987097 0.987748 0.132938
O O11 0.995207 0.120015 0.076526
O O12 0.250000 0.831154 0.000511
O O13 0.013424 0.750000 0.983948
O O14 0.998936 0.856762 0.089801
O O15 0.250000 0.091787 0.835948
O O16 0.250000 0.925379 0.649817
#
# Coordination Sequence:
#
# PCOD9450305 Si02
#       6
#     8   8   8   8   8   8
#     4  11  24  40  57  81 115 151 186 228 278 329
#     4  11  22  38  61  85 110 143 186 232 279 332
#     4   8  17  34  56  81 107 140 182 226 269 317
#     4  10  20  34  53  79 111 145 181 222 270 325
#     4  10  20  36  57  80 108 142 183 229 275 324
#     4  10  20  37  61  87 114 145 186 231 277 330
#
# _framework density 18.619585000000001
#
# number of rings (size 3 to 8) (size 9 to 14) (size 15 to 20)
#    0.000    2.000    0.000    5.000    0.000    3.000 
#    0.000    5.833    0.000    0.000    0.000    0.000 
#    0.000    0.000    0.000    0.000    0.000    0.000 
#
# Total GULP energy -268138.947007 kJ/mol
# GULP energy per Si atom -5586.228063 kJ/mol
# Density = 1.857721 g / cm^3
# Si number density = 18.619585 Si / 1000 Ang^3
#
#
#
# Elastic Constant Matrix: (Units=GPa)
#
#
# Indices 1 2 3 4 5 6 
#
# 1 53.2562 13.6539 6.8577 0.0000 0.0000 0.0000
# 2 13.6539 58.7061 39.0839 0.0000 0.0000 0.0000
# 3 6.8577 39.0839 61.8226 0.0000 0.0000 0.0000
# 4 0.0000 0.0000 0.0000 -11.9873 0.0000 0.0000
# 5 0.0000 0.0000 0.0000 0.0000 -59.5717 0.0000
# 6 0.0000 0.0000 0.0000 0.0000 0.0000 23.4907
#
#
#
# Elastic Compliance Matrix: (Units=1/GPa)
#
#
# Indices 1 2 3 4 5 6 
#
# 1 0.020023 -0.005488 0.001249 0.000000 0.000000 0.000000
# 2 -0.005488 0.030918 -0.018938 0.000000 0.000000 0.000000
# 3 0.001249 -0.018938 0.028009 0.000000 0.000000 0.000000
# 4 0.000000 0.000000 0.000000 -0.083422 0.000000 0.000000
# 5 0.000000 0.000000 0.000000 0.000000 -0.016786 0.000000
# 6 0.000000 0.000000 0.000000 0.000000 0.000000 0.042570
#
#
# Mechanical properties :
#
#
# Convention : Reuss Voigt Hill
#
# Bulk Modulus (GPa) = 30.67846 32.55288 31.61567
# Shear Modulus (GPa) = 63.66759 -2.00105 30.83327
#
# Velocity S-wave (km/s) = 5.85390 -1.03780 4.07376
# Velocity P-wave (km/s) = 7.88689 4.01062 6.25652
#
# Compressibility (1/GPa) = 0.03259616
#
# Stress axis : x y z
#
# Youngs Moduli (GPa) = 49.94134 32.34333 35.70273
#
# Poissons Ratio (x) = 0.17751 -0.04458
# Poissons Ratio (y) = 0.27409 0.67612
# Poissons Ratio (z) = -0.06235 0.61250
#
# Static dielectric constant tensor:
#      x y z
#    x 1.627780 0.000000 0.000000 
#    y 0.000000 1.623630 0.000000 
#    z 0.000000 0.000000 1.622500 
# 
# From -- ./inp_files/20365.got.cif
#   From: 2010.05.17/outbox.cif.g08.bks.cpg/sg59_11_cif.got.tgz:20365.got - 2010.06.03 14:40:33.
