data_PCOD9450499
_publ_section_title
;
Structure prediction by ZEFSAII (Michael W. Deem and Ramdas Pophale) SiO2 
 PCOD9450499
Probable space group: P M M N
;
_chemical_formula_sum "Si O2"
_cell_formula_units_Z 48
_cell_length_a 24.377203
_cell_length_b 7.850637
_cell_length_c 12.853534
_cell_angle_alpha 90.000000
_cell_angle_beta 90.000000
_cell_angle_gamma 90.000000
_cell_volume 2459.865273
_symmetry_space_group_name_H-M "P M M N"
_symmetry_group_IT_number 59
_space_group.IT_coordinate_system_code '2'
_symmetry_cell_setting 'orthorhombic'
loop_
_space_group_symop_operation_xyz
x,y,z
1/2-x,1/2-y,z
1/2+x,-y,-z
-x,1/2+y,-z
-x,-y,-z
1/2+x,1/2+y,-z
1/2-x,y,z
x,1/2-y,z
loop_
_atom_site_type_symbol
_atom_site_label
_atom_site_fract_x
_atom_site_fract_y
_atom_site_fract_z
Si Si1 0.870532 0.049098 0.147396
Si Si2 0.250000 0.451026 0.794793
Si Si3 0.557429 0.459640 0.718100
Si Si4 0.636067 0.448612 0.540237
Si Si5 0.750000 0.042143 0.448662
Si Si6 0.063254 0.448103 0.650404
Si Si7 0.440469 0.954847 0.044985
O O1 0.882682 0.250000 0.156076
O O2 0.895739 0.984958 0.038830
O O3 0.805775 0.023731 0.157356
O O4 0.901056 0.963311 0.244661
O O5 0.250000 0.250000 0.809994
O O6 0.250000 0.488893 0.671541
O O7 0.556843 0.250000 0.717788
O O8 0.605004 0.520045 0.640682
O O9 0.497818 0.512751 0.674967
O O10 0.564808 0.517379 0.836848
O O11 0.646089 0.250000 0.562834
O O12 0.694606 0.520571 0.504483
O O13 0.594774 0.460696 0.442765
O O14 0.750000 0.250000 0.448272
O O15 0.059258 0.250000 0.620990
O O16 0.436419 0.750000 0.050078
O O17 0.500000 0.000000 0.000000
#
# Coordination Sequence:
#
# PCOD9450499 Si02
#       7
#     8   4   8   8   4   8   8
#     4  11  22  36  57  85 115 147 187 232 279 332
#     4  12  24  38  59  82 112 148 185 235 286 331
#     4   9  19  35  54  80 114 149 187 229 277 334
#     4  10  20  35  54  78 112 148 184 231 283 337
#     4  10  20  34  55  80 108 142 185 229 276 339
#     4  11  20  32  54  82 114 147 183 232 279 330
#     4  10  20  36  58  83 113 148 188 233 278 333
#
# _framework density 19.513263999999999
#
# number of rings (size 3 to 8) (size 9 to 14) (size 15 to 20)
#    0.000    1.667    3.333    2.250    0.000    0.667 
#    0.000    2.500    0.000    4.000    0.000    1.167 
#    0.000    0.000    0.000    0.000    0.000    0.000 
#
# Total GULP energy -268120.289245 kJ/mol
# GULP energy per Si atom -5585.839359 kJ/mol
# Density = 1.946885 g / cm^3
# Si number density = 19.513264 Si / 1000 Ang^3
#
#
#
# Elastic Constant Matrix: (Units=GPa)
#
#
# Indices 1 2 3 4 5 6 
#
# 1 147.4307 -13.5980 88.9227 0.0000 0.0000 0.0000
# 2 -13.5980 22.4081 -12.1346 0.0000 0.0000 0.0000
# 3 88.9227 -12.1346 154.4738 0.0000 0.0000 0.0000
# 4 0.0000 0.0000 0.0000 10.5182 0.0000 0.0000
# 5 0.0000 0.0000 0.0000 0.0000 36.9940 0.0000
# 6 0.0000 0.0000 0.0000 0.0000 0.0000 4.3645
#
#
#
# Elastic Compliance Matrix: (Units=1/GPa)
#
#
# Indices 1 2 3 4 5 6 
#
# 1 0.010615 0.003272 -0.005854 0.000000 0.000000 0.000000
# 2 0.003272 0.047618 0.001857 0.000000 0.000000 0.000000
# 3 -0.005854 0.001857 0.009989 0.000000 0.000000 0.000000
# 4 0.000000 0.000000 0.000000 0.095074 0.000000 0.000000
# 5 0.000000 0.000000 0.000000 0.000000 0.027031 0.000000
# 6 0.000000 0.000000 0.000000 0.000000 0.000000 0.229120
#
#
# Mechanical properties :
#
#
# Convention : Reuss Voigt Hill
#
# Bulk Modulus (GPa) = 14.97615 50.07696 32.52655
# Shear Modulus (GPa) = 11.28277 27.78352 19.53314
#
# Velocity S-wave (km/s) = 2.40721 3.77746 3.16732
# Velocity P-wave (km/s) = 3.92654 6.68912 5.48462
#
# Compressibility (1/GPa) = 0.06677284
#
# Stress axis : x y z
#
# Youngs Moduli (GPa) = 94.20433 21.00056 100.10898
#
# Poissons Ratio (x) = -0.06871 0.58600
# Poissons Ratio (y) = -0.30822 -0.18592
# Poissons Ratio (z) = 0.55144 -0.03900
#
# Static dielectric constant tensor:
#      x y z
#    x 1.673950 0.000000 0.000000 
#    y 0.000000 1.721130 0.000000 
#    z 0.000000 0.000000 1.666300 
# 
# From -- ./inp_files/24115.got.cif
#   From: 2010.05.17/outbox.cif.g08.bks.cpg/sg59_13_cif.got.tgz:24115.got - 2010.06.03 14:40:33.
