data_PCOD9450372
_publ_section_title
;
Structure prediction by ZEFSAII (Michael W. Deem and Ramdas Pophale) SiO2 
 PCOD9450372
Probable space group: P M M N
;
_chemical_formula_sum "Si O2"
_cell_formula_units_Z 64
_cell_length_a 9.040706
_cell_length_b 14.260895
_cell_length_c 26.682734
_cell_angle_alpha 90.000000
_cell_angle_beta 90.000000
_cell_angle_gamma 90.000000
_cell_volume 3440.166445
_symmetry_space_group_name_H-M "P M M N"
_symmetry_group_IT_number 59
_space_group.IT_coordinate_system_code '2'
_symmetry_cell_setting 'orthorhombic'
loop_
_space_group_symop_operation_xyz
x,y,z
1/2-x,1/2-y,z
1/2+x,-y,-z
-x,1/2+y,-z
-x,-y,-z
1/2+x,1/2+y,-z
1/2-x,y,z
x,1/2-y,z
loop_
_atom_site_type_symbol
_atom_site_label
_atom_site_fract_x
_atom_site_fract_y
_atom_site_fract_z
Si Si1 0.922026 0.137524 0.974989
Si Si2 0.425727 0.140265 0.367553
Si Si3 0.920041 0.135825 0.470838
Si Si4 0.427809 0.356583 0.079077
Si Si5 0.571511 0.041503 0.870922
Si Si6 0.573145 0.967777 0.325294
Si Si7 0.073103 0.861984 0.417819
Si Si8 0.571634 0.859065 0.224102
O O1 0.750000 0.111672 0.982679
O O2 0.930748 0.250000 0.969668
O O3 0.971754 0.092282 0.922947
O O4 0.012451 0.112701 0.024685
O O5 0.250000 0.129660 0.364382
O O6 0.462948 0.250000 0.360277
O O7 0.480203 0.112148 0.423364
O O8 0.505651 0.071539 0.329047
O O9 0.750000 0.104733 0.462837
O O10 0.916289 0.250000 0.473001
O O11 0.972227 0.106032 0.526108
O O12 0.250000 0.355949 0.076565
O O13 0.479128 0.250000 0.088637
O O14 0.470159 0.432785 0.120592
O O15 0.750000 0.048579 0.866394
O O16 0.497395 0.090176 0.823789
O O17 0.750000 0.971926 0.327572
O O18 0.511140 0.912572 0.373356
O O19 0.529086 0.912950 0.274963
O O20 0.250000 0.877916 0.413799
O O21 0.048689 0.750000 0.414196
O O22 0.750000 0.861599 0.220509
O O23 0.526128 0.750000 0.226159
#
# Coordination Sequence:
#
# PCOD9450372 Si02
#       8
#     8   8   8   8   8   8   8   8
#     4   9  17  29  47  75 109 142 179 222 266 314
#     4  10  21  37  57  81 108 138 176 221 265 314
#     4   8  15  30  52  78 109 143 176 213 261 316
#     4   9  18  32  50  76 111 147 181 217 258 306
#     4  10  20  34  54  79 107 142 182 222 266 314
#     4  11  23  38  57  79 105 140 179 221 271 324
#     4   9  18  33  54  81 112 144 179 220 266 319
#     4  10  23  42  60  80 106 134 170 218 267 316
#
# _framework density 18.603750999999999
#
# number of rings (size 3 to 8) (size 9 to 14) (size 15 to 20)
#    0.000    2.500    0.000    2.625    0.000    5.250 
#    0.000    3.125    0.000    2.250    0.000    0.000 
#    0.000    0.000    0.000    0.000    0.000    0.000 
#
# Total GULP energy -357252.201799 kJ/mol
# GULP energy per Si atom -5582.065653 kJ/mol
# Density = 1.856141 g / cm^3
# Si number density = 18.603751 Si / 1000 Ang^3
#
#
#
# Elastic Constant Matrix: (Units=GPa)
#
#
# Indices 1 2 3 4 5 6 
#
# 1 28.4716 44.3337 42.0649 0.0000 0.0000 0.0000
# 2 44.3337 118.3927 93.7263 0.0000 0.0000 0.0000
# 3 42.0649 93.7263 128.9548 0.0000 0.0000 0.0000
# 4 0.0000 0.0000 0.0000 35.5737 0.0000 0.0000
# 5 0.0000 0.0000 0.0000 0.0000 34.1845 0.0000
# 6 0.0000 0.0000 0.0000 0.0000 0.0000 24.9008
#
#
#
# Elastic Compliance Matrix: (Units=1/GPa)
#
#
# Indices 1 2 3 4 5 6 
#
# 1 0.091045 -0.024921 -0.011586 0.000000 0.000000 0.000000
# 2 -0.024921 0.026714 -0.011287 0.000000 0.000000 0.000000
# 3 -0.011586 -0.011287 0.019737 0.000000 0.000000 0.000000
# 4 0.000000 0.000000 0.000000 0.028111 0.000000 0.000000
# 5 0.000000 0.000000 0.000000 0.000000 0.029253 0.000000
# 6 0.000000 0.000000 0.000000 0.000000 0.000000 0.040159
#
#
# Mechanical properties :
#
#
# Convention : Reuss Voigt Hill
#
# Bulk Modulus (GPa) = 23.86124 70.67433 47.26778
# Shear Modulus (GPa) = 14.51058 25.31141 19.91100
#
# Velocity S-wave (km/s) = 2.79584 3.69257 3.27504
# Velocity P-wave (km/s) = 4.82454 7.50012 6.30587
#
# Compressibility (1/GPa) = 0.04190897
#
# Stress axis : x y z
#
# Youngs Moduli (GPa) = 10.98354 37.43405 50.66571
#
# Poissons Ratio (x) = 0.93290 0.58700
# Poissons Ratio (y) = 0.27372 0.57184
# Poissons Ratio (z) = 0.12725 0.42250
#
# Static dielectric constant tensor:
#      x y z
#    x 1.624100 0.000000 0.000000 
#    y 0.000000 1.686420 0.000000 
#    z 0.000000 0.000000 1.607330 
# 
# From -- ./inp_files/31637.got.cif
#   From: 2010.05.17/outbox.cif.g08.bks.cpg/sg59_16_cif.got.tgz:31637.got - 2010.06.03 14:40:33.
