data_PCOD9450604
_publ_section_title
;
Structure prediction by ZEFSAII (Michael W. Deem and Ramdas Pophale) SiO2 
 PCOD9450604
Probable space group: P M M N
;
_chemical_formula_sum "Si O2"
_cell_formula_units_Z 48
_cell_length_a 9.290651
_cell_length_b 7.943018
_cell_length_c 35.275144
_cell_angle_alpha 90.000000
_cell_angle_beta 90.000000
_cell_angle_gamma 90.000000
_cell_volume 2603.157758
_symmetry_space_group_name_H-M "P M M N"
_symmetry_group_IT_number 59
_space_group.IT_coordinate_system_code '2'
_symmetry_cell_setting 'orthorhombic'
loop_
_space_group_symop_operation_xyz
x,y,z
1/2-x,1/2-y,z
1/2+x,-y,-z
-x,1/2+y,-z
-x,-y,-z
1/2+x,1/2+y,-z
1/2-x,y,z
x,1/2-y,z
loop_
_atom_site_type_symbol
_atom_site_label
_atom_site_fract_x
_atom_site_fract_y
_atom_site_fract_z
Si Si1 0.077150 0.444944 0.038711
Si Si2 0.574871 0.443795 0.230050
Si Si3 0.577067 0.250000 0.904966
Si Si4 0.411621 0.949926 0.537111
Si Si5 0.575570 0.750000 0.175755
Si Si6 0.911856 0.049727 0.611307
Si Si7 0.586158 0.047431 0.314546
O O1 0.250000 0.453154 0.033368
O O2 0.040357 0.250000 0.047933
O O3 0.040088 0.582662 0.070725
O O4 0.000000 0.500000 0.000000
O O5 0.750000 0.439718 0.230835
O O6 0.527394 0.250000 0.222956
O O7 0.532618 0.582564 0.199286
O O8 0.532229 0.500333 0.272568
O O9 0.750000 0.250000 0.899275
O O10 0.495813 0.250000 0.865257
O O11 0.250000 0.022812 0.536586
O O12 0.399850 0.750000 0.536349
O O13 0.500000 0.000000 0.500000
O O14 0.493994 0.995568 0.575484
O O15 0.750000 0.750000 0.172730
O O16 0.750000 0.978860 0.609059
O O17 0.902623 0.250000 0.609736
O O18 0.987333 0.003084 0.650673
O O19 0.750000 0.983335 0.319919
O O20 0.593743 0.250000 0.313805
#
# Coordination Sequence:
#
# PCOD9450604 Si02
#       7
#     8   8   4   8   4   8   8
#     4  10  20  35  57  82 110 146 188 233 285 342
#     4   8  16  32  54  81 111 140 181 237 285 330
#     4  10  22  38  52  78 118 152 182 232 290 338
#     4  11  24  41  61  84 109 140 180 222 266 321
#     4  10  20  34  56  82 108 148 196 234 278 338
#     4  11  24  38  53  80 115 146 180 222 266 321
#     4   9  18  34  57  83 108 138 179 227 278 328
#
# _framework density 18.439143999999999
#
# number of rings (size 3 to 8) (size 9 to 14) (size 15 to 20)
#    0.000    2.167    0.833    3.000    1.167    8.333 
#    0.000    0.833    0.000    1.000    0.000    0.000 
#    0.000    0.000    0.000    0.000    0.000    0.000 
#
# Total GULP energy -267836.994352 kJ/mol
# GULP energy per Si atom -5579.937382 kJ/mol
# Density = 1.839718 g / cm^3
# Si number density = 18.439144 Si / 1000 Ang^3
#
#
#
# Elastic Constant Matrix: (Units=GPa)
#
#
# Indices 1 2 3 4 5 6 
#
# 1 82.8848 39.2528 79.5368 0.0000 0.0000 0.0000
# 2 39.2528 109.8574 85.0559 0.0000 0.0000 0.0000
# 3 79.5368 85.0559 195.7189 0.0000 0.0000 0.0000
# 4 0.0000 0.0000 0.0000 37.4679 0.0000 0.0000
# 5 0.0000 0.0000 0.0000 0.0000 34.4238 0.0000
# 6 0.0000 0.0000 0.0000 0.0000 0.0000 21.1188
#
#
#
# Elastic Compliance Matrix: (Units=1/GPa)
#
#
# Indices 1 2 3 4 5 6 
#
# 1 0.019896 -0.001279 -0.007529 0.000000 0.000000 0.000000
# 2 -0.001279 0.013801 -0.005478 0.000000 0.000000 0.000000
# 3 -0.007529 -0.005478 0.010550 0.000000 0.000000 0.000000
# 4 0.000000 0.000000 0.000000 0.026689 0.000000 0.000000
# 5 0.000000 0.000000 0.000000 0.000000 0.029050 0.000000
# 6 0.000000 0.000000 0.000000 0.000000 0.000000 0.047351
#
#
# Mechanical properties :
#
#
# Convention : Reuss Voigt Hill
#
# Bulk Modulus (GPa) = 63.80140 88.46133 76.13137
# Shear Modulus (GPa) = 27.60376 30.90982 29.25679
#
# Velocity S-wave (km/s) = 3.87333 4.09872 3.98762
# Velocity P-wave (km/s) = 7.39458 8.39514 7.91069
#
# Compressibility (1/GPa) = 0.01567364
#
# Stress axis : x y z
#
# Youngs Moduli (GPa) = 50.26098 72.45913 94.78948
#
# Poissons Ratio (x) = 0.09271 0.71371
# Poissons Ratio (y) = 0.06431 0.51923
# Poissons Ratio (z) = 0.37844 0.39691
#
# Static dielectric constant tensor:
#      x y z
#    x 1.649890 0.000000 0.000000 
#    y 0.000000 1.649260 0.000000 
#    z 0.000000 0.000000 1.573210 
# 
# From -- ./inp_files/33031.got.cif
#   From: 2010.05.17/outbox.cif.g08.bks.cpg/sg59_17_cif.got.tgz:33031.got - 2010.06.03 14:40:33.
