data_PCOD9450426
_publ_section_title
;
Structure prediction by ZEFSAII (Michael W. Deem and Ramdas Pophale) SiO2 
 PCOD9450426
Probable space group: P M M N
;
_chemical_formula_sum "Si O2"
_cell_formula_units_Z 64
_cell_length_a 9.129538
_cell_length_b 26.494253
_cell_length_c 14.327645
_cell_angle_alpha 90.000000
_cell_angle_beta 90.000000
_cell_angle_gamma 90.000000
_cell_volume 3465.574921
_symmetry_space_group_name_H-M "P M M N"
_symmetry_group_IT_number 59
_space_group.IT_coordinate_system_code '2'
_symmetry_cell_setting 'orthorhombic'
loop_
_space_group_symop_operation_xyz
x,y,z
1/2-x,1/2-y,z
1/2+x,-y,-z
-x,1/2+y,-z
-x,-y,-z
1/2+x,1/2+y,-z
1/2-x,y,z
x,1/2-y,z
loop_
_atom_site_type_symbol
_atom_site_label
_atom_site_fract_x
_atom_site_fract_y
_atom_site_fract_z
Si Si1 0.076503 0.618347 0.187704
Si Si2 0.078897 0.310450 0.340481
Si Si3 0.077431 0.310698 0.958551
Si Si4 0.417692 0.688652 0.851113
Si Si5 0.921019 0.467825 0.275590
Si Si6 0.425658 0.606416 0.557425
Si Si7 0.078168 0.078855 0.633788
Si Si8 0.422408 0.507023 0.098948
O O1 0.250000 0.627002 0.197152
O O2 0.056205 0.564563 0.135030
O O3 0.000619 0.661116 0.126078
O O4 0.000274 0.612865 0.288055
O O5 0.250000 0.324274 0.342680
O O6 0.068164 0.250000 0.348817
O O7 0.006454 0.325074 0.241425
O O8 0.989789 0.338576 0.420826
O O9 0.250000 0.322441 0.961530
O O10 0.062246 0.250000 0.950666
O O11 0.999440 0.327180 0.054761
O O12 0.250000 0.670396 0.847495
O O13 0.413432 0.750000 0.852973
O O14 0.750000 0.459578 0.252755
O O15 0.967235 0.426851 0.351920
O O16 0.933100 0.521780 0.327710
O O17 0.010997 0.471692 0.180164
O O18 0.250000 0.606346 0.549605
O O19 0.497910 0.584420 0.464590
O O20 0.250000 0.091257 0.625195
O O21 0.250000 0.497808 0.089603
O O22 0.500000 0.500000 0.000000
#
# Coordination Sequence:
#
# PCOD9450426 Si02
#       8
#     8   8   8   8   8   8   8   8
#     4  10  21  37  56  79 108 143 181 222 271 321
#     4  10  21  37  55  77 108 144 181 222 268 318
#     4  10  20  34  54  81 110 142 183 226 267 317
#     4   9  17  31  52  76 103 137 175 217 266 315
#     4   9  20  37  57  82 111 142 177 219 265 316
#     4  11  22  36  57  84 111 140 178 223 269 320
#     4  10  20  37  59  81 108 141 177 220 271 322
#     4  10  21  36  56  81 111 146 181 218 262 318
#
# _framework density 18.467355000000001
#
# number of rings (size 3 to 8) (size 9 to 14) (size 15 to 20)
#    0.000    2.125    0.000    3.000    0.000    7.000 
#    0.000    1.875    0.000    3.750    0.000    0.000 
#    0.000    0.000    0.000    0.000    0.000    0.000 
#
# Total GULP energy -357451.993365 kJ/mol
# GULP energy per Si atom -5585.187396 kJ/mol
# Density = 1.842532 g / cm^3
# Si number density = 18.467355 Si / 1000 Ang^3
#
#
#
# Elastic Constant Matrix: (Units=GPa)
#
#
# Indices 1 2 3 4 5 6 
#
# 1 130.6108 37.7181 81.8811 0.0000 0.0000 0.0000
# 2 37.7181 20.7700 30.9516 0.0000 0.0000 0.0000
# 3 81.8811 30.9516 137.2795 0.0000 0.0000 0.0000
# 4 0.0000 0.0000 0.0000 16.9000 0.0000 0.0000
# 5 0.0000 0.0000 0.0000 0.0000 42.1863 0.0000
# 6 0.0000 0.0000 0.0000 0.0000 0.0000 24.4061
#
#
#
# Elastic Compliance Matrix: (Units=1/GPa)
#
#
# Indices 1 2 3 4 5 6 
#
# 1 0.018220 -0.025440 -0.005132 0.000000 0.000000 0.000000
# 2 -0.025440 0.108030 -0.009183 0.000000 0.000000 0.000000
# 3 -0.005132 -0.009183 0.012416 0.000000 0.000000 0.000000
# 4 0.000000 0.000000 0.000000 0.059172 0.000000 0.000000
# 5 0.000000 0.000000 0.000000 0.000000 0.023704 0.000000
# 6 0.000000 0.000000 0.000000 0.000000 0.000000 0.040973
#
#
# Mechanical properties :
#
#
# Convention : Reuss Voigt Hill
#
# Bulk Modulus (GPa) = 16.90440 65.52909 41.21675
# Shear Modulus (GPa) = 13.82195 25.90577 19.86386
#
# Velocity S-wave (km/s) = 2.73875 3.74944 3.28322
# Velocity P-wave (km/s) = 4.37888 7.36921 6.06134
#
# Compressibility (1/GPa) = 0.05915619
#
# Stress axis : x y z
#
# Youngs Moduli (GPa) = 54.88445 9.25668 80.54395
#
# Poissons Ratio (x) = 0.23549 0.41332
# Poissons Ratio (y) = 1.39628 0.73962
# Poissons Ratio (z) = 0.28164 0.08500
#
# Static dielectric constant tensor:
#      x y z
#    x 1.615230 0.000000 0.000000 
#    y 0.000000 1.654410 0.000000 
#    z 0.000000 0.000000 1.602390 
# 
# From -- ./inp_files/15016.got.cif
#   From: 2010.05.17/outbox.cif.g08.bks.cpg/sg59_8_cif.got.tgz:15016.got - 2010.06.03 14:40:33.
