data_PCOD9450925
_publ_section_title
;
Structure prediction by ZEFSAII (Michael W. Deem and Ramdas Pophale) SiO2 
 PCOD9450925
Probable space group: P M M N
;
_chemical_formula_sum "Si O2"
_cell_formula_units_Z 64
_cell_length_a 12.612366
_cell_length_b 31.120912
_cell_length_c 7.858841
_cell_angle_alpha 90.000000
_cell_angle_beta 90.000000
_cell_angle_gamma 90.000000
_cell_volume 3084.660575
_symmetry_space_group_name_H-M "P M M N"
_symmetry_group_IT_number 59
_space_group.IT_coordinate_system_code '2'
_symmetry_cell_setting 'orthorhombic'
loop_
_space_group_symop_operation_xyz
x,y,z
1/2-x,1/2-y,z
1/2+x,-y,-z
-x,1/2+y,-z
-x,-y,-z
1/2+x,1/2+y,-z
1/2-x,y,z
x,1/2-y,z
loop_
_atom_site_type_symbol
_atom_site_label
_atom_site_fract_x
_atom_site_fract_y
_atom_site_fract_z
Si Si1 0.448571 0.454031 0.523137
Si Si2 0.635479 0.987032 0.144869
Si Si3 0.872262 0.391974 0.680922
Si Si4 0.529003 0.200224 0.694919
Si Si5 0.130077 0.187750 0.390943
Si Si6 0.867103 0.599561 0.754099
Si Si7 0.957236 0.070891 0.028944
Si Si8 0.631734 0.699762 0.010979
O O1 0.500000 0.500000 0.500000
O O2 0.368080 0.462625 0.676102
O O3 0.539435 0.419037 0.573661
O O4 0.389172 0.443133 0.349774
O O5 0.750000 0.982601 0.062524
O O6 0.609818 0.038145 0.146697
O O7 0.546033 0.961075 0.045961
O O8 0.750000 0.401263 0.632605
O O9 0.892932 0.340426 0.668157
O O10 0.891942 0.408148 0.875577
O O11 0.568654 0.250000 0.723448
O O12 0.453471 0.202583 0.528863
O O13 0.456568 0.185311 0.855782
O O14 0.250000 0.202679 0.427985
O O15 0.131584 0.136288 0.388915
O O16 0.107998 0.197443 0.191245
O O17 0.750000 0.600638 0.832906
O O18 0.968948 0.605111 0.873838
O O19 0.750000 0.680766 0.037641
O O20 0.639952 0.750000 0.050778
#
# Coordination Sequence:
#
# PCOD9450925 Si02
#       8
#     8   8   8   8   8   8   8   8
#     4  11  22  41  59  87 122 158 205 255 308 376
#     4  10  20  35  56  83 117 160 201 246 300 363
#     4  11  25  44  64  86 119 163 213 266 315 368
#     4  11  22  39  64  90 124 165 210 263 319 381
#     4  10  20  35  58  90 127 165 203 250 314 385
#     4  11  21  36  59  89 125 160 198 253 314 374
#     4  10  21  38  58  85 119 155 207 251 304 368
#     4   9  18  33  57  91 126 161 201 248 310 381
#
# _framework density 20.747824000000001
#
# number of rings (size 3 to 8) (size 9 to 14) (size 15 to 20)
#    0.000    1.625    2.500    2.625    0.000    2.500 
#    0.000    1.250    0.000    0.000    0.000    1.750 
#    0.000    0.000    0.000    0.000    0.000    0.000 
#
# Total GULP energy -356548.635321 kJ/mol
# GULP energy per Si atom -5571.072427 kJ/mol
# Density = 2.070060 g / cm^3
# Si number density = 20.747824 Si / 1000 Ang^3
#
#
#
# Elastic Constant Matrix: (Units=GPa)
#
#
# Indices 1 2 3 4 5 6 
#
# 1 85.2193 27.4705 12.4018 0.0000 0.0000 0.0000
# 2 27.4705 101.8002 -7.0410 0.0000 0.0000 0.0000
# 3 12.4018 -7.0410 43.6899 0.0000 0.0000 0.0000
# 4 0.0000 0.0000 0.0000 31.5862 0.0000 0.0000
# 5 0.0000 0.0000 0.0000 0.0000 -367.0497 0.0000
# 6 0.0000 0.0000 0.0000 0.0000 0.0000 -33.8580
#
#
#
# Elastic Compliance Matrix: (Units=1/GPa)
#
#
# Indices 1 2 3 4 5 6 
#
# 1 0.013685 -0.004006 -0.004530 0.000000 0.000000 0.000000
# 2 -0.004006 0.011107 0.002927 0.000000 0.000000 0.000000
# 3 -0.004530 0.002927 0.024646 0.000000 0.000000 0.000000
# 4 0.000000 0.000000 0.000000 0.031659 0.000000 0.000000
# 5 0.000000 0.000000 0.000000 0.000000 -0.002724 0.000000
# 6 0.000000 0.000000 0.000000 0.000000 0.000000 -0.029535
#
#
# Mechanical properties :
#
#
# Convention : Reuss Voigt Hill
#
# Bulk Modulus (GPa) = 26.16477 32.93022 29.54750
# Shear Modulus (GPa) = 68.68464 -60.67243 4.00610
#
# Velocity S-wave (km/s) = 5.75989 -5.41353 1.39106
# Velocity P-wave (km/s) = 7.54144 4.81341 4.10515
#
# Compressibility (1/GPa) = 0.03821933
#
# Stress axis : x y z
#
# Youngs Moduli (GPa) = 73.07197 90.03578 40.57408
#
# Poissons Ratio (x) = 0.36070 0.18381
# Poissons Ratio (y) = 0.29274 -0.11877
# Poissons Ratio (z) = 0.33104 -0.26355
#
# Static dielectric constant tensor:
#      x y z
#    x 1.816960 0.000000 0.000000 
#    y 0.000000 1.829710 0.000000 
#    z 0.000000 0.000000 1.798080 
# 
# From -- ./inp_files/8033.got.cif
#   From: 2010.05.17/outbox.cif.g08.bks.cpg/sg59_5_cif.got.tgz:8033.got - 2010.06.03 14:40:33.
