data_PCOD9450521
_publ_section_title
;
Structure prediction by ZEFSAII (Michael W. Deem and Ramdas Pophale) SiO2 
 PCOD9450521
Probable space group: P M M N
;
_chemical_formula_sum "Si O2"
_cell_formula_units_Z 64
_cell_length_a 8.087082
_cell_length_b 18.152097
_cell_length_c 22.197112
_cell_angle_alpha 90.000000
_cell_angle_beta 90.000000
_cell_angle_gamma 90.000000
_cell_volume 3258.480480
_symmetry_space_group_name_H-M "P M M N"
_symmetry_group_IT_number 59
_space_group.IT_coordinate_system_code '2'
_symmetry_cell_setting 'orthorhombic'
loop_
_space_group_symop_operation_xyz
x,y,z
1/2-x,1/2-y,z
1/2+x,-y,-z
-x,1/2+y,-z
-x,-y,-z
1/2+x,1/2+y,-z
1/2-x,y,z
x,1/2-y,z
loop_
_atom_site_type_symbol
_atom_site_label
_atom_site_fract_x
_atom_site_fract_y
_atom_site_fract_z
Si Si1 0.943441 0.894509 0.116233
Si Si2 0.443713 0.832958 0.993113
Si Si3 0.547688 0.665974 0.783626
Si Si4 0.556331 0.940197 0.892608
Si Si5 0.949706 0.669068 0.373925
Si Si6 0.946056 0.480738 0.566940
Si Si7 0.950113 0.597765 0.250454
Si Si8 0.051397 0.447159 0.312036
O O1 0.750000 0.874930 0.113149
O O2 0.006475 0.880093 0.183997
O O3 0.034108 0.851798 0.063187
O O4 0.963459 0.982290 0.106193
O O5 0.250000 0.836449 0.977776
O O6 0.504503 0.750000 0.980342
O O7 0.535108 0.894238 0.953754
O O8 0.750000 0.667230 0.784294
O O9 0.490898 0.750000 0.789618
O O10 0.497347 0.613695 0.839036
O O11 0.493002 0.626065 0.721968
O O12 0.750000 0.956680 0.882715
O O13 0.750000 0.668838 0.374809
O O14 0.008242 0.750000 0.391884
O O15 0.001246 0.650336 0.305358
O O16 0.007777 0.602432 0.415340
O O17 0.750000 0.487583 0.569063
O O18 0.014336 0.532179 0.621480
O O19 0.000000 0.500000 0.500000
O O20 0.750000 0.595713 0.248944
O O21 0.010747 0.516643 0.269241
O O22 0.250000 0.441871 0.316063
#
# Coordination Sequence:
#
# PCOD9450521 Si02
#       8
#     8   8   8   8   8   8   8   8
#     4  11  22  36  57  83 110 142 182 225 271 329
#     4  11  25  42  56  74 105 142 181 229 281 330
#     4   9  17  30  52  81 107 133 170 219 272 323
#     4  11  21  36  59  81 106 140 180 225 274 331
#     4   9  18  34  56  82 112 145 183 227 276 327
#     4  10  20  34  55  81 111 149 190 229 270 318
#     4   9  18  32  53  80 108 139 174 218 269 323
#     4   9  17  32  53  77 106 139 177 221 265 318
#
# _framework density 19.641058000000001
#
# number of rings (size 3 to 8) (size 9 to 14) (size 15 to 20)
#    0.000    2.125    1.250    2.250    0.000    3.250 
#    0.000    1.875    0.000    3.375    0.000    0.000 
#    0.000    0.000    0.000    0.000    0.000    0.000 
#
# Total GULP energy -357286.565010 kJ/mol
# GULP energy per Si atom -5582.602578 kJ/mol
# Density = 1.959635 g / cm^3
# Si number density = 19.641058 Si / 1000 Ang^3
#
#
#
# Elastic Constant Matrix: (Units=GPa)
#
#
# Indices 1 2 3 4 5 6 
#
# 1 16.4585 -1.0815 -0.1126 0.0000 0.0000 0.0000
# 2 -1.0815 42.3771 12.1968 0.0000 0.0000 0.0000
# 3 -0.1126 12.1968 106.3642 0.0000 0.0000 0.0000
# 4 0.0000 0.0000 0.0000 15.2273 0.0000 0.0000
# 5 0.0000 0.0000 0.0000 0.0000 17.3591 0.0000
# 6 0.0000 0.0000 0.0000 0.0000 0.0000 14.0047
#
#
#
# Elastic Compliance Matrix: (Units=1/GPa)
#
#
# Indices 1 2 3 4 5 6 
#
# 1 0.060863 0.001587 -0.000118 0.000000 0.000000 0.000000
# 2 0.001587 0.024444 -0.002801 0.000000 0.000000 0.000000
# 3 -0.000118 -0.002801 0.009723 0.000000 0.000000 0.000000
# 4 0.000000 0.000000 0.000000 0.065671 0.000000 0.000000
# 5 0.000000 0.000000 0.000000 0.000000 0.057607 0.000000
# 6 0.000000 0.000000 0.000000 0.000000 0.000000 0.071405
#
#
# Mechanical properties :
#
#
# Convention : Reuss Voigt Hill
#
# Bulk Modulus (GPa) = 10.82650 20.80058 15.81354
# Shear Modulus (GPa) = 15.47197 19.59802 17.53500
#
# Velocity S-wave (km/s) = 2.80971 3.16224 2.99117
# Velocity P-wave (km/s) = 4.00626 4.89350 4.47194
#
# Compressibility (1/GPa) = 0.09236597
#
# Stress axis : x y z
#
# Youngs Moduli (GPa) = 16.43047 40.90910 102.85135
#
# Poissons Ratio (x) = -0.06492 0.01209
# Poissons Ratio (y) = -0.02608 0.28812
# Poissons Ratio (z) = 0.00193 0.11460
#
# Static dielectric constant tensor:
#      x y z
#    x 1.701430 0.000000 0.000000 
#    y 0.000000 1.673000 0.000000 
#    z 0.000000 0.000000 1.751080 
# 
# From -- ./inp_files/29474.got.cif
#   From: 2010.05.17/outbox.cif.g08.bks.cpg/sg59_15_cif.got.tgz:29474.got - 2010.06.03 14:40:33.
