data_PCOD9450428
_publ_section_title
;
Structure prediction by ZEFSAII (Michael W. Deem and Ramdas Pophale) SiO2 
 PCOD9450428
Probable space group: P M M N
;
_chemical_formula_sum "Si O2"
_cell_formula_units_Z 56
_cell_length_a 14.761671
_cell_length_b 8.085088
_cell_length_c 23.370095
_cell_angle_alpha 90.000000
_cell_angle_beta 90.000000
_cell_angle_gamma 90.000000
_cell_volume 2789.207028
_symmetry_space_group_name_H-M "P M M N"
_symmetry_group_IT_number 59
_space_group.IT_coordinate_system_code '2'
_symmetry_cell_setting 'orthorhombic'
loop_
_space_group_symop_operation_xyz
x,y,z
1/2-x,1/2-y,z
1/2+x,-y,-z
-x,1/2+y,-z
-x,-y,-z
1/2+x,1/2+y,-z
1/2-x,y,z
x,1/2-y,z
loop_
_atom_site_type_symbol
_atom_site_label
_atom_site_fract_x
_atom_site_fract_y
_atom_site_fract_z
Si Si1 0.853166 0.942175 0.522418
Si Si2 0.851934 0.442473 0.396089
Si Si3 0.347156 0.950243 0.895091
Si Si4 0.048597 0.550523 0.139298
Si Si5 0.600642 0.448727 0.982074
Si Si6 0.354959 0.952584 0.254925
Si Si7 0.458106 0.943736 0.368118
O O1 0.750000 0.977993 0.541902
O O2 0.858597 0.750000 0.505923
O O3 0.869235 0.041916 0.464330
O O4 0.920481 0.975456 0.574075
O O5 0.750000 0.508289 0.386097
O O6 0.853263 0.250000 0.380616
O O7 0.934428 0.530123 0.364638
O O8 0.250000 0.001745 0.868952
O O9 0.350080 0.750000 0.894556
O O10 0.442259 0.007363 0.868125
O O11 0.345971 0.005864 0.961891
O O12 0.053756 0.750000 0.138960
O O13 0.105821 0.491170 0.083438
O O14 0.092410 0.490970 0.198166
O O15 0.611583 0.250000 0.980099
O O16 0.500000 0.500000 0.000000
O O17 0.250000 0.002685 0.254628
O O18 0.356712 0.750000 0.254759
O O19 0.405996 0.008071 0.312330
O O20 0.438512 0.750000 0.373277
#
# Coordination Sequence:
#
# PCOD9450428 Si02
#       7
#     8   8   8   8   8   8   8
#     4  10  20  34  54  81 111 140 171 208 250 299
#     4  10  21  37  56  78 105 136 170 209 253 302
#     4   9  17  29  46  71 103 135 164 198 247 305
#     4   9  17  31  51  73  97 128 168 212 251 290
#     4   8  14  25  43  67  94 124 159 199 243 289
#     4   9  19  35  54  76 100 128 166 210 253 297
#     4  11  21  34  54  77 104 137 171 210 255 302
#
# _framework density 20.077389
#
# number of rings (size 3 to 8) (size 9 to 14) (size 15 to 20)
#    0.000    2.571    0.000    2.143    0.000    3.143 
#    0.000    5.000    0.000    6.429    0.000    4.000 
#    0.000    0.000    0.000    0.000    0.000    0.000 
#
# Total GULP energy -312113.975888 kJ/mol
# GULP energy per Si atom -5573.463855 kJ/mol
# Density = 2.003169 g / cm^3
# Si number density = 20.077389 Si / 1000 Ang^3
#
#
#
# Elastic Constant Matrix: (Units=GPa)
#
#
# Indices 1 2 3 4 5 6 
#
# 1 133.7381 -2.2456 57.1368 0.0000 0.0000 0.0000
# 2 -2.2456 14.9970 -3.1993 0.0000 0.0000 0.0000
# 3 57.1368 -3.1993 52.9114 0.0000 0.0000 0.0000
# 4 0.0000 0.0000 0.0000 9.6843 0.0000 0.0000
# 5 0.0000 0.0000 0.0000 0.0000 27.3930 0.0000
# 6 0.0000 0.0000 0.0000 0.0000 0.0000 18.1750
#
#
#
# Elastic Compliance Matrix: (Units=1/GPa)
#
#
# Indices 1 2 3 4 5 6 
#
# 1 0.013901 -0.001135 -0.015079 0.000000 0.000000 0.000000
# 2 -0.001135 0.067644 0.005316 0.000000 0.000000 0.000000
# 3 -0.015079 0.005316 0.035504 0.000000 0.000000 0.000000
# 4 0.000000 0.000000 0.000000 0.103260 0.000000 0.000000
# 5 0.000000 0.000000 0.000000 0.000000 0.036506 0.000000
# 6 0.000000 0.000000 0.000000 0.000000 0.000000 0.055021
#
#
# Mechanical properties :
#
#
# Convention : Reuss Voigt Hill
#
# Bulk Modulus (GPa) = 10.49848 33.89226 22.19537
# Shear Modulus (GPa) = 13.68429 21.04745 17.36587
#
# Velocity S-wave (km/s) = 2.61354 3.24128 2.94419
# Velocity P-wave (km/s) = 3.78785 5.56106 4.75779
#
# Compressibility (1/GPa) = 0.09525188
#
# Stress axis : x y z
#
# Youngs Moduli (GPa) = 71.93973 14.78328 28.16552
#
# Poissons Ratio (x) = 0.01678 0.42471
# Poissons Ratio (y) = 0.08168 -0.14973
# Poissons Ratio (z) = 1.08480 -0.07859
#
# Static dielectric constant tensor:
#      x y z
#    x 1.734160 0.000000 0.000000 
#    y 0.000000 2.740390 0.000000 
#    z 0.000000 0.000000 1.711190 
# 
# From -- ./inp_files/30338.got.cif
#   From: 2010.05.17/outbox.cif.g08.bks.cpg/sg59_16_cif.got.tgz:30338.got - 2010.06.03 14:40:33.
