data_PCOD9450758
_publ_section_title
;
Structure prediction by ZEFSAII (Michael W. Deem and Ramdas Pophale) SiO2 
 PCOD9450758
Probable space group: P M M N
;
_chemical_formula_sum "Si O2"
_cell_formula_units_Z 56
_cell_length_a 8.821675
_cell_length_b 20.044581
_cell_length_c 17.850210
_cell_angle_alpha 90.000000
_cell_angle_beta 90.000000
_cell_angle_gamma 90.000000
_cell_volume 3156.395140
_symmetry_space_group_name_H-M "P M M N"
_symmetry_group_IT_number 59
_space_group.IT_coordinate_system_code '2'
_symmetry_cell_setting 'orthorhombic'
loop_
_space_group_symop_operation_xyz
x,y,z
1/2-x,1/2-y,z
1/2+x,-y,-z
-x,1/2+y,-z
-x,-y,-z
1/2+x,1/2+y,-z
1/2-x,y,z
x,1/2-y,z
loop_
_atom_site_type_symbol
_atom_site_label
_atom_site_fract_x
_atom_site_fract_y
_atom_site_fract_z
Si Si1 0.432750 0.173496 0.313608
Si Si2 0.068857 0.327561 0.882749
Si Si3 0.068318 0.404308 0.457529
Si Si4 0.932010 0.050237 0.604680
Si Si5 0.567744 0.326984 0.045582
Si Si6 0.067759 0.938950 0.223513
Si Si7 0.068194 0.919106 0.814654
O O1 0.250000 0.165849 0.306621
O O2 0.472585 0.250000 0.298055
O O3 0.473104 0.152745 0.398459
O O4 0.511397 0.123904 0.255862
O O5 0.250000 0.334568 0.880408
O O6 0.030239 0.250000 0.867242
O O7 0.993328 0.377304 0.824145
O O8 0.009939 0.342344 0.966547
O O9 0.250000 0.404798 0.465631
O O10 0.023061 0.474728 0.418663
O O11 0.996296 0.402832 0.539497
O O12 0.750000 0.052895 0.602908
O O13 0.981269 0.065092 0.689234
O O14 0.750000 0.330288 0.036415
O O15 0.529758 0.250000 0.066149
O O16 0.523889 0.378001 0.110874
O O17 0.250000 0.940529 0.221615
O O18 0.004519 0.008014 0.190206
O O19 0.250000 0.924598 0.813150
#
# Coordination Sequence:
#
# PCOD9450758 Si02
#       7
#     8   8   8   8   8   8   8
#     4  10  20  35  54  78 113 153 188 226 278 338
#     4  10  22  40  61  85 110 139 182 232 281 334
#     4   9  17  32  52  76 105 139 182 225 269 324
#     4   9  18  33  53  77 104 137 180 225 270 322
#     4   9  19  37  58  80 110 149 188 225 273 332
#     4  11  22  38  59  83 114 148 185 228 278 337
#     4  11  22  35  55  84 116 147 187 234 278 324
#
# _framework density 17.741758000000001
#
# number of rings (size 3 to 8) (size 9 to 14) (size 15 to 20)
#    0.000    2.143    1.429    1.714    0.000    5.143 
#    0.000    2.143    0.000    2.571    0.000    0.000 
#    0.000    0.000    0.000    0.000    0.000    0.000 
#
# Total GULP energy -312556.115639 kJ/mol
# GULP energy per Si atom -5581.359208 kJ/mol
# Density = 1.770138 g / cm^3
# Si number density = 17.741758 Si / 1000 Ang^3
#
#
#
# Elastic Constant Matrix: (Units=GPa)
#
#
# Indices 1 2 3 4 5 6 
#
# 1 31.2834 41.3230 47.7915 0.0000 0.0000 0.0000
# 2 41.3230 97.9888 85.3304 0.0000 0.0000 0.0000
# 3 47.7915 85.3304 153.6818 0.0000 0.0000 0.0000
# 4 0.0000 0.0000 0.0000 29.4807 0.0000 0.0000
# 5 0.0000 0.0000 0.0000 0.0000 31.8693 0.0000
# 6 0.0000 0.0000 0.0000 0.0000 0.0000 21.1001
#
#
#
# Elastic Compliance Matrix: (Units=1/GPa)
#
#
# Indices 1 2 3 4 5 6 
#
# 1 0.082639 -0.024145 -0.012292 0.000000 0.000000 0.000000
# 2 -0.024145 0.026814 -0.007379 0.000000 0.000000 0.000000
# 3 -0.012292 -0.007379 0.014427 0.000000 0.000000 0.000000
# 4 0.000000 0.000000 0.000000 0.033920 0.000000 0.000000
# 5 0.000000 0.000000 0.000000 0.000000 0.031378 0.000000
# 6 0.000000 0.000000 0.000000 0.000000 0.000000 0.047393
#
#
# Mechanical properties :
#
#
# Convention : Reuss Voigt Hill
#
# Bulk Modulus (GPa) = 27.58974 70.20488 48.89731
# Shear Modulus (GPa) = 14.86821 23.72396 19.29608
#
# Velocity S-wave (km/s) = 2.89802 3.66072 3.30147
# Velocity P-wave (km/s) = 5.17519 7.58447 6.49256
#
# Compressibility (1/GPa) = 0.03624536
#
# Stress axis : x y z
#
# Youngs Moduli (GPa) = 12.10082 37.29421 69.31477
#
# Poissons Ratio (x) = 0.90049 0.85204
# Poissons Ratio (y) = 0.29218 0.51150
# Poissons Ratio (z) = 0.14875 0.27521
#
# Static dielectric constant tensor:
#      x y z
#    x 1.595920 0.000000 0.000000 
#    y 0.000000 1.590240 0.000000 
#    z 0.000000 0.000000 1.593180 
# 
# From -- ./inp_files/20996.got.cif
#   From: 2010.05.17/outbox.cif.g08.bks.cpg/sg59_11_cif.got.tgz:20996.got - 2010.06.03 14:40:33.
