data_PCOD9450852
_publ_section_title
;
Structure prediction by ZEFSAII (Michael W. Deem and Ramdas Pophale) SiO2 
 PCOD9450852
Probable space group: P M M N
;
_chemical_formula_sum "Si O2"
_cell_formula_units_Z 64
_cell_length_a 15.318747
_cell_length_b 9.113802
_cell_length_c 24.528928
_cell_angle_alpha 90.000000
_cell_angle_beta 90.000000
_cell_angle_gamma 90.000000
_cell_volume 3424.533359
_symmetry_space_group_name_H-M "P M M N"
_symmetry_group_IT_number 59
_space_group.IT_coordinate_system_code '2'
_symmetry_cell_setting 'orthorhombic'
loop_
_space_group_symop_operation_xyz
x,y,z
1/2-x,1/2-y,z
1/2+x,-y,-z
-x,1/2+y,-z
-x,-y,-z
1/2+x,1/2+y,-z
1/2-x,y,z
x,1/2-y,z
loop_
_atom_site_type_symbol
_atom_site_label
_atom_site_fract_x
_atom_site_fract_y
_atom_site_fract_z
Si Si1 0.146186 0.426389 0.503579
Si Si2 0.150952 0.423710 0.760417
Si Si3 0.495250 0.426352 0.300891
Si Si4 0.593715 0.419463 0.891928
Si Si5 0.147431 0.583743 0.992691
Si Si6 0.515858 0.074240 0.581963
Si Si7 0.346443 0.074578 0.215287
Si Si8 0.887728 0.917640 0.118686
O O1 0.250000 0.466424 0.509609
O O2 0.144171 0.250000 0.494456
O O3 0.094306 0.507677 0.454795
O O4 0.079736 0.455818 0.554334
O O5 0.250000 0.435008 0.740848
O O6 0.126193 0.250000 0.760080
O O7 0.146900 0.474296 0.823564
O O8 0.085340 0.516269 0.724416
O O9 0.494319 0.250000 0.305828
O O10 0.480917 0.500628 0.359071
O O11 0.420448 0.472023 0.257714
O O12 0.624692 0.250000 0.893929
O O13 0.641293 0.504420 0.844012
O O14 0.492095 0.418933 0.877390
O O15 0.603946 0.482160 0.953037
O O16 0.250000 0.588544 0.004861
O O17 0.113587 0.750000 0.986118
O O18 0.136068 0.502440 0.935859
O O19 0.525061 0.250000 0.584988
O O20 0.250000 0.038406 0.236325
O O21 0.353177 0.250000 0.209436
O O22 0.857357 0.750000 0.112898
#
# Coordination Sequence:
#
# PCOD9450852 Si02
#       8
#     8   8   8   8   8   8   8   8
#     4   9  19  38  63  90 123 163 201 240 290 340
#     4  10  21  38  59  82 111 148 192 243 296 347
#     4  11  23  39  59  85 119 157 198 242 288 342
#     4  10  20  36  57  79 105 138 180 231 287 346
#     4  10  21  34  49  75 108 139 175 224 284 348
#     4  10  21  37  60  91 125 160 201 245 289 339
#     4  10  22  39  58  81 110 147 190 236 288 345
#     4  10  20  35  56  79 104 139 184 231 285 347
#
# _framework density 18.688676999999998
#
# number of rings (size 3 to 8) (size 9 to 14) (size 15 to 20)
#    0.000    2.000    1.250    1.875    0.000    5.500 
#    0.000    2.500    0.000    0.000    0.000    0.000 
#    0.000    0.000    0.000    0.000    0.000    0.000 
#
# Total GULP energy -357045.226227 kJ/mol
# GULP energy per Si atom -5578.831660 kJ/mol
# Density = 1.864614 g / cm^3
# Si number density = 18.688677 Si / 1000 Ang^3
#
#
#
# Elastic Constant Matrix: (Units=GPa)
#
#
# Indices 1 2 3 4 5 6 
#
# 1 83.5919 18.5662 4.6117 0.0000 0.0000 0.0000
# 2 18.5662 31.3098 26.2956 0.0000 0.0000 0.0000
# 3 4.6117 26.2956 70.5817 0.0000 0.0000 0.0000
# 4 0.0000 0.0000 0.0000 33.0867 0.0000 0.0000
# 5 0.0000 0.0000 0.0000 0.0000 62.7945 0.0000
# 6 0.0000 0.0000 0.0000 0.0000 0.0000 19.0640
#
#
#
# Elastic Compliance Matrix: (Units=1/GPa)
#
#
# Indices 1 2 3 4 5 6 
#
# 1 0.014266 -0.011173 0.003230 0.000000 0.000000 0.000000
# 2 -0.011173 0.055233 -0.019847 0.000000 0.000000 0.000000
# 3 0.003230 -0.019847 0.021351 0.000000 0.000000 0.000000
# 4 0.000000 0.000000 0.000000 0.030224 0.000000 0.000000
# 5 0.000000 0.000000 0.000000 0.000000 0.015925 0.000000
# 6 0.000000 0.000000 0.000000 0.000000 0.000000 0.052455
#
#
# Mechanical properties :
#
#
# Convention : Reuss Voigt Hill
#
# Bulk Modulus (GPa) = 28.35192 31.60337 29.97765
# Shear Modulus (GPa) = 19.47119 32.05636 25.76378
#
# Velocity S-wave (km/s) = 3.23130 4.14609 3.71695
# Velocity P-wave (km/s) = 5.39679 6.31405 5.87335
#
# Compressibility (1/GPa) = 0.03527098
#
# Stress axis : x y z
#
# Youngs Moduli (GPa) = 70.09600 18.10519 46.83597
#
# Poissons Ratio (x) = 0.20228 -0.15129
# Poissons Ratio (y) = 0.78315 0.92957
# Poissons Ratio (z) = -0.22643 0.35934
#
# Static dielectric constant tensor:
#      x y z
#    x 1.661450 0.000000 0.000000 
#    y 0.000000 1.643840 0.000000 
#    z 0.000000 0.000000 1.630800 
# 
# From -- ./inp_files/32099.got.cif
#   From: 2010.05.17/outbox.cif.g08.bks.cpg/sg59_17_cif.got.tgz:32099.got - 2010.06.03 14:40:33.
