data_PCOD9450223
_publ_section_title
;
Structure prediction by ZEFSAII (Michael W. Deem and Ramdas Pophale) SiO2 
 PCOD9450223
Probable space group: P M M N
;
_chemical_formula_sum "Si O2"
_cell_formula_units_Z 64
_cell_length_a 7.694864
_cell_length_b 24.114743
_cell_length_c 17.256197
_cell_angle_alpha 90.000000
_cell_angle_beta 90.000000
_cell_angle_gamma 90.000000
_cell_volume 3202.054182
_symmetry_space_group_name_H-M "P M M N"
_symmetry_group_IT_number 59
_space_group.IT_coordinate_system_code '2'
_symmetry_cell_setting 'orthorhombic'
loop_
_space_group_symop_operation_xyz
x,y,z
1/2-x,1/2-y,z
1/2+x,-y,-z
-x,1/2+y,-z
-x,-y,-z
1/2+x,1/2+y,-z
1/2-x,y,z
x,1/2-y,z
loop_
_atom_site_type_symbol
_atom_site_label
_atom_site_fract_x
_atom_site_fract_y
_atom_site_fract_z
Si Si1 0.545708 0.898043 0.949761
Si Si2 0.953840 0.408201 0.288144
Si Si3 0.448811 0.007818 0.155314
Si Si4 0.962389 0.688339 0.070262
Si Si5 0.456170 0.487567 0.411799
Si Si6 0.539999 0.312662 0.185765
Si Si7 0.042684 0.569896 0.279914
Si Si8 0.541063 0.809724 0.249595
O O1 0.750000 0.908467 0.963909
O O2 0.471251 0.955620 0.914634
O O3 0.529792 0.851605 0.882540
O O4 0.472161 0.865132 0.023412
O O5 0.750000 0.415080 0.270359
O O6 0.002022 0.345868 0.264755
O O7 0.050945 0.449088 0.228185
O O8 0.984215 0.429420 0.374649
O O9 0.250000 0.995148 0.132914
O O10 0.528864 0.953898 0.197412
O O11 0.750000 0.687441 0.066857
O O12 0.014511 0.750000 0.039748
O O13 0.015032 0.685831 0.159781
O O14 0.500000 0.500000 0.500000
O O15 0.250000 0.488382 0.406179
O O16 0.526671 0.533983 0.351827
O O17 0.750000 0.311228 0.178189
O O18 0.475131 0.250000 0.182725
O O19 0.250000 0.561290 0.275614
O O20 0.012860 0.634471 0.291117
O O21 0.750000 0.808744 0.249014
O O22 0.479692 0.750000 0.279982
#
# Coordination Sequence:
#
# PCOD9450223 Si02
#       8
#     8   8   8   8   8   8   8   8
#     4   9  15  25  43  63  85 118 160 202 239 275
#     4   9  16  27  44  65  91 123 155 183 214 257
#     4   8  15  27  42  63  91 120 151 190 234 275
#     4   8  14  25  41  62  87 116 156 205 248 280
#     4  10  20  34  53  77 100 118 140 175 219 266
#     4   9  17  27  39  60  92 126 157 190 227 265
#     4   9  18  32  49  70  96 122 148 182 226 277
#     4   9  18  32  49  68  90 119 158 201 238 273
#
# _framework density 19.987169000000002
#
# number of rings (size 3 to 8) (size 9 to 14) (size 15 to 20)
#    0.000    3.125    0.000    2.625    0.000    4.000 
#    0.000    1.250    0.000    1.500    0.000    1.750 
#    0.000    0.000    0.000    0.000    0.000    0.000 
#
# Total GULP energy -356426.827552 kJ/mol
# GULP energy per Si atom -5569.169180 kJ/mol
# Density = 1.994168 g / cm^3
# Si number density = 19.987169 Si / 1000 Ang^3
#
#
#
# Elastic Constant Matrix: (Units=GPa)
#
#
# Indices 1 2 3 4 5 6 
#
# 1 40.5113 0.1769 -2.3765 0.0000 0.0000 0.0000
# 2 0.1769 78.8447 9.3140 0.0000 0.0000 0.0000
# 3 -2.3765 9.3140 38.7392 0.0000 0.0000 0.0000
# 4 0.0000 0.0000 0.0000 22.6028 0.0000 0.0000
# 5 0.0000 0.0000 0.0000 0.0000 -0.7835 0.0000
# 6 0.0000 0.0000 0.0000 0.0000 0.0000 13.8845
#
#
#
# Elastic Compliance Matrix: (Units=1/GPa)
#
#
# Indices 1 2 3 4 5 6 
#
# 1 0.024778 -0.000242 0.001578 0.000000 0.000000 0.000000
# 2 -0.000242 0.013056 -0.003154 0.000000 0.000000 0.000000
# 3 0.001578 -0.003154 0.026669 0.000000 0.000000 0.000000
# 4 0.000000 0.000000 0.000000 0.044242 0.000000 0.000000
# 5 0.000000 0.000000 0.000000 0.000000 -1.276324 0.000000
# 6 0.000000 0.000000 0.000000 0.000000 0.000000 0.072023
#
#
# Mechanical properties :
#
#
# Convention : Reuss Voigt Hill
#
# Bulk Modulus (GPa) = 16.42910 19.14712 17.78811
# Shear Modulus (GPa) = -4.66578 17.20614 6.27018
#
# Velocity S-wave (km/s) = -1.52953 2.93722 1.77311
# Velocity P-wave (km/s) = 2.26239 4.59386 3.62091
#
# Compressibility (1/GPa) = 0.06086762
#
# Stress axis : x y z
#
# Youngs Moduli (GPa) = 40.35824 76.59152 37.49701
#
# Poissons Ratio (x) = 0.01854 -0.05918
# Poissons Ratio (y) = 0.00977 0.11826
# Poissons Ratio (z) = -0.06369 0.24157
#
# Static dielectric constant tensor:
#      x y z
#    x 1.802520 0.000000 0.000000 
#    y 0.000000 1.763640 0.000000 
#    z 0.000000 0.000000 1.729040 
# 
# From -- ./inp_files/26535.got.cif
#   From: 2010.05.17/outbox.cif.g08.bks.cpg/sg59_14_cif.got.tgz:26535.got - 2010.06.03 14:40:33.
