data_PCOD9450865
_publ_section_title
;
Structure prediction by ZEFSAII (Michael W. Deem and Ramdas Pophale) SiO2 
 PCOD9450865
Probable space group: P M M N
;
_chemical_formula_sum "Si O2"
_cell_formula_units_Z 48
_cell_length_a 7.987200
_cell_length_b 21.113457
_cell_length_c 14.903566
_cell_angle_alpha 90.000000
_cell_angle_beta 90.000000
_cell_angle_gamma 90.000000
_cell_volume 2513.298677
_symmetry_space_group_name_H-M "P M M N"
_symmetry_group_IT_number 59
_space_group.IT_coordinate_system_code '2'
_symmetry_cell_setting 'orthorhombic'
loop_
_space_group_symop_operation_xyz
x,y,z
1/2-x,1/2-y,z
1/2+x,-y,-z
-x,1/2+y,-z
-x,-y,-z
1/2+x,1/2+y,-z
1/2-x,y,z
x,1/2-y,z
loop_
_atom_site_type_symbol
_atom_site_label
_atom_site_fract_x
_atom_site_fract_y
_atom_site_fract_z
Si Si1 0.051334 0.820129 0.947554
Si Si2 0.451827 0.438729 0.558122
Si Si3 0.549075 0.060677 0.940631
Si Si4 0.050805 0.486636 0.749043
Si Si5 0.954985 0.678400 0.560664
Si Si6 0.053666 0.131727 0.244405
O O1 0.250000 0.817295 0.964731
O O2 0.980107 0.750000 0.962803
O O3 0.029063 0.839852 0.844081
O O4 0.983299 0.876164 0.010360
O O5 0.500000 0.500000 0.500000
O O6 0.250000 0.435061 0.559826
O O7 0.509457 0.450479 0.659872
O O8 0.513056 0.375251 0.508845
O O9 0.750000 0.063022 0.938006
O O10 0.484783 0.050627 0.840252
O O11 0.500000 0.000000 0.000000
O O12 0.250000 0.496643 0.741269
O O13 0.969822 0.556096 0.754234
O O14 0.750000 0.676884 0.561086
O O15 0.006196 0.750000 0.538993
O O16 0.009593 0.659607 0.661285
O O17 0.250000 0.146611 0.238255
#
# Coordination Sequence:
#
# PCOD9450865 Si02
#       6
#     8   8   8   8   8   8
#     4  10  22  39  57  80 113 149 182 224 282 337
#     4  10  20  35  56  80 109 145 184 228 273 324
#     4  11  22  37  59  83 111 146 185 229 275 330
#     4  11  22  35  54  83 115 146 186 232 277 329
#     4   9  18  33  53  80 112 144 181 226 277 328
#     4  11  20  32  56  85 113 145 183 230 279 332
#
# _framework density 19.098407000000002
#
# number of rings (size 3 to 8) (size 9 to 14) (size 15 to 20)
#    0.000    1.667    3.333    2.000    0.000    2.333 
#    0.000    0.833    0.000    2.500    0.000    0.000 
#    0.000    0.000    0.000    0.000    0.000    0.000 
#
# Total GULP energy -268105.431692 kJ/mol
# GULP energy per Si atom -5585.529827 kJ/mol
# Density = 1.905494 g / cm^3
# Si number density = 19.098407 Si / 1000 Ang^3
#
#
#
# Elastic Constant Matrix: (Units=GPa)
#
#
# Indices 1 2 3 4 5 6 
#
# 1 13.1234 -8.9169 -7.7185 0.0000 0.0000 0.0000
# 2 -8.9169 177.2428 87.7359 0.0000 0.0000 0.0000
# 3 -7.7185 87.7359 155.3103 0.0000 0.0000 0.0000
# 4 0.0000 0.0000 0.0000 17.3467 0.0000 0.0000
# 5 0.0000 0.0000 0.0000 0.0000 16.5749 0.0000
# 6 0.0000 0.0000 0.0000 0.0000 0.0000 11.1467
#
#
#
# Elastic Compliance Matrix: (Units=1/GPa)
#
#
# Indices 1 2 3 4 5 6 
#
# 1 0.079509 0.002838 0.002348 0.000000 0.000000 0.000000
# 2 0.002838 0.007933 -0.004341 0.000000 0.000000 0.000000
# 3 0.002348 -0.004341 0.009007 0.000000 0.000000 0.000000
# 4 0.000000 0.000000 0.000000 0.057648 0.000000 0.000000
# 5 0.000000 0.000000 0.000000 0.000000 0.060332 0.000000
# 6 0.000000 0.000000 0.000000 0.000000 0.000000 0.089713
#
#
# Mechanical properties :
#
#
# Convention : Reuss Voigt Hill
#
# Bulk Modulus (GPa) = 10.18944 54.20862 32.19903
# Shear Modulus (GPa) = 14.91800 27.31872 21.11836
#
# Velocity S-wave (km/s) = 2.79787 3.78619 3.32891
# Velocity P-wave (km/s) = 3.97294 6.89631 5.62776
#
# Compressibility (1/GPa) = 0.09814085
#
# Stress axis : x y z
#
# Youngs Moduli (GPa) = 12.57715 126.05033 111.01907
#
# Poissons Ratio (x) = -0.35767 -0.26072
# Poissons Ratio (y) = -0.03569 0.48189
# Poissons Ratio (z) = -0.02954 0.54713
#
# Static dielectric constant tensor:
#      x y z
#    x 1.705660 0.000000 0.000000 
#    y 0.000000 1.659080 0.000000 
#    z 0.000000 0.000000 1.643310 
# 
# From -- ./inp_files/20478.got.cif
#   From: 2010.05.17/outbox.cif.g08.bks.cpg/sg59_11_cif.got.tgz:20478.got - 2010.06.03 14:40:33.
