data_PCOD9450101
_publ_section_title
;
Structure prediction by ZEFSAII (Michael W. Deem and Ramdas Pophale) SiO2 
 PCOD9450101
Probable space group: P M M N
;
_chemical_formula_sum "Si O2"
_cell_formula_units_Z 48
_cell_length_a 7.305754
_cell_length_b 33.943748
_cell_length_c 7.938671
_cell_angle_alpha 90.000000
_cell_angle_beta 90.000000
_cell_angle_gamma 90.000000
_cell_volume 1968.668730
_symmetry_space_group_name_H-M "P M M N"
_symmetry_group_IT_number 59
_space_group.IT_coordinate_system_code '2'
_symmetry_cell_setting 'orthorhombic'
loop_
_space_group_symop_operation_xyz
x,y,z
1/2-x,1/2-y,z
1/2+x,-y,-z
-x,1/2+y,-z
-x,-y,-z
1/2+x,1/2+y,-z
1/2-x,y,z
x,1/2-y,z
loop_
_atom_site_type_symbol
_atom_site_label
_atom_site_fract_x
_atom_site_fract_y
_atom_site_fract_z
Si Si1 0.467037 0.483593 0.682840
Si Si2 0.956698 0.904473 0.201412
Si Si3 0.046602 0.678260 0.076813
Si Si4 0.026858 0.852676 0.714636
Si Si5 0.973244 0.293424 0.576930
Si Si6 0.527563 0.436373 0.163626
O O1 0.500000 0.500000 0.500000
O O2 0.250000 0.479302 0.715304
O O3 0.541962 0.439375 0.690127
O O4 0.536491 0.519544 0.796400
O O5 0.750000 0.894824 0.255136
O O6 0.058327 0.864038 0.170657
O O7 0.956897 0.924673 0.018433
O O8 0.250000 0.694373 0.043660
O O9 0.961141 0.702922 0.229269
O O10 0.967026 0.667960 0.892188
O O11 0.250000 0.852329 0.719117
O O12 0.968339 0.827605 0.552560
O O13 0.973559 0.898965 0.719242
O O14 0.750000 0.295664 0.584614
O O15 0.020752 0.250000 0.510800
O O16 0.750000 0.437100 0.161971
#
# Coordination Sequence:
#
# PCOD9450101 Si02
#       6
#     8   8   8   8   8   8
#     4  10  22  34  48  74 105 136 173 215 258 304
#     4  10  20  34  51  74 102 133 172 216 258 301
#     4   9  18  32  52  75 101 137 173 207 258 315
#     4   8  15  28  46  70  98 127 164 207 251 303
#     4   9  17  28  47  77 105 129 163 211 263 308
#     4   9  18  34  53  72  96 134 178 214 256 309
#
# _framework density 24.381959999999999
#
# number of rings (size 3 to 8) (size 9 to 14) (size 15 to 20)
#    0.000    2.833    0.000    2.000    2.333    2.667 
#    0.000    3.333    0.000    0.500    0.000    0.000 
#    0.000    0.000    0.000    0.000    0.000    0.000 
#
# Total GULP energy -267752.016520 kJ/mol
# GULP energy per Si atom -5578.167011 kJ/mol
# Density = 2.432647 g / cm^3
# Si number density = 24.381960 Si / 1000 Ang^3
#
#
#
# Elastic Constant Matrix: (Units=GPa)
#
#
# Indices 1 2 3 4 5 6 
#
# 1 105.6461 3.6646 -5.2899 0.0000 0.0000 0.0000
# 2 3.6646 40.3023 15.8035 0.0000 0.0000 0.0000
# 3 -5.2899 15.8035 69.0788 0.0000 0.0000 0.0000
# 4 0.0000 0.0000 0.0000 43.7770 0.0000 0.0000
# 5 0.0000 0.0000 0.0000 0.0000 0.3022 0.0000
# 6 0.0000 0.0000 0.0000 0.0000 0.0000 -14.8262
#
#
#
# Elastic Compliance Matrix: (Units=1/GPa)
#
#
# Indices 1 2 3 4 5 6 
#
# 1 0.009561 -0.001270 0.001023 0.000000 0.000000 0.000000
# 2 -0.001270 0.027427 -0.006372 0.000000 0.000000 0.000000
# 3 0.001023 -0.006372 0.016012 0.000000 0.000000 0.000000
# 4 0.000000 0.000000 0.000000 0.022843 0.000000 0.000000
# 5 0.000000 0.000000 0.000000 0.000000 3.308555 0.000000
# 6 0.000000 0.000000 0.000000 0.000000 0.000000 -0.067448
#
#
# Mechanical properties :
#
#
# Convention : Reuss Voigt Hill
#
# Bulk Modulus (GPa) = 25.15040 27.04262 26.09651
# Shear Modulus (GPa) = 1.49546 19.24054 10.36800
#
# Velocity S-wave (km/s) = 0.78402 2.81219 2.06435
# Velocity P-wave (km/s) = 3.34023 4.65402 4.05074
#
# Compressibility (1/GPa) = 0.03976080
#
# Stress axis : x y z
#
# Youngs Moduli (GPa) = 104.59322 36.46107 62.45216
#
# Poissons Ratio (x) = 0.04632 -0.06388
# Poissons Ratio (y) = 0.13288 0.39793
# Poissons Ratio (z) = -0.10698 0.23232
#
# Static dielectric constant tensor:
#      x y z
#    x 2.039730 0.000000 0.000000 
#    y 0.000000 1.461000 0.000000 
#    z 0.000000 0.000000 1.788710 
# 
# From -- ./inp_files/6297.got.cif
#   From: 2010.05.17/outbox.cif.g08.bks.cpg/sg59_4_cif.got.tgz:6297.got - 2010.06.03 14:40:33.
