data_PCOD9450084
_publ_section_title
;
Structure prediction by ZEFSAII (Michael W. Deem and Ramdas Pophale) SiO2 
 PCOD9450084
Probable space group: P M M N
;
_chemical_formula_sum "Si O2"
_cell_formula_units_Z 64
_cell_length_a 8.895223
_cell_length_b 14.217679
_cell_length_c 32.590489
_cell_angle_alpha 90.000000
_cell_angle_beta 90.000000
_cell_angle_gamma 90.000000
_cell_volume 4121.700412
_symmetry_space_group_name_H-M "P M M N"
_symmetry_group_IT_number 59
_space_group.IT_coordinate_system_code '2'
_symmetry_cell_setting 'orthorhombic'
loop_
_space_group_symop_operation_xyz
x,y,z
1/2-x,1/2-y,z
1/2+x,-y,-z
-x,1/2+y,-z
-x,-y,-z
1/2+x,1/2+y,-z
1/2-x,y,z
x,1/2-y,z
loop_
_atom_site_type_symbol
_atom_site_label
_atom_site_fract_x
_atom_site_fract_y
_atom_site_fract_z
Si Si1 0.076194 0.135857 0.770130
Si Si2 0.929225 0.468090 0.602290
Si Si3 0.928926 0.360557 0.437288
Si Si4 0.568352 0.456047 0.938229
Si Si5 0.430712 0.859254 0.145181
Si Si6 0.425349 0.136999 0.525126
Si Si7 0.931970 0.639068 0.321150
Si Si8 0.431299 0.356636 0.016759
O O1 0.250000 0.107664 0.774047
O O2 0.072108 0.250000 0.769435
O O3 0.021230 0.107875 0.724813
O O4 0.988436 0.106320 0.810709
O O5 0.750000 0.466357 0.601831
O O6 0.991263 0.573069 0.595499
O O7 0.994117 0.410339 0.563516
O O8 0.992683 0.420911 0.643353
O O9 0.750000 0.375291 0.436834
O O10 0.958851 0.250000 0.430657
O O11 0.994002 0.385706 0.482225
O O12 0.750000 0.449253 0.939828
O O13 0.518644 0.420855 0.893564
O O14 0.526264 0.562923 0.950319
O O15 0.501106 0.389805 0.973656
O O16 0.250000 0.859689 0.145827
O O17 0.479011 0.750000 0.139510
O O18 0.250000 0.108962 0.523487
O O19 0.431456 0.250000 0.530018
O O20 0.750000 0.631771 0.323419
O O21 0.968532 0.750000 0.326343
O O22 0.250000 0.358424 0.013209
O O23 0.477133 0.250000 0.026796
#
# Coordination Sequence:
#
# PCOD9450084 Si02
#       8
#     8   8   8   8   8   8   8   8
#     4   8  15  28  45  64  87 115 143 174 216 262
#     4  12  23  32  47  71  97 123 151 184 221 265
#     4  10  21  37  54  69  88 117 154 193 228 263
#     4   9  17  28  41  59  84 114 147 182 221 264
#     4   9  16  25  39  60  85 112 141 174 213 259
#     4  10  20  34  51  70  95 125 154 186 222 260
#     4   9  18  33  50  68  93 122 150 181 218 263
#     4   9  17  28  41  58  82 113 149 187 222 256
#
# _framework density 15.527571999999999
#
# number of rings (size 3 to 8) (size 9 to 14) (size 15 to 20)
#    0.000    2.500    0.000    3.750    0.000    5.000 
#    0.000    2.500    0.000    0.000    0.000    0.875 
#    0.000    3.000    0.000    0.000    0.000    0.000 
#
# Total GULP energy -356856.649884 kJ/mol
# GULP energy per Si atom -5575.885154 kJ/mol
# Density = 1.549223 g / cm^3
# Si number density = 15.527572 Si / 1000 Ang^3
#
#
#
# Elastic Constant Matrix: (Units=GPa)
#
#
# Indices 1 2 3 4 5 6 
#
# 1 48.3697 33.9108 50.5762 0.0000 0.0000 0.0000
# 2 33.9108 81.5816 68.5320 0.0000 0.0000 0.0000
# 3 50.5762 68.5320 147.2495 0.0000 0.0000 0.0000
# 4 0.0000 0.0000 0.0000 24.1745 0.0000 0.0000
# 5 0.0000 0.0000 0.0000 0.0000 27.5199 0.0000
# 6 0.0000 0.0000 0.0000 0.0000 0.0000 18.6728
#
#
#
# Elastic Compliance Matrix: (Units=1/GPa)
#
#
# Indices 1 2 3 4 5 6 
#
# 1 0.034682 -0.007240 -0.008543 0.000000 0.000000 0.000000
# 2 -0.007240 0.021638 -0.007584 0.000000 0.000000 0.000000
# 3 -0.008543 -0.007584 0.013255 0.000000 0.000000 0.000000
# 4 0.000000 0.000000 0.000000 0.041366 0.000000 0.000000
# 5 0.000000 0.000000 0.000000 0.000000 0.036337 0.000000
# 6 0.000000 0.000000 0.000000 0.000000 0.000000 0.053554
#
#
# Mechanical properties :
#
#
# Convention : Reuss Voigt Hill
#
# Bulk Modulus (GPa) = 43.77902 64.80430 54.29166
# Shear Modulus (GPa) = 19.59403 22.35223 20.97313
#
# Velocity S-wave (km/s) = 3.55616 3.79821 3.67918
# Velocity P-wave (km/s) = 6.71694 7.81414 7.28622
#
# Compressibility (1/GPa) = 0.02284199
#
# Stress axis : x y z
#
# Youngs Moduli (GPa) = 28.83299 46.21546 75.44294
#
# Poissons Ratio (x) = 0.33460 0.64450
# Poissons Ratio (y) = 0.20875 0.57214
# Poissons Ratio (z) = 0.24632 0.35049
#
# Static dielectric constant tensor:
#      x y z
#    x 1.518710 0.000000 0.000000 
#    y 0.000000 1.526720 0.000000 
#    z 0.000000 0.000000 1.505510 
# 
# From -- ./inp_files/33217.got.cif
#   From: 2010.05.17/outbox.cif.g08.bks.cpg/sg59_17_cif.got.tgz:33217.got - 2010.06.03 14:40:33.
