data_PCOD9450603
_publ_section_title
;
Structure prediction by ZEFSAII (Michael W. Deem and Ramdas Pophale) SiO2 
 PCOD9450603
Probable space group: P M M N
;
_chemical_formula_sum "Si O2"
_cell_formula_units_Z 32
_cell_length_a 14.742925
_cell_length_b 14.476824
_cell_length_c 7.496731
_cell_angle_alpha 90.000000
_cell_angle_beta 90.000000
_cell_angle_gamma 90.000000
_cell_volume 1600.032773
_symmetry_space_group_name_H-M "P M M N"
_symmetry_group_IT_number 59
_space_group.IT_coordinate_system_code '2'
_symmetry_cell_setting 'orthorhombic'
loop_
_space_group_symop_operation_xyz
x,y,z
1/2-x,1/2-y,z
1/2+x,-y,-z
-x,1/2+y,-z
-x,-y,-z
1/2+x,1/2+y,-z
1/2-x,y,z
x,1/2-y,z
loop_
_atom_site_type_symbol
_atom_site_label
_atom_site_fract_x
_atom_site_fract_y
_atom_site_fract_z
Si Si1 0.957937 0.860840 0.849917
Si Si2 0.151034 0.857688 0.674716
Si Si3 0.148259 0.141423 0.805206
Si Si4 0.604537 0.521336 0.535988
O O1 0.942365 0.750000 0.824492
O O2 0.895385 0.921531 0.718099
O O3 0.063527 0.878466 0.798796
O O4 0.928101 0.883803 0.050524
O O5 0.250000 0.872796 0.761830
O O6 0.143774 0.750000 0.627339
O O7 0.148302 0.921794 0.499347
O O8 0.250000 0.127627 0.880114
O O9 0.138149 0.250000 0.765382
O O10 0.139567 0.084864 0.624510
O O11 0.500000 0.500000 0.500000
#
# Coordination Sequence:
#
# PCOD9450603 Si02
#       4
#     8   8   8   8
#     4   9  19  36  58  84 113 145 182 226 280 339
#     4   9  18  33  53  77 107 146 190 233 275 321
#     4  10  21  36  56  85 117 145 179 227 280 335
#     4  10  20  34  56  80 108 146 186 228 277 327
#
# _framework density 19.999590999999999
#
# number of rings (size 3 to 8) (size 9 to 14) (size 15 to 20)
#    0.000    2.500    0.000    1.500    0.000    7.000 
#    0.000    2.500    0.000    9.000    0.000   38.500 
#    0.000    0.000    0.000    0.000    0.000    0.000 
#
# Total GULP energy -178267.660148 kJ/mol
# GULP energy per Si atom -5570.864380 kJ/mol
# Density = 1.995407 g / cm^3
# Si number density = 19.999591 Si / 1000 Ang^3
#
#
#
# Elastic Constant Matrix: (Units=GPa)
#
#
# Indices 1 2 3 4 5 6 
#
# 1 96.9561 32.6110 15.6247 0.0000 0.0000 0.0000
# 2 32.6110 61.5916 26.9752 0.0000 0.0000 0.0000
# 3 15.6247 26.9752 49.4455 0.0000 0.0000 0.0000
# 4 0.0000 0.0000 0.0000 18.0877 0.0000 0.0000
# 5 0.0000 0.0000 0.0000 0.0000 25.3145 0.0000
# 6 0.0000 0.0000 0.0000 0.0000 0.0000 16.3867
#
#
#
# Elastic Compliance Matrix: (Units=1/GPa)
#
#
# Indices 1 2 3 4 5 6 
#
# 1 0.012556 -0.006452 -0.000448 0.000000 0.000000 0.000000
# 2 -0.006452 0.024649 -0.011408 0.000000 0.000000 0.000000
# 3 -0.000448 -0.011408 0.026590 0.000000 0.000000 0.000000
# 4 0.000000 0.000000 0.000000 0.055286 0.000000 0.000000
# 5 0.000000 0.000000 0.000000 0.000000 0.039503 0.000000
# 6 0.000000 0.000000 0.000000 0.000000 0.000000 0.061025
#
#
# Mechanical properties :
#
#
# Convention : Reuss Voigt Hill
#
# Bulk Modulus (GPa) = 36.79425 39.82388 38.30907
# Shear Modulus (GPa) = 18.84767 20.80993 19.82880
#
# Velocity S-wave (km/s) = 3.07319 3.22921 3.15216
# Velocity P-wave (km/s) = 5.57047 5.81887 5.69602
#
# Compressibility (1/GPa) = 0.02717816
#
# Stress axis : x y z
#
# Youngs Moduli (GPa) = 79.64170 40.57020 37.60860
#
# Poissons Ratio (x) = 0.26176 0.01684
# Poissons Ratio (y) = 0.51385 0.42905
# Poissons Ratio (z) = 0.03566 0.46284
#
# Static dielectric constant tensor:
#      x y z
#    x 1.750590 0.000000 0.000000 
#    y 0.000000 1.758280 0.000000 
#    z 0.000000 0.000000 1.669800 
# 
# From -- ./inp_files/1815.got.cif
#   From: 2010.05.17/outbox.cif.g08.bks.cpg/sg59_1_cif.got.tgz:1815.got - 2010.06.03 14:40:33.
