data_PCOD9450540
_publ_section_title
;
Structure prediction by ZEFSAII (Michael W. Deem and Ramdas Pophale) SiO2 
 PCOD9450540
Probable space group: P M M N
;
_chemical_formula_sum "Si O2"
_cell_formula_units_Z 40
_cell_length_a 8.470387
_cell_length_b 9.321561
_cell_length_c 26.702418
_cell_angle_alpha 90.000000
_cell_angle_beta 90.000000
_cell_angle_gamma 90.000000
_cell_volume 2108.348936
_symmetry_space_group_name_H-M "P M M N"
_symmetry_group_IT_number 59
_space_group.IT_coordinate_system_code '2'
_symmetry_cell_setting 'orthorhombic'
loop_
_space_group_symop_operation_xyz
x,y,z
1/2-x,1/2-y,z
1/2+x,-y,-z
-x,1/2+y,-z
-x,-y,-z
1/2+x,1/2+y,-z
1/2-x,y,z
x,1/2-y,z
loop_
_atom_site_type_symbol
_atom_site_label
_atom_site_fract_x
_atom_site_fract_y
_atom_site_fract_z
Si Si1 0.058609 0.915752 0.742690
Si Si2 0.557583 0.583049 0.158712
Si Si3 0.939441 0.416149 0.451387
Si Si4 0.560604 0.416079 0.645779
Si Si5 0.560125 0.583598 0.047923
O O1 0.250000 0.918863 0.741836
O O2 0.008977 0.750000 0.738668
O O3 0.005170 0.986396 0.795023
O O4 0.997543 0.008004 0.696278
O O5 0.750000 0.581438 0.158759
O O6 0.511049 0.750000 0.165364
O O7 0.506762 0.532926 0.103247
O O8 0.750000 0.416548 0.451849
O O9 0.992890 0.250000 0.451863
O O10 0.000000 0.500000 0.500000
O O11 0.997667 0.496647 0.401802
O O12 0.750000 0.417704 0.644557
O O13 0.507637 0.250000 0.643971
O O14 0.750000 0.577301 0.047783
O O15 0.513242 0.750000 0.043984
O O16 0.500000 0.500000 0.000000
#
# Coordination Sequence:
#
# PCOD9450540 Si02
#       5
#     8   8   8   8   8
#     4  10  20  34  55  83 109 135 174 222 270 322
#     4   8  15  30  51  73 100 136 176 218 264 315
#     4  11  24  41  62  89 118 148 185 226 268 317
#     4  11  24  40  58  82 112 147 186 224 265 317
#     4   9  18  32  50  74 103 135 174 218 264 318
#
# _framework density 18.972190999999999
#
# number of rings (size 3 to 8) (size 9 to 14) (size 15 to 20)
#    0.000    2.200    0.000    4.200    0.000   10.400 
#    0.000    3.000    0.000    1.200    0.000    0.000 
#    0.000    0.000    0.000    0.000    0.000    0.000 
#
# Total GULP energy -223329.413013 kJ/mol
# GULP energy per Si atom -5583.235325 kJ/mol
# Density = 1.892901 g / cm^3
# Si number density = 18.972191 Si / 1000 Ang^3
#
#
#
# Elastic Constant Matrix: (Units=GPa)
#
#
# Indices 1 2 3 4 5 6 
#
# 1 16.1345 32.7341 30.5273 0.0000 0.0000 0.0000
# 2 32.7341 168.7161 126.8366 0.0000 0.0000 0.0000
# 3 30.5273 126.8366 225.3086 0.0000 0.0000 0.0000
# 4 0.0000 0.0000 0.0000 43.4464 0.0000 0.0000
# 5 0.0000 0.0000 0.0000 0.0000 31.8597 0.0000
# 6 0.0000 0.0000 0.0000 0.0000 0.0000 25.7843
#
#
#
# Elastic Compliance Matrix: (Units=1/GPa)
#
#
# Indices 1 2 3 4 5 6 
#
# 1 0.105109 -0.016794 -0.004787 0.000000 0.000000 0.000000
# 2 -0.016794 0.012959 -0.005020 0.000000 0.000000 0.000000
# 3 -0.004787 -0.005020 0.007913 0.000000 0.000000 0.000000
# 4 0.000000 0.000000 0.000000 0.023017 0.000000 0.000000
# 5 0.000000 0.000000 0.000000 0.000000 0.031388 0.000000
# 6 0.000000 0.000000 0.000000 0.000000 0.000000 0.038783
#
#
# Mechanical properties :
#
#
# Convention : Reuss Voigt Hill
#
# Bulk Modulus (GPa) = 13.74030 87.81726 50.77878
# Shear Modulus (GPa) = 16.85593 34.88882 25.87238
#
# Velocity S-wave (km/s) = 2.98393 4.29294 3.69684
# Velocity P-wave (km/s) = 4.37377 8.42380 6.71156
#
# Compressibility (1/GPa) = 0.07277863
#
# Stress axis : x y z
#
# Youngs Moduli (GPa) = 9.51393 77.16375 126.37543
#
# Poissons Ratio (x) = 1.29592 0.60496
# Poissons Ratio (y) = 0.15978 0.63440
# Poissons Ratio (z) = 0.04554 0.38736
#
# Static dielectric constant tensor:
#      x y z
#    x 1.660170 0.000000 0.000000 
#    y 0.000000 1.643550 0.000000 
#    z 0.000000 0.000000 1.638260 
# 
# From -- ./inp_files/31111.got.cif
#   From: 2010.05.17/outbox.cif.g08.bks.cpg/sg59_16_cif.got.tgz:31111.got - 2010.06.03 14:40:33.
