data_PCOD9450629
_publ_section_title
;
Structure prediction by ZEFSAII (Michael W. Deem and Ramdas Pophale) SiO2 
 PCOD9450629
Probable space group: P M M N
;
_chemical_formula_sum "Si O2"
_cell_formula_units_Z 64
_cell_length_a 14.953200
_cell_length_b 22.407582
_cell_length_c 9.593423
_cell_angle_alpha 90.000000
_cell_angle_beta 90.000000
_cell_angle_gamma 90.000000
_cell_volume 3214.420807
_symmetry_space_group_name_H-M "P M M N"
_symmetry_group_IT_number 59
_space_group.IT_coordinate_system_code '2'
_symmetry_cell_setting 'orthorhombic'
loop_
_space_group_symop_operation_xyz
x,y,z
1/2-x,1/2-y,z
1/2+x,-y,-z
-x,1/2+y,-z
-x,-y,-z
1/2+x,1/2+y,-z
1/2-x,y,z
x,1/2-y,z
loop_
_atom_site_type_symbol
_atom_site_label
_atom_site_fract_x
_atom_site_fract_y
_atom_site_fract_z
Si Si1 0.146986 0.880606 0.529235
Si Si2 0.496558 0.143944 0.257082
Si Si3 0.356631 0.597469 0.220165
Si Si4 0.150610 0.179445 0.790293
Si Si5 0.491480 0.494155 0.166214
Si Si6 0.975732 0.318487 0.950376
Si Si7 0.354225 0.137414 0.477145
Si Si8 0.354143 0.482687 0.621756
O O1 0.250000 0.862740 0.549363
O O2 0.081801 0.852080 0.641329
O O3 0.121165 0.871495 0.368481
O O4 0.141197 0.952068 0.554113
O O5 0.413321 0.161943 0.352772
O O6 0.483228 0.074865 0.210170
O O7 0.510655 0.179051 0.115247
O O8 0.250000 0.589827 0.213166
O O9 0.408049 0.534736 0.212096
O O10 0.395465 0.639291 0.098946
O O11 0.250000 0.154658 0.823345
O O12 0.154159 0.250000 0.817476
O O13 0.134588 0.169456 0.626135
O O14 0.066460 0.156874 0.877901
O O15 0.579469 0.517941 0.247453
O O16 0.500000 0.500000 0.000000
O O17 0.961074 0.250000 0.905600
O O18 0.250000 0.139233 0.440765
O O19 0.380580 0.068889 0.513150
O O20 0.250000 0.471883 0.660055
#
# Coordination Sequence:
#
# PCOD9450629 Si02
#       8
#     8   8   8   8   8   8   8   8
#     4   9  19  36  59  84 111 150 195 242 294 344
#     4  11  22  36  57  86 122 149 190 245 299 356
#     4  11  23  41  63  86 117 157 202 247 291 347
#     4   9  19  37  60  83 110 149 197 243 289 349
#     4  11  21  35  55  87 121 153 191 239 296 359
#     4  11  24  41  60  85 119 160 203 247 299 351
#     4  10  20  34  56  84 114 149 187 231 288 354
#     4   9  18  33  55  83 116 152 188 230 288 356
#
# _framework density 19.910274000000001
#
# number of rings (size 3 to 8) (size 9 to 14) (size 15 to 20)
#    0.000    1.875    1.250    3.000    0.000    5.750 
#    0.000    0.625    0.000    0.750    0.000    0.000 
#    0.000    0.000    0.000    0.000    0.000    0.000 
#
# Total GULP energy -357497.905885 kJ/mol
# GULP energy per Si atom -5585.904779 kJ/mol
# Density = 1.986496 g / cm^3
# Si number density = 19.910274 Si / 1000 Ang^3
#
#
#
# Elastic Constant Matrix: (Units=GPa)
#
#
# Indices 1 2 3 4 5 6 
#
# 1 80.9186 6.7054 51.7655 0.0000 0.0000 0.0000
# 2 6.7054 29.0241 -11.6108 0.0000 0.0000 0.0000
# 3 51.7655 -11.6108 109.7046 0.0000 0.0000 0.0000
# 4 0.0000 0.0000 0.0000 10.9089 0.0000 0.0000
# 5 0.0000 0.0000 0.0000 0.0000 -4.9517 0.0000
# 6 0.0000 0.0000 0.0000 0.0000 0.0000 4.5697
#
#
#
# Elastic Compliance Matrix: (Units=1/GPa)
#
#
# Indices 1 2 3 4 5 6 
#
# 1 0.019550 -0.008570 -0.010132 0.000000 0.000000 0.000000
# 2 -0.008570 0.039734 0.008249 0.000000 0.000000 0.000000
# 3 -0.010132 0.008249 0.014769 0.000000 0.000000 0.000000
# 4 0.000000 0.000000 0.000000 0.091668 0.000000 0.000000
# 5 0.000000 0.000000 0.000000 0.000000 -0.201950 0.000000
# 6 0.000000 0.000000 0.000000 0.000000 0.000000 0.218835
#
#
# Mechanical properties :
#
#
# Convention : Reuss Voigt Hill
#
# Bulk Modulus (GPa) = 18.81537 34.81863 26.81700
# Shear Modulus (GPa) = 22.60123 13.62452 18.11288
#
# Velocity S-wave (km/s) = 3.37286 2.61874 3.01944
# Velocity P-wave (km/s) = 4.96375 5.16425 5.06499
#
# Compressibility (1/GPa) = 0.05314805
#
# Stress axis : x y z
#
# Youngs Moduli (GPa) = 51.15153 25.16738 67.70831
#
# Poissons Ratio (x) = 0.21568 0.68601
# Poissons Ratio (y) = 0.43835 -0.55853
# Poissons Ratio (z) = 0.51826 -0.20761
#
# Static dielectric constant tensor:
#      x y z
#    x 1.705120 0.000000 0.000000 
#    y 0.000000 1.719070 0.000000 
#    z 0.000000 0.000000 1.678700 
# 
# From -- ./inp_files/9617.got.cif
#   From: 2010.05.17/outbox.cif.g08.bks.cpg/sg59_5_cif.got.tgz:9617.got - 2010.06.03 14:40:33.
