data_PCOD9450574
_publ_section_title
;
Structure prediction by ZEFSAII (Michael W. Deem and Ramdas Pophale) SiO2 
 PCOD9450574
Probable space group: P M M N
;
_chemical_formula_sum "Si O2"
_cell_formula_units_Z 56
_cell_length_a 23.485857
_cell_length_b 8.808997
_cell_length_c 15.663236
_cell_angle_alpha 90.000000
_cell_angle_beta 90.000000
_cell_angle_gamma 90.000000
_cell_volume 3240.517461
_symmetry_space_group_name_H-M "P M M N"
_symmetry_group_IT_number 59
_space_group.IT_coordinate_system_code '2'
_symmetry_cell_setting 'orthorhombic'
loop_
_space_group_symop_operation_xyz
x,y,z
1/2-x,1/2-y,z
1/2+x,-y,-z
-x,1/2+y,-z
-x,-y,-z
1/2+x,1/2+y,-z
1/2-x,y,z
x,1/2-y,z
loop_
_atom_site_type_symbol
_atom_site_label
_atom_site_fract_x
_atom_site_fract_y
_atom_site_fract_z
Si Si1 0.062345 0.570992 0.499347
Si Si2 0.750000 0.931011 0.579560
Si Si3 0.423652 0.431862 0.173337
Si Si4 0.639052 0.070882 0.665954
Si Si5 0.868576 0.930539 0.344713
Si Si6 0.750000 0.431485 0.388354
Si Si7 0.063415 0.931603 0.997705
Si Si8 0.941940 0.068193 0.193099
O O1 0.059914 0.750000 0.519941
O O2 0.090893 0.553955 0.406870
O O3 0.100991 0.487892 0.569090
O O4 0.000000 0.500000 0.500000
O O5 0.750000 0.750000 0.570037
O O6 0.694570 0.986486 0.630653
O O7 0.750000 0.005943 0.485569
O O8 0.419999 0.250000 0.172853
O O9 0.384924 0.501959 0.246902
O O10 0.490511 0.471313 0.191240
O O11 0.407181 0.495953 0.080106
O O12 0.651110 0.250000 0.675406
O O13 0.862731 0.750000 0.346413
O O14 0.806750 0.007731 0.343077
O O15 0.907960 0.982573 0.266259
O O16 0.750000 0.250000 0.391150
O O17 0.060958 0.750000 0.007012
O O18 0.083448 0.964711 0.901273
O O19 0.000000 0.000000 0.000000
O O20 0.938452 0.250000 0.207193
#
# Coordination Sequence:
#
# PCOD9450574 Si02
#       8
#     8   4   8   8   8   4   8   8
#     4  11  23  37  55  79 112 148 183 225 277 332
#     4  12  24  40  62  83 106 141 190 238 280 328
#     4  10  20  34  55  84 117 150 187 231 278 331
#     4  11  23  38  57  80 110 149 188 229 278 331
#     4  12  24  37  57  83 111 144 186 233 279 330
#     4  12  24  42  62  79 106 145 190 234 278 330
#     4   9  17  31  53  80 112 149 187 227 276 334
#     4   9  19  35  55  82 116 151 186 226 277 334
#
# _framework density 17.281191
#
# number of rings (size 3 to 8) (size 9 to 14) (size 15 to 20)
#    0.000    1.429    1.429    6.000    0.000    7.429 
#    0.000    0.000    0.000    0.857    0.000    1.000 
#    0.000    0.000    0.000    0.000    0.000    0.000 
#
# Total GULP energy -312814.810054 kJ/mol
# GULP energy per Si atom -5585.978751 kJ/mol
# Density = 1.724186 g / cm^3
# Si number density = 17.281191 Si / 1000 Ang^3
#
#
#
# Elastic Constant Matrix: (Units=GPa)
#
#
# Indices 1 2 3 4 5 6 
#
# 1 37.3614 7.0258 -22.0237 0.0000 0.0000 0.0000
# 2 7.0258 84.5267 19.1243 0.0000 0.0000 0.0000
# 3 -22.0237 19.1243 60.2700 0.0000 0.0000 0.0000
# 4 0.0000 0.0000 0.0000 32.1927 0.0000 0.0000
# 5 0.0000 0.0000 0.0000 0.0000 4.4497 0.0000
# 6 0.0000 0.0000 0.0000 0.0000 0.0000 27.0566
#
#
#
# Elastic Compliance Matrix: (Units=1/GPa)
#
#
# Indices 1 2 3 4 5 6 
#
# 1 0.037299 -0.006662 0.015744 0.000000 0.000000 0.000000
# 2 -0.006662 0.013936 -0.006856 0.000000 0.000000 0.000000
# 3 0.015744 -0.006856 0.024521 0.000000 0.000000 0.000000
# 4 0.000000 0.000000 0.000000 0.031063 0.000000 0.000000
# 5 0.000000 0.000000 0.000000 0.000000 0.224733 0.000000
# 6 0.000000 0.000000 0.000000 0.000000 0.000000 0.036960
#
#
# Mechanical properties :
#
#
# Convention : Reuss Voigt Hill
#
# Bulk Modulus (GPa) = 12.46804 21.15677 16.81240
# Shear Modulus (GPa) = 12.79441 24.60858 18.70149
#
# Velocity S-wave (km/s) = 2.72392 3.77770 3.29323
# Velocity P-wave (km/s) = 4.13805 5.59439 4.92040
#
# Compressibility (1/GPa) = 0.08020507
#
# Stress axis : x y z
#
# Youngs Moduli (GPa) = 26.81042 71.75852 40.78202
#
# Poissons Ratio (x) = 0.47808 -0.64206
# Poissons Ratio (y) = 0.17862 0.27962
# Poissons Ratio (z) = -0.42209 0.49201
#
# Static dielectric constant tensor:
#      x y z
#    x 1.565770 0.000000 0.000000 
#    y 0.000000 1.576420 0.000000 
#    z 0.000000 0.000000 1.584970 
# 
# From -- ./inp_files/24393.got.cif
#   From: 2010.05.17/outbox.cif.g08.bks.cpg/sg59_13_cif.got.tgz:24393.got - 2010.06.03 14:40:33.
