data_PCOD9450170
_publ_section_title
;
Structure prediction by ZEFSAII (Michael W. Deem and Ramdas Pophale) SiO2 
 PCOD9450170
Probable space group: P M M N
;
_chemical_formula_sum "Si O2"
_cell_formula_units_Z 56
_cell_length_a 8.387802
_cell_length_b 21.340791
_cell_length_c 14.033290
_cell_angle_alpha 90.000000
_cell_angle_beta 90.000000
_cell_angle_gamma 90.000000
_cell_volume 2511.991600
_symmetry_space_group_name_H-M "P M M N"
_symmetry_group_IT_number 59
_space_group.IT_coordinate_system_code '2'
_symmetry_cell_setting 'orthorhombic'
loop_
_space_group_symop_operation_xyz
x,y,z
1/2-x,1/2-y,z
1/2+x,-y,-z
-x,1/2+y,-z
-x,-y,-z
1/2+x,1/2+y,-z
1/2-x,y,z
x,1/2-y,z
loop_
_atom_site_type_symbol
_atom_site_label
_atom_site_fract_x
_atom_site_fract_y
_atom_site_fract_z
Si Si1 0.568103 0.503964 0.605558
Si Si2 0.559527 0.819669 0.763342
Si Si3 0.934803 0.624886 0.356891
Si Si4 0.432025 0.551552 0.785336
Si Si5 0.433944 0.952779 0.080178
Si Si6 0.556538 0.179228 0.835298
Si Si7 0.931062 0.177059 0.452326
O O1 0.500000 0.500000 0.500000
O O2 0.750000 0.525672 0.606194
O O3 0.538453 0.649232 0.463992
O O4 0.460223 0.546927 0.672343
O O5 0.750000 0.825300 0.768553
O O6 0.512517 0.750000 0.797718
O O7 0.481257 0.878678 0.815970
O O8 0.505799 0.823706 0.652925
O O9 0.750000 0.606478 0.344229
O O10 0.049744 0.565314 0.352377
O O11 0.985440 0.670258 0.271054
O O12 0.250000 0.538615 0.809691
O O13 0.541026 0.497483 0.828815
O O14 0.250000 0.943300 0.057901
O O15 0.498701 0.882553 0.103959
O O16 0.500000 0.000000 0.000000
O O17 0.750000 0.175908 0.829442
O O18 0.515531 0.250000 0.869917
O O19 0.750000 0.150625 0.452907
O O20 0.917295 0.250000 0.477088
#
# Coordination Sequence:
#
# PCOD9450170 Si02
#       7
#     8   8   8   8   8   8   8
#     4  12  24  39  58  85 125 172 221 272 324 384
#     4  10  21  38  60  87 122 166 217 271 325 382
#     4  12  23  35  54  85 124 167 216 268 325 385
#     4  12  24  41  65  94 128 166 213 267 323 391
#     4  11  24  45  73 101 132 171 215 269 328 398
#     4  10  22  42  68  97 130 169 212 264 329 396
#     4  10  20  34  52  77 116 167 218 265 318 380
#
# _framework density 22.293067000000001
#
# number of rings (size 3 to 8) (size 9 to 14) (size 15 to 20)
#    0.000    1.000    1.429    6.429    0.000    4.286 
#    0.000    0.714    0.000    2.571    0.000    0.000 
#    0.000    0.000    0.000    0.000    0.000    0.000 
#
# Total GULP energy -312788.829428 kJ/mol
# GULP energy per Si atom -5585.514811 kJ/mol
# Density = 2.224233 g / cm^3
# Si number density = 22.293067 Si / 1000 Ang^3
#
#
#
# Elastic Constant Matrix: (Units=GPa)
#
#
# Indices 1 2 3 4 5 6 
#
# 1 56.4040 -0.9699 -3.5903 0.0000 0.0000 0.0000
# 2 -0.9699 150.9445 14.0105 0.0000 0.0000 0.0000
# 3 -3.5903 14.0105 40.5413 0.0000 0.0000 0.0000
# 4 0.0000 0.0000 0.0000 21.8002 0.0000 0.0000
# 5 0.0000 0.0000 0.0000 0.0000 27.5019 0.0000
# 6 0.0000 0.0000 0.0000 0.0000 0.0000 17.4075
#
#
#
# Elastic Compliance Matrix: (Units=1/GPa)
#
#
# Indices 1 2 3 4 5 6 
#
# 1 0.017830 -0.000033 0.001590 0.000000 0.000000 0.000000
# 2 -0.000033 0.006845 -0.002368 0.000000 0.000000 0.000000
# 3 0.001590 -0.002368 0.025625 0.000000 0.000000 0.000000
# 4 0.000000 0.000000 0.000000 0.045871 0.000000 0.000000
# 5 0.000000 0.000000 0.000000 0.000000 0.036361 0.000000
# 6 0.000000 0.000000 0.000000 0.000000 0.000000 0.057446
#
#
# Mechanical properties :
#
#
# Convention : Reuss Voigt Hill
#
# Bulk Modulus (GPa) = 20.54315 29.64341 25.09328
# Shear Modulus (GPa) = 24.05853 29.23790 26.64821
#
# Velocity S-wave (km/s) = 3.28867 3.62543 3.46115
# Velocity P-wave (km/s) = 4.86370 5.55436 5.22046
#
# Compressibility (1/GPa) = 0.04867802
#
# Stress axis : x y z
#
# Youngs Moduli (GPa) = 56.08555 146.10139 39.02366
#
# Poissons Ratio (x) = 0.00483 -0.06206
# Poissons Ratio (y) = 0.00185 0.09242
# Poissons Ratio (z) = -0.08920 0.34601
#
# Static dielectric constant tensor:
#      x y z
#    x 1.754460 0.000000 0.000000 
#    y 0.000000 1.900050 0.000000 
#    z 0.000000 0.000000 1.908070 
# 
# From -- ./inp_files/21023.got.cif
#   From: 2010.05.17/outbox.cif.g08.bks.cpg/sg59_11_cif.got.tgz:21023.got - 2010.06.03 14:40:33.
