data_PCOD9450561
_publ_section_title
;
Structure prediction by ZEFSAII (Michael W. Deem and Ramdas Pophale) SiO2 
 PCOD9450561
Probable space group: P M M N
;
_chemical_formula_sum "Si O2"
_cell_formula_units_Z 48
_cell_length_a 9.244384
_cell_length_b 16.572486
_cell_length_c 15.647338
_cell_angle_alpha 90.000000
_cell_angle_beta 90.000000
_cell_angle_gamma 90.000000
_cell_volume 2397.210117
_symmetry_space_group_name_H-M "P M M N"
_symmetry_group_IT_number 59
_space_group.IT_coordinate_system_code '2'
_symmetry_cell_setting 'orthorhombic'
loop_
_space_group_symop_operation_xyz
x,y,z
1/2-x,1/2-y,z
1/2+x,-y,-z
-x,1/2+y,-z
-x,-y,-z
1/2+x,1/2+y,-z
1/2-x,y,z
x,1/2-y,z
loop_
_atom_site_type_symbol
_atom_site_label
_atom_site_fract_x
_atom_site_fract_y
_atom_site_fract_z
Si Si1 0.412423 0.346174 0.761339
Si Si2 0.918140 0.908936 0.903486
Si Si3 0.588527 0.344583 0.602325
Si Si4 0.574284 0.656601 0.718305
Si Si5 0.923614 0.922023 0.541165
Si Si6 0.416544 0.602997 0.074008
O O1 0.250000 0.379868 0.759205
O O2 0.401653 0.250000 0.747653
O O3 0.511798 0.381298 0.685727
O O4 0.487674 0.359550 0.851563
O O5 0.750000 0.883770 0.915166
O O6 0.968406 0.878823 0.810559
O O7 0.921013 0.006240 0.909968
O O8 0.015656 0.878804 0.981640
O O9 0.750000 0.378813 0.588511
O O10 0.605395 0.250000 0.618600
O O11 0.484254 0.353821 0.521923
O O12 0.750000 0.657071 0.717673
O O13 0.526966 0.750000 0.708511
O O14 0.531609 0.601532 0.637507
O O15 0.750000 0.927711 0.537189
O O16 0.000000 0.000000 0.500000
O O17 0.250000 0.629078 0.079465
#
# Coordination Sequence:
#
# PCOD9450561 Si02
#       6
#     8   8   8   8   8   8
#     4  10  21  36  56  83 113 149 193 238 285 344
#     4   9  19  36  57  82 112 152 196 238 287 345
#     4  10  21  38  59  83 115 153 191 237 294 353
#     4   9  19  37  61  86 113 150 197 246 294 346
#     4  11  23  38  59  88 118 153 196 245 296 353
#     4  10  20  34  55  83 118 155 191 239 291 346
#
# _framework density 20.023275999999999
#
# number of rings (size 3 to 8) (size 9 to 14) (size 15 to 20)
#    0.000    2.167    0.000    2.500    2.333    4.000 
#    0.000    3.333    0.000    2.000    0.000    0.000 
#    0.000    0.000    0.000    0.000    0.000    0.000 
#
# Total GULP energy -267816.358239 kJ/mol
# GULP energy per Si atom -5579.507463 kJ/mol
# Density = 1.997770 g / cm^3
# Si number density = 20.023276 Si / 1000 Ang^3
#
#
#
# Elastic Constant Matrix: (Units=GPa)
#
#
# Indices 1 2 3 4 5 6 
#
# 1 105.5935 25.4373 57.4565 0.0000 0.0000 0.0000
# 2 25.4373 37.6446 36.6436 0.0000 0.0000 0.0000
# 3 57.4565 36.6436 176.9829 0.0000 0.0000 0.0000
# 4 0.0000 0.0000 0.0000 25.6036 0.0000 0.0000
# 5 0.0000 0.0000 0.0000 0.0000 22.7167 0.0000
# 6 0.0000 0.0000 0.0000 0.0000 0.0000 20.0598
#
#
#
# Elastic Compliance Matrix: (Units=1/GPa)
#
#
# Indices 1 2 3 4 5 6 
#
# 1 0.012370 -0.005573 -0.002862 0.000000 0.000000 0.000000
# 2 -0.005573 0.035780 -0.005599 0.000000 0.000000 0.000000
# 3 -0.002862 -0.005599 0.007739 0.000000 0.000000 0.000000
# 4 0.000000 0.000000 0.000000 0.039057 0.000000 0.000000
# 5 0.000000 0.000000 0.000000 0.000000 0.044020 0.000000
# 6 0.000000 0.000000 0.000000 0.000000 0.000000 0.049851
#
#
# Mechanical properties :
#
#
# Convention : Reuss Voigt Hill
#
# Bulk Modulus (GPa) = 35.94392 62.14397 49.04395
# Shear Modulus (GPa) = 22.10843 27.05494 24.58169
#
# Velocity S-wave (km/s) = 3.32646 3.67982 3.50759
# Velocity P-wave (km/s) = 5.72222 7.01128 6.39929
#
# Compressibility (1/GPa) = 0.02782112
#
# Stress axis : x y z
#
# Youngs Moduli (GPa) = 80.84026 27.94868 129.22156
#
# Poissons Ratio (x) = 0.15575 0.36984
# Poissons Ratio (y) = 0.45050 0.72350
# Poissons Ratio (z) = 0.23137 0.15648
#
# Static dielectric constant tensor:
#      x y z
#    x 1.698870 0.000000 0.000000 
#    y 0.000000 1.939890 0.000000 
#    z 0.000000 0.000000 1.692180 
# 
# From -- ./inp_files/20454.got.cif
#   From: 2010.05.17/outbox.cif.g08.bks.cpg/sg59_11_cif.got.tgz:20454.got - 2010.06.03 14:40:33.
