data_PCOD9450178
_publ_section_title
;
Structure prediction by ZEFSAII (Michael W. Deem and Ramdas Pophale) SiO2 
 PCOD9450178
Probable space group: P M M N
;
_chemical_formula_sum "Si O2"
_cell_formula_units_Z 40
_cell_length_a 7.484346
_cell_length_b 15.203337
_cell_length_c 15.714358
_cell_angle_alpha 90.000000
_cell_angle_beta 90.000000
_cell_angle_gamma 90.000000
_cell_volume 1788.090195
_symmetry_space_group_name_H-M "P M M N"
_symmetry_group_IT_number 59
_space_group.IT_coordinate_system_code '2'
_symmetry_cell_setting 'orthorhombic'
loop_
_space_group_symop_operation_xyz
x,y,z
1/2-x,1/2-y,z
1/2+x,-y,-z
-x,1/2+y,-z
-x,-y,-z
1/2+x,1/2+y,-z
1/2-x,y,z
x,1/2-y,z
loop_
_atom_site_type_symbol
_atom_site_label
_atom_site_fract_x
_atom_site_fract_y
_atom_site_fract_z
Si Si1 0.969827 0.103400 0.274209
Si Si2 0.463261 0.402502 0.722521
Si Si3 0.035665 0.750000 0.596149
Si Si4 0.954012 0.384434 0.090068
Si Si5 0.963261 0.750000 0.396976
Si Si6 0.535833 0.090389 0.910163
O O1 0.750000 0.103084 0.271138
O O2 0.026606 0.164689 0.351581
O O3 0.031519 0.139387 0.181918
O O4 0.030749 0.002627 0.283971
O O5 0.250000 0.408493 0.712767
O O6 0.533633 0.336258 0.651525
O O7 0.497825 0.368789 0.818450
O O8 0.250000 0.750000 0.601867
O O9 0.991655 0.750000 0.497268
O O10 0.750000 0.352972 0.090025
O O11 0.956331 0.491657 0.092262
O O12 0.030385 0.363471 0.996829
O O13 0.750000 0.750000 0.383480
O O14 0.750000 0.081301 0.918133
#
# Coordination Sequence:
#
# PCOD9450178 Si02
#       6
#     8   8   4   8   4   8
#     4   8  15  30  51  72  95 125 157 187 229 287
#     4   9  18  34  52  68  93 130 164 194 236 292
#     4  10  20  34  53  74  94 118 153 200 247 288
#     4   8  14  26  44  68 101 136 162 186 225 281
#     4  10  22  38  53  68  90 124 163 202 249 298
#     4   9  15  24  44  74 101 127 161 198 232 269
#
# _framework density 22.370235000000001
#
# number of rings (size 3 to 8) (size 9 to 14) (size 15 to 20)
#    0.000    3.200    0.000    1.800    0.000    2.400 
#    0.000    5.000    0.000    2.400    0.000    0.000 
#    0.000    0.000    0.000    0.000    0.000    0.000 
#
# Total GULP energy -223063.067618 kJ/mol
# GULP energy per Si atom -5576.576690 kJ/mol
# Density = 2.231932 g / cm^3
# Si number density = 22.370235 Si / 1000 Ang^3
#
#
#
# Elastic Constant Matrix: (Units=GPa)
#
#
# Indices 1 2 3 4 5 6 
#
# 1 67.2082 7.7108 -12.2137 0.0000 0.0000 0.0000
# 2 7.7108 107.7669 99.4632 0.0000 0.0000 0.0000
# 3 -12.2137 99.4632 248.8661 0.0000 0.0000 0.0000
# 4 0.0000 0.0000 0.0000 47.3866 0.0000 0.0000
# 5 0.0000 0.0000 0.0000 0.0000 23.4308 0.0000
# 6 0.0000 0.0000 0.0000 0.0000 0.0000 -8.4825
#
#
#
# Elastic Compliance Matrix: (Units=1/GPa)
#
#
# Indices 1 2 3 4 5 6 
#
# 1 0.015558 -0.002880 0.001915 0.000000 0.000000 0.000000
# 2 -0.002880 0.015236 -0.006231 0.000000 0.000000 0.000000
# 3 0.001915 -0.006231 0.006602 0.000000 0.000000 0.000000
# 4 0.000000 0.000000 0.000000 0.021103 0.000000 0.000000
# 5 0.000000 0.000000 0.000000 0.000000 0.042679 0.000000
# 6 0.000000 0.000000 0.000000 0.000000 0.000000 -0.117890
#
#
# Mechanical properties :
#
#
# Convention : Reuss Voigt Hill
#
# Bulk Modulus (GPa) = 43.47198 68.19576 55.83387
# Shear Modulus (GPa) = 934.98228 34.39239 484.68733
#
# Velocity S-wave (km/s) = 20.46620 3.92525 14.73555
# Velocity P-wave (km/s) = 24.04085 7.14805 17.73495
#
# Compressibility (1/GPa) = 0.02300332
#
# Stress axis : x y z
#
# Youngs Moduli (GPa) = 64.27752 65.63437 151.46101
#
# Poissons Ratio (x) = 0.18905 -0.29000
# Poissons Ratio (y) = 0.18514 0.94370
# Poissons Ratio (z) = -0.12307 0.40894
#
# Static dielectric constant tensor:
#      x y z
#    x 1.852220 0.000000 0.000000 
#    y 0.000000 1.831630 0.000000 
#    z 0.000000 0.000000 1.840240 
# 
# From -- ./inp_files/19982.got.cif
#   From: 2010.05.17/outbox.cif.g08.bks.cpg/sg59_10_cif.got.tgz:19982.got - 2010.06.03 14:40:33.
