data_PCOD9450771
_publ_section_title
;
Structure prediction by ZEFSAII (Michael W. Deem and Ramdas Pophale) SiO2 
 PCOD9450771
Probable space group: P M M N
;
_chemical_formula_sum "Si O2"
_cell_formula_units_Z 48
_cell_length_a 7.525309
_cell_length_b 18.690778
_cell_length_c 15.948258
_cell_angle_alpha 90.000000
_cell_angle_beta 90.000000
_cell_angle_gamma 90.000000
_cell_volume 2243.184365
_symmetry_space_group_name_H-M "P M M N"
_symmetry_group_IT_number 59
_space_group.IT_coordinate_system_code '2'
_symmetry_cell_setting 'orthorhombic'
loop_
_space_group_symop_operation_xyz
x,y,z
1/2-x,1/2-y,z
1/2+x,-y,-z
-x,1/2+y,-z
-x,-y,-z
1/2+x,1/2+y,-z
1/2-x,y,z
x,1/2-y,z
loop_
_atom_site_type_symbol
_atom_site_label
_atom_site_fract_x
_atom_site_fract_y
_atom_site_fract_z
Si Si1 0.467528 0.932345 0.357439
Si Si2 0.459285 0.093363 0.335025
Si Si3 0.035353 0.832196 0.838064
Si Si4 0.957292 0.171225 0.499429
Si Si5 0.044029 0.837072 0.019766
Si Si6 0.032579 0.832634 0.203181
O O1 0.250000 0.935278 0.357083
O O2 0.529402 0.891136 0.440810
O O3 0.521143 0.884919 0.277456
O O4 0.530820 0.013658 0.350573
O O5 0.250000 0.092002 0.350859
O O6 0.487992 0.119531 0.240592
O O7 0.534297 0.148278 0.402974
O O8 0.250000 0.829953 0.843607
O O9 0.975176 0.750000 0.824376
O O10 0.967956 0.858261 0.929319
O O11 0.750000 0.176443 0.522593
O O12 0.036454 0.250000 0.512425
O O13 0.250000 0.860405 0.020576
O O14 0.043201 0.750000 0.018717
O O15 0.968563 0.856539 0.110683
O O16 0.250000 0.832252 0.200672
O O17 0.979392 0.750000 0.218102
#
# Coordination Sequence:
#
# PCOD9450771 Si02
#       6
#     8   8   8   8   8   8
#     4   9  18  31  46  68  98 126 150 184 235 286
#     4  11  22  33  46  68 100 131 154 183 230 285
#     4   9  17  31  50  70  93 123 161 200 231 264
#     4  10  20  35  55  74  90 115 156 200 235 271
#     4   7  11  21  41  69  94 116 149 195 238 267
#     4   8  12  22  44  71  95 119 152 195 236 272
#
# _framework density 21.398154000000002
#
# number of rings (size 3 to 8) (size 9 to 14) (size 15 to 20)
#    0.000    3.000    0.000    4.000    0.000    4.667 
#    0.000    1.667    0.000    0.000    0.000    2.333 
#    0.000    6.667    0.000    0.000    0.000    0.000 
#
# Total GULP energy -267732.089484 kJ/mol
# GULP energy per Si atom -5577.751864 kJ/mol
# Density = 2.134945 g / cm^3
# Si number density = 21.398154 Si / 1000 Ang^3
#
#
#
# Elastic Constant Matrix: (Units=GPa)
#
#
# Indices 1 2 3 4 5 6 
#
# 1 53.8529 2.4948 -9.3387 0.0000 0.0000 0.0000
# 2 2.4948 55.5517 -1.6691 0.0000 0.0000 0.0000
# 3 -9.3387 -1.6691 71.3691 0.0000 0.0000 0.0000
# 4 0.0000 0.0000 0.0000 -40.8109 0.0000 0.0000
# 5 0.0000 0.0000 0.0000 0.0000 -6.8980 0.0000
# 6 0.0000 0.0000 0.0000 0.0000 0.0000 3.0515
#
#
#
# Elastic Compliance Matrix: (Units=1/GPa)
#
#
# Indices 1 2 3 4 5 6 
#
# 1 0.019034 -0.000781 0.002472 0.000000 0.000000 0.000000
# 2 -0.000781 0.018046 0.000320 0.000000 0.000000 0.000000
# 3 0.002472 0.000320 0.014343 0.000000 0.000000 0.000000
# 4 0.000000 0.000000 0.000000 -0.024503 0.000000 0.000000
# 5 0.000000 0.000000 0.000000 0.000000 -0.144969 0.000000
# 6 0.000000 0.000000 0.000000 0.000000 0.000000 0.327705
#
#
# Mechanical properties :
#
#
# Convention : Reuss Voigt Hill
#
# Bulk Modulus (GPa) = 18.03556 18.19419 18.11488
# Shear Modulus (GPa) = 22.31012 3.68763 12.99888
#
# Velocity S-wave (km/s) = 3.23246 1.31418 2.46738
# Velocity P-wave (km/s) = 4.73060 3.28997 4.07447
#
# Compressibility (1/GPa) = 0.05544603
#
# Stress axis : x y z
#
# Youngs Moduli (GPa) = 52.53759 55.41420 69.72213
#
# Poissons Ratio (x) = 0.04325 -0.17238
# Poissons Ratio (y) = 0.04101 -0.02230
# Poissons Ratio (z) = -0.12989 -0.01773
#
# Static dielectric constant tensor:
#      x y z
#    x 1.838580 0.000000 0.000000 
#    y 0.000000 1.743740 0.000000 
#    z 0.000000 0.000000 1.781740 
# 
# From -- ./inp_files/20432.got.cif
#   From: 2010.05.17/outbox.cif.g08.bks.cpg/sg59_11_cif.got.tgz:20432.got - 2010.06.03 14:40:33.
