data_PCOD9450352
_publ_section_title
;
Structure prediction by ZEFSAII (Michael W. Deem and Ramdas Pophale) SiO2 
 PCOD9450352
Probable space group: P M M N
;
_chemical_formula_sum "Si O2"
_cell_formula_units_Z 48
_cell_length_a 14.529961
_cell_length_b 8.604022
_cell_length_c 21.791471
_cell_angle_alpha 90.000000
_cell_angle_beta 90.000000
_cell_angle_gamma 90.000000
_cell_volume 2724.284807
_symmetry_space_group_name_H-M "P M M N"
_symmetry_group_IT_number 59
_space_group.IT_coordinate_system_code '2'
_symmetry_cell_setting 'orthorhombic'
loop_
_space_group_symop_operation_xyz
x,y,z
1/2-x,1/2-y,z
1/2+x,-y,-z
-x,1/2+y,-z
-x,-y,-z
1/2+x,1/2+y,-z
1/2-x,y,z
x,1/2-y,z
loop_
_atom_site_type_symbol
_atom_site_label
_atom_site_fract_x
_atom_site_fract_y
_atom_site_fract_z
Si Si1 0.645019 0.937692 0.499251
Si Si2 0.357181 0.063227 0.834664
Si Si3 0.500733 0.937092 0.739006
Si Si4 0.006098 0.562421 0.597575
Si Si5 0.357132 0.563297 0.164765
Si Si6 0.500631 0.435640 0.068615
O O1 0.750000 0.991286 0.503766
O O2 0.644800 0.750000 0.497910
O O3 0.582413 0.986715 0.557206
O O4 0.594205 0.998296 0.438561
O O5 0.250000 0.019770 0.834332
O O6 0.364307 0.250000 0.835058
O O7 0.412061 0.998460 0.775926
O O8 0.411322 0.997476 0.893504
O O9 0.502007 0.750000 0.741985
O O10 0.499390 0.986750 0.668152
O O11 0.588867 0.001364 0.775645
O O12 0.009708 0.750000 0.596573
O O13 0.250000 0.519462 0.164817
O O14 0.364104 0.750000 0.163125
O O15 0.412258 0.495119 0.106772
O O16 0.501460 0.250000 0.068392
O O17 0.500000 0.500000 0.000000
#
# Coordination Sequence:
#
# PCOD9450352 Si02
#       6
#     8   8   8   8   8   8
#     4   9  18  33  52  73  99 133 172 213 257 306
#     4  10  21  37  56  78 106 139 175 216 260 307
#     4  10  20  34  54  78 105 138 174 214 260 311
#     4   9  19  34  51  74 103 134 169 212 259 306
#     4  10  21  37  56  79 108 139 173 215 259 305
#     4  11  22  37  58  81 108 140 174 215 259 306
#
# _framework density 17.619302999999999
#
# number of rings (size 3 to 8) (size 9 to 14) (size 15 to 20)
#    0.000    2.167    0.000    5.000    0.000    6.333 
#    0.000    5.000    0.000    0.000    0.000    0.000 
#    0.000    0.000    0.000    0.000    0.000    0.000 
#
# Total GULP energy -267947.876971 kJ/mol
# GULP energy per Si atom -5582.247437 kJ/mol
# Density = 1.757920 g / cm^3
# Si number density = 17.619303 Si / 1000 Ang^3
#
#
#
# Elastic Constant Matrix: (Units=GPa)
#
#
# Indices 1 2 3 4 5 6 
#
# 1 186.2050 50.2939 96.6182 0.0000 0.0000 0.0000
# 2 50.2939 61.5311 44.7460 0.0000 0.0000 0.0000
# 3 96.6182 44.7460 188.6302 0.0000 0.0000 0.0000
# 4 0.0000 0.0000 0.0000 29.8840 0.0000 0.0000
# 5 0.0000 0.0000 0.0000 0.0000 4.0696 0.0000
# 6 0.0000 0.0000 0.0000 0.0000 0.0000 22.2809
#
#
#
# Elastic Compliance Matrix: (Units=1/GPa)
#
#
# Indices 1 2 3 4 5 6 
#
# 1 0.008197 -0.004407 -0.003153 0.000000 0.000000 0.000000
# 2 -0.004407 0.022009 -0.002964 0.000000 0.000000 0.000000
# 3 -0.003153 -0.002964 0.007619 0.000000 0.000000 0.000000
# 4 0.000000 0.000000 0.000000 0.033463 0.000000 0.000000
# 5 0.000000 0.000000 0.000000 0.000000 0.245725 0.000000
# 6 0.000000 0.000000 0.000000 0.000000 0.000000 0.044881
#
#
# Mechanical properties :
#
#
# Convention : Reuss Voigt Hill
#
# Bulk Modulus (GPa) = 59.60126 91.07581 75.33853
# Shear Modulus (GPa) = 12.86888 27.56080 20.21484
#
# Velocity S-wave (km/s) = 2.70550 3.95934 3.39087
# Velocity P-wave (km/s) = 6.60759 8.52672 7.62775
#
# Compressibility (1/GPa) = 0.01677817
#
# Stress axis : x y z
#
# Youngs Moduli (GPa) = 121.99882 45.43546 131.24299
#
# Poissons Ratio (x) = 0.20023 0.41382
# Poissons Ratio (y) = 0.53763 0.38896
# Poissons Ratio (z) = 0.38467 0.13466
#
# Static dielectric constant tensor:
#      x y z
#    x 1.585110 0.000000 0.000000 
#    y 0.000000 1.597720 0.000000 
#    z 0.000000 0.000000 1.576740 
# 
# From -- ./inp_files/28818.got.cif
#   From: 2010.05.17/outbox.cif.g08.bks.cpg/sg59_15_cif.got.tgz:28818.got - 2010.06.03 14:40:33.
