data_PCOD9450862
_publ_section_title
;
Structure prediction by ZEFSAII (Michael W. Deem and Ramdas Pophale) SiO2 
 PCOD9450862
Probable space group: P M M N
;
_chemical_formula_sum "Si O2"
_cell_formula_units_Z 56
_cell_length_a 21.088601
_cell_length_b 7.668612
_cell_length_c 14.631078
_cell_angle_alpha 90.000000
_cell_angle_beta 90.000000
_cell_angle_gamma 90.000000
_cell_volume 2366.142304
_symmetry_space_group_name_H-M "P M M N"
_symmetry_group_IT_number 59
_space_group.IT_coordinate_system_code '2'
_symmetry_cell_setting 'orthorhombic'
loop_
_space_group_symop_operation_xyz
x,y,z
1/2-x,1/2-y,z
1/2+x,-y,-z
-x,1/2+y,-z
-x,-y,-z
1/2+x,1/2+y,-z
1/2-x,y,z
x,1/2-y,z
loop_
_atom_site_type_symbol
_atom_site_label
_atom_site_fract_x
_atom_site_fract_y
_atom_site_fract_z
Si Si1 0.178867 0.541499 0.704509
Si Si2 0.179779 0.459903 0.033474
Si Si3 0.489255 0.953508 0.274565
Si Si4 0.404812 0.953434 0.869656
Si Si5 0.319680 0.464460 0.433064
Si Si6 0.650895 0.549349 0.765810
Si Si7 0.924400 0.945842 0.434149
O O1 0.250000 0.487910 0.690106
O O2 0.172085 0.750000 0.686376
O O3 0.157098 0.512398 0.807714
O O4 0.131772 0.439380 0.640173
O O5 0.250000 0.520059 0.001107
O O6 0.181597 0.250000 0.036080
O O7 0.169574 0.527573 0.136667
O O8 0.119181 0.501931 0.970414
O O9 0.476396 0.750000 0.290520
O O10 0.520140 0.024698 0.370003
O O11 0.538417 0.963700 0.189338
O O12 0.424734 0.044506 0.246609
O O13 0.419828 0.750000 0.867791
O O14 0.250000 0.514169 0.471753
O O15 0.322645 0.250000 0.436387
O O16 0.322184 0.524375 0.328336
O O17 0.384096 0.527854 0.483066
O O18 0.672550 0.750000 0.767907
O O19 0.944587 0.750000 0.460380
#
# Coordination Sequence:
#
# PCOD9450862 Si02
#       7
#     8   8   8   8   8   8   8
#     4   9  17  29  46  72 106 139 170 209 261 319
#     4  10  21  37  57  82 110 140 178 225 274 321
#     4  10  21  37  55  80 113 145 180 223 272 323
#     4  10  20  35  56  80 107 141 180 222 269 325
#     4   9  17  32  56  83 108 138 180 226 269 317
#     4  10  21  37  57  79 106 144 186 225 266 318
#     4   9  18  32  52  78 106 138 178 221 263 313
#
# _framework density 23.667217999999998
#
# number of rings (size 3 to 8) (size 9 to 14) (size 15 to 20)
#    0.000    2.429    0.000    2.143    0.000    6.286 
#    0.000    0.714    0.000    2.143    0.000    0.000 
#    0.000    0.000    0.000    0.000    0.000    0.000 
#
# Total GULP energy -312384.709036 kJ/mol
# GULP energy per Si atom -5578.298376 kJ/mol
# Density = 2.361335 g / cm^3
# Si number density = 23.667218 Si / 1000 Ang^3
#
#
#
# Elastic Constant Matrix: (Units=GPa)
#
#
# Indices 1 2 3 4 5 6 
#
# 1 117.7348 1.7653 20.4062 0.0000 0.0000 0.0000
# 2 1.7653 37.4842 6.4539 0.0000 0.0000 0.0000
# 3 20.4062 6.4539 107.8575 0.0000 0.0000 0.0000
# 4 0.0000 0.0000 0.0000 47.1840 0.0000 0.0000
# 5 0.0000 0.0000 0.0000 0.0000 30.1209 0.0000
# 6 0.0000 0.0000 0.0000 0.0000 0.0000 6.8840
#
#
#
# Elastic Compliance Matrix: (Units=1/GPa)
#
#
# Indices 1 2 3 4 5 6 
#
# 1 0.008782 -0.000129 -0.001654 0.000000 0.000000 0.000000
# 2 -0.000129 0.026958 -0.001589 0.000000 0.000000 0.000000
# 3 -0.001654 -0.001589 0.009679 0.000000 0.000000 0.000000
# 4 0.000000 0.000000 0.000000 0.021194 0.000000 0.000000
# 5 0.000000 0.000000 0.000000 0.000000 0.033200 0.000000
# 6 0.000000 0.000000 0.000000 0.000000 0.000000 0.145264
#
#
# Mechanical properties :
#
#
# Convention : Reuss Voigt Hill
#
# Bulk Modulus (GPa) = 25.85551 35.59191 30.72371
# Shear Modulus (GPa) = 18.88852 32.46786 25.67819
#
# Velocity S-wave (km/s) = 2.82811 3.70787 3.29746
# Velocity P-wave (km/s) = 4.64894 5.77946 5.24475
#
# Compressibility (1/GPa) = 0.03867647
#
# Stress axis : x y z
#
# Youngs Moduli (GPa) = 113.86602 37.09537 103.31159
#
# Poissons Ratio (x) = 0.00478 0.17086
# Poissons Ratio (y) = 0.01467 0.16413
# Poissons Ratio (z) = 0.18832 0.05893
#
# Static dielectric constant tensor:
#      x y z
#    x 1.898160 0.000000 0.000000 
#    y 0.000000 1.886630 0.000000 
#    z 0.000000 0.000000 1.939340 
# 
# From -- ./inp_files/20931.got.cif
#   From: 2010.05.17/outbox.cif.g08.bks.cpg/sg59_11_cif.got.tgz:20931.got - 2010.06.03 14:40:33.
