data_PCOD9450326
_publ_section_title
;
Structure prediction by ZEFSAII (Michael W. Deem and Ramdas Pophale) SiO2 
 PCOD9450326
Probable space group: P M M N
;
_chemical_formula_sum "Si O2"
_cell_formula_units_Z 40
_cell_length_a 8.103884
_cell_length_b 31.097201
_cell_length_c 7.758513
_cell_angle_alpha 90.000000
_cell_angle_beta 90.000000
_cell_angle_gamma 90.000000
_cell_volume 1955.208195
_symmetry_space_group_name_H-M "P M M N"
_symmetry_group_IT_number 59
_space_group.IT_coordinate_system_code '2'
_symmetry_cell_setting 'orthorhombic'
loop_
_space_group_symop_operation_xyz
x,y,z
1/2-x,1/2-y,z
1/2+x,-y,-z
-x,1/2+y,-z
-x,-y,-z
1/2+x,1/2+y,-z
1/2-x,y,z
x,1/2-y,z
loop_
_atom_site_type_symbol
_atom_site_label
_atom_site_fract_x
_atom_site_fract_y
_atom_site_fract_z
Si Si1 0.935190 0.547344 0.460821
Si Si2 0.947720 0.361443 0.966868
Si Si3 0.449399 0.700905 0.732813
Si Si4 0.052207 0.139444 0.568633
Si Si5 0.552135 0.455176 0.918650
O O1 0.750000 0.547910 0.529003
O O2 0.016340 0.593453 0.505324
O O3 0.000000 0.500000 0.500000
O O4 0.947878 0.549144 0.254820
O O5 0.750000 0.357740 0.964910
O O6 0.984677 0.410993 0.019759
O O7 0.002513 0.354764 0.768691
O O8 0.012528 0.327529 0.105962
O O9 0.250000 0.701676 0.742547
O O10 0.508693 0.750000 0.739251
O O11 0.495863 0.677360 0.555656
O O12 0.250000 0.136465 0.564681
O O13 0.750000 0.455780 0.882606
O O14 0.500000 0.500000 0.000000
#
# Coordination Sequence:
#
# PCOD9450326 Si02
#       5
#     8   8   8   8   8
#     4  10  21  36  54  81 114 153 194 236 288 348
#     4   9  20  39  60  84 116 156 198 242 291 346
#     4  10  22  40  63  89 115 151 199 245 293 350
#     4  10  22  39  59  87 121 155 192 241 299 353
#     4  10  20  34  53  81 114 152 194 237 286 345
#
# _framework density 20.458178
#
# number of rings (size 3 to 8) (size 9 to 14) (size 15 to 20)
#    0.000    2.200    0.000    1.800    2.800    5.200 
#    0.000    2.000    0.000    0.000    0.000    0.000 
#    0.000    0.000    0.000    0.000    0.000    0.000 
#
# Total GULP energy -222945.776025 kJ/mol
# GULP energy per Si atom -5573.644401 kJ/mol
# Density = 2.041161 g / cm^3
# Si number density = 20.458178 Si / 1000 Ang^3
#
#
#
# Elastic Constant Matrix: (Units=GPa)
#
#
# Indices 1 2 3 4 5 6 
#
# 1 22.6068 20.7746 -3.4740 0.0000 0.0000 0.0000
# 2 20.7746 213.1582 81.7103 0.0000 0.0000 0.0000
# 3 -3.4740 81.7103 83.3287 0.0000 0.0000 0.0000
# 4 0.0000 0.0000 0.0000 40.2561 0.0000 0.0000
# 5 0.0000 0.0000 0.0000 0.0000 19.8145 0.0000
# 6 0.0000 0.0000 0.0000 0.0000 0.0000 23.6880
#
#
#
# Elastic Compliance Matrix: (Units=1/GPa)
#
#
# Indices 1 2 3 4 5 6 
#
# 1 0.055351 -0.010061 0.012173 0.000000 0.000000 0.000000
# 2 -0.010061 0.009346 -0.009583 0.000000 0.000000 0.000000
# 3 0.012173 -0.009583 0.021906 0.000000 0.000000 0.000000
# 4 0.000000 0.000000 0.000000 0.024841 0.000000 0.000000
# 5 0.000000 0.000000 0.000000 0.000000 0.050468 0.000000
# 6 0.000000 0.000000 0.000000 0.000000 0.000000 0.042215
#
#
# Mechanical properties :
#
#
# Convention : Reuss Voigt Hill
#
# Bulk Modulus (GPa) = 13.95492 57.45729 35.70611
# Shear Modulus (GPa) = 20.57990 31.42390 26.00190
#
# Velocity S-wave (km/s) = 3.17511 3.92344 3.56895
# Velocity P-wave (km/s) = 4.50309 6.97644 5.87148
#
# Compressibility (1/GPa) = 0.07165930
#
# Stress axis : x y z
#
# Youngs Moduli (GPa) = 18.06660 107.00273 45.65054
#
# Poissons Ratio (x) = 1.07654 -0.55571
# Poissons Ratio (y) = 0.18177 0.43749
# Poissons Ratio (z) = -0.21993 1.02546
#
# Static dielectric constant tensor:
#      x y z
#    x 1.726960 0.000000 0.000000 
#    y 0.000000 1.801540 0.000000 
#    z 0.000000 0.000000 1.699120 
# 
# From -- ./inp_files/5842.got.cif
#   From: 2010.05.17/outbox.cif.g08.bks.cpg/sg59_3_cif.got.tgz:5842.got - 2010.06.03 14:40:33.
