data_PCOD9450628
_publ_section_title
;
Structure prediction by ZEFSAII (Michael W. Deem and Ramdas Pophale) SiO2 
 PCOD9450628
Probable space group: P M M N
;
_chemical_formula_sum "Si O2"
_cell_formula_units_Z 48
_cell_length_a 32.018923
_cell_length_b 8.684595
_cell_length_c 9.235039
_cell_angle_alpha 90.000000
_cell_angle_beta 90.000000
_cell_angle_gamma 90.000000
_cell_volume 2568.000026
_symmetry_space_group_name_H-M "P M M N"
_symmetry_group_IT_number 59
_space_group.IT_coordinate_system_code '2'
_symmetry_cell_setting 'orthorhombic'
loop_
_space_group_symop_operation_xyz
x,y,z
1/2-x,1/2-y,z
1/2+x,-y,-z
-x,1/2+y,-z
-x,-y,-z
1/2+x,1/2+y,-z
1/2-x,y,z
x,1/2-y,z
loop_
_atom_site_type_symbol
_atom_site_label
_atom_site_fract_x
_atom_site_fract_y
_atom_site_fract_z
Si Si1 0.250000 0.926727 0.327783
Si Si2 0.001859 0.565695 0.338201
Si Si3 0.161973 0.433751 0.337823
Si Si4 0.659625 0.063361 0.339329
Si Si5 0.750000 0.427492 0.319485
Si Si6 0.076808 0.564759 0.836750
Si Si7 0.579770 0.935248 0.840270
O O1 0.250000 0.750000 0.730732
O O2 0.250000 0.928156 0.504371
O O3 0.293069 0.006839 0.284043
O O4 0.003103 0.750000 0.341528
O O5 0.961325 0.508514 0.251213
O O6 0.000000 0.500000 0.500000
O O7 0.042651 0.500993 0.257903
O O8 0.163379 0.250000 0.350527
O O9 0.154090 0.502757 0.497578
O O10 0.124056 0.476595 0.232631
O O11 0.662023 0.250000 0.346997
O O12 0.704724 0.005268 0.280537
O O13 0.620454 0.021974 0.240530
O O14 0.750000 0.250000 0.719126
O O15 0.072885 0.750000 0.834346
O O16 0.076357 0.504679 0.000110
O O17 0.576531 0.750000 0.846423
#
# Coordination Sequence:
#
# PCOD9450628 Si02
#       7
#     4   8   8   8   4   8   8
#     4   9  17  31  54  81 112 148 188 234 282 331
#     4  12  25  42  64  88 114 146 188 237 285 340
#     4  10  20  34  56  84 114 148 189 235 284 336
#     4   9  18  33  56  83 112 147 189 235 282 334
#     4   7  12  27  50  77 106 138 178 226 274 321
#     4  11  23  39  59  85 117 154 193 234 284 343
#     4  11  24  41  59  83 117 155 191 234 288 343
#
# _framework density 18.691587999999999
#
# number of rings (size 3 to 8) (size 9 to 14) (size 15 to 20)
#    0.000    1.833    0.000    5.750    0.000    6.667 
#    0.000    0.833    0.000    1.000    0.000    0.000 
#    0.000    0.000    0.000    0.000    0.000    0.000 
#
# Total GULP energy -268087.490764 kJ/mol
# GULP energy per Si atom -5585.156058 kJ/mol
# Density = 1.864905 g / cm^3
# Si number density = 18.691588 Si / 1000 Ang^3
#
#
#
# Elastic Constant Matrix: (Units=GPa)
#
#
# Indices 1 2 3 4 5 6 
#
# 1 188.5218 49.6564 84.2120 0.0000 0.0000 0.0000
# 2 49.6564 54.8049 31.1637 0.0000 0.0000 0.0000
# 3 84.2120 31.1637 117.4385 0.0000 0.0000 0.0000
# 4 0.0000 0.0000 0.0000 30.4607 0.0000 0.0000
# 5 0.0000 0.0000 0.0000 0.0000 -33.4329 0.0000
# 6 0.0000 0.0000 0.0000 0.0000 0.0000 23.7609
#
#
#
# Elastic Compliance Matrix: (Units=1/GPa)
#
#
# Indices 1 2 3 4 5 6 
#
# 1 0.008920 -0.005235 -0.005007 0.000000 0.000000 0.000000
# 2 -0.005235 0.024561 -0.002764 0.000000 0.000000 0.000000
# 3 -0.005007 -0.002764 0.012839 0.000000 0.000000 0.000000
# 4 0.000000 0.000000 0.000000 0.032829 0.000000 0.000000
# 5 0.000000 0.000000 0.000000 0.000000 -0.029911 0.000000
# 6 0.000000 0.000000 0.000000 0.000000 0.000000 0.042086
#
#
# Mechanical properties :
#
#
# Convention : Reuss Voigt Hill
#
# Bulk Modulus (GPa) = 49.24043 76.75886 62.99964
# Shear Modulus (GPa) = 40.28825 17.20661 28.74743
#
# Velocity S-wave (km/s) = 4.64769 3.03735 3.92597
# Velocity P-wave (km/s) = 7.42982 7.31135 7.37082
#
# Compressibility (1/GPa) = 0.02030851
#
# Stress axis : x y z
#
# Youngs Moduli (GPa) = 112.10853 40.71470 77.88762
#
# Poissons Ratio (x) = 0.21313 0.38999
# Poissons Ratio (y) = 0.58686 0.21527
# Poissons Ratio (z) = 0.56134 0.11253
#
# Static dielectric constant tensor:
#      x y z
#    x 1.663380 0.000000 0.000000 
#    y 0.000000 1.628430 0.000000 
#    z 0.000000 0.000000 1.602590 
# 
# From -- ./inp_files/13058.got.cif
#   From: 2010.05.17/outbox.cif.g08.bks.cpg/sg59_7_cif.got.tgz:13058.got - 2010.06.03 14:40:33.
