data_PCOD9450830
_publ_section_title
;
Structure prediction by ZEFSAII (Michael W. Deem and Ramdas Pophale) SiO2 
 PCOD9450830
Probable space group: P M M N
;
_chemical_formula_sum "Si O2"
_cell_formula_units_Z 64
_cell_length_a 26.207496
_cell_length_b 7.526029
_cell_length_c 14.783796
_cell_angle_alpha 90.000000
_cell_angle_beta 90.000000
_cell_angle_gamma 90.000000
_cell_volume 2915.931898
_symmetry_space_group_name_H-M "P M M N"
_symmetry_group_IT_number 59
_space_group.IT_coordinate_system_code '2'
_symmetry_cell_setting 'orthorhombic'
loop_
_space_group_symop_operation_xyz
x,y,z
1/2-x,1/2-y,z
1/2+x,-y,-z
-x,1/2+y,-z
-x,-y,-z
1/2+x,1/2+y,-z
1/2-x,y,z
x,1/2-y,z
loop_
_atom_site_type_symbol
_atom_site_label
_atom_site_fract_x
_atom_site_fract_y
_atom_site_fract_z
Si Si1 0.598772 0.032602 0.419830
Si Si2 0.308817 0.964356 0.905556
Si Si3 0.013317 0.956615 0.717378
Si Si4 0.905780 0.466300 0.627848
Si Si5 0.638378 0.957263 0.909257
Si Si6 0.306315 0.956196 0.266733
Si Si7 0.476689 0.463641 0.097459
Si Si8 0.308323 0.533414 0.702238
O O1 0.598044 0.250000 0.421936
O O2 0.552855 0.968865 0.355471
O O3 0.593538 0.976750 0.523401
O O4 0.651470 0.976771 0.372734
O O5 0.250000 0.020837 0.920398
O O6 0.309400 0.750000 0.906116
O O7 0.323857 0.021266 0.804162
O O8 0.343717 0.024417 0.987697
O O9 0.028201 0.750000 0.727034
O O10 0.010083 0.032837 0.818579
O O11 0.956328 0.968429 0.678075
O O12 0.907055 0.250000 0.631705
O O13 0.854303 0.529970 0.677492
O O14 0.637099 0.750000 0.886332
O O15 0.581407 0.031718 0.896996
O O16 0.677961 0.039149 0.838611
O O17 0.250000 0.035285 0.280081
O O18 0.303134 0.750000 0.294103
O O19 0.474032 0.250000 0.107036
O O20 0.500000 0.500000 0.000000
O O21 0.250000 0.476641 0.686406
O O22 0.308097 0.750000 0.702194
#
# Coordination Sequence:
#
# PCOD9450830 Si02
#       8
#     8   8   8   8   8   8   8   8
#     4   9  18  31  53  81 105 136 178 218 263 319
#     4   9  18  32  52  78 105 137 177 215 258 316
#     4  10  20  37  57  78 108 142 177 217 263 322
#     4  10  20  35  55  81 108 137 176 223 270 312
#     4  11  22  36  53  77 107 139 179 222 266 319
#     4  10  21  36  54  78 109 145 182 221 269 323
#     4  10  23  38  54  79 108 141 178 217 267 320
#     4   8  15  29  50  78 109 137 169 214 264 313
#
# _framework density 21.948387
#
# number of rings (size 3 to 8) (size 9 to 14) (size 15 to 20)
#    0.000    2.375    1.250    1.875    1.750    4.000 
#    0.000    2.500    0.000    0.750    0.000    0.000 
#    0.000    0.000    0.000    0.000    0.000    0.000 
#
# Total GULP energy -357481.877046 kJ/mol
# GULP energy per Si atom -5585.654329 kJ/mol
# Density = 2.189843 g / cm^3
# Si number density = 21.948387 Si / 1000 Ang^3
#
#
#
# Elastic Constant Matrix: (Units=GPa)
#
#
# Indices 1 2 3 4 5 6 
#
# 1 82.7306 -11.9457 42.5296 0.0000 0.0000 0.0000
# 2 -11.9457 54.3518 -11.9998 0.0000 0.0000 0.0000
# 3 42.5296 -11.9998 145.8299 0.0000 0.0000 0.0000
# 4 0.0000 0.0000 0.0000 1.2471 0.0000 0.0000
# 5 0.0000 0.0000 0.0000 0.0000 8.3969 0.0000
# 6 0.0000 0.0000 0.0000 0.0000 0.0000 12.5879
#
#
#
# Elastic Compliance Matrix: (Units=1/GPa)
#
#
# Indices 1 2 3 4 5 6 
#
# 1 0.014495 0.002294 -0.004038 0.000000 0.000000 0.000000
# 2 0.002294 0.019102 0.000903 0.000000 0.000000 0.000000
# 3 -0.004038 0.000903 0.008109 0.000000 0.000000 0.000000
# 4 0.000000 0.000000 0.000000 0.801851 0.000000 0.000000
# 5 0.000000 0.000000 0.000000 0.000000 0.119092 0.000000
# 6 0.000000 0.000000 0.000000 0.000000 0.000000 0.079441
#
#
# Mechanical properties :
#
#
# Convention : Reuss Voigt Hill
#
# Bulk Modulus (GPa) = 24.98549 35.56449 30.27499
# Shear Modulus (GPa) = 4.72986 22.06828 13.39907
#
# Velocity S-wave (km/s) = 1.46958 3.17434 2.47347
# Velocity P-wave (km/s) = 3.77995 5.44740 4.68840
#
# Compressibility (1/GPa) = 0.04002322
#
# Stress axis : x y z
#
# Youngs Moduli (GPa) = 68.99058 52.35003 123.31438
#
# Poissons Ratio (x) = -0.12010 0.49800
# Poissons Ratio (y) = -0.15827 -0.11133
# Poissons Ratio (z) = 0.27861 -0.04726
#
# Static dielectric constant tensor:
#      x y z
#    x 1.781330 0.000000 0.000000 
#    y 0.000000 1.835420 0.000000 
#    z 0.000000 0.000000 1.771540 
# 
# From -- ./inp_files/24730.got.cif
#   From: 2010.05.17/outbox.cif.g08.bks.cpg/sg59_13_cif.got.tgz:24730.got - 2010.06.03 14:40:33.
