data_PCOD9450947
_publ_section_title
;
Structure prediction by ZEFSAII (Michael W. Deem and Ramdas Pophale) SiO2 
 PCOD9450947
Probable space group: P M M N
;
_chemical_formula_sum "Si O2"
_cell_formula_units_Z 64
_cell_length_a 22.950141
_cell_length_b 13.429776
_cell_length_c 9.620735
_cell_angle_alpha 90.000000
_cell_angle_beta 90.000000
_cell_angle_gamma 90.000000
_cell_volume 2965.257270
_symmetry_space_group_name_H-M "P M M N"
_symmetry_group_IT_number 59
_space_group.IT_coordinate_system_code '2'
_symmetry_cell_setting 'orthorhombic'
loop_
_space_group_symop_operation_xyz
x,y,z
1/2-x,1/2-y,z
1/2+x,-y,-z
-x,1/2+y,-z
-x,-y,-z
1/2+x,1/2+y,-z
1/2-x,y,z
x,1/2-y,z
loop_
_atom_site_type_symbol
_atom_site_label
_atom_site_fract_x
_atom_site_fract_y
_atom_site_fract_z
Si Si1 0.523054 0.941929 0.863892
Si Si2 0.077695 0.562968 0.679076
Si Si3 0.373293 0.138282 0.746046
Si Si4 0.402489 0.540827 0.369740
Si Si5 0.315775 0.632089 0.849857
Si Si6 0.316330 0.365122 0.459976
Si Si7 0.183637 0.572211 0.154714
Si Si8 0.852742 0.862001 0.937717
O O1 0.470286 0.890152 0.780826
O O2 0.578183 0.874832 0.907038
O O3 0.549937 0.014210 0.745580
O O4 0.500000 0.000000 0.000000
O O5 0.078860 0.444547 0.710999
O O6 0.072396 0.580659 0.514845
O O7 0.141376 0.593997 0.731982
O O8 0.398105 0.250000 0.745740
O O9 0.324873 0.133515 0.626529
O O10 0.346607 0.120781 0.897507
O O11 0.366428 0.440018 0.409150
O O12 0.355070 0.604802 0.284901
O O13 0.250000 0.590687 0.839677
O O14 0.312480 0.750000 0.837658
O O15 0.338990 0.608209 0.004697
O O16 0.250000 0.394716 0.425028
O O17 0.325839 0.250000 0.416167
O O18 0.250000 0.604514 0.168905
O O19 0.179331 0.451749 0.140058
O O20 0.833524 0.750000 0.904924
#
# Coordination Sequence:
#
# PCOD9450947 Si02
#       8
#     8   8   8   8   8   8   8   8
#     4  11  21  38  57  80 114 159 203 243 290 346
#     4  11  20  38  63  87 115 154 198 244 297 363
#     4   9  17  31  53  86 122 154 187 229 282 340
#     4  10  22  35  56  86 118 153 195 247 299 344
#     4  10  22  41  64  87 114 151 199 255 308 357
#     4   9  18  32  52  82 125 168 196 222 274 352
#     4  10  20  37  58  86 122 161 197 235 294 362
#     4  10  20  35  56  88 123 155 195 242 289 342
#
# _framework density 21.583289000000001
#
# number of rings (size 3 to 8) (size 9 to 14) (size 15 to 20)
#    0.000    2.000    2.500    1.500    0.000    5.750 
#    0.000    1.875    0.000    4.500    0.000    0.000 
#    0.000    0.000    0.000    0.000    0.000    0.000 
#
# Total GULP energy -357136.532507 kJ/mol
# GULP energy per Si atom -5580.258320 kJ/mol
# Density = 2.153416 g / cm^3
# Si number density = 21.583289 Si / 1000 Ang^3
#
#
#
# Elastic Constant Matrix: (Units=GPa)
#
#
# Indices 1 2 3 4 5 6 
#
# 1 66.3682 3.8637 30.3256 0.0000 0.0000 0.0000
# 2 3.8637 34.9061 1.8665 0.0000 0.0000 0.0000
# 3 30.3256 1.8665 171.1785 0.0000 0.0000 0.0000
# 4 0.0000 0.0000 0.0000 4.5843 0.0000 0.0000
# 5 0.0000 0.0000 0.0000 0.0000 29.0441 0.0000
# 6 0.0000 0.0000 0.0000 0.0000 0.0000 12.7102
#
#
#
# Elastic Compliance Matrix: (Units=1/GPa)
#
#
# Indices 1 2 3 4 5 6 
#
# 1 0.016491 -0.001670 -0.002903 0.000000 0.000000 0.000000
# 2 -0.001670 0.028834 -0.000019 0.000000 0.000000 0.000000
# 3 -0.002903 -0.000019 0.006356 0.000000 0.000000 0.000000
# 4 0.000000 0.000000 0.000000 0.218138 0.000000 0.000000
# 5 0.000000 0.000000 0.000000 0.000000 0.034430 0.000000
# 6 0.000000 0.000000 0.000000 0.000000 0.000000 0.078677
#
#
# Mechanical properties :
#
#
# Convention : Reuss Voigt Hill
#
# Bulk Modulus (GPa) = 23.53061 38.28494 30.90778
# Shear Modulus (GPa) = 12.30687 25.02751 18.66719
#
# Velocity S-wave (km/s) = 2.39048 3.40895 2.94409
# Velocity P-wave (km/s) = 4.30641 5.76813 5.09001
#
# Compressibility (1/GPa) = 0.04249784
#
# Stress axis : x y z
#
# Youngs Moduli (GPa) = 60.63794 34.68106 157.32154
#
# Poissons Ratio (x) = 0.05792 0.45676
# Poissons Ratio (y) = 0.10127 0.00291
# Poissons Ratio (z) = 0.17605 0.00064
#
# Static dielectric constant tensor:
#      x y z
#    x 1.824630 0.000000 0.000000 
#    y 0.000000 1.818660 0.000000 
#    z 0.000000 0.000000 1.821880 
# 
# From -- ./inp_files/12248.got.cif
#   From: 2010.05.17/outbox.cif.g08.bks.cpg/sg59_7_cif.got.tgz:12248.got - 2010.06.03 14:40:33.
