data_PCOD9450829
_publ_section_title
;
Structure prediction by ZEFSAII (Michael W. Deem and Ramdas Pophale) SiO2 
 PCOD9450829
Probable space group: P M M N
;
_chemical_formula_sum "Si O2"
_cell_formula_units_Z 40
_cell_length_a 20.845020
_cell_length_b 12.794160
_cell_length_c 8.155442
_cell_angle_alpha 90.000000
_cell_angle_beta 90.000000
_cell_angle_gamma 90.000000
_cell_volume 2175.011698
_symmetry_space_group_name_H-M "P M M N"
_symmetry_group_IT_number 59
_space_group.IT_coordinate_system_code '2'
_symmetry_cell_setting 'orthorhombic'
loop_
_space_group_symop_operation_xyz
x,y,z
1/2-x,1/2-y,z
1/2+x,-y,-z
-x,1/2+y,-z
-x,-y,-z
1/2+x,1/2+y,-z
1/2-x,y,z
x,1/2-y,z
loop_
_atom_site_type_symbol
_atom_site_label
_atom_site_fract_x
_atom_site_fract_y
_atom_site_fract_z
Si Si1 0.573409 0.540519 0.010114
Si Si2 0.674579 0.128072 0.123974
Si Si3 0.326026 0.633698 0.484491
Si Si4 0.532843 0.632130 0.335905
Si Si5 0.916479 0.964943 0.654440
O O1 0.623761 0.446265 0.036085
O O2 0.574369 0.611157 0.172422
O O3 0.500000 0.500000 0.000000
O O4 0.587753 0.588271 0.831870
O O5 0.750000 0.101877 0.095644
O O6 0.665951 0.250000 0.078403
O O7 0.662084 0.120209 0.320235
O O8 0.250000 0.633262 0.461802
O O9 0.349928 0.750000 0.438462
O O10 0.357543 0.540517 0.385782
O O11 0.507991 0.750000 0.332568
O O12 0.571870 0.611519 0.502579
O O13 0.476334 0.546358 0.338702
#
# Coordination Sequence:
#
# PCOD9450829 Si02
#       5
#     8   8   8   8   8
#     4  10  21  35  53  82 115 148 186 227 276 335
#     4   9  18  34  57  84 115 150 184 227 288 346
#     4   9  17  31  55  85 114 144 179 224 281 340
#     4  10  21  37  54  76 109 145 181 223 273 324
#     4  10  20  35  55  81 107 141 181 224 273 326
#
# _framework density 18.390706999999999
#
# number of rings (size 3 to 8) (size 9 to 14) (size 15 to 20)
#    0.000    2.400    2.000    1.800    0.000    5.600 
#    0.000    2.000    0.000    2.400    0.000    2.800 
#    0.000    0.000    0.000    0.000    0.000    0.000 
#
# Total GULP energy -222922.098775 kJ/mol
# GULP energy per Si atom -5573.052469 kJ/mol
# Density = 1.834885 g / cm^3
# Si number density = 18.390707 Si / 1000 Ang^3
#
#
#
# Elastic Constant Matrix: (Units=GPa)
#
#
# Indices 1 2 3 4 5 6 
#
# 1 49.8578 9.3321 29.8021 0.0000 0.0000 0.0000
# 2 9.3321 38.7703 29.3304 0.0000 0.0000 0.0000
# 3 29.8021 29.3304 130.0972 0.0000 0.0000 0.0000
# 4 0.0000 0.0000 0.0000 1.1991 0.0000 0.0000
# 5 0.0000 0.0000 0.0000 0.0000 27.3081 0.0000
# 6 0.0000 0.0000 0.0000 0.0000 0.0000 14.9525
#
#
#
# Elastic Compliance Matrix: (Units=1/GPa)
#
#
# Indices 1 2 3 4 5 6 
#
# 1 0.023354 -0.001898 -0.004922 0.000000 0.000000 0.000000
# 2 -0.001898 0.031251 -0.006611 0.000000 0.000000 0.000000
# 3 -0.004922 -0.006611 0.010304 0.000000 0.000000 0.000000
# 4 0.000000 0.000000 0.000000 0.833949 0.000000 0.000000
# 5 0.000000 0.000000 0.000000 0.000000 0.036619 0.000000
# 6 0.000000 0.000000 0.000000 0.000000 0.000000 0.066878
#
#
# Mechanical properties :
#
#
# Convention : Reuss Voigt Hill
#
# Bulk Modulus (GPa) = 26.28226 39.51717 32.89971
# Shear Modulus (GPa) = 4.79892 18.70933 11.75412
#
# Velocity S-wave (km/s) = 1.61712 3.19301 2.53085
# Velocity P-wave (km/s) = 4.22006 5.92689 5.14475
#
# Compressibility (1/GPa) = 0.03804848
#
# Stress axis : x y z
#
# Youngs Moduli (GPa) = 42.81854 31.99905 97.04510
#
# Poissons Ratio (x) = 0.06073 0.47766
# Poissons Ratio (y) = 0.08126 0.64154
# Poissons Ratio (z) = 0.21076 0.21154
#
# Static dielectric constant tensor:
#      x y z
#    x 1.612420 0.000000 0.000000 
#    y 0.000000 1.604350 0.000000 
#    z 0.000000 0.000000 1.698630 
# 
# From -- ./inp_files/7363.got.cif
#   From: 2010.05.17/outbox.cif.g08.bks.cpg/sg59_4_cif.got.tgz:7363.got - 2010.06.03 14:40:33.
