data_PCOD9450131
_publ_section_title
;
Structure prediction by ZEFSAII (Michael W. Deem and Ramdas Pophale) SiO2 
 PCOD9450131
Probable space group: P M M N
;
_chemical_formula_sum "Si O2"
_cell_formula_units_Z 56
_cell_length_a 13.918124
_cell_length_b 9.151375
_cell_length_c 24.287837
_cell_angle_alpha 90.000000
_cell_angle_beta 90.000000
_cell_angle_gamma 90.000000
_cell_volume 3093.541119
_symmetry_space_group_name_H-M "P M M N"
_symmetry_group_IT_number 59
_space_group.IT_coordinate_system_code '2'
_symmetry_cell_setting 'orthorhombic'
loop_
_space_group_symop_operation_xyz
x,y,z
1/2-x,1/2-y,z
1/2+x,-y,-z
-x,1/2+y,-z
-x,-y,-z
1/2+x,1/2+y,-z
1/2-x,y,z
x,1/2-y,z
loop_
_atom_site_type_symbol
_atom_site_label
_atom_site_fract_x
_atom_site_fract_y
_atom_site_fract_z
Si Si1 0.136878 0.925803 0.699190
Si Si2 0.357687 0.074534 0.474424
Si Si3 0.632763 0.582880 0.979733
Si Si4 0.866119 0.417516 0.089874
Si Si5 0.139068 0.923161 0.132955
Si Si6 0.546600 0.923504 0.194978
Si Si7 0.945381 0.074212 0.419396
O O1 0.250000 0.962065 0.699264
O O2 0.128620 0.750000 0.704421
O O3 0.090181 0.969300 0.640921
O O4 0.085055 0.000722 0.750387
O O5 0.250000 0.033366 0.456927
O O6 0.434984 0.750000 0.576284
O O7 0.383709 0.999901 0.532374
O O8 0.443498 0.036385 0.432388
O O9 0.750000 0.583672 0.980994
O O10 0.600221 0.750000 0.984693
O O11 0.608286 0.512338 0.921092
O O12 0.601844 0.487666 0.032066
O O13 0.750000 0.416837 0.089609
O O14 0.898734 0.250000 0.095086
O O15 0.899903 0.511492 0.141670
O O16 0.250000 0.957782 0.145662
O O17 0.133587 0.750000 0.119760
O O18 0.065802 0.951671 0.182363
O O19 0.561980 0.750000 0.197887
O O20 0.139582 0.250000 0.481438
#
# Coordination Sequence:
#
# PCOD9450131 Si02
#       7
#     8   8   8   8   8   8   8
#     4  10  21  37  55  75 103 139 174 208 250 302
#     4   9  17  30  51  81 114 143 173 215 262 300
#     4   9  17  30  51  78 103 127 161 206 252 301
#     4  10  20  34  52  74 103 137 167 200 250 309
#     4   9  19  37  56  72  95 128 164 204 255 313
#     4  11  23  36  53  76  99 128 169 215 258 299
#     4   9  18  33  53  77 107 144 182 214 250 303
#
# _framework density 18.102233999999999
#
# number of rings (size 3 to 8) (size 9 to 14) (size 15 to 20)
#    0.000    2.429    0.000    2.143    0.000    7.714 
#    0.000    0.714    0.000    0.857    0.000    0.000 
#    0.000    0.000    0.000    0.000    0.000    0.000 
#
# Total GULP energy -312658.591961 kJ/mol
# GULP energy per Si atom -5583.189142 kJ/mol
# Density = 1.806103 g / cm^3
# Si number density = 18.102234 Si / 1000 Ang^3
#
#
#
# Elastic Constant Matrix: (Units=GPa)
#
#
# Indices 1 2 3 4 5 6 
#
# 1 112.5273 46.8998 72.4367 0.0000 0.0000 0.0000
# 2 46.8998 47.3923 56.2019 0.0000 0.0000 0.0000
# 3 72.4367 56.2019 150.3586 0.0000 0.0000 0.0000
# 4 0.0000 0.0000 0.0000 32.0224 0.0000 0.0000
# 5 0.0000 0.0000 0.0000 0.0000 23.6953 0.0000
# 6 0.0000 0.0000 0.0000 0.0000 0.0000 21.6516
#
#
#
# Elastic Compliance Matrix: (Units=1/GPa)
#
#
# Indices 1 2 3 4 5 6 
#
# 1 0.015940 -0.011976 -0.003203 0.000000 0.000000 0.000000
# 2 -0.011976 0.046899 -0.011760 0.000000 0.000000 0.000000
# 3 -0.003203 -0.011760 0.012590 0.000000 0.000000 0.000000
# 4 0.000000 0.000000 0.000000 0.031228 0.000000 0.000000
# 5 0.000000 0.000000 0.000000 0.000000 0.042202 0.000000
# 6 0.000000 0.000000 0.000000 0.000000 0.000000 0.046186
#
#
# Mechanical properties :
#
#
# Convention : Reuss Voigt Hill
#
# Bulk Modulus (GPa) = 46.40456 73.48387 59.94421
# Shear Modulus (GPa) = 19.52310 24.45651 21.98980
#
# Velocity S-wave (km/s) = 3.28760 3.67961 3.48912
# Velocity P-wave (km/s) = 6.33257 7.66385 7.02980
#
# Compressibility (1/GPa) = 0.02154961
#
# Stress axis : x y z
#
# Youngs Moduli (GPa) = 62.73567 21.32246 79.43095
#
# Poissons Ratio (x) = 0.25536 0.25439
# Poissons Ratio (y) = 0.75134 0.93414
# Poissons Ratio (z) = 0.20092 0.25076
#
# Static dielectric constant tensor:
#      x y z
#    x 1.670820 0.000000 0.000000 
#    y 0.000000 1.601220 0.000000 
#    z 0.000000 0.000000 1.565850 
# 
# From -- ./inp_files/30362.got.cif
#   From: 2010.05.17/outbox.cif.g08.bks.cpg/sg59_16_cif.got.tgz:30362.got - 2010.06.03 14:40:33.
