data_PCOD9450933
_publ_section_title
;
Structure prediction by ZEFSAII (Michael W. Deem and Ramdas Pophale) SiO2 
 PCOD9450933
Probable space group: P M M N
;
_chemical_formula_sum "Si O2"
_cell_formula_units_Z 64
_cell_length_a 24.602031
_cell_length_b 7.763699
_cell_length_c 15.369277
_cell_angle_alpha 90.000000
_cell_angle_beta 90.000000
_cell_angle_gamma 90.000000
_cell_volume 2935.574380
_symmetry_space_group_name_H-M "P M M N"
_symmetry_group_IT_number 59
_space_group.IT_coordinate_system_code '2'
_symmetry_cell_setting 'orthorhombic'
loop_
_space_group_symop_operation_xyz
x,y,z
1/2-x,1/2-y,z
1/2+x,-y,-z
-x,1/2+y,-z
-x,-y,-z
1/2+x,1/2+y,-z
1/2-x,y,z
x,1/2-y,z
loop_
_atom_site_type_symbol
_atom_site_label
_atom_site_fract_x
_atom_site_fract_y
_atom_site_fract_z
Si Si1 0.106729 0.457549 0.855874
Si Si2 0.033388 0.547032 0.586773
Si Si3 0.151610 0.446329 0.539718
Si Si4 0.311111 0.952650 0.355858
Si Si5 0.308166 0.460706 0.716470
Si Si6 0.372978 0.538420 0.186182
Si Si7 0.312038 0.956870 0.012206
Si Si8 0.005407 0.542050 0.219637
O O1 0.104683 0.250000 0.852705
O O2 0.142142 0.521218 0.774108
O O3 0.142840 0.502208 0.939407
O O4 0.045172 0.519447 0.839926
O O5 0.043991 0.750000 0.585516
O O6 0.090724 0.452100 0.576462
O O7 0.005155 0.503662 0.678844
O O8 0.000000 0.500000 0.500000
O O9 0.168866 0.250000 0.526240
O O10 0.157818 0.531298 0.446735
O O11 0.186981 0.522587 0.617756
O O12 0.250000 0.024421 0.363157
O O13 0.305908 0.750000 0.338122
O O14 0.344982 0.023396 0.275126
O O15 0.250000 0.509411 0.755098
O O16 0.310559 0.250000 0.714120
O O17 0.373793 0.750000 0.185217
O O18 0.435791 0.481613 0.186793
O O19 0.337013 0.482971 0.104067
O O20 0.250000 0.021648 0.996288
O O21 0.308234 0.750000 0.016098
O O22 0.005784 0.750000 0.216176
#
# Coordination Sequence:
#
# PCOD9450933 Si02
#       8
#     8   8   8   8   8   8   8   8
#     4  10  20  36  58  84 117 154 193 237 290 352
#     4  12  24  38  58  84 118 158 199 244 292 346
#     4  11  21  36  56  82 115 153 198 243 294 352
#     4  10  20  35  56  84 117 155 200 250 304 362
#     4   9  17  31  52  77 109 149 188 226 277 343
#     4   9  19  37  61  83 111 153 197 243 298 358
#     4  10  21  38  60  87 116 150 195 244 295 353
#     4  10  20  38  61  86 116 155 200 241 291 357
#
# _framework density 21.801525000000002
#
# number of rings (size 3 to 8) (size 9 to 14) (size 15 to 20)
#    0.000    1.875    1.250    3.375    0.000    5.000 
#    0.000    1.250    0.000    3.750    0.000    0.000 
#    0.000    0.000    0.000    0.000    0.000    0.000 
#
# Total GULP energy -357365.141811 kJ/mol
# GULP energy per Si atom -5583.830341 kJ/mol
# Density = 2.175190 g / cm^3
# Si number density = 21.801525 Si / 1000 Ang^3
#
#
#
# Elastic Constant Matrix: (Units=GPa)
#
#
# Indices 1 2 3 4 5 6 
#
# 1 104.8145 7.9522 43.4413 0.0000 0.0000 0.0000
# 2 7.9522 39.3745 1.6933 0.0000 0.0000 0.0000
# 3 43.4413 1.6933 120.2594 0.0000 0.0000 0.0000
# 4 0.0000 0.0000 0.0000 23.6062 0.0000 0.0000
# 5 0.0000 0.0000 0.0000 0.0000 31.7536 0.0000
# 6 0.0000 0.0000 0.0000 0.0000 0.0000 507.3405
#
#
#
# Elastic Compliance Matrix: (Units=1/GPa)
#
#
# Indices 1 2 3 4 5 6 
#
# 1 0.011396 -0.002126 -0.004087 0.000000 0.000000 0.000000
# 2 -0.002126 0.025809 0.000404 0.000000 0.000000 0.000000
# 3 -0.004087 0.000404 0.009786 0.000000 0.000000 0.000000
# 4 0.000000 0.000000 0.000000 0.042362 0.000000 0.000000
# 5 0.000000 0.000000 0.000000 0.000000 0.031493 0.000000
# 6 0.000000 0.000000 0.000000 0.000000 0.000000 0.001971
#
#
# Mechanical properties :
#
#
# Convention : Reuss Voigt Hill
#
# Bulk Modulus (GPa) = 28.26858 41.18022 34.72440
# Shear Modulus (GPa) = 34.19433 126.63083 80.41258
#
# Velocity S-wave (km/s) = 3.96465 7.62952 6.07980
# Velocity P-wave (km/s) = 5.82687 9.82560 8.07759
#
# Compressibility (1/GPa) = 0.03537497
#
# Stress axis : x y z
#
# Youngs Moduli (GPa) = 87.75294 38.74608 102.18856
#
# Poissons Ratio (x) = 0.08236 0.41759
# Poissons Ratio (y) = 0.18654 -0.04133
# Poissons Ratio (z) = 0.35860 -0.01567
#
# Static dielectric constant tensor:
#      x y z
#    x 1.856530 0.000000 0.000000 
#    y 0.000000 1.803530 0.000000 
#    z 0.000000 0.000000 1.775110 
# 
# From -- ./inp_files/24650.got.cif
#   From: 2010.05.17/outbox.cif.g08.bks.cpg/sg59_13_cif.got.tgz:24650.got - 2010.06.03 14:40:33.
