data_PCOD9450429
_publ_section_title
;
Structure prediction by ZEFSAII (Michael W. Deem and Ramdas Pophale) SiO2 
 PCOD9450429
Probable space group: P M M N
;
_chemical_formula_sum "Si O2"
_cell_formula_units_Z 48
_cell_length_a 9.334535
_cell_length_b 7.947747
_cell_length_c 32.080887
_cell_angle_alpha 90.000000
_cell_angle_beta 90.000000
_cell_angle_gamma 90.000000
_cell_volume 2380.033608
_symmetry_space_group_name_H-M "P M M N"
_symmetry_group_IT_number 59
_space_group.IT_coordinate_system_code '2'
_symmetry_cell_setting 'orthorhombic'
loop_
_space_group_symop_operation_xyz
x,y,z
1/2-x,1/2-y,z
1/2+x,-y,-z
-x,1/2+y,-z
-x,-y,-z
1/2+x,1/2+y,-z
1/2-x,y,z
x,1/2-y,z
loop_
_atom_site_type_symbol
_atom_site_label
_atom_site_fract_x
_atom_site_fract_y
_atom_site_fract_z
Si Si1 0.414136 0.048232 0.368746
Si Si2 0.586553 0.450882 0.958710
Si Si3 0.912454 0.450319 0.540591
Si Si4 0.084799 0.044055 0.205202
Si Si5 0.085266 0.956057 0.712147
Si Si6 0.086666 0.952318 0.876337
O O1 0.250000 0.983351 0.366189
O O2 0.407254 0.250000 0.365049
O O3 0.509636 0.986521 0.330457
O O4 0.472242 0.008609 0.414774
O O5 0.750000 0.517401 0.959371
O O6 0.594087 0.250000 0.957608
O O7 0.501416 0.508360 0.917873
O O8 0.500000 0.500000 0.000000
O O9 0.750000 0.518895 0.537566
O O10 0.905750 0.250000 0.541882
O O11 0.000000 0.500000 0.500000
O O12 0.250000 0.989835 0.204117
O O13 0.085193 0.250000 0.204876
O O14 0.005284 0.991751 0.247486
O O15 0.997722 0.986666 0.164546
O O16 0.250000 0.010051 0.714804
O O17 0.085379 0.750000 0.711917
O O18 0.250000 0.016414 0.878393
O O19 0.094508 0.750000 0.872894
#
# Coordination Sequence:
#
# PCOD9450429 Si02
#       6
#     8   8   8   8   8   8
#     4   9  17  30  48  70  98 132 168 207 254 307
#     4  11  24  40  58  81 108 139 177 219 264 316
#     4  10  21  36  54  76 102 133 170 212 259 311
#     4   9  16  27  46  73 105 140 175 212 257 307
#     4   9  16  26  43  70 102 133 168 212 257 301
#     4  10  20  34  54  81 111 142 178 220 265 312
#
# _framework density 20.167781999999999
#
# number of rings (size 3 to 8) (size 9 to 14) (size 15 to 20)
#    0.000    2.333    0.000    3.000    0.000   10.000 
#    0.000    1.667    0.000    1.000    0.000    2.333 
#    0.000    0.000    0.000    0.000    0.000    0.000 
#
# Total GULP energy -268041.557874 kJ/mol
# GULP energy per Si atom -5584.199122 kJ/mol
# Density = 2.012188 g / cm^3
# Si number density = 20.167782 Si / 1000 Ang^3
#
#
#
# Elastic Constant Matrix: (Units=GPa)
#
#
# Indices 1 2 3 4 5 6 
#
# 1 186.9763 9.5723 134.8837 0.0000 0.0000 0.0000
# 2 9.5723 18.2824 5.0209 0.0000 0.0000 0.0000
# 3 134.8837 5.0209 237.4754 0.0000 0.0000 0.0000
# 4 0.0000 0.0000 0.0000 19.2199 0.0000 0.0000
# 5 0.0000 0.0000 0.0000 0.0000 42.1384 0.0000
# 6 0.0000 0.0000 0.0000 0.0000 0.0000 13.0739
#
#
#
# Elastic Compliance Matrix: (Units=1/GPa)
#
#
# Indices 1 2 3 4 5 6 
#
# 1 0.009270 -0.003427 -0.005193 0.000000 0.000000 0.000000
# 2 -0.003427 0.056284 0.000757 0.000000 0.000000 0.000000
# 3 -0.005193 0.000757 0.007144 0.000000 0.000000 0.000000
# 4 0.000000 0.000000 0.000000 0.052029 0.000000 0.000000
# 5 0.000000 0.000000 0.000000 0.000000 0.023731 0.000000
# 6 0.000000 0.000000 0.000000 0.000000 0.000000 0.076488
#
#
# Mechanical properties :
#
#
# Convention : Reuss Voigt Hill
#
# Bulk Modulus (GPa) = 17.55266 82.40977 49.98121
# Shear Modulus (GPa) = 19.25566 34.43693 26.84630
#
# Velocity S-wave (km/s) = 3.09329 4.13670 3.65245
# Velocity P-wave (km/s) = 4.63467 7.98544 6.52868
#
# Compressibility (1/GPa) = 0.05697142
#
# Stress axis : x y z
#
# Youngs Moduli (GPa) = 107.87880 17.76705 139.97133
#
# Poissons Ratio (x) = 0.06089 0.72682
# Poissons Ratio (y) = 0.36974 -0.10592
# Poissons Ratio (z) = 0.56017 -0.01344
#
# Static dielectric constant tensor:
#      x y z
#    x 1.630480 0.000000 0.000000 
#    y 0.000000 1.736770 0.000000 
#    z 0.000000 0.000000 1.687110 
# 
# From -- ./inp_files/32851.got.cif
#   From: 2010.05.17/outbox.cif.g08.bks.cpg/sg59_17_cif.got.tgz:32851.got - 2010.06.03 14:40:33.
