data_PCOD9450798
_publ_section_title
;
Structure prediction by ZEFSAII (Michael W. Deem and Ramdas Pophale) SiO2 
 PCOD9450798
Probable space group: P M M N
;
_chemical_formula_sum "Si O2"
_cell_formula_units_Z 64
_cell_length_a 19.260201
_cell_length_b 8.980732
_cell_length_c 21.026048
_cell_angle_alpha 90.000000
_cell_angle_beta 90.000000
_cell_angle_gamma 90.000000
_cell_volume 3636.890313
_symmetry_space_group_name_H-M "P M M N"
_symmetry_group_IT_number 59
_space_group.IT_coordinate_system_code '2'
_symmetry_cell_setting 'orthorhombic'
loop_
_space_group_symop_operation_xyz
x,y,z
1/2-x,1/2-y,z
1/2+x,-y,-z
-x,1/2+y,-z
-x,-y,-z
1/2+x,1/2+y,-z
1/2-x,y,z
x,1/2-y,z
loop_
_atom_site_type_symbol
_atom_site_label
_atom_site_fract_x
_atom_site_fract_y
_atom_site_fract_z
Si Si1 0.834529 0.420824 0.953591
Si Si2 0.069505 0.927525 0.529486
Si Si3 0.917791 0.571631 0.698936
Si Si4 0.329766 0.431390 0.777703
Si Si5 0.064308 0.070970 0.666840
Si Si6 0.834618 0.922185 0.082339
Si Si7 0.331947 0.074304 0.429706
Si Si8 0.330463 0.429084 0.177503
O O1 0.750000 0.427334 0.955058
O O2 0.855511 0.250000 0.948812
O O3 0.855302 0.507695 0.890011
O O4 0.858553 0.490085 0.020261
O O5 0.061718 0.750000 0.532320
O O6 0.079734 0.994556 0.599498
O O7 0.131756 0.975946 0.483333
O O8 0.000000 0.000000 0.500000
O O9 0.931554 0.750000 0.701674
O O10 0.868827 0.546343 0.637814
O O11 0.877698 0.526639 0.763020
O O12 0.988771 0.483791 0.688930
O O13 0.250000 0.479703 0.767812
O O14 0.328802 0.250000 0.780582
O O15 0.379741 0.473494 0.720351
O O16 0.354852 0.481023 0.847843
O O17 0.065352 0.250000 0.659820
O O18 0.750000 0.924209 0.082988
O O19 0.855774 0.750000 0.076305
O O20 0.250000 0.047843 0.425237
O O21 0.342745 0.250000 0.444879
O O22 0.250000 0.476240 0.187523
O O23 0.330514 0.250000 0.174377
#
# Coordination Sequence:
#
# PCOD9450798 Si02
#       8
#     8   8   8   8   8   8   8   8
#     4   9  16  25  40  68 104 137 169 212 268 320
#     4  12  24  40  60  82 110 145 185 227 271 322
#     4  10  20  35  55  78 108 144 181 222 265 319
#     4   8  16  32  54  80 107 136 176 221 264 316
#     4  11  22  36  58  84 109 142 179 219 269 328
#     4   8  13  25  47  71  96 130 172 217 260 309
#     4  10  21  38  61  87 113 144 181 223 274 328
#     4   9  17  30  49  73 101 137 181 222 260 311
#
# _framework density 17.597451
#
# number of rings (size 3 to 8) (size 9 to 14) (size 15 to 20)
#    0.000    2.375    1.250    3.000    0.000    4.250 
#    0.000    2.500    0.000    5.625    0.000    0.000 
#    0.000    0.000    0.000    0.000    0.000    0.000 
#
# Total GULP energy -356967.295948 kJ/mol
# GULP energy per Si atom -5577.613999 kJ/mol
# Density = 1.755740 g / cm^3
# Si number density = 17.597451 Si / 1000 Ang^3
#
#
#
# Elastic Constant Matrix: (Units=GPa)
#
#
# Indices 1 2 3 4 5 6 
#
# 1 70.4121 38.7389 62.3562 0.0000 0.0000 0.0000
# 2 38.7389 60.1491 65.8848 0.0000 0.0000 0.0000
# 3 62.3562 65.8848 184.9833 0.0000 0.0000 0.0000
# 4 0.0000 0.0000 0.0000 21.0002 0.0000 0.0000
# 5 0.0000 0.0000 0.0000 0.0000 -2.6204 0.0000
# 6 0.0000 0.0000 0.0000 0.0000 0.0000 19.3849
#
#
#
# Elastic Compliance Matrix: (Units=1/GPa)
#
#
# Indices 1 2 3 4 5 6 
#
# 1 0.023841 -0.010743 -0.004210 0.000000 0.000000 0.000000
# 2 -0.010743 0.032101 -0.007812 0.000000 0.000000 0.000000
# 3 -0.004210 -0.007812 0.009608 0.000000 0.000000 0.000000
# 4 0.000000 0.000000 0.000000 0.047619 0.000000 0.000000
# 5 0.000000 0.000000 0.000000 0.000000 -0.381626 0.000000
# 6 0.000000 0.000000 0.000000 0.000000 0.000000 0.051586
#
#
# Mechanical properties :
#
#
# Convention : Reuss Voigt Hill
#
# Bulk Modulus (GPa) = 49.95180 72.16711 61.05946
# Shear Modulus (GPa) = -30.36447 17.45726 -6.45360
#
# Velocity S-wave (km/s) = -4.15842 3.15307 -1.91711
# Velocity P-wave (km/s) = 2.32180 7.37257 5.46560
#
# Compressibility (1/GPa) = 0.02001930
#
# Stress axis : x y z
#
# Youngs Moduli (GPa) = 41.94398 31.15129 104.08479
#
# Poissons Ratio (x) = 0.33466 0.43824
# Poissons Ratio (y) = 0.45061 0.81311
# Poissons Ratio (z) = 0.17660 0.24335
#
# Static dielectric constant tensor:
#      x y z
#    x 1.584610 0.000000 0.000000 
#    y 0.000000 1.596520 0.000000 
#    z 0.000000 0.000000 1.598070 
# 
# From -- ./inp_files/30679.got.cif
#   From: 2010.05.17/outbox.cif.g08.bks.cpg/sg59_16_cif.got.tgz:30679.got - 2010.06.03 14:40:33.
