data_PCOD9450081
_publ_section_title
;
Structure prediction by ZEFSAII (Michael W. Deem and Ramdas Pophale) SiO2 
 PCOD9450081
Probable space group: P M M N
;
_chemical_formula_sum "Si O2"
_cell_formula_units_Z 56
_cell_length_a 14.254420
_cell_length_b 7.922858
_cell_length_c 21.510790
_cell_angle_alpha 90.000000
_cell_angle_beta 90.000000
_cell_angle_gamma 90.000000
_cell_volume 2429.337106
_symmetry_space_group_name_H-M "P M M N"
_symmetry_group_IT_number 59
_space_group.IT_coordinate_system_code '2'
_symmetry_cell_setting 'orthorhombic'
loop_
_space_group_symop_operation_xyz
x,y,z
1/2-x,1/2-y,z
1/2+x,-y,-z
-x,1/2+y,-z
-x,-y,-z
1/2+x,1/2+y,-z
1/2-x,y,z
x,1/2-y,z
loop_
_atom_site_type_symbol
_atom_site_label
_atom_site_fract_x
_atom_site_fract_y
_atom_site_fract_z
Si Si1 0.642929 0.542535 0.830665
Si Si2 0.440758 0.054068 0.642948
Si Si3 0.459297 0.947901 0.771823
Si Si4 0.864506 0.947163 0.967755
Si Si5 0.606675 0.448310 0.486220
Si Si6 0.360370 0.045803 0.898310
Si Si7 0.150968 0.542942 0.379146
O O1 0.750000 0.490897 0.818789
O O2 0.641978 0.750000 0.832215
O O3 0.565388 0.484602 0.781833
O O4 0.612618 0.481316 0.899900
O O5 0.451382 0.250000 0.630526
O O6 0.547892 0.980977 0.641863
O O7 0.407440 0.027351 0.713035
O O8 0.377544 0.993300 0.585631
O O9 0.464052 0.750000 0.759483
O O10 0.410094 0.976233 0.837713
O O11 0.750000 0.950846 0.969744
O O12 0.891341 0.750000 0.966774
O O13 0.896781 0.018466 0.034235
O O14 0.500000 0.500000 0.500000
O O15 0.618242 0.250000 0.489365
O O16 0.655733 0.512674 0.548379
O O17 0.250000 0.004655 0.894607
O O18 0.368330 0.250000 0.898483
O O19 0.250000 0.487925 0.348763
O O20 0.149759 0.750000 0.375577
#
# Coordination Sequence:
#
# PCOD9450081 Si02
#       7
#     8   8   8   8   8   8   8
#     4   8  15  29  48  72 104 138 171 209 256 314
#     4  10  20  34  51  69  97 137 173 206 244 293
#     4  11  22  33  49  75 105 138 175 214 259 309
#     4   7  11  24  48  73  95 125 166 210 258 312
#     4   9  16  29  51  74  97 125 156 194 239 288
#     4   9  18  34  55  75  96 127 170 218 265 316
#     4   8  15  29  51  78 101 122 154 197 245 293
#
# _framework density 23.051558
#
# number of rings (size 3 to 8) (size 9 to 14) (size 15 to 20)
#    0.000    3.143    0.000    3.857    0.000    1.429 
#    0.000    0.714    0.000   19.714    0.000    4.000 
#    0.000    0.000    0.000    0.000    0.000    0.000 
#
# Total GULP energy -312024.927102 kJ/mol
# GULP energy per Si atom -5571.873698 kJ/mol
# Density = 2.299909 g / cm^3
# Si number density = 23.051558 Si / 1000 Ang^3
#
#
#
# Elastic Constant Matrix: (Units=GPa)
#
#
# Indices 1 2 3 4 5 6 
#
# 1 25.2758 -0.3077 -6.8641 0.0000 0.0000 0.0000
# 2 -0.3077 19.1700 -1.9641 0.0000 0.0000 0.0000
# 3 -6.8641 -1.9641 119.6177 0.0000 0.0000 0.0000
# 4 0.0000 0.0000 0.0000 16.9812 0.0000 0.0000
# 5 0.0000 0.0000 0.0000 0.0000 12.1230 0.0000
# 6 0.0000 0.0000 0.0000 0.0000 0.0000 6.5032
#
#
#
# Elastic Compliance Matrix: (Units=1/GPa)
#
#
# Indices 1 2 3 4 5 6 
#
# 1 0.040205 0.000883 0.002322 0.000000 0.000000 0.000000
# 2 0.000883 0.052272 0.000909 0.000000 0.000000 0.000000
# 3 0.002322 0.000909 0.008508 0.000000 0.000000 0.000000
# 4 0.000000 0.000000 0.000000 0.058888 0.000000 0.000000
# 5 0.000000 0.000000 0.000000 0.000000 0.082488 0.000000
# 6 0.000000 0.000000 0.000000 0.000000 0.000000 0.153771
#
#
# Mechanical properties :
#
#
# Convention : Reuss Voigt Hill
#
# Bulk Modulus (GPa) = 9.15644 16.19906 12.67775
# Shear Modulus (GPa) = 11.78387 18.66812 15.22600
#
# Velocity S-wave (km/s) = 2.26342 2.84886 2.57284
# Velocity P-wave (km/s) = 3.28809 4.22657 3.78652
#
# Compressibility (1/GPa) = 0.10921280
#
# Stress axis : x y z
#
# Youngs Moduli (GPa) = 24.87264 19.13066 117.53488
#
# Poissons Ratio (x) = -0.01690 -0.27287
# Poissons Ratio (y) = -0.02197 -0.10684
# Poissons Ratio (z) = -0.05774 -0.01739
#
# Static dielectric constant tensor:
#      x y z
#    x 1.914750 0.000000 0.000000 
#    y 0.000000 1.826960 0.000000 
#    z 0.000000 0.000000 1.906510 
# 
# From -- ./inp_files/30295.got.cif
#   From: 2010.05.17/outbox.cif.g08.bks.cpg/sg59_16_cif.got.tgz:30295.got - 2010.06.03 14:40:33.
