data_PCOD9450501
_publ_section_title
;
Structure prediction by ZEFSAII (Michael W. Deem and Ramdas Pophale) SiO2 
 PCOD9450501
Probable space group: P M M N
;
_chemical_formula_sum "Si O2"
_cell_formula_units_Z 40
_cell_length_a 8.677789
_cell_length_b 14.786705
_cell_length_c 17.053650
_cell_angle_alpha 90.000000
_cell_angle_beta 90.000000
_cell_angle_gamma 90.000000
_cell_volume 2188.254550
_symmetry_space_group_name_H-M "P M M N"
_symmetry_group_IT_number 59
_space_group.IT_coordinate_system_code '2'
_symmetry_cell_setting 'orthorhombic'
loop_
_space_group_symop_operation_xyz
x,y,z
1/2-x,1/2-y,z
1/2+x,-y,-z
-x,1/2+y,-z
-x,-y,-z
1/2+x,1/2+y,-z
1/2-x,y,z
x,1/2-y,z
loop_
_atom_site_type_symbol
_atom_site_label
_atom_site_fract_x
_atom_site_fract_y
_atom_site_fract_z
Si Si1 0.432185 0.893920 0.409577
Si Si2 0.935645 0.093192 0.412624
Si Si3 0.565083 0.750000 0.878563
Si Si4 0.933350 0.250000 0.879190
Si Si5 0.935371 0.250000 0.295081
Si Si6 0.930649 0.750000 0.293479
Si Si7 0.564515 0.601417 0.005072
O O1 0.250000 0.880867 0.397364
O O2 0.467829 0.868814 0.500115
O O3 0.523150 0.835408 0.346773
O O4 0.478142 0.998655 0.403104
O O5 0.750000 0.078464 0.409282
O O6 0.982131 0.162654 0.345391
O O7 0.750000 0.750000 0.874083
O O8 0.497938 0.750000 0.792214
O O9 0.519793 0.661473 0.928888
O O10 0.750000 0.250000 0.888468
O O11 0.979244 0.250000 0.788347
O O12 0.001936 0.338805 0.922432
O O13 0.750000 0.250000 0.292550
O O14 0.750000 0.750000 0.276616
O O15 0.750000 0.598496 0.009478
O O16 0.500000 0.500000 0.000000
#
# Coordination Sequence:
#
# PCOD9450501 Si02
#       7
#     8   8   4   4   4   4   8
#     4  10  20  36  57  80 109 147 191 236 281 332
#     4   9  19  36  55  79 112 149 189 233 280 329
#     4   9  21  38  55  81 115 143 177 224 269 322
#     4  11  23  40  61  87 115 145 187 236 285 340
#     4  10  20  34  55  80 110 147 184 225 272 321
#     4  12  24  38  57  82 114 149 186 233 288 343
#     4  10  21  40  63  86 114 149 185 226 279 338
#
# _framework density 18.279409000000001
#
# number of rings (size 3 to 8) (size 9 to 14) (size 15 to 20)
#    0.000    2.000    0.000    4.200    0.000    7.200 
#    0.000    5.000    0.000    0.000    0.000    0.000 
#    0.000    0.000    0.000    0.000    0.000    0.000 
#
# Total GULP energy -223386.433798 kJ/mol
# GULP energy per Si atom -5584.660845 kJ/mol
# Density = 1.823780 g / cm^3
# Si number density = 18.279409 Si / 1000 Ang^3
#
#
#
# Elastic Constant Matrix: (Units=GPa)
#
#
# Indices 1 2 3 4 5 6 
#
# 1 58.2507 37.9713 33.7580 0.0000 0.0000 0.0000
# 2 37.9713 128.1915 70.3128 0.0000 0.0000 0.0000
# 3 33.7580 70.3128 140.4115 0.0000 0.0000 0.0000
# 4 0.0000 0.0000 0.0000 28.1903 0.0000 0.0000
# 5 0.0000 0.0000 0.0000 0.0000 34.2668 0.0000
# 6 0.0000 0.0000 0.0000 0.0000 0.0000 80.5912
#
#
#
# Elastic Compliance Matrix: (Units=1/GPa)
#
#
# Indices 1 2 3 4 5 6 
#
# 1 0.022045 -0.004995 -0.002799 0.000000 0.000000 0.000000
# 2 -0.004995 0.011886 -0.004751 0.000000 0.000000 0.000000
# 3 -0.002799 -0.004751 0.010174 0.000000 0.000000 0.000000
# 4 0.000000 0.000000 0.000000 0.035473 0.000000 0.000000
# 5 0.000000 0.000000 0.000000 0.000000 0.029183 0.000000
# 6 0.000000 0.000000 0.000000 0.000000 0.000000 0.012408
#
#
# Mechanical properties :
#
#
# Convention : Reuss Voigt Hill
#
# Bulk Modulus (GPa) = 52.58860 67.88200 60.23530
# Shear Modulus (GPa) = 32.76564 40.93041 36.84803
#
# Velocity S-wave (km/s) = 4.23837 4.73710 4.49466
# Velocity P-wave (km/s) = 7.26523 8.19369 7.74339
#
# Compressibility (1/GPa) = 0.01901553
#
# Stress axis : x y z
#
# Youngs Moduli (GPa) = 45.36153 84.12936 98.28773
#
# Poissons Ratio (x) = 0.42020 0.27511
# Poissons Ratio (y) = 0.22657 0.46701
# Poissons Ratio (z) = 0.12697 0.39974
#
# Static dielectric constant tensor:
#      x y z
#    x 1.621470 0.000000 0.000000 
#    y 0.000000 1.611090 0.000000 
#    z 0.000000 0.000000 1.607540 
# 
# From -- ./inp_files/20045.got.cif
#   From: 2010.05.17/outbox.cif.g08.bks.cpg/sg59_11_cif.got.tgz:20045.got - 2010.06.03 14:40:33.
