data_PCOD9450477
_publ_section_title
;
Structure prediction by ZEFSAII (Michael W. Deem and Ramdas Pophale) SiO2 
 PCOD9450477
Probable space group: P M M N
;
_chemical_formula_sum "Si O2"
_cell_formula_units_Z 64
_cell_length_a 8.187109
_cell_length_b 14.593696
_cell_length_c 27.185931
_cell_angle_alpha 90.000000
_cell_angle_beta 90.000000
_cell_angle_gamma 90.000000
_cell_volume 3248.179926
_symmetry_space_group_name_H-M "P M M N"
_symmetry_group_IT_number 59
_space_group.IT_coordinate_system_code '2'
_symmetry_cell_setting 'orthorhombic'
loop_
_space_group_symop_operation_xyz
x,y,z
1/2-x,1/2-y,z
1/2+x,-y,-z
-x,1/2+y,-z
-x,-y,-z
1/2+x,1/2+y,-z
1/2-x,y,z
x,1/2-y,z
loop_
_atom_site_type_symbol
_atom_site_label
_atom_site_fract_x
_atom_site_fract_y
_atom_site_fract_z
Si Si1 0.447293 0.352441 0.335340
Si Si2 0.944981 0.029015 0.426055
Si Si3 0.053391 0.854657 0.479447
Si Si4 0.945389 0.017393 0.055473
Si Si5 0.448681 0.349042 0.880532
Si Si6 0.053079 0.149862 0.766074
Si Si7 0.052993 0.354832 0.138727
Si Si8 0.053875 0.450323 0.238066
O O1 0.250000 0.351210 0.335218
O O2 0.505449 0.250000 0.348048
O O3 0.502568 0.426391 0.375076
O O4 0.501599 0.381508 0.280775
O O5 0.750000 0.026933 0.428597
O O6 0.005646 0.096095 0.470186
O O7 0.006842 0.926536 0.436941
O O8 0.250000 0.850723 0.481709
O O9 0.993269 0.750000 0.474398
O O10 0.750000 0.016568 0.056209
O O11 0.001877 0.106178 0.085728
O O12 0.010873 0.932677 0.087944
O O13 0.000000 0.000000 0.000000
O O14 0.250000 0.351944 0.880885
O O15 0.498712 0.250000 0.900567
O O16 0.497063 0.353644 0.823598
O O17 0.250000 0.149383 0.763950
O O18 0.998508 0.250000 0.746462
O O19 0.992297 0.053308 0.746062
O O20 0.250000 0.355615 0.140463
O O21 0.998689 0.250000 0.145874
O O22 0.991979 0.418586 0.184137
O O23 0.250000 0.446230 0.235701
#
# Coordination Sequence:
#
# PCOD9450477 Si02
#       8
#     8   8   8   8   8   8   8   8
#     4  10  21  37  56  79 110 150 191 229 275 331
#     4  10  20  34  54  83 116 147 186 238 287 331
#     4   9  18  34  56  81 112 151 192 233 282 338
#     4  11  22  36  55  79 108 139 174 215 262 318
#     4   8  15  30  52  74  96 127 164 201 248 307
#     4   9  17  32  55  80 104 132 168 211 262 319
#     4  10  21  38  58  79 107 143 179 218 268 321
#     4  10  20  35  57  83 110 140 181 228 270 318
#
# _framework density 19.703343
#
# number of rings (size 3 to 8) (size 9 to 14) (size 15 to 20)
#    0.000    2.375    1.250    2.250    0.000    4.500 
#    0.000    1.875    0.000    4.125    0.000    0.000 
#    0.000    0.000    0.000    0.000    0.000    0.000 
#
# Total GULP energy -356865.380929 kJ/mol
# GULP energy per Si atom -5576.021577 kJ/mol
# Density = 1.965850 g / cm^3
# Si number density = 19.703343 Si / 1000 Ang^3
#
#
#
# Elastic Constant Matrix: (Units=GPa)
#
#
# Indices 1 2 3 4 5 6 
#
# 1 13.4243 14.9834 7.5440 0.0000 0.0000 0.0000
# 2 14.9834 140.4223 32.5193 0.0000 0.0000 0.0000
# 3 7.5440 32.5193 69.5146 0.0000 0.0000 0.0000
# 4 0.0000 0.0000 0.0000 24.9130 0.0000 0.0000
# 5 0.0000 0.0000 0.0000 0.0000 18.7265 0.0000
# 6 0.0000 0.0000 0.0000 0.0000 0.0000 22.8822
#
#
#
# Elastic Compliance Matrix: (Units=1/GPa)
#
#
# Indices 1 2 3 4 5 6 
#
# 1 0.086522 -0.007915 -0.005687 0.000000 0.000000 0.000000
# 2 -0.007915 0.008711 -0.003216 0.000000 0.000000 0.000000
# 3 -0.005687 -0.003216 0.016507 0.000000 0.000000 0.000000
# 4 0.000000 0.000000 0.000000 0.040140 0.000000 0.000000
# 5 0.000000 0.000000 0.000000 0.000000 0.053400 0.000000
# 6 0.000000 0.000000 0.000000 0.000000 0.000000 0.043702
#
#
# Mechanical properties :
#
#
# Convention : Reuss Voigt Hill
#
# Bulk Modulus (GPa) = 12.80345 37.05052 24.92698
# Shear Modulus (GPa) = 16.19942 24.52530 20.36236
#
# Velocity S-wave (km/s) = 2.87045 3.53190 3.21821
# Velocity P-wave (km/s) = 4.18309 5.95629 5.14663
#
# Compressibility (1/GPa) = 0.07810392
#
# Stress axis : x y z
#
# Youngs Moduli (GPa) = 11.55771 114.80139 60.58006
#
# Poissons Ratio (x) = 0.90867 0.34452
# Poissons Ratio (y) = 0.09148 0.19482
# Poissons Ratio (z) = 0.06573 0.36919
#
# Static dielectric constant tensor:
#      x y z
#    x 1.694720 0.000000 0.000000 
#    y 0.000000 1.731120 0.000000 
#    z 0.000000 0.000000 1.683620 
# 
# From -- ./inp_files/31659.got.cif
#   From: 2010.05.17/outbox.cif.g08.bks.cpg/sg59_16_cif.got.tgz:31659.got - 2010.06.03 14:40:33.
