data_PCOD9450833
_publ_section_title
;
Structure prediction by ZEFSAII (Michael W. Deem and Ramdas Pophale) SiO2 
 PCOD9450833
Probable space group: P M M N
;
_chemical_formula_sum "Si O2"
_cell_formula_units_Z 64
_cell_length_a 19.467012
_cell_length_b 18.506267
_cell_length_c 10.160133
_cell_angle_alpha 90.000000
_cell_angle_beta 90.000000
_cell_angle_gamma 90.000000
_cell_volume 3660.307008
_symmetry_space_group_name_H-M "P M M N"
_symmetry_group_IT_number 59
_space_group.IT_coordinate_system_code '2'
_symmetry_cell_setting 'orthorhombic'
loop_
_space_group_symop_operation_xyz
x,y,z
1/2-x,1/2-y,z
1/2+x,-y,-z
-x,1/2+y,-z
-x,-y,-z
1/2+x,1/2+y,-z
1/2-x,y,z
x,1/2-y,z
loop_
_atom_site_type_symbol
_atom_site_label
_atom_site_fract_x
_atom_site_fract_y
_atom_site_fract_z
Si Si1 0.045185 0.664019 0.234377
Si Si2 0.414512 0.332052 0.176558
Si Si3 0.328257 0.563931 0.276107
Si Si4 0.673784 0.470114 0.033711
Si Si5 0.598821 0.832159 0.359720
Si Si6 0.668208 0.588269 0.594928
Si Si7 0.670654 0.640299 0.083984
Si Si8 0.027855 0.579740 0.961281
O O1 0.053831 0.750000 0.219266
O O2 0.114066 0.625014 0.284094
O O3 0.980845 0.651292 0.330779
O O4 0.027008 0.628481 0.093154
O O5 0.435229 0.250000 0.206982
O O6 0.367990 0.365521 0.290745
O O7 0.479092 0.383485 0.145663
O O8 0.370466 0.332412 0.042191
O O9 0.250000 0.589604 0.298103
O O10 0.342179 0.495938 0.370143
O O11 0.330671 0.533798 0.125613
O O12 0.750000 0.442941 0.070909
O O13 0.668240 0.553088 0.076492
O O14 0.606877 0.428238 0.083252
O O15 0.604612 0.750000 0.411335
O O16 0.634532 0.887028 0.458914
O O17 0.636118 0.835241 0.218705
O O18 0.750000 0.601562 0.594066
O O19 0.750000 0.662176 0.078232
O O20 0.000000 0.500000 0.000000
#
# Coordination Sequence:
#
# PCOD9450833 Si02
#       8
#     8   8   8   8   8   8   8   8
#     4  10  20  35  55  81 113 144 181 230 280 331
#     4  12  22  33  53  81 105 138 185 227 269 327
#     4   9  18  35  58  82 108 140 181 229 277 329
#     4   9  17  32  55  80 106 138 180 222 269 325
#     4  11  23  37  51  75 112 151 183 222 274 325
#     4  11  23  39  55  76 110 150 186 225 274 330
#     4  11  20  33  53  78 106 141 182 221 269 326
#     4  11  18  33  55  79 109 146 180 225 278 320
#
# _framework density 17.484871999999999
#
# number of rings (size 3 to 8) (size 9 to 14) (size 15 to 20)
#    0.000    1.500    3.750    2.625    0.000    3.750 
#    0.000    0.000    0.000    1.125    0.000    0.000 
#    0.000    2.000    0.000    9.125    0.000    0.000 
#
# Total GULP energy -357339.828046 kJ/mol
# GULP energy per Si atom -5583.434813 kJ/mol
# Density = 1.744508 g / cm^3
# Si number density = 17.484872 Si / 1000 Ang^3
#
#
#
# Elastic Constant Matrix: (Units=GPa)
#
#
# Indices 1 2 3 4 5 6 
#
# 1 132.0756 66.5477 28.0577 0.0000 0.0000 0.0000
# 2 66.5477 100.0049 24.3957 0.0000 0.0000 0.0000
# 3 28.0577 24.3957 52.7901 0.0000 0.0000 0.0000
# 4 0.0000 0.0000 0.0000 132.8603 0.0000 0.0000
# 5 0.0000 0.0000 0.0000 0.0000 25.0217 0.0000
# 6 0.0000 0.0000 0.0000 0.0000 0.0000 21.2827
#
#
#
# Elastic Compliance Matrix: (Units=1/GPa)
#
#
# Indices 1 2 3 4 5 6 
#
# 1 0.011791 -0.007120 -0.002977 0.000000 0.000000 0.000000
# 2 -0.007120 0.015570 -0.003411 0.000000 0.000000 0.000000
# 3 -0.002977 -0.003411 0.022101 0.000000 0.000000 0.000000
# 4 0.000000 0.000000 0.000000 0.007527 0.000000 0.000000
# 5 0.000000 0.000000 0.000000 0.000000 0.039965 0.000000
# 6 0.000000 0.000000 0.000000 0.000000 0.000000 0.046986
#
#
# Mechanical properties :
#
#
# Convention : Reuss Voigt Hill
#
# Bulk Modulus (GPa) = 44.54949 58.09696 51.32323
# Shear Modulus (GPa) = 28.02083 46.89092 37.45587
#
# Velocity S-wave (km/s) = 4.00756 5.18423 4.63340
# Velocity P-wave (km/s) = 6.85188 8.31469 7.61848
#
# Compressibility (1/GPa) = 0.02244694
#
# Stress axis : x y z
#
# Youngs Moduli (GPa) = 84.80712 64.22688 45.24655
#
# Poissons Ratio (x) = 0.45732 0.13468
# Poissons Ratio (y) = 0.60386 0.15432
# Poissons Ratio (z) = 0.25243 0.21906
#
# Static dielectric constant tensor:
#      x y z
#    x 1.615620 0.000000 0.000000 
#    y 0.000000 1.590770 0.000000 
#    z 0.000000 0.000000 1.569150 
# 
# From -- ./inp_files/11645.got.cif
#   From: 2010.05.17/outbox.cif.g08.bks.cpg/sg59_6_cif.got.tgz:11645.got - 2010.06.03 14:40:33.
