data_PCOD9450570
_publ_section_title
;
Structure prediction by ZEFSAII (Michael W. Deem and Ramdas Pophale) SiO2 
 PCOD9450570
Probable space group: P M M N
;
_chemical_formula_sum "Si O2"
_cell_formula_units_Z 56
_cell_length_a 8.749715
_cell_length_b 14.586921
_cell_length_c 23.513371
_cell_angle_alpha 90.000000
_cell_angle_beta 90.000000
_cell_angle_gamma 90.000000
_cell_volume 3001.044494
_symmetry_space_group_name_H-M "P M M N"
_symmetry_group_IT_number 59
_space_group.IT_coordinate_system_code '2'
_symmetry_cell_setting 'orthorhombic'
loop_
_space_group_symop_operation_xyz
x,y,z
1/2-x,1/2-y,z
1/2+x,-y,-z
-x,1/2+y,-z
-x,-y,-z
1/2+x,1/2+y,-z
1/2-x,y,z
x,1/2-y,z
loop_
_atom_site_type_symbol
_atom_site_label
_atom_site_fract_x
_atom_site_fract_y
_atom_site_fract_z
Si Si1 0.931931 0.539694 0.857003
Si Si2 0.434452 0.644323 0.749294
Si Si3 0.432742 0.644590 0.405688
Si Si4 0.570601 0.359748 0.036293
Si Si5 0.070520 0.141115 0.470067
Si Si6 0.936290 0.353484 0.906558
Si Si7 0.566874 0.034370 0.363191
O O1 0.750000 0.540944 0.849504
O O2 0.984087 0.434145 0.864504
O O3 0.008124 0.592502 0.805051
O O4 0.975377 0.589502 0.915823
O O5 0.250000 0.645409 0.750060
O O6 0.487236 0.750000 0.748312
O O7 0.482904 0.590048 0.692698
O O8 0.250000 0.638274 0.403962
O O9 0.477333 0.750000 0.393189
O O10 0.489679 0.623453 0.469706
O O11 0.505517 0.569144 0.364854
O O12 0.750000 0.385352 0.041298
O O13 0.561422 0.250000 0.044694
O O14 0.518556 0.377342 0.971512
O O15 0.250000 0.119153 0.475146
O O16 0.055180 0.250000 0.458529
O O17 0.997345 0.085063 0.418885
O O18 0.750000 0.351894 0.907247
O O19 0.987565 0.250000 0.893237
O O20 0.750000 0.034115 0.365546
#
# Coordination Sequence:
#
# PCOD9450570 Si02
#       7
#     8   8   8   8   8   8   8
#     4  11  21  32  52  80 106 134 172 221 267 303
#     4  10  23  42  59  75 101 140 179 212 256 318
#     4  10  21  37  57  82 113 146 179 216 261 318
#     4   9  17  31  52  75 103 141 176 206 252 317
#     4  10  20  34  55  84 116 147 179 219 268 320
#     4   8  16  32  52  75 104 138 174 210 254 312
#     4  11  22  37  58  80 105 140 183 229 271 314
#
# _framework density 18.660170000000001
#
# number of rings (size 3 to 8) (size 9 to 14) (size 15 to 20)
#    0.000    2.143    0.000    4.286    0.000    5.714 
#    0.000    1.429    0.000    6.000    0.000    0.000 
#    0.000    0.000    0.000    0.000    0.000    0.000 
#
# Total GULP energy -312741.159648 kJ/mol
# GULP energy per Si atom -5584.663565 kJ/mol
# Density = 1.861770 g / cm^3
# Si number density = 18.660170 Si / 1000 Ang^3
#
#
#
# Elastic Constant Matrix: (Units=GPa)
#
#
# Indices 1 2 3 4 5 6 
#
# 1 28.4124 32.5049 20.5245 0.0000 0.0000 0.0000
# 2 32.5049 139.0206 97.3152 0.0000 0.0000 0.0000
# 3 20.5245 97.3152 82.2809 0.0000 0.0000 0.0000
# 4 0.0000 0.0000 0.0000 30.7680 0.0000 0.0000
# 5 0.0000 0.0000 0.0000 0.0000 11.9853 0.0000
# 6 0.0000 0.0000 0.0000 0.0000 0.0000 27.2671
#
#
#
# Elastic Compliance Matrix: (Units=1/GPa)
#
#
# Indices 1 2 3 4 5 6 
#
# 1 0.048873 -0.016813 0.007694 0.000000 0.000000 0.000000
# 2 -0.016813 0.047583 -0.052083 0.000000 0.000000 0.000000
# 3 0.007694 -0.052083 0.071834 0.000000 0.000000 0.000000
# 4 0.000000 0.000000 0.000000 0.032501 0.000000 0.000000
# 5 0.000000 0.000000 0.000000 0.000000 0.083436 0.000000
# 6 0.000000 0.000000 0.000000 0.000000 0.000000 0.036674
#
#
# Mechanical properties :
#
#
# Convention : Reuss Voigt Hill
#
# Bulk Modulus (GPa) = 21.79352 61.15589 41.47470
# Shear Modulus (GPa) = 10.90274 20.62870 15.76572
#
# Velocity S-wave (km/s) = 2.41981 3.32850 2.90985
# Velocity P-wave (km/s) = 4.41722 6.90047 5.79346
#
# Compressibility (1/GPa) = 0.04588521
#
# Stress axis : x y z
#
# Youngs Moduli (GPa) = 20.46137 21.01596 13.92094
#
# Poissons Ratio (x) = 0.35334 -0.10711
# Poissons Ratio (y) = 0.34402 0.72505
# Poissons Ratio (z) = -0.15743 1.09458
#
# Static dielectric constant tensor:
#      x y z
#    x 1.613740 0.000000 0.000000 
#    y 0.000000 1.672150 0.000000 
#    z 0.000000 0.000000 1.609040 
# 
# From -- ./inp_files/28967.got.cif
#   From: 2010.05.17/outbox.cif.g08.bks.cpg/sg59_15_cif.got.tgz:28967.got - 2010.06.03 14:40:33.
