data_PCOD9450802
_publ_section_title
;
Structure prediction by ZEFSAII (Michael W. Deem and Ramdas Pophale) SiO2 
 PCOD9450802
Probable space group: P M M N
;
_chemical_formula_sum "Si O2"
_cell_formula_units_Z 48
_cell_length_a 7.755474
_cell_length_b 27.805582
_cell_length_c 10.602888
_cell_angle_alpha 90.000000
_cell_angle_beta 90.000000
_cell_angle_gamma 90.000000
_cell_volume 2286.464748
_symmetry_space_group_name_H-M "P M M N"
_symmetry_group_IT_number 59
_space_group.IT_coordinate_system_code '2'
_symmetry_cell_setting 'orthorhombic'
loop_
_space_group_symop_operation_xyz
x,y,z
1/2-x,1/2-y,z
1/2+x,-y,-z
-x,1/2+y,-z
-x,-y,-z
1/2+x,1/2+y,-z
1/2-x,y,z
x,1/2-y,z
loop_
_atom_site_type_symbol
_atom_site_label
_atom_site_fract_x
_atom_site_fract_y
_atom_site_fract_z
Si Si1 0.956224 0.304444 0.135998
Si Si2 0.538269 0.361921 0.382215
Si Si3 0.455533 0.361550 0.883455
Si Si4 0.957013 0.304765 0.629548
Si Si5 0.542594 0.027907 0.372252
Si Si6 0.457840 0.470977 0.873652
O O1 0.750000 0.301059 0.150754
O O2 0.024861 0.250000 0.128865
O O3 0.019993 0.333214 0.258261
O O4 0.988330 0.333549 0.008395
O O5 0.750000 0.362240 0.382699
O O6 0.480561 0.334835 0.508820
O O7 0.480091 0.417162 0.377733
O O8 0.250000 0.364337 0.886981
O O9 0.505071 0.332334 0.758702
O O10 0.523997 0.416222 0.879556
O O11 0.750000 0.302006 0.617854
O O12 0.023501 0.250000 0.631262
O O13 0.750000 0.030066 0.361805
O O14 0.500000 0.000000 0.500000
O O15 0.477320 0.999210 0.249791
O O16 0.250000 0.468706 0.863841
O O17 0.500000 0.500000 0.000000
#
# Coordination Sequence:
#
# PCOD9450802 Si02
#       6
#     8   8   8   8   8   8
#     4  10  20  36  59  83 106 138 182 228 271 316
#     4   9  18  34  57  82 106 134 173 225 275 313
#     4  11  23  37  53  78 113 147 178 217 267 320
#     4  10  20  35  56  81 107 138 179 222 264 316
#     4  10  20  35  55  79 107 139 176 218 266 319
#     4  10  22  38  56  80 109 142 181 223 266 317
#
# _framework density 20.993107999999999
#
# number of rings (size 3 to 8) (size 9 to 14) (size 15 to 20)
#    0.000    2.000    0.000    3.500    0.000    8.000 
#    0.000    1.667    0.000    2.000    0.000    0.000 
#    0.000    0.000    0.000    0.000    0.000    0.000 
#
# Total GULP energy -268315.511667 kJ/mol
# GULP energy per Si atom -5589.906493 kJ/mol
# Density = 2.094533 g / cm^3
# Si number density = 20.993108 Si / 1000 Ang^3
#
#
#
# Elastic Constant Matrix: (Units=GPa)
#
#
# Indices 1 2 3 4 5 6 
#
# 1 27.8914 7.2623 -5.4375 0.0000 0.0000 0.0000
# 2 7.2623 260.3084 148.6186 0.0000 0.0000 0.0000
# 3 -5.4375 148.6186 237.4336 0.0000 0.0000 0.0000
# 4 0.0000 0.0000 0.0000 48.3038 0.0000 0.0000
# 5 0.0000 0.0000 0.0000 0.0000 -29.5292 0.0000
# 6 0.0000 0.0000 0.0000 0.0000 0.0000 15.2291
#
#
#
# Elastic Compliance Matrix: (Units=1/GPa)
#
#
# Indices 1 2 3 4 5 6 
#
# 1 0.036918 -0.002354 0.002319 0.000000 0.000000 0.000000
# 2 -0.002354 0.006128 -0.003890 0.000000 0.000000 0.000000
# 3 0.002319 -0.003890 0.006699 0.000000 0.000000 0.000000
# 4 0.000000 0.000000 0.000000 0.020702 0.000000 0.000000
# 5 0.000000 0.000000 0.000000 0.000000 -0.033865 0.000000
# 6 0.000000 0.000000 0.000000 0.000000 0.000000 0.065664
#
#
# Mechanical properties :
#
#
# Convention : Reuss Voigt Hill
#
# Bulk Modulus (GPa) = 23.86837 91.83559 57.85198
# Shear Modulus (GPa) = 40.30243 31.81340 36.05791
#
# Velocity S-wave (km/s) = 4.38630 3.89706 4.14890
# Velocity P-wave (km/s) = 6.08663 8.00563 7.11116
#
# Compressibility (1/GPa) = 0.04189645
#
# Stress axis : x y z
#
# Youngs Moduli (GPa) = 27.08682 163.18544 149.26514
#
# Poissons Ratio (x) = 0.38412 -0.34613
# Poissons Ratio (y) = 0.06376 0.58059
# Poissons Ratio (z) = -0.06281 0.63473
#
# Static dielectric constant tensor:
#      x y z
#    x 1.800480 0.000000 0.000000 
#    y 0.000000 1.741940 0.000000 
#    z 0.000000 0.000000 1.480840 
# 
# From -- ./inp_files/6196.got.cif
#   From: 2010.05.17/outbox.cif.g08.bks.cpg/sg59_4_cif.got.tgz:6196.got - 2010.06.03 14:40:33.
