data_PCOD9450314
_publ_section_title
;
Structure prediction by ZEFSAII (Michael W. Deem and Ramdas Pophale) SiO2 
 PCOD9450314
Probable space group: P M M N
;
_chemical_formula_sum "Si O2"
_cell_formula_units_Z 64
_cell_length_a 8.353287
_cell_length_b 15.159938
_cell_length_c 25.165968
_cell_angle_alpha 90.000000
_cell_angle_beta 90.000000
_cell_angle_gamma 90.000000
_cell_volume 3186.900235
_symmetry_space_group_name_H-M "P M M N"
_symmetry_group_IT_number 59
_space_group.IT_coordinate_system_code '2'
_symmetry_cell_setting 'orthorhombic'
loop_
_space_group_symop_operation_xyz
x,y,z
1/2-x,1/2-y,z
1/2+x,-y,-z
-x,1/2+y,-z
-x,-y,-z
1/2+x,1/2+y,-z
1/2-x,y,z
x,1/2-y,z
loop_
_atom_site_type_symbol
_atom_site_label
_atom_site_fract_x
_atom_site_fract_y
_atom_site_fract_z
Si Si1 0.060934 0.594163 0.480007
Si Si2 0.944750 0.650348 0.974816
Si Si3 0.443065 0.348944 0.902675
Si Si4 0.558477 0.148462 0.221527
Si Si5 0.945886 0.348738 0.637126
Si Si6 0.940773 0.844737 0.587513
Si Si7 0.556140 0.530141 0.680739
Si Si8 0.558599 0.535022 0.877649
O O1 0.250000 0.588058 0.473835
O O2 0.999415 0.627099 0.422969
O O3 0.000000 0.500000 0.500000
O O4 0.018138 0.654268 0.529890
O O5 0.750000 0.647849 0.975190
O O6 0.990416 0.750000 0.957876
O O7 0.001972 0.577368 0.933281
O O8 0.996766 0.638577 0.035778
O O9 0.250000 0.348847 0.902295
O O10 0.495161 0.250000 0.885768
O O11 0.500936 0.434540 0.871267
O O12 0.750000 0.151049 0.219730
O O13 0.499528 0.250000 0.225589
O O14 0.506521 0.087983 0.270952
O O15 0.496067 0.099756 0.168977
O O16 0.750000 0.348233 0.636535
O O17 0.998638 0.250000 0.651039
O O18 0.994395 0.428174 0.676083
O O19 0.750000 0.854545 0.580157
O O20 0.970916 0.750000 0.613974
O O21 0.995506 0.922389 0.625948
O O22 0.750000 0.532795 0.682475
O O23 0.750000 0.534127 0.878961
#
# Coordination Sequence:
#
# PCOD9450314 Si02
#       8
#     8   8   8   8   8   8   8   8
#     4  11  20  33  53  79 114 151 187 223 269 327
#     4   8  15  29  51  81 116 153 192 232 278 336
#     4   9  18  34  55  80 116 159 195 232 281 331
#     4  11  25  43  61  83 111 142 182 233 287 343
#     4   9  18  34  57  83 111 144 183 225 269 323
#     4  10  20  34  53  80 112 144 181 224 274 333
#     4  10  20  38  61  82 107 142 184 230 282 334
#     4  11  21  34  57  86 115 150 192 237 284 338
#
# _framework density 20.082208999999999
#
# number of rings (size 3 to 8) (size 9 to 14) (size 15 to 20)
#    0.000    2.125    1.250    3.375    0.000    3.500 
#    0.000    1.250    0.000    5.625    0.000    0.000 
#    0.000    0.000    0.000    0.000    0.000    0.000 
#
# Total GULP energy -357100.611229 kJ/mol
# GULP energy per Si atom -5579.697050 kJ/mol
# Density = 2.003650 g / cm^3
# Si number density = 20.082209 Si / 1000 Ang^3
#
#
#
# Elastic Constant Matrix: (Units=GPa)
#
#
# Indices 1 2 3 4 5 6 
#
# 1 15.6279 26.2599 9.1813 0.0000 0.0000 0.0000
# 2 26.2599 196.7069 54.8947 0.0000 0.0000 0.0000
# 3 9.1813 54.8947 54.9159 0.0000 0.0000 0.0000
# 4 0.0000 0.0000 0.0000 30.0324 0.0000 0.0000
# 5 0.0000 0.0000 0.0000 0.0000 20.8795 0.0000
# 6 0.0000 0.0000 0.0000 0.0000 0.0000 21.7551
#
#
#
# Elastic Compliance Matrix: (Units=1/GPa)
#
#
# Indices 1 2 3 4 5 6 
#
# 1 0.083087 -0.010007 -0.003888 0.000000 0.000000 0.000000
# 2 -0.010007 0.008256 -0.006580 0.000000 0.000000 0.000000
# 3 -0.003888 -0.006580 0.025437 0.000000 0.000000 0.000000
# 4 0.000000 0.000000 0.000000 0.033297 0.000000 0.000000
# 5 0.000000 0.000000 0.000000 0.000000 0.047894 0.000000
# 6 0.000000 0.000000 0.000000 0.000000 0.000000 0.045966
#
#
# Mechanical properties :
#
#
# Convention : Reuss Voigt Hill
#
# Bulk Modulus (GPa) = 13.18732 49.76916 31.47824
# Shear Modulus (GPa) = 16.12056 26.32771 21.22414
#
# Velocity S-wave (km/s) = 2.83632 3.62470 3.25447
# Velocity P-wave (km/s) = 4.16019 6.50803 5.46176
#
# Compressibility (1/GPa) = 0.07583039
#
# Stress axis : x y z
#
# Youngs Moduli (GPa) = 12.03558 121.12786 39.31326
#
# Poissons Ratio (x) = 1.21211 0.15286
# Poissons Ratio (y) = 0.12044 0.25866
# Poissons Ratio (z) = 0.04680 0.79696
#
# Static dielectric constant tensor:
#      x y z
#    x 1.696370 0.000000 0.000000 
#    y 0.000000 1.769610 0.000000 
#    z 0.000000 0.000000 1.699930 
# 
# From -- ./inp_files/31549.got.cif
#   From: 2010.05.17/outbox.cif.g08.bks.cpg/sg59_16_cif.got.tgz:31549.got - 2010.06.03 14:40:33.
