data_PCOD9450626
_publ_section_title
;
Structure prediction by ZEFSAII (Michael W. Deem and Ramdas Pophale) SiO2 
 PCOD9450626
Probable space group: P M M N
;
_chemical_formula_sum "Si O2"
_cell_formula_units_Z 48
_cell_length_a 21.069775
_cell_length_b 17.661194
_cell_length_c 5.484280
_cell_angle_alpha 90.000000
_cell_angle_beta 90.000000
_cell_angle_gamma 90.000000
_cell_volume 2040.795926
_symmetry_space_group_name_H-M "P M M N"
_symmetry_group_IT_number 59
_space_group.IT_coordinate_system_code '2'
_symmetry_cell_setting 'orthorhombic'
loop_
_space_group_symop_operation_xyz
x,y,z
1/2-x,1/2-y,z
1/2+x,-y,-z
-x,1/2+y,-z
-x,-y,-z
1/2+x,1/2+y,-z
1/2-x,y,z
x,1/2-y,z
loop_
_atom_site_type_symbol
_atom_site_label
_atom_site_fract_x
_atom_site_fract_y
_atom_site_fract_z
Si Si1 0.023794 0.062405 0.242992
Si Si2 0.903928 0.063221 0.951792
Si Si3 0.388247 0.340277 0.945997
Si Si4 0.678892 0.841865 0.546076
Si Si5 0.822089 0.162665 0.231532
Si Si6 0.551905 0.165081 0.571089
O O1 0.048625 0.120898 0.041324
O O2 0.003645 0.110526 0.475968
O O3 0.078970 0.998979 0.255560
O O4 0.954537 0.034453 0.152379
O O5 0.927589 0.142110 0.839456
O O6 0.837042 0.090049 0.057453
O O7 0.395458 0.250000 0.934351
O O8 0.342461 0.358150 0.177633
O O9 0.362388 0.367821 0.685822
O O10 0.750000 0.869574 0.508749
O O11 0.678793 0.750000 0.530333
O O12 0.750000 0.155054 0.330795
O O13 0.824334 0.250000 0.129445
O O14 0.882149 0.158962 0.416468
O O15 0.528212 0.250000 0.550576
#
# Coordination Sequence:
#
# PCOD9450626 Si02
#       6
#     8   8   8   8   8   8
#     4  10  22  37  54  82 120 153 191 243 306 368
#     4  10  21  38  59  81 115 158 192 236 304 373
#     4  10  20  34  56  84 113 152 201 254 304 363
#     4   9  18  34  55  79 110 149 195 248 303 355
#     4   9  19  37  59  86 117 149 194 248 298 355
#     4  10  20  35  59  87 114 150 197 249 301 363
#
# _framework density 23.520236000000001
#
# number of rings (size 3 to 8) (size 9 to 14) (size 15 to 20)
#    0.000    2.333    0.000    2.000    2.333    4.667 
#    0.000    3.333    0.000    0.000    0.000    0.000 
#    0.000    0.000    0.000    0.000    0.000    0.000 
#
# Total GULP energy -267289.356110 kJ/mol
# GULP energy per Si atom -5568.528252 kJ/mol
# Density = 2.346670 g / cm^3
# Si number density = 23.520236 Si / 1000 Ang^3
#
#
#
# Elastic Constant Matrix: (Units=GPa)
#
#
# Indices 1 2 3 4 5 6 
#
# 1 118.1895 27.0975 34.5851 0.0000 0.0000 0.0000
# 2 27.0975 60.6741 9.2025 0.0000 0.0000 0.0000
# 3 34.5851 9.2025 64.7805 0.0000 0.0000 0.0000
# 4 0.0000 0.0000 0.0000 14.6838 0.0000 0.0000
# 5 0.0000 0.0000 0.0000 0.0000 28.8937 0.0000
# 6 0.0000 0.0000 0.0000 0.0000 0.0000 34.4958
#
#
#
# Elastic Compliance Matrix: (Units=1/GPa)
#
#
# Indices 1 2 3 4 5 6 
#
# 1 0.010937 -0.004087 -0.005258 0.000000 0.000000 0.000000
# 2 -0.004087 0.018372 -0.000428 0.000000 0.000000 0.000000
# 3 -0.005258 -0.000428 0.018305 0.000000 0.000000 0.000000
# 4 0.000000 0.000000 0.000000 0.068102 0.000000 0.000000
# 5 0.000000 0.000000 0.000000 0.000000 0.034610 0.000000
# 6 0.000000 0.000000 0.000000 0.000000 0.000000 0.028989
#
#
# Mechanical properties :
#
#
# Convention : Reuss Voigt Hill
#
# Bulk Modulus (GPa) = 35.62909 42.82380 39.22644
# Shear Modulus (GPa) = 24.01355 27.13195 25.57275
#
# Velocity S-wave (km/s) = 3.19874 3.40009 3.30095
# Velocity P-wave (km/s) = 5.36877 5.80180 5.58948
#
# Compressibility (1/GPa) = 0.02806695
#
# Stress axis : x y z
#
# Youngs Moduli (GPa) = 91.43523 54.43179 54.63035
#
# Poissons Ratio (x) = 0.22246 0.28726
# Poissons Ratio (y) = 0.37368 0.02338
# Poissons Ratio (z) = 0.48080 0.02329
#
# Static dielectric constant tensor:
#      x y z
#    x 1.915120 0.000000 0.000000 
#    y 0.000000 1.952000 0.000000 
#    z 0.000000 0.000000 1.932770 
# 
# From -- ./inp_files/3344.got.cif
#   From: 2010.05.17/outbox.cif.g08.bks.cpg/sg59_2_cif.got.tgz:3344.got - 2010.06.03 14:40:33.
