data_PCOD9450677
_publ_section_title
;
Structure prediction by ZEFSAII (Michael W. Deem and Ramdas Pophale) SiO2 
 PCOD9450677
Probable space group: P M M N
;
_chemical_formula_sum "Si O2"
_cell_formula_units_Z 48
_cell_length_a 9.888965
_cell_length_b 10.296421
_cell_length_c 26.991762
_cell_angle_alpha 90.000000
_cell_angle_beta 90.000000
_cell_angle_gamma 90.000000
_cell_volume 2748.326765
_symmetry_space_group_name_H-M "P M M N"
_symmetry_group_IT_number 59
_space_group.IT_coordinate_system_code '2'
_symmetry_cell_setting 'orthorhombic'
loop_
_space_group_symop_operation_xyz
x,y,z
1/2-x,1/2-y,z
1/2+x,-y,-z
-x,1/2+y,-z
-x,-y,-z
1/2+x,1/2+y,-z
1/2-x,y,z
x,1/2-y,z
loop_
_atom_site_type_symbol
_atom_site_label
_atom_site_fract_x
_atom_site_fract_y
_atom_site_fract_z
Si Si1 0.408151 0.593620 0.293192
Si Si2 0.404336 0.098085 0.800121
Si Si3 0.407441 0.750000 0.554634
Si Si4 0.461525 0.599910 0.888018
Si Si5 0.408470 0.250000 0.542057
Si Si6 0.250000 0.101142 0.064591
Si Si7 0.091214 0.488574 0.616237
Si Si8 0.750000 0.099086 0.025271
O O1 0.250000 0.556374 0.291833
O O2 0.414520 0.750000 0.300139
O O3 0.486848 0.565567 0.242121
O O4 0.491437 0.529676 0.337810
O O5 0.250000 0.086648 0.780813
O O6 0.423431 0.250000 0.814413
O O7 0.420276 0.002141 0.846337
O O8 0.250000 0.750000 0.538914
O O9 0.500807 0.750000 0.506551
O O10 0.429799 0.623736 0.588241
O O11 0.435247 0.750000 0.872571
O O12 0.617644 0.585263 0.902030
O O13 0.377420 0.578742 0.938439
O O14 0.250000 0.250000 0.528174
O O15 0.433779 0.125164 0.576428
O O16 0.250000 0.250000 0.045154
O O17 0.250000 0.999000 0.020105
O O18 0.250000 0.479081 0.631576
O O19 0.750000 0.250000 0.008817
#
# Coordination Sequence:
#
# PCOD9450677 Si02
#       8
#     8   8   4   8   4   4   8   4
#     4  10  21  37  59  86 111 141 185 237 288 336
#     4  10  21  37  59  84 108 142 187 235 280 336
#     4  10  22  36  54  84 120 150 190 236 277 332
#     4  10  21  38  57  82 117 152 187 229 283 336
#     4  10  20  34  58  84 110 156 196 228 279 334
#     4  10  22  36  56  84 118 154 186 232 281 324
#     4  10  20  37  58  81 115 152 190 233 281 336
#     4  10  20  36  58  82 114 152 196 230 269 336
#
# _framework density 17.465171000000002
#
# number of rings (size 3 to 8) (size 9 to 14) (size 15 to 20)
#    0.000    2.000    1.667    1.500    1.167    3.333 
#    1.500    0.000    0.000    0.000    0.000    0.000 
#    0.000    0.000    0.000    0.000    0.000    0.000 
#
# Total GULP energy -267923.721083 kJ/mol
# GULP energy per Si atom -5581.744189 kJ/mol
# Density = 1.742542 g / cm^3
# Si number density = 17.465171 Si / 1000 Ang^3
#
#
#
# Elastic Constant Matrix: (Units=GPa)
#
#
# Indices 1 2 3 4 5 6 
#
# 1 109.5417 47.4347 53.2618 0.0000 0.0000 0.0000
# 2 47.4347 104.9548 64.5164 0.0000 0.0000 0.0000
# 3 53.2618 64.5164 92.3165 0.0000 0.0000 0.0000
# 4 0.0000 0.0000 0.0000 2.2561 0.0000 0.0000
# 5 0.0000 0.0000 0.0000 0.0000 17.3759 0.0000
# 6 0.0000 0.0000 0.0000 0.0000 0.0000 54.3721
#
#
#
# Elastic Compliance Matrix: (Units=1/GPa)
#
#
# Indices 1 2 3 4 5 6 
#
# 1 0.012975 -0.002213 -0.005939 0.000000 0.000000 0.000000
# 2 -0.002213 0.017081 -0.010660 0.000000 0.000000 0.000000
# 3 -0.005939 -0.010660 0.021709 0.000000 0.000000 0.000000
# 4 0.000000 0.000000 0.000000 0.443243 0.000000 0.000000
# 5 0.000000 0.000000 0.000000 0.000000 0.057551 0.000000
# 6 0.000000 0.000000 0.000000 0.000000 0.000000 0.018392
#
#
# Mechanical properties :
#
#
# Convention : Reuss Voigt Hill
#
# Bulk Modulus (GPa) = 70.72351 70.80433 70.76392
# Shear Modulus (GPa) = 8.15274 24.24081 16.19678
#
# Velocity S-wave (km/s) = 2.16290 3.72956 3.04859
# Velocity P-wave (km/s) = 6.84247 7.69250 7.27990
#
# Compressibility (1/GPa) = 0.01413957
#
# Stress axis : x y z
#
# Youngs Moduli (GPa) = 77.07042 58.54355 46.06361
#
# Poissons Ratio (x) = 0.12957 0.27358
# Poissons Ratio (y) = 0.17058 0.49106
# Poissons Ratio (z) = 0.45774 0.62410
#
# Static dielectric constant tensor:
#      x y z
#    x 1.629520 0.000000 0.000000 
#    y 0.000000 1.597680 0.000000 
#    z 0.000000 0.000000 1.544180 
# 
# From -- ./inp_files/33119.got.cif
#   From: 2010.05.17/outbox.cif.g08.bks.cpg/sg59_17_cif.got.tgz:33119.got - 2010.06.03 14:40:33.
