data_PCOD9450821
_publ_section_title
;
Structure prediction by ZEFSAII (Michael W. Deem and Ramdas Pophale) SiO2 
 PCOD9450821
Probable space group: P M M N
;
_chemical_formula_sum "Si O2"
_cell_formula_units_Z 48
_cell_length_a 8.513844
_cell_length_b 26.248959
_cell_length_c 12.094658
_cell_angle_alpha 90.000000
_cell_angle_beta 90.000000
_cell_angle_gamma 90.000000
_cell_volume 2702.908632
_symmetry_space_group_name_H-M "P M M N"
_symmetry_group_IT_number 59
_space_group.IT_coordinate_system_code '2'
_symmetry_cell_setting 'orthorhombic'
loop_
_space_group_symop_operation_xyz
x,y,z
1/2-x,1/2-y,z
1/2+x,-y,-z
-x,1/2+y,-z
-x,-y,-z
1/2+x,1/2+y,-z
1/2-x,y,z
x,1/2-y,z
loop_
_atom_site_type_symbol
_atom_site_label
_atom_site_fract_x
_atom_site_fract_y
_atom_site_fract_z
Si Si1 0.439901 0.596662 0.269592
Si Si2 0.058559 0.807901 0.126774
Si Si3 0.936613 0.557903 0.500930
Si Si4 0.561510 0.997968 0.875479
Si Si5 0.941407 0.307814 0.126748
Si Si6 0.561458 0.096300 0.267496
O O1 0.250000 0.597734 0.277225
O O2 0.493815 0.648922 0.211773
O O3 0.506924 0.586076 0.390402
O O4 0.482574 0.549241 0.190680
O O5 0.250000 0.808362 0.127515
O O6 0.009345 0.750000 0.153017
O O7 0.011294 0.819563 0.000010
O O8 0.750000 0.555446 0.503369
O O9 0.000000 0.500000 0.500000
O O10 0.996773 0.585833 0.610748
O O11 0.750000 0.994508 0.875745
O O12 0.492015 0.949896 0.810816
O O13 0.500000 0.000000 0.000000
O O14 0.750000 0.308041 0.127406
O O15 0.991291 0.250000 0.152923
O O16 0.993792 0.350949 0.211713
O O17 0.750000 0.096862 0.272268
#
# Coordination Sequence:
#
# PCOD9450821 Si02
#       6
#     8   8   8   8   8   8
#     4  10  20  35  55  80 109 143 183 227 274 325
#     4   8  14  28  53  83 112 141 177 223 271 318
#     4  12  24  39  57  77 105 146 188 229 277 333
#     4  11  22  34  52  79 113 146 181 227 277 334
#     4   8  15  30  54  84 114 144 179 222 273 326
#     4  11  21  35  57  83 111 143 183 231 279 330
#
# _framework density 17.758645000000001
#
# number of rings (size 3 to 8) (size 9 to 14) (size 15 to 20)
#    0.000    2.000    1.667    4.500    0.000    3.333 
#    0.000    0.833    0.000    7.500    0.000    4.667 
#    0.000    0.000    0.000    0.000    0.000    0.000 
#
# Total GULP energy -267983.344725 kJ/mol
# GULP energy per Si atom -5582.986348 kJ/mol
# Density = 1.771823 g / cm^3
# Si number density = 17.758645 Si / 1000 Ang^3
#
#
#
# Elastic Constant Matrix: (Units=GPa)
#
#
# Indices 1 2 3 4 5 6 
#
# 1 35.9183 37.9855 41.9918 0.0000 0.0000 0.0000
# 2 37.9855 170.2949 124.0610 0.0000 0.0000 0.0000
# 3 41.9918 124.0610 195.3857 0.0000 0.0000 0.0000
# 4 0.0000 0.0000 0.0000 21.6654 0.0000 0.0000
# 5 0.0000 0.0000 0.0000 0.0000 29.0641 0.0000
# 6 0.0000 0.0000 0.0000 0.0000 0.0000 19.6096
#
#
#
# Elastic Compliance Matrix: (Units=1/GPa)
#
#
# Indices 1 2 3 4 5 6 
#
# 1 0.039227 -0.004853 -0.005349 0.000000 0.000000 0.000000
# 2 -0.004853 0.011527 -0.006276 0.000000 0.000000 0.000000
# 3 -0.005349 -0.006276 0.010253 0.000000 0.000000 0.000000
# 4 0.000000 0.000000 0.000000 0.046156 0.000000 0.000000
# 5 0.000000 0.000000 0.000000 0.000000 0.034407 0.000000
# 6 0.000000 0.000000 0.000000 0.000000 0.000000 0.050995
#
#
# Mechanical properties :
#
#
# Convention : Reuss Voigt Hill
#
# Bulk Modulus (GPa) = 35.65049 89.96395 62.80722
# Shear Modulus (GPa) = 21.28829 27.23854 24.26342
#
# Velocity S-wave (km/s) = 3.46606 3.92065 3.70034
# Velocity P-wave (km/s) = 6.01138 8.44183 7.32807
#
# Compressibility (1/GPa) = 0.02805010
#
# Stress axis : x y z
#
# Youngs Moduli (GPa) = 25.49279 86.75481 97.53579
#
# Poissons Ratio (x) = 0.42102 0.52173
# Poissons Ratio (y) = 0.12372 0.61213
# Poissons Ratio (z) = 0.13636 0.54447
#
# Static dielectric constant tensor:
#      x y z
#    x 1.618790 0.000000 0.000000 
#    y 0.000000 1.600620 0.000000 
#    z 0.000000 0.000000 1.576340 
# 
# From -- ./inp_files/14372.got.cif
#   From: 2010.05.17/outbox.cif.g08.bks.cpg/sg59_8_cif.got.tgz:14372.got - 2010.06.03 14:40:33.
