data_PCOD9450716
_publ_section_title
;
Structure prediction by ZEFSAII (Michael W. Deem and Ramdas Pophale) SiO2 
 PCOD9450716
Probable space group: P M M N
;
_chemical_formula_sum "Si O2"
_cell_formula_units_Z 48
_cell_length_a 8.593844
_cell_length_b 15.921071
_cell_length_c 19.698233
_cell_angle_alpha 90.000000
_cell_angle_beta 90.000000
_cell_angle_gamma 90.000000
_cell_volume 2695.175283
_symmetry_space_group_name_H-M "P M M N"
_symmetry_group_IT_number 59
_space_group.IT_coordinate_system_code '2'
_symmetry_cell_setting 'orthorhombic'
loop_
_space_group_symop_operation_xyz
x,y,z
1/2-x,1/2-y,z
1/2+x,-y,-z
-x,1/2+y,-z
-x,-y,-z
1/2+x,1/2+y,-z
1/2-x,y,z
x,1/2-y,z
loop_
_atom_site_type_symbol
_atom_site_label
_atom_site_fract_x
_atom_site_fract_y
_atom_site_fract_z
Si Si1 0.573232 0.750000 0.712362
Si Si2 0.064844 0.930286 0.550855
Si Si3 0.437368 0.067289 0.297558
Si Si4 0.072732 0.250000 0.452442
Si Si5 0.437884 0.345886 0.084987
Si Si6 0.060801 0.343946 0.926888
Si Si7 0.563834 0.503434 0.167306
O O1 0.750000 0.750000 0.740002
O O2 0.502820 0.659425 0.728074
O O3 0.579669 0.750000 0.630035
O O4 0.250000 0.933129 0.552535
O O5 0.999940 0.945967 0.626794
O O6 0.010383 0.836815 0.529009
O O7 0.000000 0.000000 0.500000
O O8 0.250000 0.071829 0.300417
O O9 0.491848 0.000782 0.242273
O O10 0.250000 0.250000 0.477398
O O11 0.250000 0.352223 0.090345
O O12 0.479900 0.250000 0.104833
O O13 0.513659 0.418896 0.128490
O O14 0.481762 0.357658 0.005693
O O15 0.250000 0.344296 0.925694
O O16 0.009703 0.250000 0.907167
O O17 0.007605 0.417409 0.877219
O O18 0.750000 0.506932 0.172383
#
# Coordination Sequence:
#
# PCOD9450716 Si02
#       7
#     4   8   8   4   8   8   8
#     4   7  14  29  49  69  95 133 170 201 242 307
#     4  11  21  36  59  86 115 147 185 228 273 323
#     4  10  20  35  53  76 107 143 181 217 263 325
#     4   9  17  33  55  83 113 145 180 215 264 323
#     4   9  18  33  52  73 100 138 178 210 257 323
#     4   8  16  33  54  72  95 134 180 221 261 317
#     4  11  21  31  49  78 107 132 170 222 273 317
#
# _framework density 17.809602000000002
#
# number of rings (size 3 to 8) (size 9 to 14) (size 15 to 20)
#    0.000    2.500    0.000    5.250    1.167    0.333 
#    0.000    1.667    1.833    4.000    0.000    0.000 
#    0.000    0.000    0.000    0.000    0.000    0.000 
#
# Total GULP energy -267728.527242 kJ/mol
# GULP energy per Si atom -5577.677651 kJ/mol
# Density = 1.776907 g / cm^3
# Si number density = 17.809602 Si / 1000 Ang^3
#
#
#
# Elastic Constant Matrix: (Units=GPa)
#
#
# Indices 1 2 3 4 5 6 
#
# 1 72.2387 40.3003 36.0491 0.0000 0.0000 0.0000
# 2 40.3003 123.0973 81.9431 0.0000 0.0000 0.0000
# 3 36.0491 81.9431 99.0282 0.0000 0.0000 0.0000
# 4 0.0000 0.0000 0.0000 31.1597 0.0000 0.0000
# 5 0.0000 0.0000 0.0000 0.0000 26.4545 0.0000
# 6 0.0000 0.0000 0.0000 0.0000 0.0000 24.1807
#
#
#
# Elastic Compliance Matrix: (Units=1/GPa)
#
#
# Indices 1 2 3 4 5 6 
#
# 1 0.017503 -0.003315 -0.003629 0.000000 0.000000 0.000000
# 2 -0.003315 0.018714 -0.014278 0.000000 0.000000 0.000000
# 3 -0.003629 -0.014278 0.023234 0.000000 0.000000 0.000000
# 4 0.000000 0.000000 0.000000 0.032093 0.000000 0.000000
# 5 0.000000 0.000000 0.000000 0.000000 0.037801 0.000000
# 6 0.000000 0.000000 0.000000 0.000000 0.000000 0.041355
#
#
# Mechanical properties :
#
#
# Convention : Reuss Voigt Hill
#
# Bulk Modulus (GPa) = 58.79910 67.88326 63.34118
# Shear Modulus (GPa) = 22.85063 25.43041 24.14052
#
# Velocity S-wave (km/s) = 3.58586 3.78286 3.68568
# Velocity P-wave (km/s) = 7.08742 7.56828 7.33180
#
# Compressibility (1/GPa) = 0.01700706
#
# Stress axis : x y z
#
# Youngs Moduli (GPa) = 57.13294 53.43706 43.04015
#
# Poissons Ratio (x) = 0.17712 0.15619
# Poissons Ratio (y) = 0.18937 0.61454
# Poissons Ratio (z) = 0.20733 0.76300
#
# Static dielectric constant tensor:
#      x y z
#    x 1.615270 0.000000 0.000000 
#    y 0.000000 1.624030 0.000000 
#    z 0.000000 0.000000 1.604610 
# 
# From -- ./inp_files/25598.got.cif
#   From: 2010.05.17/outbox.cif.g08.bks.cpg/sg59_13_cif.got.tgz:25598.got - 2010.06.03 14:40:33.
