data_PCOD9450595
_publ_section_title
;
Structure prediction by ZEFSAII (Michael W. Deem and Ramdas Pophale) SiO2 
 PCOD9450595
Probable space group: P M M N
;
_chemical_formula_sum "Si O2"
_cell_formula_units_Z 64
_cell_length_a 14.881461
_cell_length_b 8.853863
_cell_length_c 24.943550
_cell_angle_alpha 90.000000
_cell_angle_beta 90.000000
_cell_angle_gamma 90.000000
_cell_volume 3286.522661
_symmetry_space_group_name_H-M "P M M N"
_symmetry_group_IT_number 59
_space_group.IT_coordinate_system_code '2'
_symmetry_cell_setting 'orthorhombic'
loop_
_space_group_symop_operation_xyz
x,y,z
1/2-x,1/2-y,z
1/2+x,-y,-z
-x,1/2+y,-z
-x,-y,-z
1/2+x,1/2+y,-z
1/2-x,y,z
x,1/2-y,z
loop_
_atom_site_type_symbol
_atom_site_label
_atom_site_fract_x
_atom_site_fract_y
_atom_site_fract_z
Si Si1 0.352062 0.430903 0.904637
Si Si2 0.465431 0.430265 0.119016
Si Si3 0.027419 0.929095 0.320607
Si Si4 0.854034 0.428847 0.977089
Si Si5 0.647686 0.068261 0.363141
Si Si6 0.849259 0.573857 0.591235
Si Si7 0.596554 0.431522 0.485553
Si Si8 0.354324 0.068501 0.225999
O O1 0.250000 0.472112 0.887409
O O2 0.359472 0.250000 0.903554
O O3 0.434621 0.504262 0.872855
O O4 0.362455 0.489777 0.965680
O O5 0.470507 0.250000 0.112516
O O6 0.421437 0.503057 0.066209
O O7 0.400194 0.464465 0.168857
O O8 0.024886 0.750000 0.318251
O O9 0.079566 0.984155 0.373755
O O10 0.084805 0.994332 0.271571
O O11 0.927264 0.994617 0.325709
O O12 0.750000 0.449800 0.959245
O O13 0.869949 0.250000 0.983811
O O14 0.750000 0.024269 0.350699
O O15 0.640637 0.250000 0.359268
O O16 0.626576 0.028774 0.425391
O O17 0.750000 0.564878 0.616501
O O18 0.875529 0.750000 0.588471
O O19 0.844776 0.504286 0.532291
O O20 0.500000 0.500000 0.500000
O O21 0.596357 0.250000 0.489625
O O22 0.250000 0.019730 0.227814
O O23 0.355838 0.250000 0.233550
#
# Coordination Sequence:
#
# PCOD9450595 Si02
#       8
#     8   8   8   8   8   8   8   8
#     4  10  21  37  57  83 119 162 204 246 292 344
#     4  11  22  37  60  88 118 154 197 245 298 356
#     4  12  25  40  62  89 117 150 191 244 298 349
#     4  10  20  34  55  85 122 162 202 245 293 349
#     4  10  22  41  64  87 117 158 199 240 288 346
#     4  11  23  38  58  84 117 157 196 236 286 345
#     4  11  21  35  58  88 121 157 194 235 288 346
#     4  10  23  44  67  89 116 152 193 239 293 354
#
# _framework density 19.473469000000001
#
# number of rings (size 3 to 8) (size 9 to 14) (size 15 to 20)
#    0.000    1.375    1.250    4.500    0.000    7.000 
#    0.000    0.625    0.000    0.750    0.000    0.000 
#    0.000    0.000    0.000    0.000    0.000    0.000 
#
# Total GULP energy -357733.635696 kJ/mol
# GULP energy per Si atom -5589.588058 kJ/mol
# Density = 1.942915 g / cm^3
# Si number density = 19.473469 Si / 1000 Ang^3
#
#
#
# Elastic Constant Matrix: (Units=GPa)
#
#
# Indices 1 2 3 4 5 6 
#
# 1 175.3752 55.1497 52.5605 0.0000 0.0000 0.0000
# 2 55.1497 53.0059 30.1180 0.0000 0.0000 0.0000
# 3 52.5605 30.1180 46.6192 0.0000 0.0000 0.0000
# 4 0.0000 0.0000 0.0000 27.7007 0.0000 0.0000
# 5 0.0000 0.0000 0.0000 0.0000 30.8191 0.0000
# 6 0.0000 0.0000 0.0000 0.0000 0.0000 25.6032
#
#
#
# Elastic Compliance Matrix: (Units=1/GPa)
#
#
# Indices 1 2 3 4 5 6 
#
# 1 0.009734 -0.006150 -0.007002 0.000000 0.000000 0.000000
# 2 -0.006150 0.033693 -0.014834 0.000000 0.000000 0.000000
# 3 -0.007002 -0.014834 0.038928 0.000000 0.000000 0.000000
# 4 0.000000 0.000000 0.000000 0.036100 0.000000 0.000000
# 5 0.000000 0.000000 0.000000 0.000000 0.032447 0.000000
# 6 0.000000 0.000000 0.000000 0.000000 0.000000 0.039058
#
#
# Mechanical properties :
#
#
# Convention : Reuss Voigt Hill
#
# Bulk Modulus (GPa) = 37.90109 61.18407 49.54258
# Shear Modulus (GPa) = 19.62895 25.96941 22.79918
#
# Velocity S-wave (km/s) = 3.17832 3.65578 3.42538
# Velocity P-wave (km/s) = 5.74231 7.02190 6.41409
#
# Compressibility (1/GPa) = 0.02638446
#
# Stress axis : x y z
#
# Youngs Moduli (GPa) = 102.72794 29.68015 25.68838
#
# Poissons Ratio (x) = 0.18252 0.17987
# Poissons Ratio (y) = 0.63173 0.38105
# Poissons Ratio (z) = 0.71932 0.44026
#
# Static dielectric constant tensor:
#      x y z
#    x 1.722350 0.000000 0.000000 
#    y 0.000000 1.644650 0.000000 
#    z 0.000000 0.000000 1.652830 
# 
# From -- ./inp_files/32163.got.cif
#   From: 2010.05.17/outbox.cif.g08.bks.cpg/sg59_17_cif.got.tgz:32163.got - 2010.06.03 14:40:33.
