data_PCOD9450204
_publ_section_title
;
Structure prediction by ZEFSAII (Michael W. Deem and Ramdas Pophale) SiO2 
 PCOD9450204
Probable space group: P M M N
;
_chemical_formula_sum "Si O2"
_cell_formula_units_Z 64
_cell_length_a 19.655587
_cell_length_b 8.566224
_cell_length_c 21.243778
_cell_angle_alpha 90.000000
_cell_angle_beta 90.000000
_cell_angle_gamma 90.000000
_cell_volume 3576.903299
_symmetry_space_group_name_H-M "P M M N"
_symmetry_group_IT_number 59
_space_group.IT_coordinate_system_code '2'
_symmetry_cell_setting 'orthorhombic'
loop_
_space_group_symop_operation_xyz
x,y,z
1/2-x,1/2-y,z
1/2+x,-y,-z
-x,1/2+y,-z
-x,-y,-z
1/2+x,1/2+y,-z
1/2-x,y,z
x,1/2-y,z
loop_
_atom_site_type_symbol
_atom_site_label
_atom_site_fract_x
_atom_site_fract_y
_atom_site_fract_z
Si Si1 0.572058 0.439536 0.609943
Si Si2 0.828425 0.060982 0.499049
Si Si3 0.415756 0.062624 0.615314
Si Si4 0.577739 0.062334 0.246190
Si Si5 0.832622 0.931621 0.999016
Si Si6 0.573440 0.437338 0.752938
Si Si7 0.827933 0.062548 0.131664
Si Si8 0.170850 0.439120 0.139256
O O1 0.572260 0.250000 0.608108
O O2 0.624512 0.494490 0.557124
O O3 0.493586 0.488421 0.599089
O O4 0.591555 0.485212 0.681157
O O5 0.750000 0.010107 0.504463
O O6 0.828901 0.250000 0.499417
O O7 0.863389 0.003656 0.435125
O O8 0.414300 0.250000 0.614476
O O9 0.401310 0.004326 0.685881
O O10 0.579406 0.250000 0.249019
O O11 0.626167 0.007883 0.189536
O O12 0.501053 0.006143 0.234019
O O13 0.750000 0.940049 0.997350
O O14 0.851373 0.750000 0.003857
O O15 0.854706 0.015478 0.062722
O O16 0.854327 0.991748 0.930228
O O17 0.569603 0.250000 0.754179
O O18 0.626246 0.496161 0.804363
O O19 0.750000 0.004904 0.137685
O O20 0.826136 0.250000 0.134139
O O21 0.250000 0.484589 0.146527
O O22 0.168417 0.250000 0.139076
#
# Coordination Sequence:
#
# PCOD9450204 Si02
#       8
#     8   8   8   8   8   8   8   8
#     4   8  17  34  53  73  98 131 170 208 247 296
#     4  10  20  34  53  76 102 132 165 203 250 303
#     4  10  20  35  54  75 101 132 169 211 250 295
#     4  10  20  35  54  75 103 138 171 205 253 310
#     4   8  15  29  49  72  99 132 168 206 251 304
#     4  10  20  34  53  78 105 133 172 218 258 298
#     4   9  18  32  51  75 100 127 165 212 255 300
#     4   9  18  33  52  75 104 137 172 209 253 308
#
# _framework density 17.892572999999999
#
# number of rings (size 3 to 8) (size 9 to 14) (size 15 to 20)
#    0.000    2.750    0.000    3.000    0.000    3.000 
#    0.000    7.500    0.000    0.000    0.000    0.000 
#    0.000    0.000    0.000    0.000    0.000    0.000 
#
# Total GULP energy -356792.645441 kJ/mol
# GULP energy per Si atom -5574.885085 kJ/mol
# Density = 1.785185 g / cm^3
# Si number density = 17.892573 Si / 1000 Ang^3
#
#
#
# Elastic Constant Matrix: (Units=GPa)
#
#
# Indices 1 2 3 4 5 6 
#
# 1 73.5012 18.8871 77.5370 0.0000 0.0000 0.0000
# 2 18.8871 18.4728 19.2963 0.0000 0.0000 0.0000
# 3 77.5370 19.2963 127.1531 0.0000 0.0000 0.0000
# 4 0.0000 0.0000 0.0000 28.2764 0.0000 0.0000
# 5 0.0000 0.0000 0.0000 0.0000 39.5754 0.0000
# 6 0.0000 0.0000 0.0000 0.0000 0.0000 16.5448
#
#
#
# Elastic Compliance Matrix: (Units=1/GPa)
#
#
# Indices 1 2 3 4 5 6 
#
# 1 0.043558 -0.019952 -0.023533 0.000000 0.000000 0.000000
# 2 -0.019952 0.073471 0.001017 0.000000 0.000000 0.000000
# 3 -0.023533 0.001017 0.022061 0.000000 0.000000 0.000000
# 4 0.000000 0.000000 0.000000 0.035365 0.000000 0.000000
# 5 0.000000 0.000000 0.000000 0.000000 0.025268 0.000000
# 6 0.000000 0.000000 0.000000 0.000000 0.000000 0.060442
#
#
# Mechanical properties :
#
#
# Convention : Reuss Voigt Hill
#
# Bulk Modulus (GPa) = 18.46645 50.06309 34.26477
# Shear Modulus (GPa) = 13.76833 23.77308 18.77070
#
# Velocity S-wave (km/s) = 2.77699 3.64903 3.24246
# Velocity P-wave (km/s) = 4.54152 6.76716 5.76280
#
# Compressibility (1/GPa) = 0.05415227
#
# Stress axis : x y z
#
# Youngs Moduli (GPa) = 22.95808 13.61082 45.32973
#
# Poissons Ratio (x) = 0.27157 1.06676
# Poissons Ratio (y) = 0.45807 -0.04611
# Poissons Ratio (z) = 0.54028 -0.01384
#
# Static dielectric constant tensor:
#      x y z
#    x 1.597370 0.000000 0.000000 
#    y 0.000000 1.612090 0.000000 
#    z 0.000000 0.000000 1.612810 
# 
# From -- ./inp_files/30714.got.cif
#   From: 2010.05.17/outbox.cif.g08.bks.cpg/sg59_16_cif.got.tgz:30714.got - 2010.06.03 14:40:33.
