data_PCOD9450867
_publ_section_title
;
Structure prediction by ZEFSAII (Michael W. Deem and Ramdas Pophale) SiO2 
 PCOD9450867
Probable space group: P M M N
;
_chemical_formula_sum "Si O2"
_cell_formula_units_Z 48
_cell_length_a 8.553535
_cell_length_b 15.191411
_cell_length_c 19.592915
_cell_angle_alpha 90.000000
_cell_angle_beta 90.000000
_cell_angle_gamma 90.000000
_cell_volume 2545.908581
_symmetry_space_group_name_H-M "P M M N"
_symmetry_group_IT_number 59
_space_group.IT_coordinate_system_code '2'
_symmetry_cell_setting 'orthorhombic'
loop_
_space_group_symop_operation_xyz
x,y,z
1/2-x,1/2-y,z
1/2+x,-y,-z
-x,1/2+y,-z
-x,-y,-z
1/2+x,1/2+y,-z
1/2-x,y,z
x,1/2-y,z
loop_
_atom_site_type_symbol
_atom_site_label
_atom_site_fract_x
_atom_site_fract_y
_atom_site_fract_z
Si Si1 0.563152 0.057363 0.436035
Si Si2 0.063106 0.423674 0.683319
Si Si3 0.437745 0.532689 0.168043
Si Si4 0.566367 0.250000 0.613964
Si Si5 0.560301 0.843278 0.888282
Si Si6 0.433901 0.250000 0.463133
Si Si7 0.937258 0.591012 0.031409
O O1 0.750000 0.059863 0.442129
O O2 0.502295 0.157513 0.436080
O O3 0.500000 0.000000 0.500000
O O4 0.521503 0.004310 0.367223
O O5 0.250000 0.411066 0.679633
O O6 0.011551 0.442047 0.760269
O O7 0.979015 0.336731 0.655591
O O8 0.250000 0.532808 0.172596
O O9 0.492414 0.433653 0.146952
O O10 0.488578 0.596841 0.106091
O O11 0.750000 0.250000 0.597702
O O12 0.470858 0.250000 0.543736
O O13 0.750000 0.845446 0.884466
O O14 0.505893 0.750000 0.858455
O O15 0.521718 0.845143 0.968949
O O16 0.250000 0.250000 0.451174
O O17 0.750000 0.589531 0.038380
O O18 0.000000 0.500000 0.000000
#
# Coordination Sequence:
#
# PCOD9450867 Si02
#       7
#     8   8   8   4   8   4   8
#     4  11  23  40  65  92 123 161 204 254 305 359
#     4  11  24  42  63  88 122 159 199 245 303 367
#     4  10  20  35  56  80 114 153 192 240 297 357
#     4  12  24  40  66  92 120 153 196 249 304 362
#     4   8  15  30  53  80 108 143 190 241 291 346
#     4  12  24  40  64  94 126 159 204 251 300 364
#     4   9  16  29  52  77 104 141 186 234 288 346
#
# _framework density 18.853778999999999
#
# number of rings (size 3 to 8) (size 9 to 14) (size 15 to 20)
#    0.000    1.833    1.667    4.500    0.000    2.000 
#    3.000    0.000    0.000   17.000    0.000    0.000 
#    0.000    0.000    0.000    0.000    0.000    0.000 
#
# Total GULP energy -267763.989671 kJ/mol
# GULP energy per Si atom -5578.416451 kJ/mol
# Density = 1.881087 g / cm^3
# Si number density = 18.853779 Si / 1000 Ang^3
#
#
#
# Elastic Constant Matrix: (Units=GPa)
#
#
# Indices 1 2 3 4 5 6 
#
# 1 49.8931 22.4290 12.8646 0.0000 0.0000 0.0000
# 2 22.4290 117.5729 22.4660 0.0000 0.0000 0.0000
# 3 12.8646 22.4660 89.3234 0.0000 0.0000 0.0000
# 4 0.0000 0.0000 0.0000 11.5660 0.0000 0.0000
# 5 0.0000 0.0000 0.0000 0.0000 31.9860 0.0000
# 6 0.0000 0.0000 0.0000 0.0000 0.0000 19.4991
#
#
#
# Elastic Compliance Matrix: (Units=1/GPa)
#
#
# Indices 1 2 3 4 5 6 
#
# 1 0.022347 -0.003832 -0.002255 0.000000 0.000000 0.000000
# 2 -0.003832 0.009592 -0.001861 0.000000 0.000000 0.000000
# 3 -0.002255 -0.001861 0.011988 0.000000 0.000000 0.000000
# 4 0.000000 0.000000 0.000000 0.086460 0.000000 0.000000
# 5 0.000000 0.000000 0.000000 0.000000 0.031264 0.000000
# 6 0.000000 0.000000 0.000000 0.000000 0.000000 0.051284
#
#
# Mechanical properties :
#
#
# Convention : Reuss Voigt Hill
#
# Bulk Modulus (GPa) = 35.67352 41.36763 38.52058
# Shear Modulus (GPa) = 20.99307 25.87889 23.43598
#
# Velocity S-wave (km/s) = 3.34049 3.70889 3.52950
# Velocity P-wave (km/s) = 5.81728 6.35060 6.08978
#
# Compressibility (1/GPa) = 0.02803199
#
# Stress axis : x y z
#
# Youngs Moduli (GPa) = 44.74887 104.25418 83.41710
#
# Poissons Ratio (x) = 0.39953 0.18807
# Poissons Ratio (y) = 0.17149 0.15520
# Poissons Ratio (z) = 0.10089 0.19397
#
# Static dielectric constant tensor:
#      x y z
#    x 1.636330 0.000000 0.000000 
#    y 0.000000 1.746050 0.000000 
#    z 0.000000 0.000000 1.642400 
# 
# From -- ./inp_files/25573.got.cif
#   From: 2010.05.17/outbox.cif.g08.bks.cpg/sg59_13_cif.got.tgz:25573.got - 2010.06.03 14:40:33.
