data_PCOD9450230
_publ_section_title
;
Structure prediction by ZEFSAII (Michael W. Deem and Ramdas Pophale) SiO2 
 PCOD9450230
Probable space group: P M M N
;
_chemical_formula_sum "Si O2"
_cell_formula_units_Z 48
_cell_length_a 8.764070
_cell_length_b 14.166040
_cell_length_c 21.522263
_cell_angle_alpha 90.000000
_cell_angle_beta 90.000000
_cell_angle_gamma 90.000000
_cell_volume 2672.035573
_symmetry_space_group_name_H-M "P M M N"
_symmetry_group_IT_number 59
_space_group.IT_coordinate_system_code '2'
_symmetry_cell_setting 'orthorhombic'
loop_
_space_group_symop_operation_xyz
x,y,z
1/2-x,1/2-y,z
1/2+x,-y,-z
-x,1/2+y,-z
-x,-y,-z
1/2+x,1/2+y,-z
1/2-x,y,z
x,1/2-y,z
loop_
_atom_site_type_symbol
_atom_site_label
_atom_site_fract_x
_atom_site_fract_y
_atom_site_fract_z
Si Si1 0.436212 0.641072 0.779959
Si Si2 0.926885 0.863459 0.533605
Si Si3 0.065931 0.642051 0.032994
Si Si4 0.567858 0.359311 0.599809
Si Si5 0.567269 0.462704 0.346217
Si Si6 0.934042 0.037785 0.094404
O O1 0.250000 0.642000 0.780536
O O2 0.486336 0.750000 0.781222
O O3 0.483387 0.589275 0.716686
O O4 0.485401 0.584667 0.841297
O O5 0.750000 0.892459 0.529198
O O6 0.933108 0.750000 0.539920
O O7 0.011193 0.886882 0.469277
O O8 0.002978 0.908851 0.593658
O O9 0.250000 0.640225 0.036429
O O10 0.015477 0.750000 0.042161
O O11 0.999686 0.565724 0.080737
O O12 0.022879 0.604020 0.964232
O O13 0.750000 0.366450 0.602165
O O14 0.524029 0.250000 0.609877
O O15 0.492904 0.430858 0.647995
O O16 0.750000 0.461835 0.348401
O O17 0.750000 0.032224 0.095184
#
# Coordination Sequence:
#
# PCOD9450230 Si02
#       6
#     8   8   8   8   8   8
#     4   9  18  33  53  76 101 131 167 204 244 294
#     4  10  20  34  53  77 104 132 164 205 252 301
#     4   9  17  30  50  76 105 135 166 204 251 297
#     4  10  21  37  55  73  96 129 169 211 254 300
#     4  11  21  33  52  76 102 131 165 207 252 300
#     4   9  17  31  52  76 101 132 171 210 245 287
#
# _framework density 17.963833000000001
#
# number of rings (size 3 to 8) (size 9 to 14) (size 15 to 20)
#    0.000    2.333    0.000    3.000    0.000    5.000 
#    0.000    2.500    0.000    8.500    0.000    0.000 
#    0.000    0.000    0.000    0.000    0.000    0.000 
#
# Total GULP energy -267938.153706 kJ/mol
# GULP energy per Si atom -5582.044869 kJ/mol
# Density = 1.792295 g / cm^3
# Si number density = 17.963833 Si / 1000 Ang^3
#
#
#
# Elastic Constant Matrix: (Units=GPa)
#
#
# Indices 1 2 3 4 5 6 
#
# 1 31.8441 30.4975 23.6574 0.0000 0.0000 0.0000
# 2 30.4975 155.8692 91.0235 0.0000 0.0000 0.0000
# 3 23.6574 91.0235 114.9573 0.0000 0.0000 0.0000
# 4 0.0000 0.0000 0.0000 26.0470 0.0000 0.0000
# 5 0.0000 0.0000 0.0000 0.0000 20.6863 0.0000
# 6 0.0000 0.0000 0.0000 0.0000 0.0000 31.3739
#
#
#
# Elastic Compliance Matrix: (Units=1/GPa)
#
#
# Indices 1 2 3 4 5 6 
#
# 1 0.039489 -0.005544 -0.003736 0.000000 0.000000 0.000000
# 2 -0.005544 0.012712 -0.008924 0.000000 0.000000 0.000000
# 3 -0.003736 -0.008924 0.016534 0.000000 0.000000 0.000000
# 4 0.000000 0.000000 0.000000 0.038392 0.000000 0.000000
# 5 0.000000 0.000000 0.000000 0.000000 0.048341 0.000000
# 6 0.000000 0.000000 0.000000 0.000000 0.000000 0.031874
#
#
# Mechanical properties :
#
#
# Convention : Reuss Voigt Hill
#
# Bulk Modulus (GPa) = 30.93628 65.89193 48.41411
# Shear Modulus (GPa) = 21.31945 26.12092 23.72018
#
# Velocity S-wave (km/s) = 3.44873 3.81738 3.63773
# Velocity P-wave (km/s) = 5.75475 7.49599 6.68233
#
# Compressibility (1/GPa) = 0.03232451
#
# Stress axis : x y z
#
# Youngs Moduli (GPa) = 25.32361 78.66493 60.48057
#
# Poissons Ratio (x) = 0.43616 0.22598
# Poissons Ratio (y) = 0.14041 0.53976
# Poissons Ratio (z) = 0.09462 0.70204
#
# Static dielectric constant tensor:
#      x y z
#    x 1.616110 0.000000 0.000000 
#    y 0.000000 1.629060 0.000000 
#    z 0.000000 0.000000 1.587510 
# 
# From -- ./inp_files/25463.got.cif
#   From: 2010.05.17/outbox.cif.g08.bks.cpg/sg59_13_cif.got.tgz:25463.got - 2010.06.03 14:40:33.
