data_PCOD9450011
_publ_section_title
;
Structure prediction by ZEFSAII (Michael W. Deem and Ramdas Pophale) SiO2 
 PCOD9450011
Probable space group: P M M N
;
_chemical_formula_sum "Si O2"
_cell_formula_units_Z 64
_cell_length_a 18.095347
_cell_length_b 7.853584
_cell_length_c 22.168450
_cell_angle_alpha 90.000000
_cell_angle_beta 90.000000
_cell_angle_gamma 90.000000
_cell_volume 3150.432199
_symmetry_space_group_name_H-M "P M M N"
_symmetry_group_IT_number 59
_space_group.IT_coordinate_system_code '2'
_symmetry_cell_setting 'orthorhombic'
loop_
_space_group_symop_operation_xyz
x,y,z
1/2-x,1/2-y,z
1/2+x,-y,-z
-x,1/2+y,-z
-x,-y,-z
1/2+x,1/2+y,-z
1/2-x,y,z
x,1/2-y,z
loop_
_atom_site_type_symbol
_atom_site_label
_atom_site_fract_x
_atom_site_fract_y
_atom_site_fract_z
Si Si1 0.665540 0.541153 0.286698
Si Si2 0.669084 0.455526 0.872406
Si Si3 0.407596 0.453513 0.248452
Si Si4 0.981051 0.044604 0.931986
Si Si5 0.057932 0.052435 0.605465
Si Si6 0.440570 0.049430 0.814438
Si Si7 0.392829 0.446389 0.382546
Si Si8 0.667760 0.447703 0.493641
O O1 0.750000 0.485402 0.293855
O O2 0.665805 0.750000 0.286935
O O3 0.612354 0.489169 0.341618
O O4 0.627525 0.481012 0.224533
O O5 0.750000 0.518377 0.890196
O O6 0.669375 0.250000 0.875757
O O7 0.650358 0.504270 0.803763
O O8 0.600455 0.517260 0.912552
O O9 0.417435 0.250000 0.252142
O O10 0.485694 0.529463 0.226310
O O11 0.384622 0.515049 0.314606
O O12 0.980544 0.250000 0.927102
O O13 0.037645 0.979377 0.880320
O O14 0.000000 0.000000 0.000000
O O15 0.040104 0.250000 0.617527
O O16 0.104146 0.039163 0.544048
O O17 0.980480 0.956605 0.603784
O O18 0.426406 0.250000 0.822282
O O19 0.368761 0.250000 0.383389
O O20 0.349650 0.538637 0.435663
O O21 0.750000 0.515802 0.480587
O O22 0.665749 0.250000 0.475975
#
# Coordination Sequence:
#
# PCOD9450011 Si02
#       8
#     8   8   8   8   8   8   8   8
#     4   9  17  30  53  83 108 134 173 221 269 318
#     4   9  19  36  57  80 108 144 185 226 269 322
#     4  10  20  33  53  81 110 138 172 220 274 322
#     4   9  18  32  53  79 107 143 183 221 262 311
#     4  11  21  36  60  83 107 140 181 226 273 329
#     4   9  17  33  54  76 106 142 181 220 261 318
#     4  11  23  38  57  81 110 143 181 224 272 331
#     4  11  25  42  57  76 106 143 182 227 278 329
#
# _framework density 20.314672999999999
#
# number of rings (size 3 to 8) (size 9 to 14) (size 15 to 20)
#    0.000    2.125    1.250    3.000    0.000    5.750 
#    0.000    3.125    0.000    1.875    0.000    0.000 
#    0.000    0.000    0.000    0.000    0.000    0.000 
#
# Total GULP energy -357329.763297 kJ/mol
# GULP energy per Si atom -5583.277552 kJ/mol
# Density = 2.026844 g / cm^3
# Si number density = 20.314673 Si / 1000 Ang^3
#
#
#
# Elastic Constant Matrix: (Units=GPa)
#
#
# Indices 1 2 3 4 5 6 
#
# 1 55.8626 -3.7422 14.8672 0.0000 0.0000 0.0000
# 2 -3.7422 23.9609 -4.3993 0.0000 0.0000 0.0000
# 3 14.8672 -4.3993 110.9846 0.0000 0.0000 0.0000
# 4 0.0000 0.0000 0.0000 20.9569 0.0000 0.0000
# 5 0.0000 0.0000 0.0000 0.0000 13.2599 0.0000
# 6 0.0000 0.0000 0.0000 0.0000 0.0000 8.7997
#
#
#
# Elastic Compliance Matrix: (Units=1/GPa)
#
#
# Indices 1 2 3 4 5 6 
#
# 1 0.018708 0.002480 -0.002408 0.000000 0.000000 0.000000
# 2 0.002480 0.042369 0.001347 0.000000 0.000000 0.000000
# 3 -0.002408 0.001347 0.009386 0.000000 0.000000 0.000000
# 4 0.000000 0.000000 0.000000 0.047717 0.000000 0.000000
# 5 0.000000 0.000000 0.000000 0.000000 0.075416 0.000000
# 6 0.000000 0.000000 0.000000 0.000000 0.000000 0.113641
#
#
# Mechanical properties :
#
#
# Convention : Reuss Voigt Hill
#
# Bulk Modulus (GPa) = 13.64223 22.69553 18.16888
# Shear Modulus (GPa) = 15.20532 20.87544 18.04038
#
# Velocity S-wave (km/s) = 2.73882 3.20910 2.98324
# Velocity P-wave (km/s) = 4.09042 4.99273 4.56393
#
# Compressibility (1/GPa) = 0.07330181
#
# Stress axis : x y z
#
# Youngs Moduli (GPa) = 53.45314 23.60203 106.53938
#
# Poissons Ratio (x) = -0.05853 0.25652
# Poissons Ratio (y) = -0.13255 -0.14354
# Poissons Ratio (z) = 0.12870 -0.03180
#
# Static dielectric constant tensor:
#      x y z
#    x 1.710520 0.000000 0.000000 
#    y 0.000000 1.735130 0.000000 
#    z 0.000000 0.000000 1.723410 
# 
# From -- ./inp_files/30791.got.cif
#   From: 2010.05.17/outbox.cif.g08.bks.cpg/sg59_16_cif.got.tgz:30791.got - 2010.06.03 14:40:33.
