data_PCOD9450118
_publ_section_title
;
Structure prediction by ZEFSAII (Michael W. Deem and Ramdas Pophale) SiO2 
 PCOD9450118
Probable space group: P M M N
;
_chemical_formula_sum "Si O2"
_cell_formula_units_Z 64
_cell_length_a 14.048786
_cell_length_b 8.994153
_cell_length_c 28.149796
_cell_angle_alpha 90.000000
_cell_angle_beta 90.000000
_cell_angle_gamma 90.000000
_cell_volume 3556.921824
_symmetry_space_group_name_H-M "P M M N"
_symmetry_group_IT_number 59
_space_group.IT_coordinate_system_code '2'
_symmetry_cell_setting 'orthorhombic'
loop_
_space_group_symop_operation_xyz
x,y,z
1/2-x,1/2-y,z
1/2+x,-y,-z
-x,1/2+y,-z
-x,-y,-z
1/2+x,1/2+y,-z
1/2-x,y,z
x,1/2-y,z
loop_
_atom_site_type_symbol
_atom_site_label
_atom_site_fract_x
_atom_site_fract_y
_atom_site_fract_z
Si Si1 0.864249 0.921115 0.480880
Si Si2 0.139202 0.929465 0.131930
Si Si3 0.524377 0.577987 0.203991
Si Si4 0.484969 0.424335 0.050808
Si Si5 0.857912 0.071384 0.580004
Si Si6 0.448752 0.070357 0.620471
Si Si7 0.861924 0.582427 0.108205
Si Si8 0.640183 0.072125 0.286792
O O1 0.750000 0.923189 0.476432
O O2 0.894843 0.750000 0.488336
O O3 0.906188 0.972533 0.430858
O O4 0.887156 0.014475 0.527741
O O5 0.250000 0.966834 0.138332
O O6 0.130604 0.750000 0.127723
O O7 0.071958 0.972596 0.176695
O O8 0.095918 0.001808 0.084242
O O9 0.510889 0.750000 0.218895
O O10 0.603183 0.574647 0.162301
O O11 0.566371 0.485593 0.247245
O O12 0.467285 0.250000 0.045795
O O13 0.581704 0.459638 0.079248
O O14 0.500000 0.500000 0.000000
O O15 0.750000 0.018349 0.589957
O O16 0.856135 0.250000 0.578554
O O17 0.939458 0.028983 0.617381
O O18 0.440511 0.250000 0.624845
O O19 0.392988 0.994511 0.663019
O O20 0.750000 0.566312 0.104469
O O21 0.888785 0.750000 0.091103
O O22 0.750000 0.025988 0.276442
O O23 0.638037 0.250000 0.288440
#
# Coordination Sequence:
#
# PCOD9450118 Si02
#       8
#     8   8   8   8   8   8   8   8
#     4   9  17  29  47  72  99 129 168 211 255 306
#     4   9  19  38  62  85 110 142 183 229 272 316
#     4   9  18  35  59  83 105 134 171 209 256 313
#     4  11  22  35  52  77 112 150 186 224 267 316
#     4   9  18  32  50  73 100 131 169 211 253 300
#     4  10  20  34  52  73 100 136 174 211 254 307
#     4   9  18  34  56  80 105 135 174 218 262 312
#     4  11  24  38  53  77 107 136 167 209 262 315
#
# _framework density 17.993086000000002
#
# number of rings (size 3 to 8) (size 9 to 14) (size 15 to 20)
#    0.000    2.375    0.000    3.375    0.000    6.000 
#    0.000    1.875    0.000    3.750    0.000    0.000 
#    0.000    0.000    0.000    0.000    0.000    0.000 
#
# Total GULP energy -356913.484233 kJ/mol
# GULP energy per Si atom -5576.773191 kJ/mol
# Density = 1.795213 g / cm^3
# Si number density = 17.993086 Si / 1000 Ang^3
#
#
#
# Elastic Constant Matrix: (Units=GPa)
#
#
# Indices 1 2 3 4 5 6 
#
# 1 112.3500 34.8666 55.6504 0.0000 0.0000 0.0000
# 2 34.8666 40.2207 30.0179 0.0000 0.0000 0.0000
# 3 55.6504 30.0179 68.7185 0.0000 0.0000 0.0000
# 4 0.0000 0.0000 0.0000 31.2705 0.0000 0.0000
# 5 0.0000 0.0000 0.0000 0.0000 11.6716 0.0000
# 6 0.0000 0.0000 0.0000 0.0000 0.0000 21.3552
#
#
#
# Elastic Compliance Matrix: (Units=1/GPa)
#
#
# Indices 1 2 3 4 5 6 
#
# 1 0.015830 -0.006165 -0.010127 0.000000 0.000000 0.000000
# 2 -0.006165 0.039290 -0.012170 0.000000 0.000000 0.000000
# 3 -0.010127 -0.012170 0.028069 0.000000 0.000000 0.000000
# 4 0.000000 0.000000 0.000000 0.031979 0.000000 0.000000
# 5 0.000000 0.000000 0.000000 0.000000 0.085678 0.000000
# 6 0.000000 0.000000 0.000000 0.000000 0.000000 0.046827
#
#
# Mechanical properties :
#
#
# Convention : Reuss Voigt Hill
#
# Bulk Modulus (GPa) = 38.07254 51.37321 44.72288
# Shear Modulus (GPa) = 15.95649 19.57644 17.76646
#
# Velocity S-wave (km/s) = 2.98117 3.30206 3.14571
# Velocity P-wave (km/s) = 5.74937 6.56900 6.17281
#
# Compressibility (1/GPa) = 0.02626565
#
# Stress axis : x y z
#
# Youngs Moduli (GPa) = 63.17112 25.45167 35.62609
#
# Poissons Ratio (x) = 0.15691 0.36077
# Poissons Ratio (y) = 0.38945 0.43358
# Poissons Ratio (z) = 0.63971 0.30976
#
# Static dielectric constant tensor:
#      x y z
#    x 1.644870 0.000000 0.000000 
#    y 0.000000 1.618000 0.000000 
#    z 0.000000 0.000000 1.593850 
# 
# From -- ./inp_files/32200.got.cif
#   From: 2010.05.17/outbox.cif.g08.bks.cpg/sg59_17_cif.got.tgz:32200.got - 2010.06.03 14:40:33.
