data_PCOD9450924
_publ_section_title
;
Structure prediction by ZEFSAII (Michael W. Deem and Ramdas Pophale) SiO2 
 PCOD9450924
Probable space group: P M M N
;
_chemical_formula_sum "Si O2"
_cell_formula_units_Z 56
_cell_length_a 23.034756
_cell_length_b 8.913338
_cell_length_c 14.425445
_cell_angle_alpha 90.000000
_cell_angle_beta 90.000000
_cell_angle_gamma 90.000000
_cell_volume 2961.782830
_symmetry_space_group_name_H-M "P M M N"
_symmetry_group_IT_number 59
_space_group.IT_coordinate_system_code '2'
_symmetry_cell_setting 'orthorhombic'
loop_
_space_group_symop_operation_xyz
x,y,z
1/2-x,1/2-y,z
1/2+x,-y,-z
-x,1/2+y,-z
-x,-y,-z
1/2+x,1/2+y,-z
1/2-x,y,z
x,1/2-y,z
loop_
_atom_site_type_symbol
_atom_site_label
_atom_site_fract_x
_atom_site_fract_y
_atom_site_fract_z
Si Si1 0.185688 0.928890 0.999345
Si Si2 0.750000 0.070008 0.665568
Si Si3 0.658236 0.930355 0.805113
Si Si4 0.133707 0.425204 0.651868
Si Si5 0.250000 0.073360 0.537675
Si Si6 0.477749 0.430936 0.208294
Si Si7 0.094105 0.072836 0.861540
Si Si8 0.978789 0.074735 0.407588
O O1 0.250000 0.958895 0.957954
O O2 0.179653 0.750000 0.009919
O O3 0.133701 0.992694 0.937500
O O4 0.183586 0.006742 0.099343
O O5 0.750000 0.250000 0.672067
O O6 0.693811 0.003743 0.720222
O O7 0.750000 0.018267 0.558165
O O8 0.664231 0.750000 0.799107
O O9 0.589395 0.966426 0.809838
O O10 0.117873 0.250000 0.634496
O O11 0.194861 0.452808 0.603730
O O12 0.126625 0.447110 0.762209
O O13 0.088044 0.535334 0.605599
O O14 0.250000 0.250000 0.511493
O O15 0.484739 0.250000 0.201739
O O16 0.529060 0.505949 0.148300
O O17 0.490349 0.480541 0.313948
O O18 0.090340 0.250000 0.880993
O O19 0.989189 0.250000 0.413226
O O20 0.000000 0.000000 0.500000
#
# Coordination Sequence:
#
# PCOD9450924 Si02
#       8
#     8   4   8   8   4   8   8   8
#     4  11  24  41  62  90 124 162 199 248 304 357
#     4  12  26  42  59  88 125 158 199 252 302 358
#     4  11  23  42  67  90 116 159 206 251 299 357
#     4   9  20  38  59  86 118 154 198 246 292 346
#     4  10  22  40  61  84 117 160 201 242 294 352
#     4   9  21  40  61  86 119 156 198 247 302 356
#     4  10  21  38  64  94 123 157 200 248 301 362
#     4  10  20  35  56  83 116 154 196 244 295 355
#
# _framework density 18.907532
#
# number of rings (size 3 to 8) (size 9 to 14) (size 15 to 20)
#    0.000    1.857    0.714    2.357    3.000    4.286 
#    0.000    0.000    0.000    0.000    0.000    0.000 
#    0.000    0.000    0.000    0.000    0.000    0.000 
#
# Total GULP energy -312583.235192 kJ/mol
# GULP energy per Si atom -5581.843486 kJ/mol
# Density = 1.886450 g / cm^3
# Si number density = 18.907532 Si / 1000 Ang^3
#
#
#
# Elastic Constant Matrix: (Units=GPa)
#
#
# Indices 1 2 3 4 5 6 
#
# 1 131.5961 53.6780 41.7975 0.0000 0.0000 0.0000
# 2 53.6780 63.7132 27.5569 0.0000 0.0000 0.0000
# 3 41.7975 27.5569 37.1963 0.0000 0.0000 0.0000
# 4 0.0000 0.0000 0.0000 28.8459 0.0000 0.0000
# 5 0.0000 0.0000 0.0000 0.0000 102.0279 0.0000
# 6 0.0000 0.0000 0.0000 0.0000 0.0000 30.9543
#
#
#
# Elastic Compliance Matrix: (Units=1/GPa)
#
#
# Indices 1 2 3 4 5 6 
#
# 1 0.013752 -0.007214 -0.010109 0.000000 0.000000 0.000000
# 2 -0.007214 0.026880 -0.011808 0.000000 0.000000 0.000000
# 3 -0.010109 -0.011808 0.046992 0.000000 0.000000 0.000000
# 4 0.000000 0.000000 0.000000 0.034667 0.000000 0.000000
# 5 0.000000 0.000000 0.000000 0.000000 0.009801 0.000000
# 6 0.000000 0.000000 0.000000 0.000000 0.000000 0.032306
#
#
# Mechanical properties :
#
#
# Convention : Reuss Voigt Hill
#
# Bulk Modulus (GPa) = 34.05692 53.17446 43.61569
# Shear Modulus (GPa) = 21.51018 39.66381 30.58700
#
# Velocity S-wave (km/s) = 3.37657 4.58512 4.02645
# Velocity P-wave (km/s) = 5.76655 7.49771 6.68837
#
# Compressibility (1/GPa) = 0.02936260
#
# Stress axis : x y z
#
# Youngs Moduli (GPa) = 72.71422 37.20212 21.28025
#
# Poissons Ratio (x) = 0.26838 0.21513
# Poissons Ratio (y) = 0.52456 0.25127
# Poissons Ratio (z) = 0.73508 0.43928
#
# Static dielectric constant tensor:
#      x y z
#    x 1.678450 0.000000 0.000000 
#    y 0.000000 1.614250 0.000000 
#    z 0.000000 0.000000 1.637560 
# 
# From -- ./inp_files/24400.got.cif
#   From: 2010.05.17/outbox.cif.g08.bks.cpg/sg59_13_cif.got.tgz:24400.got - 2010.06.03 14:40:33.
