data_PCOD9450814
_publ_section_title
;
Structure prediction by ZEFSAII (Michael W. Deem and Ramdas Pophale) SiO2 
 PCOD9450814
Probable space group: P M M N
;
_chemical_formula_sum "Si O2"
_cell_formula_units_Z 56
_cell_length_a 14.484777
_cell_length_b 8.692962
_cell_length_c 22.912490
_cell_angle_alpha 90.000000
_cell_angle_beta 90.000000
_cell_angle_gamma 90.000000
_cell_volume 2885.040293
_symmetry_space_group_name_H-M "P M M N"
_symmetry_group_IT_number 59
_space_group.IT_coordinate_system_code '2'
_symmetry_cell_setting 'orthorhombic'
loop_
_space_group_symop_operation_xyz
x,y,z
1/2-x,1/2-y,z
1/2+x,-y,-z
-x,1/2+y,-z
-x,-y,-z
1/2+x,1/2+y,-z
1/2-x,y,z
x,1/2-y,z
loop_
_atom_site_type_symbol
_atom_site_label
_atom_site_fract_x
_atom_site_fract_y
_atom_site_fract_z
Si Si1 0.384933 0.568795 0.854738
Si Si2 0.446800 0.565408 0.293586
Si Si3 0.098658 0.070203 0.170885
Si Si4 0.347653 0.433458 0.731501
Si Si5 0.642977 0.935215 0.463724
Si Si6 0.750000 0.066514 0.912705
Si Si7 0.750000 0.063649 0.044929
Si Si8 0.544974 0.566616 0.585910
O O1 0.362763 0.750000 0.844922
O O2 0.494467 0.554108 0.852499
O O3 0.348747 0.472162 0.800115
O O4 0.337864 0.520873 0.915204
O O5 0.445577 0.750000 0.291677
O O6 0.398034 0.502155 0.235606
O O7 0.553930 0.507747 0.290534
O O8 0.412870 0.505595 0.355616
O O9 0.121438 0.250000 0.175174
O O10 0.163545 0.989443 0.124596
O O11 0.250000 0.492852 0.706536
O O12 0.348564 0.250000 0.722744
O O13 0.750000 0.984437 0.453959
O O14 0.641045 0.750000 0.455862
O O15 0.608480 0.970351 0.529695
O O16 0.559379 0.004092 0.425228
O O17 0.750000 0.250000 0.915296
O O18 0.750000 0.004625 0.979069
O O19 0.750000 0.250000 0.041153
O O20 0.540708 0.750000 0.591212
#
# Coordination Sequence:
#
# PCOD9450814 Si02
#       8
#     8   8   8   8   8   4   4   8
#     4   9  17  32  55  79 105 138 175 218 273 333
#     4  10  20  35  55  79 111 150 188 226 274 334
#     4  10  21  38  58  80 108 143 185 236 283 324
#     4   9  17  29  47  74 106 139 176 220 271 326
#     4   9  19  37  59  81 111 151 187 225 278 332
#     4  11  23  39  57  77 107 147 186 227 282 339
#     4   9  18  33  55  83 111 141 178 221 274 341
#     4  10  20  35  56  84 115 145 186 235 277 325
#
# _framework density 19.410474000000001
#
# number of rings (size 3 to 8) (size 9 to 14) (size 15 to 20)
#    0.000    2.429    0.714    1.500    0.000    3.143 
#    1.286    2.857    0.000    0.000    0.000    0.000 
#    0.000    0.000    0.000    0.000    0.000    0.000 
#
# Total GULP energy -312276.649623 kJ/mol
# GULP energy per Si atom -5576.368743 kJ/mol
# Density = 1.936629 g / cm^3
# Si number density = 19.410474 Si / 1000 Ang^3
#
#
#
# Elastic Constant Matrix: (Units=GPa)
#
#
# Indices 1 2 3 4 5 6 
#
# 1 37.9249 10.3300 5.1356 0.0000 0.0000 0.0000
# 2 10.3300 25.7145 26.9438 0.0000 0.0000 0.0000
# 3 5.1356 26.9438 132.8320 0.0000 0.0000 0.0000
# 4 0.0000 0.0000 0.0000 27.9300 0.0000 0.0000
# 5 0.0000 0.0000 0.0000 0.0000 9.2759 0.0000
# 6 0.0000 0.0000 0.0000 0.0000 0.0000 18.3734
#
#
#
# Elastic Compliance Matrix: (Units=1/GPa)
#
#
# Indices 1 2 3 4 5 6 
#
# 1 0.029881 -0.013707 0.001625 0.000000 0.000000 0.000000
# 2 -0.013707 0.055672 -0.010763 0.000000 0.000000 0.000000
# 3 0.001625 -0.010763 0.009649 0.000000 0.000000 0.000000
# 4 0.000000 0.000000 0.000000 0.035804 0.000000 0.000000
# 5 0.000000 0.000000 0.000000 0.000000 0.107806 0.000000
# 6 0.000000 0.000000 0.000000 0.000000 0.000000 0.054426
#
#
# Mechanical properties :
#
#
# Convention : Reuss Voigt Hill
#
# Bulk Modulus (GPa) = 20.19660 31.25449 25.72554
# Shear Modulus (GPa) = 14.06743 21.38667 17.72705
#
# Velocity S-wave (km/s) = 2.69501 3.32295 3.02532
# Velocity P-wave (km/s) = 4.48461 5.55513 5.04833
#
# Compressibility (1/GPa) = 0.04951329
#
# Stress axis : x y z
#
# Youngs Moduli (GPa) = 33.46583 17.96241 103.64213
#
# Poissons Ratio (x) = 0.24620 -0.16841
# Poissons Ratio (y) = 0.45870 1.11546
# Poissons Ratio (z) = -0.05438 0.19332
#
# Static dielectric constant tensor:
#      x y z
#    x 1.715370 0.000000 0.000000 
#    y 0.000000 1.656990 0.000000 
#    z 0.000000 0.000000 1.672030 
# 
# From -- ./inp_files/30509.got.cif
#   From: 2010.05.17/outbox.cif.g08.bks.cpg/sg59_16_cif.got.tgz:30509.got - 2010.06.03 14:40:33.
