data_PCOD9450931
_publ_section_title
;
Structure prediction by ZEFSAII (Michael W. Deem and Ramdas Pophale) SiO2 
 PCOD9450931
Probable space group: P M M N
;
_chemical_formula_sum "Si O2"
_cell_formula_units_Z 56
_cell_length_a 15.970333
_cell_length_b 8.895743
_cell_length_c 21.377877
_cell_angle_alpha 90.000000
_cell_angle_beta 90.000000
_cell_angle_gamma 90.000000
_cell_volume 3037.111759
_symmetry_space_group_name_H-M "P M M N"
_symmetry_group_IT_number 59
_space_group.IT_coordinate_system_code '2'
_symmetry_cell_setting 'orthorhombic'
loop_
_space_group_symop_operation_xyz
x,y,z
1/2-x,1/2-y,z
1/2+x,-y,-z
-x,1/2+y,-z
-x,-y,-z
1/2+x,1/2+y,-z
1/2-x,y,z
x,1/2-y,z
loop_
_atom_site_type_symbol
_atom_site_label
_atom_site_fract_x
_atom_site_fract_y
_atom_site_fract_z
Si Si1 0.407084 0.071530 0.809911
Si Si2 0.654837 0.925168 0.865112
Si Si3 0.750000 0.432989 0.405468
Si Si4 0.558920 0.924660 0.741439
Si Si5 0.906751 0.428155 0.492687
Si Si6 0.654018 0.574087 0.616330
Si Si7 0.001319 0.928066 0.068063
Si Si8 0.750000 0.429804 0.259412
O O1 0.393224 0.250000 0.811223
O O2 0.431960 0.020942 0.880543
O O3 0.486691 0.030735 0.767025
O O4 0.329667 0.989786 0.778317
O O5 0.750000 0.965618 0.877803
O O6 0.641375 0.750000 0.883117
O O7 0.633999 0.934330 0.791521
O O8 0.589257 0.027453 0.900825
O O9 0.750000 0.250000 0.407992
O O10 0.837139 0.480051 0.440578
O O11 0.750000 0.479389 0.332527
O O12 0.529582 0.750000 0.742170
O O13 0.591850 0.960346 0.672951
O O14 0.918020 0.250000 0.483726
O O15 0.862494 0.468264 0.557948
O O16 0.000000 0.500000 0.500000
O O17 0.750000 0.560429 0.637579
O O18 0.641217 0.750000 0.598182
O O19 0.993209 0.750000 0.062252
O O20 0.000000 0.000000 0.000000
O O21 0.750000 0.250000 0.260014
#
# Coordination Sequence:
#
# PCOD9450931 Si02
#       8
#     8   8   4   8   8   8   8   4
#     4  10  22  40  59  87 120 150 189 244 294 341
#     4   9  17  32  55  83 113 147 186 225 272 330
#     4   9  22  43  63  83 117 156 199 252 307 359
#     4   9  18  33  56  83 114 151 188 229 278 343
#     4  11  23  41  60  83 114 152 196 248 304 365
#     4  10  20  35  56  84 116 149 189 237 288 346
#     4  10  21  38  60  84 117 154 189 231 283 337
#     4  11  23  41  65  87 111 154 203 248 297 355
#
# _framework density 18.438569999999999
#
# number of rings (size 3 to 8) (size 9 to 14) (size 15 to 20)
#    0.000    2.143    0.714    1.929    2.000    4.286 
#    1.286    2.143    0.000    2.571    0.000    0.000 
#    0.000    0.000    0.000    0.000    0.000    0.000 
#
# Total GULP energy -312267.573251 kJ/mol
# GULP energy per Si atom -5576.206665 kJ/mol
# Density = 1.839660 g / cm^3
# Si number density = 18.438570 Si / 1000 Ang^3
#
#
#
# Elastic Constant Matrix: (Units=GPa)
#
#
# Indices 1 2 3 4 5 6 
#
# 1 108.2687 34.5030 58.0757 0.0000 0.0000 0.0000
# 2 34.5030 38.1043 43.2761 0.0000 0.0000 0.0000
# 3 58.0757 43.2761 130.1590 0.0000 0.0000 0.0000
# 4 0.0000 0.0000 0.0000 28.2525 0.0000 0.0000
# 5 0.0000 0.0000 0.0000 0.0000 16.4245 0.0000
# 6 0.0000 0.0000 0.0000 0.0000 0.0000 24.3069
#
#
#
# Elastic Compliance Matrix: (Units=1/GPa)
#
#
# Indices 1 2 3 4 5 6 
#
# 1 0.013770 -0.008822 -0.003211 0.000000 0.000000 0.000000
# 2 -0.008822 0.047818 -0.011963 0.000000 0.000000 0.000000
# 3 -0.003211 -0.011963 0.013093 0.000000 0.000000 0.000000
# 4 0.000000 0.000000 0.000000 0.035395 0.000000 0.000000
# 5 0.000000 0.000000 0.000000 0.000000 0.060885 0.000000
# 6 0.000000 0.000000 0.000000 0.000000 0.000000 0.041141
#
#
# Mechanical properties :
#
#
# Convention : Reuss Voigt Hill
#
# Bulk Modulus (GPa) = 37.46674 60.91573 49.19123
# Shear Modulus (GPa) = 18.58812 23.17526 20.88169
#
# Velocity S-wave (km/s) = 3.17852 3.54911 3.36892
# Velocity P-wave (km/s) = 5.81675 7.06426 6.47064
#
# Compressibility (1/GPa) = 0.02669034
#
# Stress axis : x y z
#
# Youngs Moduli (GPa) = 72.62192 20.91255 76.37669
#
# Poissons Ratio (x) = 0.18449 0.24524
# Poissons Ratio (y) = 0.64066 0.91367
# Poissons Ratio (z) = 0.23318 0.25017
#
# Static dielectric constant tensor:
#      x y z
#    x 1.647860 0.000000 0.000000 
#    y 0.000000 1.632240 0.000000 
#    z 0.000000 0.000000 1.630030 
# 
# From -- ./inp_files/30453.got.cif
#   From: 2010.05.17/outbox.cif.g08.bks.cpg/sg59_16_cif.got.tgz:30453.got - 2010.06.03 14:40:33.
