data_PCOD9450518
_publ_section_title
;
Structure prediction by ZEFSAII (Michael W. Deem and Ramdas Pophale) SiO2 
 PCOD9450518
Probable space group: P M M N
;
_chemical_formula_sum "Si O2"
_cell_formula_units_Z 56
_cell_length_a 8.943288
_cell_length_b 19.976319
_cell_length_c 17.665446
_cell_angle_alpha 90.000000
_cell_angle_beta 90.000000
_cell_angle_gamma 90.000000
_cell_volume 3156.002130
_symmetry_space_group_name_H-M "P M M N"
_symmetry_group_IT_number 59
_space_group.IT_coordinate_system_code '2'
_symmetry_cell_setting 'orthorhombic'
loop_
_space_group_symop_operation_xyz
x,y,z
1/2-x,1/2-y,z
1/2+x,-y,-z
-x,1/2+y,-z
-x,-y,-z
1/2+x,1/2+y,-z
1/2-x,y,z
x,1/2-y,z
loop_
_atom_site_type_symbol
_atom_site_label
_atom_site_fract_x
_atom_site_fract_y
_atom_site_fract_z
Si Si1 0.929954 0.586022 0.819801
Si Si2 0.070692 0.564054 0.227495
Si Si3 0.571912 0.672976 0.674048
Si Si4 0.428828 0.672226 0.952589
Si Si5 0.428439 0.328180 0.883257
Si Si6 0.427128 0.902659 0.540931
Si Si7 0.072261 0.050629 0.608291
O O1 0.750000 0.591859 0.827768
O O2 0.967673 0.508068 0.809496
O O3 0.973609 0.624982 0.742987
O O4 0.007319 0.622263 0.889988
O O5 0.250000 0.569505 0.229288
O O6 0.000495 0.622932 0.177907
O O7 0.007522 0.564526 0.312558
O O8 0.750000 0.664012 0.662250
O O9 0.544587 0.750000 0.694637
O O10 0.487914 0.652970 0.597749
O O11 0.250000 0.666276 0.957758
O O12 0.464704 0.750000 0.932711
O O13 0.501554 0.658442 0.034188
O O14 0.250000 0.337507 0.886122
O O15 0.458480 0.250000 0.865448
O O16 0.250000 0.897223 0.529636
O O17 0.509252 0.904916 0.460434
O O18 0.457745 0.973947 0.582370
O O19 0.250000 0.059031 0.615761
#
# Coordination Sequence:
#
# PCOD9450518 Si02
#       7
#     8   8   8   8   8   8   8
#     4  10  21  36  56  83 116 153 192 230 279 340
#     4  11  22  37  60  88 117 147 186 237 285 334
#     4  10  20  35  55  80 115 156 194 234 280 335
#     4  10  21  37  58  84 114 150 193 238 282 331
#     4  10  22  41  63  84 110 147 188 231 286 349
#     4  10  20  34  55  81 110 146 188 233 278 329
#     4  10  20  35  57  82 111 146 185 229 279 335
#
# _framework density 17.743967999999999
#
# number of rings (size 3 to 8) (size 9 to 14) (size 15 to 20)
#    0.000    1.857    1.429    2.571    0.000    6.000 
#    0.000    0.714    0.000    4.286    0.000    0.000 
#    0.000    0.000    0.000    0.000    0.000    0.000 
#
# Total GULP energy -312795.356227 kJ/mol
# GULP energy per Si atom -5585.631361 kJ/mol
# Density = 1.770358 g / cm^3
# Si number density = 17.743968 Si / 1000 Ang^3
#
#
#
# Elastic Constant Matrix: (Units=GPa)
#
#
# Indices 1 2 3 4 5 6 
#
# 1 57.5994 56.6518 71.7665 0.0000 0.0000 0.0000
# 2 56.6518 88.8573 83.0107 0.0000 0.0000 0.0000
# 3 71.7665 83.0107 153.7626 0.0000 0.0000 0.0000
# 4 0.0000 0.0000 0.0000 29.0774 0.0000 0.0000
# 5 0.0000 0.0000 0.0000 0.0000 37.0429 0.0000
# 6 0.0000 0.0000 0.0000 0.0000 0.0000 28.0447
#
#
#
# Elastic Compliance Matrix: (Units=1/GPa)
#
#
# Indices 1 2 3 4 5 6 
#
# 1 0.059445 -0.024170 -0.014697 0.000000 0.000000 0.000000
# 2 -0.024170 0.032533 -0.006282 0.000000 0.000000 0.000000
# 3 -0.014697 -0.006282 0.016754 0.000000 0.000000 0.000000
# 4 0.000000 0.000000 0.000000 0.034391 0.000000 0.000000
# 5 0.000000 0.000000 0.000000 0.000000 0.026996 0.000000
# 6 0.000000 0.000000 0.000000 0.000000 0.000000 0.035657
#
#
# Mechanical properties :
#
#
# Convention : Reuss Voigt Hill
#
# Bulk Modulus (GPa) = 54.24615 80.34194 67.29404
# Shear Modulus (GPa) = 16.54427 24.75235 20.64831
#
# Velocity S-wave (km/s) = 3.05682 3.73898 3.41498
# Velocity P-wave (km/s) = 6.56482 8.00105 7.31825
#
# Compressibility (1/GPa) = 0.01843449
#
# Stress axis : x y z
#
# Youngs Moduli (GPa) = 16.82219 30.73822 59.68585
#
# Poissons Ratio (x) = 0.74295 0.87718
# Poissons Ratio (y) = 0.40660 0.37495
# Poissons Ratio (z) = 0.24723 0.19310
#
# Static dielectric constant tensor:
#      x y z
#    x 1.584830 0.000000 0.000000 
#    y 0.000000 1.597440 0.000000 
#    z 0.000000 0.000000 1.568650 
# 
# From -- ./inp_files/20894.got.cif
#   From: 2010.05.17/outbox.cif.g08.bks.cpg/sg59_11_cif.got.tgz:20894.got - 2010.06.03 14:40:33.
