data_PCOD9450271
_publ_section_title
;
Structure prediction by ZEFSAII (Michael W. Deem and Ramdas Pophale) SiO2 
 PCOD9450271
Probable space group: P M M N
;
_chemical_formula_sum "Si O2"
_cell_formula_units_Z 48
_cell_length_a 8.651353
_cell_length_b 14.576206
_cell_length_c 21.770026
_cell_angle_alpha 90.000000
_cell_angle_beta 90.000000
_cell_angle_gamma 90.000000
_cell_volume 2745.285258
_symmetry_space_group_name_H-M "P M M N"
_symmetry_group_IT_number 59
_space_group.IT_coordinate_system_code '2'
_symmetry_cell_setting 'orthorhombic'
loop_
_space_group_symop_operation_xyz
x,y,z
1/2-x,1/2-y,z
1/2+x,-y,-z
-x,1/2+y,-z
-x,-y,-z
1/2+x,1/2+y,-z
1/2-x,y,z
x,1/2-y,z
loop_
_atom_site_type_symbol
_atom_site_label
_atom_site_fract_x
_atom_site_fract_y
_atom_site_fract_z
Si Si1 0.564481 0.356491 0.165154
Si Si2 0.936654 0.144059 0.504642
Si Si3 0.935579 0.502007 0.931591
Si Si4 0.434956 0.499219 0.598979
Si Si5 0.937893 0.145792 0.831804
Si Si6 0.064518 0.007128 0.264494
O O1 0.750000 0.362254 0.163790
O O2 0.519272 0.250000 0.164520
O O3 0.496993 0.411558 0.107146
O O4 0.502950 0.408368 0.225538
O O5 0.750000 0.140903 0.509632
O O6 0.984335 0.250000 0.501387
O O7 0.007279 0.090270 0.562335
O O8 0.980078 0.085828 0.444047
O O9 0.750000 0.504739 0.932782
O O10 0.983399 0.412219 0.892022
O O11 0.000000 0.500000 0.000000
O O12 0.250000 0.497701 0.603468
O O13 0.506332 0.505513 0.666221
O O14 0.750000 0.148892 0.831752
O O15 0.995012 0.250000 0.830867
O O16 0.983388 0.084664 0.773003
O O17 0.250000 0.012066 0.262986
#
# Coordination Sequence:
#
# PCOD9450271 Si02
#       6
#     8   8   8   8   8   8
#     4  10  21  37  56  77 104 140 180 223 270 315
#     4   9  19  36  55  74 100 137 178 217 260 312
#     4  10  20  34  54  79 107 139 175 217 265 316
#     4  10  20  34  53  78 107 137 172 216 264 314
#     4   8  16  32  52  73  98 131 171 210 249 301
#     4  10  20  34  54  79 106 138 174 215 264 315
#
# _framework density 17.484521000000001
#
# number of rings (size 3 to 8) (size 9 to 14) (size 15 to 20)
#    0.000    2.500    0.000    3.000    0.000    4.333 
#    0.000    5.000    0.000   17.000    0.000    0.000 
#    0.000    0.000    0.000    0.000    0.000    0.000 
#
# Total GULP energy -267802.120857 kJ/mol
# GULP energy per Si atom -5579.210851 kJ/mol
# Density = 1.744473 g / cm^3
# Si number density = 17.484521 Si / 1000 Ang^3
#
#
#
# Elastic Constant Matrix: (Units=GPa)
#
#
# Indices 1 2 3 4 5 6 
#
# 1 42.2006 46.9052 46.9905 0.0000 0.0000 0.0000
# 2 46.9052 190.1246 99.5591 0.0000 0.0000 0.0000
# 3 46.9905 99.5591 186.1182 0.0000 0.0000 0.0000
# 4 0.0000 0.0000 0.0000 5.6210 0.0000 0.0000
# 5 0.0000 0.0000 0.0000 0.0000 36.1270 0.0000
# 6 0.0000 0.0000 0.0000 0.0000 0.0000 24.4844
#
#
#
# Elastic Compliance Matrix: (Units=1/GPa)
#
#
# Indices 1 2 3 4 5 6 
#
# 1 0.037210 -0.005918 -0.006229 0.000000 0.000000 0.000000
# 2 -0.005918 0.008248 -0.002918 0.000000 0.000000 0.000000
# 3 -0.006229 -0.002918 0.008506 0.000000 0.000000 0.000000
# 4 0.000000 0.000000 0.000000 0.177905 0.000000 0.000000
# 5 0.000000 0.000000 0.000000 0.000000 0.027680 0.000000
# 6 0.000000 0.000000 0.000000 0.000000 0.000000 0.040842
#
#
# Mechanical properties :
#
#
# Convention : Reuss Voigt Hill
#
# Bulk Modulus (GPa) = 41.95581 89.48365 65.71973
# Shear Modulus (GPa) = 14.77253 28.24572 21.50913
#
# Velocity S-wave (km/s) = 2.90986 4.02365 3.51120
# Velocity P-wave (km/s) = 5.94456 8.53676 7.35575
#
# Compressibility (1/GPa) = 0.02383460
#
# Stress axis : x y z
#
# Youngs Moduli (GPa) = 26.87428 121.24728 117.56017
#
# Poissons Ratio (x) = 0.71758 0.73227
# Poissons Ratio (y) = 0.15905 0.34300
# Poissons Ratio (z) = 0.16740 0.35375
#
# Static dielectric constant tensor:
#      x y z
#    x 1.592690 0.000000 0.000000 
#    y 0.000000 1.588670 0.000000 
#    z 0.000000 0.000000 1.561210 
# 
# From -- ./inp_files/25491.got.cif
#   From: 2010.05.17/outbox.cif.g08.bks.cpg/sg59_13_cif.got.tgz:25491.got - 2010.06.03 14:40:33.
