data_PCOD9450286
_publ_section_title
;
Structure prediction by ZEFSAII (Michael W. Deem and Ramdas Pophale) SiO2 
 PCOD9450286
Probable space group: P M M N
;
_chemical_formula_sum "Si O2"
_cell_formula_units_Z 48
_cell_length_a 13.970075
_cell_length_b 14.017755
_cell_length_c 10.335322
_cell_angle_alpha 90.000000
_cell_angle_beta 90.000000
_cell_angle_gamma 90.000000
_cell_volume 2023.956688
_symmetry_space_group_name_H-M "P M M N"
_symmetry_group_IT_number 59
_space_group.IT_coordinate_system_code '2'
_symmetry_cell_setting 'orthorhombic'
loop_
_space_group_symop_operation_xyz
x,y,z
1/2-x,1/2-y,z
1/2+x,-y,-z
-x,1/2+y,-z
-x,-y,-z
1/2+x,1/2+y,-z
1/2-x,y,z
x,1/2-y,z
loop_
_atom_site_type_symbol
_atom_site_label
_atom_site_fract_x
_atom_site_fract_y
_atom_site_fract_z
Si Si1 0.138407 0.852882 0.690214
Si Si2 0.861298 0.924611 0.258635
Si Si3 0.858692 0.854092 0.803809
Si Si4 0.640570 0.435886 0.775018
Si Si5 0.000749 0.642833 0.039113
Si Si6 0.990397 0.391746 0.545628
O O1 0.250000 0.857152 0.643670
O O2 0.131932 0.750000 0.764012
O O3 0.060780 0.845964 0.576510
O O4 0.122721 0.959284 0.748114
O O5 0.750000 0.907780 0.253552
O O6 0.916004 0.879578 0.138880
O O7 0.907086 0.876898 0.387276
O O8 0.750000 0.856303 0.863888
O O9 0.865220 0.750000 0.738324
O O10 0.862981 0.953447 0.729164
O O11 0.947541 0.860440 0.902090
O O12 0.750000 0.406529 0.785628
O O13 0.586737 0.424964 0.912967
O O14 0.582106 0.380242 0.666475
O O15 0.036851 0.750000 0.058352
O O16 0.000000 0.500000 0.500000
#
# Coordination Sequence:
#
# PCOD9450286 Si02
#       6
#     8   8   8   8   8   8
#     4   9  17  31  52  75 100 133 172 214 264 323
#     4   9  18  32  50  74 102 132 172 219 263 310
#     4   9  18  34  57  83 110 141 175 212 261 322
#     4  10  20  34  54  80 108 138 177 224 270 315
#     4  10  20  34  53  78 108 143 181 217 259 311
#     4   9  18  32  48  71 100 133 171 213 263 318
#
# _framework density 23.715921999999999
#
# number of rings (size 3 to 8) (size 9 to 14) (size 15 to 20)
#    0.000    2.667    0.000    1.500    0.000    4.667 
#    0.000    7.500    0.000    2.000    0.000   16.333 
#    0.000    0.000    0.000    0.000    0.000    0.000 
#
# Total GULP energy -267488.203623 kJ/mol
# GULP energy per Si atom -5572.670909 kJ/mol
# Density = 2.366194 g / cm^3
# Si number density = 23.715922 Si / 1000 Ang^3
#
#
#
# Elastic Constant Matrix: (Units=GPa)
#
#
# Indices 1 2 3 4 5 6 
#
# 1 150.1894 4.1325 20.4875 0.0000 0.0000 0.0000
# 2 4.1325 95.6829 -13.0221 0.0000 0.0000 0.0000
# 3 20.4875 -13.0221 24.6450 0.0000 0.0000 0.0000
# 4 0.0000 0.0000 0.0000 9.0374 0.0000 0.0000
# 5 0.0000 0.0000 0.0000 0.0000 19.2063 0.0000
# 6 0.0000 0.0000 0.0000 0.0000 0.0000 22.2426
#
#
#
# Elastic Compliance Matrix: (Units=1/GPa)
#
#
# Indices 1 2 3 4 5 6 
#
# 1 0.007655 -0.001289 -0.007045 0.000000 0.000000 0.000000
# 2 -0.001289 0.011478 0.007137 0.000000 0.000000 0.000000
# 3 -0.007045 0.007137 0.050203 0.000000 0.000000 0.000000
# 4 0.000000 0.000000 0.000000 0.110651 0.000000 0.000000
# 5 0.000000 0.000000 0.000000 0.000000 0.052066 0.000000
# 6 0.000000 0.000000 0.000000 0.000000 0.000000 0.044959
#
#
# Mechanical properties :
#
#
# Convention : Reuss Voigt Hill
#
# Bulk Modulus (GPa) = 14.93835 32.63477 23.78656
# Shear Modulus (GPa) = 16.57161 27.35855 21.96508
#
# Velocity S-wave (km/s) = 2.64626 3.40015 3.04661
# Velocity P-wave (km/s) = 3.95594 5.40419 4.73575
#
# Compressibility (1/GPa) = 0.06694179
#
# Stress axis : x y z
#
# Youngs Moduli (GPa) = 130.63857 87.12195 19.91896
#
# Poissons Ratio (x) = 0.11233 0.14032
# Poissons Ratio (y) = 0.16844 -0.14216
# Poissons Ratio (z) = 0.92031 -0.62177
#
# Static dielectric constant tensor:
#      x y z
#    x 1.880730 0.000000 0.000000 
#    y 0.000000 2.050950 0.000000 
#    z 0.000000 0.000000 1.938210 
# 
# From -- ./inp_files/16803.got.cif
#   From: 2010.05.17/outbox.cif.g08.bks.cpg/sg59_9_cif.got.tgz:16803.got - 2010.06.03 14:40:33.
