data_PCOD9450787
_publ_section_title
;
Structure prediction by ZEFSAII (Michael W. Deem and Ramdas Pophale) SiO2 
 PCOD9450787
Probable space group: P M M N
;
_chemical_formula_sum "Si O2"
_cell_formula_units_Z 64
_cell_length_a 8.472776
_cell_length_b 34.696222
_cell_length_c 11.223576
_cell_angle_alpha 90.000000
_cell_angle_beta 90.000000
_cell_angle_gamma 90.000000
_cell_volume 3299.431866
_symmetry_space_group_name_H-M "P M M N"
_symmetry_group_IT_number 59
_space_group.IT_coordinate_system_code '2'
_symmetry_cell_setting 'orthorhombic'
loop_
_space_group_symop_operation_xyz
x,y,z
1/2-x,1/2-y,z
1/2+x,-y,-z
-x,1/2+y,-z
-x,-y,-z
1/2+x,1/2+y,-z
1/2-x,y,z
x,1/2-y,z
loop_
_atom_site_type_symbol
_atom_site_label
_atom_site_fract_x
_atom_site_fract_y
_atom_site_fract_z
Si Si1 0.559221 0.368797 0.822175
Si Si2 0.560436 0.942573 0.059163
Si Si3 0.440697 0.793372 0.047025
Si Si4 0.938884 0.706071 0.779614
Si Si5 0.061478 0.443894 0.204273
Si Si6 0.060804 0.870893 0.670676
Si Si7 0.059921 0.908867 0.423078
Si Si8 0.438466 0.482250 0.696480
O O1 0.750000 0.371052 0.826213
O O2 0.489137 0.398715 0.916797
O O3 0.510845 0.325981 0.859442
O O4 0.508795 0.383835 0.692171
O O5 0.750000 0.945681 0.058884
O O6 0.501760 0.965379 0.175545
O O7 0.502006 0.954604 0.928850
O O8 0.250000 0.794224 0.038952
O O9 0.489020 0.750000 0.080694
O O10 0.506936 0.801483 0.915481
O O11 0.750000 0.704894 0.774615
O O12 0.990518 0.750000 0.749717
O O13 0.006761 0.672388 0.697355
O O14 0.250000 0.446168 0.205734
O O15 0.008093 0.400763 0.233464
O O16 0.994363 0.473817 0.300789
O O17 0.250000 0.872391 0.675453
O O18 0.007211 0.887922 0.543269
O O19 0.250000 0.910087 0.424170
O O20 0.000884 0.952392 0.401402
O O21 0.250000 0.481322 0.693738
#
# Coordination Sequence:
#
# PCOD9450787 Si02
#       8
#     8   8   8   8   8   8   8   8
#     4   9  17  31  52  75 100 133 170 211 260 310
#     4   9  19  33  50  75 104 134 169 212 262 315
#     4   9  17  30  51  80 110 136 165 205 255 312
#     4  10  21  37  57  81 110 141 171 208 257 310
#     4  11  22  35  53  78 109 141 173 214 263 313
#     4  11  23  38  56  78 105 139 181 223 259 303
#     4   9  20  38  55  73 101 138 179 220 262 307
#     4  10  20  35  55  78 104 136 175 217 263 314
#
# _framework density 19.397279000000001
#
# number of rings (size 3 to 8) (size 9 to 14) (size 15 to 20)
#    0.000    2.250    0.000    2.625    0.000    6.250 
#    0.000    0.625    0.000    2.250    0.000    1.750 
#    0.000    0.000    0.000    0.000    0.000    0.000 
#
# Total GULP energy -357242.578247 kJ/mol
# GULP energy per Si atom -5581.915285 kJ/mol
# Density = 1.935313 g / cm^3
# Si number density = 19.397279 Si / 1000 Ang^3
#
#
#
# Elastic Constant Matrix: (Units=GPa)
#
#
# Indices 1 2 3 4 5 6 
#
# 1 12.3896 3.5283 4.1865 0.0000 0.0000 0.0000
# 2 3.5283 79.9112 9.7825 0.0000 0.0000 0.0000
# 3 4.1865 9.7825 51.2110 0.0000 0.0000 0.0000
# 4 0.0000 0.0000 0.0000 24.1383 0.0000 0.0000
# 5 0.0000 0.0000 0.0000 0.0000 16.3634 0.0000
# 6 0.0000 0.0000 0.0000 0.0000 0.0000 30.7454
#
#
#
# Elastic Compliance Matrix: (Units=1/GPa)
#
#
# Indices 1 2 3 4 5 6 
#
# 1 0.083668 -0.002925 -0.006281 0.000000 0.000000 0.000000
# 2 -0.002925 0.012916 -0.002228 0.000000 0.000000 0.000000
# 3 -0.006281 -0.002228 0.020466 0.000000 0.000000 0.000000
# 4 0.000000 0.000000 0.000000 0.041428 0.000000 0.000000
# 5 0.000000 0.000000 0.000000 0.000000 0.061112 0.000000
# 6 0.000000 0.000000 0.000000 0.000000 0.000000 0.032525
#
#
# Mechanical properties :
#
#
# Convention : Reuss Voigt Hill
#
# Bulk Modulus (GPa) = 10.61780 19.83403 15.22591
# Shear Modulus (GPa) = 16.31973 22.65041 19.48507
#
# Velocity S-wave (km/s) = 2.90373 3.42089 3.17286
# Velocity P-wave (km/s) = 4.08998 5.08435 4.61403
#
# Compressibility (1/GPa) = 0.09418148
#
# Stress axis : x y z
#
# Youngs Moduli (GPa) = 11.95196 77.42453 48.86118
#
# Poissons Ratio (x) = 0.22649 0.30690
# Poissons Ratio (y) = 0.03496 0.10887
# Poissons Ratio (z) = 0.07507 0.17251
#
# Static dielectric constant tensor:
#      x y z
#    x 1.654720 0.000000 0.000000 
#    y 0.000000 1.685010 0.000000 
#    z 0.000000 0.000000 1.694040 
# 
# From -- ./inp_files/14888.got.cif
#   From: 2010.05.17/outbox.cif.g08.bks.cpg/sg59_8_cif.got.tgz:14888.got - 2010.06.03 14:40:33.
