data_PCOD9450871
_publ_section_title
;
Structure prediction by ZEFSAII (Michael W. Deem and Ramdas Pophale) SiO2 
 PCOD9450871
Probable space group: P M M N
;
_chemical_formula_sum "Si O2"
_cell_formula_units_Z 48
_cell_length_a 19.855959
_cell_length_b 7.625279
_cell_length_c 15.593922
_cell_angle_alpha 90.000000
_cell_angle_beta 90.000000
_cell_angle_gamma 90.000000
_cell_volume 2361.032491
_symmetry_space_group_name_H-M "P M M N"
_symmetry_group_IT_number 59
_space_group.IT_coordinate_system_code '2'
_symmetry_cell_setting 'orthorhombic'
loop_
_space_group_symop_operation_xyz
x,y,z
1/2-x,1/2-y,z
1/2+x,-y,-z
-x,1/2+y,-z
-x,-y,-z
1/2+x,1/2+y,-z
1/2-x,y,z
x,1/2-y,z
loop_
_atom_site_type_symbol
_atom_site_label
_atom_site_fract_x
_atom_site_fract_y
_atom_site_fract_z
Si Si1 0.173137 0.039241 0.434617
Si Si2 0.912394 0.535016 0.727122
Si Si3 0.326381 0.960039 0.628980
Si Si4 0.573094 0.458318 0.039440
Si Si5 0.825859 0.957986 0.889415
Si Si6 0.935562 0.465205 0.234095
O O1 0.250000 0.973928 0.422496
O O2 0.175606 0.250000 0.427905
O O3 0.123447 0.976667 0.360329
O O4 0.151843 0.995796 0.531324
O O5 0.912550 0.750000 0.727737
O O6 0.868875 0.473913 0.808842
O O7 0.989663 0.480567 0.737416
O O8 0.250000 0.028970 0.639186
O O9 0.323210 0.750000 0.638708
O O10 0.378941 0.025514 0.699260
O O11 0.578411 0.250000 0.043848
O O12 0.577462 0.525186 0.136782
O O13 0.500000 0.500000 0.000000
O O14 0.631328 0.519628 0.975665
O O15 0.750000 0.029875 0.894427
O O16 0.820135 0.750000 0.874877
O O17 0.935087 0.250000 0.233767
#
# Coordination Sequence:
#
# PCOD9450871 Si02
#       6
#     8   8   8   8   8   8
#     4   9  17  30  50  74  99 130 167 209 256 305
#     4   9  16  30  52  76 101 133 173 211 253 313
#     4   9  18  33  51  71  98 133 171 210 253 305
#     4  11  21  36  57  79 107 142 179 221 268 319
#     4  10  20  35  56  81 108 140 179 221 266 319
#     4   9  18  32  53  75  97 133 175 212 255 313
#
# _framework density 20.330089000000001
#
# number of rings (size 3 to 8) (size 9 to 14) (size 15 to 20)
#    0.000    2.500    1.667    1.000    0.000    3.667 
#    0.000    4.167    0.000    4.000    0.000    0.000 
#    0.000    0.000    0.000    0.000    0.000    0.000 
#
# Total GULP energy -267967.069262 kJ/mol
# GULP energy per Si atom -5582.647276 kJ/mol
# Density = 2.028382 g / cm^3
# Si number density = 20.330089 Si / 1000 Ang^3
#
#
#
# Elastic Constant Matrix: (Units=GPa)
#
#
# Indices 1 2 3 4 5 6 
#
# 1 173.7399 3.6067 140.2534 0.0000 0.0000 0.0000
# 2 3.6067 38.7836 -1.6032 0.0000 0.0000 0.0000
# 3 140.2534 -1.6032 223.4056 0.0000 0.0000 0.0000
# 4 0.0000 0.0000 0.0000 23.4037 0.0000 0.0000
# 5 0.0000 0.0000 0.0000 0.0000 23.4933 0.0000
# 6 0.0000 0.0000 0.0000 0.0000 0.0000 10.1792
#
#
#
# Elastic Compliance Matrix: (Units=1/GPa)
#
#
# Indices 1 2 3 4 5 6 
#
# 1 0.011745 -0.001397 -0.007384 0.000000 0.000000 0.000000
# 2 -0.001397 0.025958 0.001064 0.000000 0.000000 0.000000
# 3 -0.007384 0.001064 0.009119 0.000000 0.000000 0.000000
# 4 0.000000 0.000000 0.000000 0.042728 0.000000 0.000000
# 5 0.000000 0.000000 0.000000 0.000000 0.042565 0.000000
# 6 0.000000 0.000000 0.000000 0.000000 0.000000 0.098240
#
#
# Mechanical properties :
#
#
# Convention : Reuss Voigt Hill
#
# Bulk Modulus (GPa) = 31.85989 80.04922 55.95455
# Shear Modulus (GPa) = 19.51193 30.99338 25.25266
#
# Velocity S-wave (km/s) = 3.10135 3.90873 3.52821
# Velocity P-wave (km/s) = 5.34133 7.73506 6.64684
#
# Compressibility (1/GPa) = 0.03138743
#
# Stress axis : x y z
#
# Youngs Moduli (GPa) = 85.14025 38.52377 109.65790
#
# Poissons Ratio (x) = 0.05384 0.80968
# Poissons Ratio (y) = 0.11898 -0.11663
# Poissons Ratio (z) = 0.62865 -0.04097
#
# Static dielectric constant tensor:
#      x y z
#    x 1.692650 0.000000 0.000000 
#    y 0.000000 1.774540 0.000000 
#    z 0.000000 0.000000 1.691580 
# 
# From -- ./inp_files/20443.got.cif
#   From: 2010.05.17/outbox.cif.g08.bks.cpg/sg59_11_cif.got.tgz:20443.got - 2010.06.03 14:40:33.
