data_PCOD9450306
_publ_section_title
;
Structure prediction by ZEFSAII (Michael W. Deem and Ramdas Pophale) SiO2 
 PCOD9450306
Probable space group: P M M N
;
_chemical_formula_sum "Si O2"
_cell_formula_units_Z 56
_cell_length_a 14.606390
_cell_length_b 8.618017
_cell_length_c 25.011996
_cell_angle_alpha 90.000000
_cell_angle_beta 90.000000
_cell_angle_gamma 90.000000
_cell_volume 3148.462967
_symmetry_space_group_name_H-M "P M M N"
_symmetry_group_IT_number 59
_space_group.IT_coordinate_system_code '2'
_symmetry_cell_setting 'orthorhombic'
loop_
_space_group_symop_operation_xyz
x,y,z
1/2-x,1/2-y,z
1/2+x,-y,-z
-x,1/2+y,-z
-x,-y,-z
1/2+x,1/2+y,-z
1/2-x,y,z
x,1/2-y,z
loop_
_atom_site_type_symbol
_atom_site_label
_atom_site_fract_x
_atom_site_fract_y
_atom_site_fract_z
Si Si1 0.492230 0.935894 0.559504
Si Si2 0.491399 0.937022 0.270290
Si Si3 0.058919 0.937721 0.151830
Si Si4 0.059844 0.063669 0.951098
Si Si5 0.854584 0.562795 0.644028
Si Si6 0.144446 0.437815 0.646226
Si Si7 0.750000 0.434938 0.011653
Si Si8 0.750000 0.935118 0.890419
O O1 0.486707 0.750000 0.558210
O O2 0.582460 0.981154 0.593563
O O3 0.500000 0.000000 0.500000
O O4 0.406553 0.000715 0.593334
O O5 0.492113 0.750000 0.270471
O O6 0.480540 0.988198 0.209162
O O7 0.581835 0.988024 0.303160
O O8 0.404913 0.995036 0.304278
O O9 0.067101 0.750000 0.152023
O O10 0.990407 0.980228 0.103850
O O11 0.158547 0.006242 0.139034
O O12 0.063987 0.250000 0.954095
O O13 0.160223 0.994603 0.958227
O O14 0.000000 0.000000 0.000000
O O15 0.750000 0.510894 0.639191
O O16 0.855512 0.750000 0.647619
O O17 0.250000 0.488029 0.649842
O O18 0.143205 0.250000 0.644648
O O19 0.750000 0.250000 0.008386
O O20 0.750000 0.500020 0.951037
O O21 0.750000 0.750000 0.892679
#
# Coordination Sequence:
#
# PCOD9450306 Si02
#       8
#     8   8   8   8   8   8   4   4
#     4  10  20  34  53  79 111 145 181 226 273 323
#     4   9  19  36  56  81 108 140 180 224 272 323
#     4  10  22  39  58  83 116 147 181 231 286 334
#     4  11  22  38  60  85 114 151 190 231 285 345
#     4   9  19  35  53  75 106 143 178 216 268 322
#     4   9  18  35  58  81 107 143 187 230 274 325
#     4  12  24  40  60  82 114 150 188 237 288 341
#     4  12  24  36  58  86 112 146 190 229 276 347
#
# _framework density 17.786456999999999
#
# number of rings (size 3 to 8) (size 9 to 14) (size 15 to 20)
#    0.000    2.000    1.429    2.143    1.000    2.857 
#    1.286    1.429    0.000    0.000    0.000    0.000 
#    0.000    0.000    0.000    0.000    0.000    0.000 
#
# Total GULP energy -312630.099958 kJ/mol
# GULP energy per Si atom -5582.680356 kJ/mol
# Density = 1.774597 g / cm^3
# Si number density = 17.786457 Si / 1000 Ang^3
#
#
#
# Elastic Constant Matrix: (Units=GPa)
#
#
# Indices 1 2 3 4 5 6 
#
# 1 189.2064 37.7506 99.7573 0.0000 0.0000 0.0000
# 2 37.7506 31.3914 40.0676 0.0000 0.0000 0.0000
# 3 99.7573 40.0676 186.6382 0.0000 0.0000 0.0000
# 4 0.0000 0.0000 0.0000 25.8945 0.0000 0.0000
# 5 0.0000 0.0000 0.0000 0.0000 9.3258 0.0000
# 6 0.0000 0.0000 0.0000 0.0000 0.0000 29.9737
#
#
#
# Elastic Compliance Matrix: (Units=1/GPa)
#
#
# Indices 1 2 3 4 5 6 
#
# 1 0.008053 -0.005772 -0.003065 0.000000 0.000000 0.000000
# 2 -0.005772 0.048017 -0.007223 0.000000 0.000000 0.000000
# 3 -0.003065 -0.007223 0.008547 0.000000 0.000000 0.000000
# 4 0.000000 0.000000 0.000000 0.038618 0.000000 0.000000
# 5 0.000000 0.000000 0.000000 0.000000 0.107230 0.000000
# 6 0.000000 0.000000 0.000000 0.000000 0.000000 0.033363
#
#
# Mechanical properties :
#
#
# Convention : Reuss Voigt Hill
#
# Bulk Modulus (GPa) = 30.77301 84.70967 57.74134
# Shear Modulus (GPa) = 17.43501 28.34951 22.89226
#
# Velocity S-wave (km/s) = 3.13428 3.99668 3.59146
# Velocity P-wave (km/s) = 5.51699 8.30826 7.05211
#
# Compressibility (1/GPa) = 0.03249601
#
# Stress axis : x y z
#
# Youngs Moduli (GPa) = 124.17846 20.82611 117.00128
#
# Poissons Ratio (x) = 0.12021 0.35862
# Poissons Ratio (y) = 0.71676 0.84511
# Poissons Ratio (z) = 0.38062 0.15043
#
# Static dielectric constant tensor:
#      x y z
#    x 1.623630 0.000000 0.000000 
#    y 0.000000 1.607360 0.000000 
#    z 0.000000 0.000000 1.591400 
# 
# From -- ./inp_files/30432.got.cif
#   From: 2010.05.17/outbox.cif.g08.bks.cpg/sg59_16_cif.got.tgz:30432.got - 2010.06.03 14:40:33.
