data_PCOD9450171
_publ_section_title
;
Structure prediction by ZEFSAII (Michael W. Deem and Ramdas Pophale) SiO2 
 PCOD9450171
Probable space group: P M M N
;
_chemical_formula_sum "Si O2"
_cell_formula_units_Z 64
_cell_length_a 9.334676
_cell_length_b 23.072792
_cell_length_c 15.870625
_cell_angle_alpha 90.000000
_cell_angle_beta 90.000000
_cell_angle_gamma 90.000000
_cell_volume 3418.168200
_symmetry_space_group_name_H-M "P M M N"
_symmetry_group_IT_number 59
_space_group.IT_coordinate_system_code '2'
_symmetry_cell_setting 'orthorhombic'
loop_
_space_group_symop_operation_xyz
x,y,z
1/2-x,1/2-y,z
1/2+x,-y,-z
-x,1/2+y,-z
-x,-y,-z
1/2+x,1/2+y,-z
1/2-x,y,z
x,1/2-y,z
loop_
_atom_site_type_symbol
_atom_site_label
_atom_site_fract_x
_atom_site_fract_y
_atom_site_fract_z
Si Si1 0.089857 0.853090 0.127086
Si Si2 0.078313 0.885224 0.310272
Si Si3 0.914178 0.180136 0.181986
Si Si4 0.424616 0.817104 0.479292
Si Si5 0.593377 0.818426 0.974433
Si Si6 0.922645 0.496850 0.260138
Si Si7 0.916869 0.490757 0.911881
Si Si8 0.076453 0.620759 0.649183
O O1 0.250000 0.830919 0.109981
O O2 0.057694 0.847397 0.225697
O O3 0.087589 0.921666 0.106566
O O4 0.979545 0.825157 0.064041
O O5 0.250000 0.898698 0.313449
O O6 0.036642 0.850320 0.393592
O O7 0.988932 0.943746 0.296125
O O8 0.750000 0.160222 0.174478
O O9 0.913287 0.250000 0.181985
O O10 0.972928 0.158571 0.270976
O O11 0.999139 0.157337 0.101515
O O12 0.250000 0.816040 0.481116
O O13 0.471696 0.750000 0.481446
O O14 0.475157 0.853027 0.561075
O O15 0.750000 0.845104 0.974653
O O16 0.604551 0.750000 0.957779
O O17 0.750000 0.500776 0.249738
O O18 0.955956 0.445158 0.325606
O O19 0.997159 0.484759 0.169370
O O20 0.750000 0.510167 0.915605
O O21 0.000000 0.500000 0.000000
O O22 0.250000 0.625392 0.646420
#
# Coordination Sequence:
#
# PCOD9450171 Si02
#       8
#     8   8   8   8   8   8   8   8
#     4   9  19  34  51  72 101 136 175 220 265 314
#     4   9  19  36  56  80 109 139 179 231 278 328
#     4   9  17  31  51  73 101 138 176 219 271 325
#     4   9  17  32  57  86 111 138 179 233 286 330
#     4  10  21  34  48  72 104 137 176 219 267 324
#     4  10  20  34  52  78 113 151 186 223 272 329
#     4  10  21  36  54  78 108 142 183 229 271 319
#     4   9  18  31  51  81 112 140 178 227 274 328
#
# _framework density 18.723476999999999
#
# number of rings (size 3 to 8) (size 9 to 14) (size 15 to 20)
#    0.000    2.625    0.000    2.250    1.750    5.750 
#    0.000    1.875    0.000    1.875    0.000    0.000 
#    0.000    0.000    0.000    0.000    0.000    0.000 
#
# Total GULP energy -356821.730319 kJ/mol
# GULP energy per Si atom -5575.339536 kJ/mol
# Density = 1.868086 g / cm^3
# Si number density = 18.723477 Si / 1000 Ang^3
#
#
#
# Elastic Constant Matrix: (Units=GPa)
#
#
# Indices 1 2 3 4 5 6 
#
# 1 70.7014 29.3850 70.1829 0.0000 0.0000 0.0000
# 2 29.3850 52.0374 52.5960 0.0000 0.0000 0.0000
# 3 70.1829 52.5960 181.0196 0.0000 0.0000 0.0000
# 4 0.0000 0.0000 0.0000 30.5997 0.0000 0.0000
# 5 0.0000 0.0000 0.0000 0.0000 10.5423 0.0000
# 6 0.0000 0.0000 0.0000 0.0000 0.0000 15.8809
#
#
#
# Elastic Compliance Matrix: (Units=1/GPa)
#
#
# Indices 1 2 3 4 5 6 
#
# 1 0.024219 -0.005926 -0.007668 0.000000 0.000000 0.000000
# 2 -0.005926 0.028657 -0.006029 0.000000 0.000000 0.000000
# 3 -0.007668 -0.006029 0.010249 0.000000 0.000000 0.000000
# 4 0.000000 0.000000 0.000000 0.032680 0.000000 0.000000
# 5 0.000000 0.000000 0.000000 0.000000 0.094856 0.000000
# 6 0.000000 0.000000 0.000000 0.000000 0.000000 0.062969
#
#
# Mechanical properties :
#
#
# Convention : Reuss Voigt Hill
#
# Bulk Modulus (GPa) = 41.87764 67.56512 54.72138
# Shear Modulus (GPa) = 16.62048 21.51088 19.06568
#
# Velocity S-wave (km/s) = 2.98263 3.39318 3.19451
# Velocity P-wave (km/s) = 5.85460 7.17744 6.54951
#
# Compressibility (1/GPa) = 0.02387909
#
# Stress axis : x y z
#
# Youngs Moduli (GPa) = 41.29054 34.89587 97.57089
#
# Poissons Ratio (x) = 0.20678 0.74818
# Poissons Ratio (y) = 0.24467 0.58825
# Poissons Ratio (z) = 0.31662 0.21038
#
# Static dielectric constant tensor:
#      x y z
#    x 1.647920 0.000000 0.000000 
#    y 0.000000 1.663580 0.000000 
#    z 0.000000 0.000000 1.636950 
# 
# From -- ./inp_files/21499.got.cif
#   From: 2010.05.17/outbox.cif.g08.bks.cpg/sg59_11_cif.got.tgz:21499.got - 2010.06.03 14:40:33.
