data_PCOD9450968
_publ_section_title
;
Structure prediction by ZEFSAII (Michael W. Deem and Ramdas Pophale) SiO2 
 PCOD9450968
Probable space group: P M M N
;
_chemical_formula_sum "Si O2"
_cell_formula_units_Z 64
_cell_length_a 7.710748
_cell_length_b 25.325797
_cell_length_c 14.713436
_cell_angle_alpha 90.000000
_cell_angle_beta 90.000000
_cell_angle_gamma 90.000000
_cell_volume 2873.252120
_symmetry_space_group_name_H-M "P M M N"
_symmetry_group_IT_number 59
_space_group.IT_coordinate_system_code '2'
_symmetry_cell_setting 'orthorhombic'
loop_
_space_group_symop_operation_xyz
x,y,z
1/2-x,1/2-y,z
1/2+x,-y,-z
-x,1/2+y,-z
-x,-y,-z
1/2+x,1/2+y,-z
1/2-x,y,z
x,1/2-y,z
loop_
_atom_site_type_symbol
_atom_site_label
_atom_site_fract_x
_atom_site_fract_y
_atom_site_fract_z
Si Si1 0.548591 0.016493 0.369926
Si Si2 0.454330 0.121297 0.814009
Si Si3 0.050420 0.691568 0.508631
Si Si4 0.459126 0.992113 0.160157
Si Si5 0.961839 0.894799 0.878114
Si Si6 0.537107 0.690178 0.025897
Si Si7 0.949606 0.629896 0.674131
Si Si8 0.045763 0.404709 0.615362
O O1 0.750000 0.025580 0.391672
O O2 0.457303 0.072934 0.376304
O O3 0.529053 0.001870 0.262505
O O4 0.476767 0.962479 0.415352
O O5 0.250000 0.131413 0.801963
O O6 0.475217 0.065556 0.866557
O O7 0.522846 0.167920 0.876751
O O8 0.529734 0.112739 0.713349
O O9 0.250000 0.693463 0.480585
O O10 0.973882 0.750000 0.496052
O O11 0.041390 0.673213 0.613009
O O12 0.969145 0.644128 0.451640
O O13 0.250000 0.990672 0.163971
O O14 0.513980 0.044275 0.105097
O O15 0.750000 0.894779 0.877429
O O16 0.017929 0.879106 0.775914
O O17 0.019955 0.851662 0.950091
O O18 0.750000 0.689605 0.025693
O O19 0.482400 0.750000 0.008930
O O20 0.750000 0.645819 0.681321
O O21 0.250000 0.415544 0.628726
#
# Coordination Sequence:
#
# PCOD9450968 Si02
#       8
#     8   8   8   8   8   8   8   8
#     4   9  17  32  55  83 112 138 169 212 262 318
#     4   9  18  32  52  79 106 133 170 214 260 311
#     4  11  25  41  55  75 103 138 182 225 265 312
#     4   9  16  28  48  75 107 140 173 211 258 312
#     4   8  16  30  49  77 108 135 169 211 255 308
#     4   9  17  30  49  74 104 137 175 218 259 303
#     4  10  20  35  57  83 110 141 175 215 265 318
#     4   9  19  35  55  79 106 137 173 215 264 315
#
# _framework density 22.274412999999999
#
# number of rings (size 3 to 8) (size 9 to 14) (size 15 to 20)
#    0.000    2.750    0.000    3.000    0.000    5.500 
#    0.000    2.500    0.000    4.125    0.000    0.000 
#    0.000    0.000    0.000    0.000    0.000    0.000 
#
# Total GULP energy -357097.110113 kJ/mol
# GULP energy per Si atom -5579.642346 kJ/mol
# Density = 2.222372 g / cm^3
# Si number density = 22.274413 Si / 1000 Ang^3
#
#
#
# Elastic Constant Matrix: (Units=GPa)
#
#
# Indices 1 2 3 4 5 6 
#
# 1 37.6483 -19.8905 -10.2046 0.0000 0.0000 0.0000
# 2 -19.8905 103.0800 20.0124 0.0000 0.0000 0.0000
# 3 -10.2046 20.0124 47.9009 0.0000 0.0000 0.0000
# 4 0.0000 0.0000 0.0000 27.5631 0.0000 0.0000
# 5 0.0000 0.0000 0.0000 0.0000 4.0554 0.0000
# 6 0.0000 0.0000 0.0000 0.0000 0.0000 18.7220
#
#
#
# Elastic Compliance Matrix: (Units=1/GPa)
#
#
# Indices 1 2 3 4 5 6 
#
# 1 0.030399 0.005015 0.004381 0.000000 0.000000 0.000000
# 2 0.005015 0.011385 -0.003688 0.000000 0.000000 0.000000
# 3 0.004381 -0.003688 0.023351 0.000000 0.000000 0.000000
# 4 0.000000 0.000000 0.000000 0.036280 0.000000 0.000000
# 5 0.000000 0.000000 0.000000 0.000000 0.246584 0.000000
# 6 0.000000 0.000000 0.000000 0.000000 0.000000 0.053413
#
#
# Mechanical properties :
#
#
# Convention : Reuss Voigt Hill
#
# Bulk Modulus (GPa) = 13.06336 18.71821 15.89079
# Shear Modulus (GPa) = 12.03333 23.31556 17.67444
#
# Velocity S-wave (km/s) = 2.32681 3.23885 2.81994
# Velocity P-wave (km/s) = 3.61887 4.73377 4.21336
#
# Compressibility (1/GPa) = 0.07654997
#
# Stress axis : x y z
#
# Youngs Moduli (GPa) = 32.89616 87.83504 42.82559
#
# Poissons Ratio (x) = -0.44052 -0.18761
# Poissons Ratio (y) = -0.16498 0.15794
# Poissons Ratio (z) = -0.14411 0.32394
#
# Static dielectric constant tensor:
#      x y z
#    x 1.804020 0.000000 0.000000 
#    y 0.000000 1.837780 0.000000 
#    z 0.000000 0.000000 1.852720 
# 
# From -- ./inp_files/21542.got.cif
#   From: 2010.05.17/outbox.cif.g08.bks.cpg/sg59_11_cif.got.tgz:21542.got - 2010.06.03 14:40:33.
