data_PCOD9450296
_publ_section_title
;
Structure prediction by ZEFSAII (Michael W. Deem and Ramdas Pophale) SiO2 
 PCOD9450296
Probable space group: P M M N
;
_chemical_formula_sum "Si O2"
_cell_formula_units_Z 56
_cell_length_a 15.304703
_cell_length_b 9.113788
_cell_length_c 19.551311
_cell_angle_alpha 90.000000
_cell_angle_beta 90.000000
_cell_angle_gamma 90.000000
_cell_volume 2727.091516
_symmetry_space_group_name_H-M "P M M N"
_symmetry_group_IT_number 59
_space_group.IT_coordinate_system_code '2'
_symmetry_cell_setting 'orthorhombic'
loop_
_space_group_symop_operation_xyz
x,y,z
1/2-x,1/2-y,z
1/2+x,-y,-z
-x,1/2+y,-z
-x,-y,-z
1/2+x,1/2+y,-z
1/2-x,y,z
x,1/2-y,z
loop_
_atom_site_type_symbol
_atom_site_label
_atom_site_fract_x
_atom_site_fract_y
_atom_site_fract_z
Si Si1 0.354996 0.417768 0.347822
Si Si2 0.909134 0.582282 0.900032
Si Si3 0.350920 0.590297 0.219798
Si Si4 0.097905 0.919637 0.827442
Si Si5 0.647595 0.573031 0.313966
Si Si6 0.998261 0.575488 0.426392
Si Si7 0.849666 0.421400 0.025628
O O1 0.250000 0.427391 0.357033
O O2 0.380317 0.250000 0.361929
O O3 0.381535 0.463231 0.270720
O O4 0.409926 0.529536 0.392703
O O5 0.877456 0.750000 0.897149
O O6 0.854215 0.466045 0.856802
O O7 0.000686 0.575669 0.859524
O O8 0.906704 0.524841 0.977256
O O9 0.250000 0.607045 0.238567
O O10 0.394532 0.750000 0.228472
O O11 0.119641 0.750000 0.812104
O O12 0.150607 0.967330 0.894951
O O13 0.114645 0.010185 0.758880
O O14 0.750000 0.530638 0.324925
O O15 0.644724 0.750000 0.310920
O O16 0.581065 0.528035 0.375239
O O17 0.991539 0.750000 0.433909
O O18 0.000000 0.500000 0.500000
O O19 0.750000 0.427106 0.000938
O O20 0.879619 0.250000 0.023308
#
# Coordination Sequence:
#
# PCOD9450296 Si02
#       7
#     8   8   8   8   8   8   8
#     4  10  21  38  61  89 122 159 199 247 302 360
#     4  11  22  34  52  80 113 149 193 247 304 362
#     4  10  20  34  53  78 110 149 191 235 288 354
#     4  10  22  39  59  84 114 151 197 248 302 360
#     4  10  23  43  66  93 125 162 204 251 305 362
#     4  11  24  42  65  94 128 164 202 247 300 362
#     4  10  21  37  55  76 107 149 196 247 305 366
#
# _framework density 20.534697999999999
#
# number of rings (size 3 to 8) (size 9 to 14) (size 15 to 20)
#    0.000    1.714    0.000    3.857    0.000   10.286 
#    0.000    1.429    0.000    0.000    0.000    0.000 
#    0.000    0.000    0.000    0.000    0.000    0.000 
#
# Total GULP energy -312356.891471 kJ/mol
# GULP energy per Si atom -5577.801633 kJ/mol
# Density = 2.048796 g / cm^3
# Si number density = 20.534698 Si / 1000 Ang^3
#
#
#
# Elastic Constant Matrix: (Units=GPa)
#
#
# Indices 1 2 3 4 5 6 
#
# 1 64.0261 23.8313 40.1557 0.0000 0.0000 0.0000
# 2 23.8313 66.5665 41.2776 0.0000 0.0000 0.0000
# 3 40.1557 41.2776 140.0724 0.0000 0.0000 0.0000
# 4 0.0000 0.0000 0.0000 36.9178 0.0000 0.0000
# 5 0.0000 0.0000 0.0000 0.0000 25.2254 0.0000
# 6 0.0000 0.0000 0.0000 0.0000 0.0000 21.1382
#
#
#
# Elastic Compliance Matrix: (Units=1/GPa)
#
#
# Indices 1 2 3 4 5 6 
#
# 1 0.020053 -0.004422 -0.004445 0.000000 0.000000 0.000000
# 2 -0.004422 0.019357 -0.004436 0.000000 0.000000 0.000000
# 3 -0.004445 -0.004436 0.009721 0.000000 0.000000 0.000000
# 4 0.000000 0.000000 0.000000 0.027087 0.000000 0.000000
# 5 0.000000 0.000000 0.000000 0.000000 0.039643 0.000000
# 6 0.000000 0.000000 0.000000 0.000000 0.000000 0.047308
#
#
# Mechanical properties :
#
#
# Convention : Reuss Voigt Hill
#
# Bulk Modulus (GPa) = 44.40111 53.46602 48.93357
# Shear Modulus (GPa) = 25.34418 27.68299 26.51358
#
# Velocity S-wave (km/s) = 3.51695 3.67564 3.59717
# Velocity P-wave (km/s) = 6.17748 6.64133 6.41360
#
# Compressibility (1/GPa) = 0.02252196
#
# Stress axis : x y z
#
# Youngs Moduli (GPa) = 49.86836 51.66133 102.87081
#
# Poissons Ratio (x) = 0.22847 0.45731
# Poissons Ratio (y) = 0.22054 0.45638
# Poissons Ratio (z) = 0.22169 0.22919
#
# Static dielectric constant tensor:
#      x y z
#    x 1.820420 0.000000 0.000000 
#    y 0.000000 1.713660 0.000000 
#    z 0.000000 0.000000 1.768760 
# 
# From -- ./inp_files/30314.got.cif
#   From: 2010.05.17/outbox.cif.g08.bks.cpg/sg59_16_cif.got.tgz:30314.got - 2010.06.03 14:40:33.
