data_PCOD9450892
_publ_section_title
;
Structure prediction by ZEFSAII (Michael W. Deem and Ramdas Pophale) SiO2 
 PCOD9450892
Probable space group: P M M N
;
_chemical_formula_sum "Si O2"
_cell_formula_units_Z 48
_cell_length_a 10.107944
_cell_length_b 7.953262
_cell_length_c 29.560937
_cell_angle_alpha 90.000000
_cell_angle_beta 90.000000
_cell_angle_gamma 90.000000
_cell_volume 2376.437038
_symmetry_space_group_name_H-M "P M M N"
_symmetry_group_IT_number 59
_space_group.IT_coordinate_system_code '2'
_symmetry_cell_setting 'orthorhombic'
loop_
_space_group_symop_operation_xyz
x,y,z
1/2-x,1/2-y,z
1/2+x,-y,-z
-x,1/2+y,-z
-x,-y,-z
1/2+x,1/2+y,-z
1/2-x,y,z
x,1/2-y,z
loop_
_atom_site_type_symbol
_atom_site_label
_atom_site_fract_x
_atom_site_fract_y
_atom_site_fract_z
Si Si1 0.099754 0.450888 0.859073
Si Si2 0.532181 0.449253 0.394824
Si Si3 0.597835 0.456359 0.780916
Si Si4 0.395930 0.050388 0.705659
Si Si5 0.600373 0.450630 0.039179
Si Si6 0.250000 0.951892 0.430838
Si Si7 0.750000 0.044829 0.465591
O O1 0.250000 0.517277 0.851561
O O2 0.106838 0.250000 0.852962
O O3 0.062573 0.485485 0.910984
O O4 0.989931 0.511950 0.823858
O O5 0.552159 0.250000 0.391263
O O6 0.576251 0.524561 0.347167
O O7 0.381248 0.488039 0.405901
O O8 0.622952 0.509926 0.436522
O O9 0.750000 0.513115 0.781638
O O10 0.601927 0.250000 0.781044
O O11 0.515388 0.513000 0.736805
O O12 0.250000 0.980178 0.716930
O O13 0.389903 0.250000 0.714151
O O14 0.750000 0.513245 0.029822
O O15 0.604500 0.250000 0.041397
O O16 0.500000 0.500000 0.000000
O O17 0.250000 0.750000 0.431293
O O18 0.250000 0.014285 0.482845
O O19 0.750000 0.250000 0.467311
#
# Coordination Sequence:
#
# PCOD9450892 Si02
#       7
#     8   8   8   8   8   4   4
#     4   9  17  32  54  78 107 145 187 231 280 333
#     4  11  22  39  59  84 115 149 183 227 284 338
#     4   9  18  32  53  81 110 141 182 233 281 326
#     4  10  20  35  56  82 110 145 189 232 274 329
#     4  10  21  36  55  81 113 150 192 237 284 336
#     4  11  23  39  59  85 113 147 187 231 276 329
#     4   9  20  39  61  83 113 147 187 229 274 333
#
# _framework density 20.198304
#
# number of rings (size 3 to 8) (size 9 to 14) (size 15 to 20)
#    0.000    2.167    0.833    2.250    1.167    3.667 
#    0.000    5.000    0.000    3.000    0.000    0.000 
#    0.000    0.000    0.000    0.000    0.000    0.000 
#
# Total GULP energy -268025.927270 kJ/mol
# GULP energy per Si atom -5583.873485 kJ/mol
# Density = 2.015233 g / cm^3
# Si number density = 20.198304 Si / 1000 Ang^3
#
#
#
# Elastic Constant Matrix: (Units=GPa)
#
#
# Indices 1 2 3 4 5 6 
#
# 1 160.6789 2.7523 79.4350 0.0000 0.0000 0.0000
# 2 2.7523 14.3009 -2.1623 0.0000 0.0000 0.0000
# 3 79.4350 -2.1623 113.8156 0.0000 0.0000 0.0000
# 4 0.0000 0.0000 0.0000 22.2546 0.0000 0.0000
# 5 0.0000 0.0000 0.0000 0.0000 36.7319 0.0000
# 6 0.0000 0.0000 0.0000 0.0000 0.0000 1.5389
#
#
#
# Elastic Compliance Matrix: (Units=1/GPa)
#
#
# Indices 1 2 3 4 5 6 
#
# 1 0.009619 -0.002874 -0.006768 0.000000 0.000000 0.000000
# 2 -0.002874 0.070986 0.003355 0.000000 0.000000 0.000000
# 3 -0.006768 0.003355 0.013573 0.000000 0.000000 0.000000
# 4 0.000000 0.000000 0.000000 0.044935 0.000000 0.000000
# 5 0.000000 0.000000 0.000000 0.000000 0.027224 0.000000
# 6 0.000000 0.000000 0.000000 0.000000 0.000000 0.649832
#
#
# Mechanical properties :
#
#
# Convention : Reuss Voigt Hill
#
# Bulk Modulus (GPa) = 12.25445 49.87172 31.06309
# Shear Modulus (GPa) = 5.84150 26.02310 15.93230
#
# Velocity S-wave (km/s) = 1.70245 3.59330 2.81159
# Velocity P-wave (km/s) = 3.15352 6.47768 5.09436
#
# Compressibility (1/GPa) = 0.08160300
#
# Stress axis : x y z
#
# Youngs Moduli (GPa) = 103.96552 14.08730 73.67449
#
# Poissons Ratio (x) = 0.04049 0.49860
# Poissons Ratio (y) = 0.29884 -0.24716
# Poissons Ratio (z) = 0.70360 -0.04726
#
# Static dielectric constant tensor:
#      x y z
#    x 1.711930 0.000000 0.000000 
#    y 0.000000 1.723060 0.000000 
#    z 0.000000 0.000000 1.685950 
# 
# From -- ./inp_files/33037.got.cif
#   From: 2010.05.17/outbox.cif.g08.bks.cpg/sg59_17_cif.got.tgz:33037.got - 2010.06.03 14:40:33.
