data_PCOD9450505
_publ_section_title
;
Structure prediction by ZEFSAII (Michael W. Deem and Ramdas Pophale) SiO2 
 PCOD9450505
Probable space group: P M M N
;
_chemical_formula_sum "Si O2"
_cell_formula_units_Z 48
_cell_length_a 7.448273
_cell_length_b 18.167906
_cell_length_c 15.652278
_cell_angle_alpha 90.000000
_cell_angle_beta 90.000000
_cell_angle_gamma 90.000000
_cell_volume 2118.058804
_symmetry_space_group_name_H-M "P M M N"
_symmetry_group_IT_number 59
_space_group.IT_coordinate_system_code '2'
_symmetry_cell_setting 'orthorhombic'
loop_
_space_group_symop_operation_xyz
x,y,z
1/2-x,1/2-y,z
1/2+x,-y,-z
-x,1/2+y,-z
-x,-y,-z
1/2+x,1/2+y,-z
1/2-x,y,z
x,1/2-y,z
loop_
_atom_site_type_symbol
_atom_site_label
_atom_site_fract_x
_atom_site_fract_y
_atom_site_fract_z
Si Si1 0.970036 0.666085 0.357000
Si Si2 0.532732 0.834236 0.693048
Si Si3 0.964509 0.915968 0.525548
Si Si4 0.459715 0.581550 0.863864
Si Si5 0.532274 0.334320 0.970085
Si Si6 0.960172 0.573796 0.197348
O O1 0.750000 0.665802 0.356011
O O2 0.025773 0.750000 0.341946
O O3 0.028759 0.636182 0.448895
O O4 0.034067 0.611667 0.282437
O O5 0.750000 0.835482 0.693932
O O6 0.477258 0.750000 0.676753
O O7 0.468439 0.888512 0.617611
O O8 0.472261 0.862171 0.785353
O O9 0.750000 0.907701 0.528821
O O10 0.000000 0.000000 0.500000
O O11 0.250000 0.567396 0.882503
O O12 0.534325 0.617023 0.950230
O O13 0.539537 0.504120 0.832418
O O14 0.750000 0.333845 0.972092
O O15 0.472332 0.250000 0.977613
O O16 0.475616 0.370166 0.881149
O O17 0.750000 0.560336 0.215838
#
# Coordination Sequence:
#
# PCOD9450505 Si02
#       6
#     8   8   8   8   8   8
#     4   9  17  31  52  76 102 134 171 210 254 305
#     4  10  21  36  55  81 110 141 180 224 267 311
#     4  10  20  35  55  78 106 139 174 214 260 311
#     4  10  21  37  56  79 108 142 178 216 265 323
#     4  10  21  36  53  75 106 143 178 215 266 322
#     4  10  20  34  55  81 105 134 177 223 262 309
#
# _framework density 22.662261000000001
#
# number of rings (size 3 to 8) (size 9 to 14) (size 15 to 20)
#    0.000    2.167    0.000    3.000    0.000    7.333 
#    0.000    0.833    0.000    2.500    0.000    0.000 
#    0.000    0.000    0.000    0.000    0.000    0.000 
#
# Total GULP energy -268370.605331 kJ/mol
# GULP energy per Si atom -5591.054278 kJ/mol
# Density = 2.261068 g / cm^3
# Si number density = 22.662261 Si / 1000 Ang^3
#
#
#
# Elastic Constant Matrix: (Units=GPa)
#
#
# Indices 1 2 3 4 5 6 
#
# 1 65.2989 -10.0269 -16.6150 0.0000 0.0000 0.0000
# 2 -10.0269 52.4102 -40.9323 0.0000 0.0000 0.0000
# 3 -16.6150 -40.9323 62.2513 0.0000 0.0000 0.0000
# 4 0.0000 0.0000 0.0000 45.3596 0.0000 0.0000
# 5 0.0000 0.0000 0.0000 0.0000 2.6193 0.0000
# 6 0.0000 0.0000 0.0000 0.0000 0.0000 99.8422
#
#
#
# Elastic Compliance Matrix: (Units=1/GPa)
#
#
# Indices 1 2 3 4 5 6 
#
# 1 0.022911 0.018828 0.018495 0.000000 0.000000 0.000000
# 2 0.018828 0.054694 0.040989 0.000000 0.000000 0.000000
# 3 0.018495 0.040989 0.047952 0.000000 0.000000 0.000000
# 4 0.000000 0.000000 0.000000 0.022046 0.000000 0.000000
# 5 0.000000 0.000000 0.000000 0.000000 0.381788 0.000000
# 6 0.000000 0.000000 0.000000 0.000000 0.000000 0.010016
#
#
# Mechanical properties :
#
#
# Convention : Reuss Voigt Hill
#
# Bulk Modulus (GPa) = 3.54384 4.97910 4.26147
# Shear Modulus (GPa) = 10.48559 46.06651 28.27605
#
# Velocity S-wave (km/s) = 2.15336 4.51348 3.53613
# Velocity P-wave (km/s) = 2.78384 5.41885 4.30776
#
# Compressibility (1/GPa) = 0.28218008
#
# Stress axis : x y z
#
# Youngs Moduli (GPa) = 43.64662 18.28345 20.85434
#
# Poissons Ratio (x) = -0.34424 -0.38570
# Poissons Ratio (y) = -0.82177 -0.85479
# Poissons Ratio (z) = -0.80725 -0.74941
#
# Static dielectric constant tensor:
#      x y z
#    x 1.874580 0.000000 0.000000 
#    y 0.000000 1.814190 0.000000 
#    z 0.000000 0.000000 1.787590 
# 
# From -- ./inp_files/17628.got.cif
#   From: 2010.05.17/outbox.cif.g08.bks.cpg/sg59_9_cif.got.tgz:17628.got - 2010.06.03 14:40:33.
