data_PCOD9450780
_publ_section_title
;
Structure prediction by ZEFSAII (Michael W. Deem and Ramdas Pophale) SiO2 
 PCOD9450780
Probable space group: P M M N
;
_chemical_formula_sum "Si O2"
_cell_formula_units_Z 48
_cell_length_a 13.888442
_cell_length_b 14.276188
_cell_length_c 9.853491
_cell_angle_alpha 90.000000
_cell_angle_beta 90.000000
_cell_angle_gamma 90.000000
_cell_volume 1953.691163
_symmetry_space_group_name_H-M "P M M N"
_symmetry_group_IT_number 59
_space_group.IT_coordinate_system_code '2'
_symmetry_cell_setting 'orthorhombic'
loop_
_space_group_symop_operation_xyz
x,y,z
1/2-x,1/2-y,z
1/2+x,-y,-z
-x,1/2+y,-z
-x,-y,-z
1/2+x,1/2+y,-z
1/2-x,y,z
x,1/2-y,z
loop_
_atom_site_type_symbol
_atom_site_label
_atom_site_fract_x
_atom_site_fract_y
_atom_site_fract_z
Si Si1 0.858140 0.892718 0.097116
Si Si2 0.937613 0.154150 0.863447
Si Si3 0.362297 0.888638 0.834295
Si Si4 0.643159 0.563505 0.506954
Si Si5 0.643837 0.539225 0.809793
Si Si6 0.437541 0.641817 0.539779
O O1 0.750000 0.857046 0.112952
O O2 0.861248 0.998547 0.153797
O O3 0.948455 0.840937 0.155216
O O4 0.884193 0.898962 0.936869
O O5 0.892173 0.250000 0.810043
O O6 0.903181 0.144981 0.020663
O O7 0.913715 0.055714 0.797494
O O8 0.250000 0.859479 0.815933
O O9 0.427411 0.860738 0.705481
O O10 0.750000 0.586109 0.447162
O O11 0.648684 0.587603 0.666664
O O12 0.542234 0.615140 0.475015
O O13 0.627464 0.450503 0.494777
O O14 0.750000 0.505226 0.850399
O O15 0.412689 0.750000 0.502892
#
# Coordination Sequence:
#
# PCOD9450780 Si02
#       6
#     8   8   8   8   8   8
#     4   9  18  33  52  72  99 139 179 215 261 316
#     4  11  20  29  48  77 107 137 170 215 267 317
#     4  10  20  35  55  77 104 138 177 222 270 321
#     4  10  22  40  60  82 111 147 185 226 274 329
#     4   9  18  34  54  73  98 135 175 213 258 315
#     4  11  23  38  59  86 113 143 182 229 279 329
#
# _framework density 24.568878000000002
#
# number of rings (size 3 to 8) (size 9 to 14) (size 15 to 20)
#    0.000    2.000    0.000    6.500    0.000    4.667 
#    0.000    1.667    0.000    5.000    0.000    4.667 
#    0.000    0.000    0.000    0.000    0.000    0.000 
#
# Total GULP energy -267686.194673 kJ/mol
# GULP energy per Si atom -5576.795722 kJ/mol
# Density = 2.451296 g / cm^3
# Si number density = 24.568878 Si / 1000 Ang^3
#
#
#
# Elastic Constant Matrix: (Units=GPa)
#
#
# Indices 1 2 3 4 5 6 
#
# 1 82.0449 8.9355 -3.5305 0.0000 0.0000 0.0000
# 2 8.9355 62.8145 -3.8085 0.0000 0.0000 0.0000
# 3 -3.5305 -3.8085 112.2150 0.0000 0.0000 0.0000
# 4 0.0000 0.0000 0.0000 -59.7915 0.0000 0.0000
# 5 0.0000 0.0000 0.0000 0.0000 19.2146 0.0000
# 6 0.0000 0.0000 0.0000 0.0000 0.0000 5.6203
#
#
#
# Elastic Compliance Matrix: (Units=1/GPa)
#
#
# Indices 1 2 3 4 5 6 
#
# 1 0.012392 -0.001743 0.000331 0.000000 0.000000 0.000000
# 2 -0.001743 0.016198 0.000495 0.000000 0.000000 0.000000
# 3 0.000331 0.000495 0.008939 0.000000 0.000000 0.000000
# 4 0.000000 0.000000 0.000000 -0.016725 0.000000 0.000000
# 5 0.000000 0.000000 0.000000 0.000000 0.052044 0.000000
# 6 0.000000 0.000000 0.000000 0.000000 0.000000 0.177925
#
#
# Mechanical properties :
#
#
# Convention : Reuss Voigt Hill
#
# Bulk Modulus (GPa) = 28.01538 28.91860 28.46699
# Shear Modulus (GPa) = 18.90319 10.04055 14.47187
#
# Velocity S-wave (km/s) = 2.77681 2.02375 2.42963
# Velocity P-wave (km/s) = 4.65923 4.15412 4.41391
#
# Compressibility (1/GPa) = 0.03569467
#
# Stress axis : x y z
#
# Youngs Moduli (GPa) = 80.69402 61.73667 111.87354
#
# Poissons Ratio (x) = 0.10760 -0.03700
# Poissons Ratio (y) = 0.14063 -0.05537
# Poissons Ratio (z) = -0.02669 -0.03055
#
# Static dielectric constant tensor:
#      x y z
#    x 1.999540 0.000000 0.000000 
#    y 0.000000 1.924890 0.000000 
#    z 0.000000 0.000000 2.011600 
# 
# From -- ./inp_files/16849.got.cif
#   From: 2010.05.17/outbox.cif.g08.bks.cpg/sg59_9_cif.got.tgz:16849.got - 2010.06.03 14:40:33.
