data_PCOD9450934
_publ_section_title
;
Structure prediction by ZEFSAII (Michael W. Deem and Ramdas Pophale) SiO2 
 PCOD9450934
Probable space group: P M M N
;
_chemical_formula_sum "Si O2"
_cell_formula_units_Z 64
_cell_length_a 24.529045
_cell_length_b 8.295270
_cell_length_c 15.186926
_cell_angle_alpha 90.000000
_cell_angle_beta 90.000000
_cell_angle_gamma 90.000000
_cell_volume 3090.160544
_symmetry_space_group_name_H-M "P M M N"
_symmetry_group_IT_number 59
_space_group.IT_coordinate_system_code '2'
_symmetry_cell_setting 'orthorhombic'
loop_
_space_group_symop_operation_xyz
x,y,z
1/2-x,1/2-y,z
1/2+x,-y,-z
-x,1/2+y,-z
-x,-y,-z
1/2+x,1/2+y,-z
1/2-x,y,z
x,1/2-y,z
loop_
_atom_site_type_symbol
_atom_site_label
_atom_site_fract_x
_atom_site_fract_y
_atom_site_fract_z
Si Si1 0.188355 0.946824 0.004433
Si Si2 0.123970 0.555311 0.174887
Si Si3 0.189394 0.440464 0.711907
Si Si4 0.991883 0.058872 0.900081
Si Si5 0.630969 0.443027 0.444594
Si Si6 0.393427 0.560588 0.852499
Si Si7 0.602825 0.942719 0.639557
Si Si8 0.986216 0.444132 0.401432
O O1 0.250000 0.001569 0.985452
O O2 0.188614 0.750000 0.999900
O O3 0.168155 0.992458 0.101710
O O4 0.142804 0.002214 0.934629
O O5 0.122840 0.750000 0.177407
O O6 0.134108 0.494180 0.273141
O O7 0.064537 0.495436 0.141187
O O8 0.250000 0.493018 0.738389
O O9 0.184244 0.250000 0.727427
O O10 0.179542 0.477563 0.609276
O O11 0.144382 0.531868 0.768628
O O12 0.986553 0.250000 0.903187
O O13 0.046802 0.015211 0.847833
O O14 0.000000 0.000000 0.000000
O O15 0.634518 0.250000 0.438685
O O16 0.624728 0.489210 0.546956
O O17 0.575804 0.500339 0.393011
O O18 0.402467 0.750000 0.865756
O O19 0.602367 0.750000 0.631857
O O20 0.539369 0.000042 0.651673
O O21 0.984584 0.250000 0.395439
O O22 0.000000 0.500000 0.500000
#
# Coordination Sequence:
#
# PCOD9450934 Si02
#       8
#     8   8   8   8   8   8   8   8
#     4   9  18  36  61  85 112 150 198 249 294 343
#     4  10  21  37  56  85 121 158 203 250 297 358
#     4  11  25  43  61  87 123 160 202 255 312 367
#     4  11  22  38  59  89 126 164 203 250 311 371
#     4  10  20  37  60  85 113 150 199 246 294 355
#     4  11  22  39  63  91 121 157 203 250 305 372
#     4  10  20  35  56  84 118 156 195 240 300 355
#     4   8  16  30  49  76 106 138 179 228 277 337
#
# _framework density 20.710898
#
# number of rings (size 3 to 8) (size 9 to 14) (size 15 to 20)
#    0.000    2.000    1.250    2.250    1.750    3.500 
#    0.000    0.625    0.000    4.125    0.000    0.000 
#    0.000    0.000    0.000    0.000    0.000    0.000 
#
# Total GULP energy -357220.116628 kJ/mol
# GULP energy per Si atom -5581.564322 kJ/mol
# Density = 2.066376 g / cm^3
# Si number density = 20.710898 Si / 1000 Ang^3
#
#
#
# Elastic Constant Matrix: (Units=GPa)
#
#
# Indices 1 2 3 4 5 6 
#
# 1 60.1464 1.2759 -0.1311 0.0000 0.0000 0.0000
# 2 1.2759 16.5760 -8.4909 0.0000 0.0000 0.0000
# 3 -0.1311 -8.4909 72.1899 0.0000 0.0000 0.0000
# 4 0.0000 0.0000 0.0000 27.9918 0.0000 0.0000
# 5 0.0000 0.0000 0.0000 0.0000 24.9830 0.0000
# 6 0.0000 0.0000 0.0000 0.0000 0.0000 14.7293
#
#
#
# Elastic Compliance Matrix: (Units=1/GPa)
#
#
# Indices 1 2 3 4 5 6 
#
# 1 0.016654 -0.001348 -0.000128 0.000000 0.000000 0.000000
# 2 -0.001348 0.064305 0.007561 0.000000 0.000000 0.000000
# 3 -0.000128 0.007561 0.014741 0.000000 0.000000 0.000000
# 4 0.000000 0.000000 0.000000 0.035725 0.000000 0.000000
# 5 0.000000 0.000000 0.000000 0.000000 0.040027 0.000000
# 6 0.000000 0.000000 0.000000 0.000000 0.000000 0.067892
#
#
# Mechanical properties :
#
#
# Convention : Reuss Voigt Hill
#
# Bulk Modulus (GPa) = 9.27034 14.91336 12.09185
# Shear Modulus (GPa) = 19.00189 23.95803 21.47996
#
# Velocity S-wave (km/s) = 3.03228 3.40484 3.22395
# Velocity P-wave (km/s) = 4.09212 4.76168 4.43954
#
# Compressibility (1/GPa) = 0.10787094
#
# Stress axis : x y z
#
# Youngs Moduli (GPa) = 60.04418 15.55090 67.83606
#
# Poissons Ratio (x) = 0.02096 0.00870
# Poissons Ratio (y) = 0.08092 -0.51291
# Poissons Ratio (z) = 0.00770 -0.11758
#
# Static dielectric constant tensor:
#      x y z
#    x 1.771240 0.000000 0.000000 
#    y 0.000000 1.719160 0.000000 
#    z 0.000000 0.000000 1.730140 
# 
# From -- ./inp_files/24664.got.cif
#   From: 2010.05.17/outbox.cif.g08.bks.cpg/sg59_13_cif.got.tgz:24664.got - 2010.06.03 14:40:33.
