data_PCOD9450262
_publ_section_title
;
Structure prediction by ZEFSAII (Michael W. Deem and Ramdas Pophale) SiO2 
 PCOD9450262
Probable space group: P M M N
;
_chemical_formula_sum "Si O2"
_cell_formula_units_Z 64
_cell_length_a 14.676917
_cell_length_b 7.846368
_cell_length_c 26.996049
_cell_angle_alpha 90.000000
_cell_angle_beta 90.000000
_cell_angle_gamma 90.000000
_cell_volume 3108.878282
_symmetry_space_group_name_H-M "P M M N"
_symmetry_group_IT_number 59
_space_group.IT_coordinate_system_code '2'
_symmetry_cell_setting 'orthorhombic'
loop_
_space_group_symop_operation_xyz
x,y,z
1/2-x,1/2-y,z
1/2+x,-y,-z
-x,1/2+y,-z
-x,-y,-z
1/2+x,1/2+y,-z
1/2-x,y,z
x,1/2-y,z
loop_
_atom_site_type_symbol
_atom_site_label
_atom_site_fract_x
_atom_site_fract_y
_atom_site_fract_z
Si Si1 0.353220 0.453325 0.980666
Si Si2 0.651030 0.551274 0.261305
Si Si3 0.351165 0.955272 0.164485
Si Si4 0.973052 0.952143 0.927036
Si Si5 0.649646 0.455167 0.374912
Si Si6 0.852935 0.453901 0.639279
Si Si7 0.486420 0.452715 0.443159
Si Si8 0.451842 0.959056 0.261880
O O1 0.250000 0.520251 0.975089
O O2 0.345720 0.250000 0.986687
O O3 0.424555 0.483602 0.936290
O O4 0.406125 0.521869 0.029433
O O5 0.750000 0.475941 0.246686
O O6 0.652688 0.750000 0.246616
O O7 0.646423 0.539084 0.321043
O O8 0.552775 0.478662 0.246545
O O9 0.250000 0.019435 0.151423
O O10 0.348002 0.750000 0.164589
O O11 0.380758 0.008404 0.219499
O O12 0.426560 0.006798 0.124793
O O13 0.976906 0.750000 0.932873
O O14 0.750000 0.486381 0.396433
O O15 0.640747 0.250000 0.367732
O O16 0.570844 0.519320 0.410470
O O17 0.750000 0.520523 0.643738
O O18 0.848913 0.250000 0.645295
O O19 0.896501 0.488983 0.585830
O O20 0.917759 0.517694 0.684041
O O21 0.500000 0.500000 0.500000
O O22 0.488379 0.250000 0.440325
O O23 0.456370 0.750000 0.263283
#
# Coordination Sequence:
#
# PCOD9450262 Si02
#       8
#     8   8   8   8   8   8   8   8
#     4   9  18  34  56  80 108 146 191 234 278 331
#     4   9  16  28  51  79 101 124 161 210 258 304
#     4  10  20  34  53  77 107 147 192 232 271 321
#     4  10  20  34  53  80 114 147 182 231 286 334
#     4   9  18  33  52  73  97 126 160 200 249 305
#     4  10  20  36  58  80 105 140 178 218 267 317
#     4  11  23  37  54  77 106 137 171 213 263 317
#     4   9  17  32  54  79 107 139 180 223 265 316
#
# _framework density 20.586203000000001
#
# number of rings (size 3 to 8) (size 9 to 14) (size 15 to 20)
#    0.000    2.375    1.250    1.500    0.000    4.250 
#    0.000    3.125    0.000    3.750    0.000    0.000 
#    0.000    0.000    0.000    0.000    0.000    0.000 
#
# Total GULP energy -356930.583951 kJ/mol
# GULP energy per Si atom -5577.040374 kJ/mol
# Density = 2.053935 g / cm^3
# Si number density = 20.586203 Si / 1000 Ang^3
#
#
#
# Elastic Constant Matrix: (Units=GPa)
#
#
# Indices 1 2 3 4 5 6 
#
# 1 147.9561 10.5407 25.8963 0.0000 0.0000 0.0000
# 2 10.5407 25.0593 -5.1291 0.0000 0.0000 0.0000
# 3 25.8963 -5.1291 62.0375 0.0000 0.0000 0.0000
# 4 0.0000 0.0000 0.0000 12.5538 0.0000 0.0000
# 5 0.0000 0.0000 0.0000 0.0000 23.5580 0.0000
# 6 0.0000 0.0000 0.0000 0.0000 0.0000 13.8763
#
#
#
# Elastic Compliance Matrix: (Units=1/GPa)
#
#
# Indices 1 2 3 4 5 6 
#
# 1 0.007656 -0.003941 -0.003522 0.000000 0.000000 0.000000
# 2 -0.003941 0.042621 0.005169 0.000000 0.000000 0.000000
# 3 -0.003522 0.005169 0.018017 0.000000 0.000000 0.000000
# 4 0.000000 0.000000 0.000000 0.079657 0.000000 0.000000
# 5 0.000000 0.000000 0.000000 0.000000 0.042448 0.000000
# 6 0.000000 0.000000 0.000000 0.000000 0.000000 0.072065
#
#
# Mechanical properties :
#
#
# Convention : Reuss Voigt Hill
#
# Bulk Modulus (GPa) = 15.69711 33.07430 24.38570
# Shear Modulus (GPa) = 17.34380 23.58061 20.46221
#
# Velocity S-wave (km/s) = 2.90573 3.38813 3.15616
# Velocity P-wave (km/s) = 4.34733 5.60420 5.01529
#
# Compressibility (1/GPa) = 0.06370599
#
# Stress axis : x y z
#
# Youngs Moduli (GPa) = 130.61788 23.46259 55.50410
#
# Poissons Ratio (x) = 0.09247 0.19547
# Poissons Ratio (y) = 0.51478 -0.28690
# Poissons Ratio (z) = 0.45999 -0.12128
#
# Static dielectric constant tensor:
#      x y z
#    x 1.788280 0.000000 0.000000 
#    y 0.000000 1.757530 0.000000 
#    z 0.000000 0.000000 1.734730 
# 
# From -- ./inp_files/32164.got.cif
#   From: 2010.05.17/outbox.cif.g08.bks.cpg/sg59_17_cif.got.tgz:32164.got - 2010.06.03 14:40:33.
