data_PCOD9450950
_publ_section_title
;
Structure prediction by ZEFSAII (Michael W. Deem and Ramdas Pophale) SiO2 
 PCOD9450950
Probable space group: P M M N
;
_chemical_formula_sum "Si O2"
_cell_formula_units_Z 48
_cell_length_a 8.903938
_cell_length_b 15.942616
_cell_length_c 19.444240
_cell_angle_alpha 90.000000
_cell_angle_beta 90.000000
_cell_angle_gamma 90.000000
_cell_volume 2760.150009
_symmetry_space_group_name_H-M "P M M N"
_symmetry_group_IT_number 59
_space_group.IT_coordinate_system_code '2'
_symmetry_cell_setting 'orthorhombic'
loop_
_space_group_symop_operation_xyz
x,y,z
1/2-x,1/2-y,z
1/2+x,-y,-z
-x,1/2+y,-z
-x,-y,-z
1/2+x,1/2+y,-z
1/2-x,y,z
x,1/2-y,z
loop_
_atom_site_type_symbol
_atom_site_label
_atom_site_fract_x
_atom_site_fract_y
_atom_site_fract_z
Si Si1 0.430215 0.000706 0.832427
Si Si2 0.432280 0.843634 0.923149
Si Si3 0.068946 0.846182 0.083917
Si Si4 0.578027 0.750000 0.291180
Si Si5 0.921703 0.750000 0.458121
Si Si6 0.928913 0.425838 0.705908
Si Si7 0.929422 0.074272 0.544123
O O1 0.250000 0.001458 0.830081
O O2 0.488763 0.082612 0.872546
O O3 0.495995 0.006972 0.755899
O O4 0.482647 0.918426 0.873975
O O5 0.250000 0.842945 0.920814
O O6 0.483933 0.750000 0.903437
O O7 0.470655 0.857738 0.003222
O O8 0.250000 0.854164 0.090722
O O9 0.029635 0.750000 0.102988
O O10 0.750000 0.750000 0.266411
O O11 0.580959 0.750000 0.374663
O O12 0.492172 0.665301 0.272146
O O13 0.750000 0.750000 0.482488
O O14 0.005081 0.664502 0.478005
O O15 0.750000 0.426265 0.713730
O O16 0.965187 0.437639 0.625331
O O17 0.750000 0.074931 0.537382
O O18 0.000000 0.000000 0.500000
#
# Coordination Sequence:
#
# PCOD9450950 Si02
#       7
#     8   8   8   4   4   8   8
#     4  11  21  31  50  77 104 133 171 221 263 303
#     4   8  16  33  54  73  95 130 176 220 265 311
#     4   9  18  33  52  73 101 137 171 207 260 320
#     4   9  17  31  51  75 103 133 168 209 252 301
#     4   9  17  31  53  81 109 137 168 209 260 311
#     4  10  21  35  51  74 107 143 174 205 258 322
#     4  10  20  35  57  81 107 141 180 220 262 316
#
# _framework density 17.390357999999999
#
# number of rings (size 3 to 8) (size 9 to 14) (size 15 to 20)
#    0.000    2.500    0.000    3.500    1.167    4.333 
#    0.000    0.833    1.833    4.000    0.000    0.000 
#    0.000    0.000    0.000    0.000    0.000    0.000 
#
# Total GULP energy -267807.714447 kJ/mol
# GULP energy per Si atom -5579.327384 kJ/mol
# Density = 1.735078 g / cm^3
# Si number density = 17.390358 Si / 1000 Ang^3
#
#
#
# Elastic Constant Matrix: (Units=GPa)
#
#
# Indices 1 2 3 4 5 6 
#
# 1 57.1919 52.1642 44.3015 0.0000 0.0000 0.0000
# 2 52.1642 134.3632 77.1183 0.0000 0.0000 0.0000
# 3 44.3015 77.1183 79.5686 0.0000 0.0000 0.0000
# 4 0.0000 0.0000 0.0000 28.3615 0.0000 0.0000
# 5 0.0000 0.0000 0.0000 0.0000 26.3102 0.0000
# 6 0.0000 0.0000 0.0000 0.0000 0.0000 26.7621
#
#
#
# Elastic Compliance Matrix: (Units=1/GPa)
#
#
# Indices 1 2 3 4 5 6 
#
# 1 0.032156 -0.004977 -0.013080 0.000000 0.000000 0.000000
# 2 -0.004977 0.017543 -0.014232 0.000000 0.000000 0.000000
# 3 -0.013080 -0.014232 0.033644 0.000000 0.000000 0.000000
# 4 0.000000 0.000000 0.000000 0.035259 0.000000 0.000000
# 5 0.000000 0.000000 0.000000 0.000000 0.038008 0.000000
# 6 0.000000 0.000000 0.000000 0.000000 0.000000 0.037366
#
#
# Mechanical properties :
#
#
# Convention : Reuss Voigt Hill
#
# Bulk Modulus (GPa) = 53.28865 68.69908 60.99387
# Shear Modulus (GPa) = 18.88142 22.78941 20.83542
#
# Velocity S-wave (km/s) = 3.29863 3.62396 3.46512
# Velocity P-wave (km/s) = 6.72437 7.55650 7.15254
#
# Compressibility (1/GPa) = 0.01876572
#
# Stress axis : x y z
#
# Youngs Moduli (GPa) = 31.09804 57.00234 29.72270
#
# Poissons Ratio (x) = 0.28368 0.38878
# Poissons Ratio (y) = 0.15476 0.42302
# Poissons Ratio (z) = 0.40677 0.81126
#
# Static dielectric constant tensor:
#      x y z
#    x 1.583740 0.000000 0.000000 
#    y 0.000000 1.579080 0.000000 
#    z 0.000000 0.000000 1.601530 
# 
# From -- ./inp_files/25522.got.cif
#   From: 2010.05.17/outbox.cif.g08.bks.cpg/sg59_13_cif.got.tgz:25522.got - 2010.06.03 14:40:33.
