data_PCOD9450013
_publ_section_title
;
Structure prediction by ZEFSAII (Michael W. Deem and Ramdas Pophale) SiO2 
 PCOD9450013
Probable space group: P M M N
;
_chemical_formula_sum "Si O2"
_cell_formula_units_Z 56
_cell_length_a 9.073678
_cell_length_b 19.476115
_cell_length_c 18.131524
_cell_angle_alpha 90.000000
_cell_angle_beta 90.000000
_cell_angle_gamma 90.000000
_cell_volume 3204.202852
_symmetry_space_group_name_H-M "P M M N"
_symmetry_group_IT_number 59
_space_group.IT_coordinate_system_code '2'
_symmetry_cell_setting 'orthorhombic'
loop_
_space_group_symop_operation_xyz
x,y,z
1/2-x,1/2-y,z
1/2+x,-y,-z
-x,1/2+y,-z
-x,-y,-z
1/2+x,1/2+y,-z
1/2-x,y,z
x,1/2-y,z
loop_
_atom_site_type_symbol
_atom_site_label
_atom_site_fract_x
_atom_site_fract_y
_atom_site_fract_z
Si Si1 0.073717 0.087957 0.379834
Si Si2 0.073402 0.432540 0.965116
Si Si3 0.928089 0.330393 0.514037
Si Si4 0.926891 0.070071 0.646527
Si Si5 0.578771 0.169237 0.073691
Si Si6 0.922126 0.945377 0.201337
Si Si7 0.422071 0.891966 0.771347
O O1 0.250000 0.091296 0.385526
O O2 0.999383 0.130425 0.445124
O O3 0.018971 0.116914 0.301288
O O4 0.028887 0.006935 0.380085
O O5 0.250000 0.440255 0.965452
O O6 0.026210 0.423568 0.879828
O O7 0.000000 0.500000 0.000000
O O8 0.020970 0.370334 0.015771
O O9 0.750000 0.334022 0.507835
O O10 0.969285 0.250000 0.516764
O O11 0.971410 0.372483 0.587503
O O12 0.750000 0.069903 0.651474
O O13 0.991881 0.081810 0.727701
O O14 0.750000 0.145585 0.066505
O O15 0.573886 0.250000 0.061683
O O16 0.534195 0.151896 0.157591
O O17 0.750000 0.927476 0.208898
O O18 0.933449 0.028261 0.204877
O O19 0.250000 0.877823 0.753913
#
# Coordination Sequence:
#
# PCOD9450013 Si02
#       7
#     8   8   8   8   8   8   8
#     4  10  20  33  53  82 110 135 172 221 271 318
#     4  11  21  35  57  83 112 144 185 230 274 324
#     4  10  21  37  55  75 103 142 182 217 262 320
#     4   9  19  35  55  80 107 135 174 224 270 315
#     4  10  21  37  55  78 111 149 187 226 275 332
#     4   9  18  33  54  80 106 136 176 221 269 320
#     4   9  17  33  53  76 107 141 177 217 265 323
#
# _framework density 17.477046000000001
#
# number of rings (size 3 to 8) (size 9 to 14) (size 15 to 20)
#    0.000    2.286    1.429    1.286    0.000    4.000 
#    0.000    2.143    0.000    2.571    0.000    0.000 
#    0.000    0.000    0.000    0.000    0.000    0.000 
#
# Total GULP energy -312435.144582 kJ/mol
# GULP energy per Si atom -5579.199010 kJ/mol
# Density = 1.743727 g / cm^3
# Si number density = 17.477046 Si / 1000 Ang^3
#
#
#
# Elastic Constant Matrix: (Units=GPa)
#
#
# Indices 1 2 3 4 5 6 
#
# 1 33.9329 36.1312 53.3130 0.0000 0.0000 0.0000
# 2 36.1312 79.6893 77.8871 0.0000 0.0000 0.0000
# 3 53.3130 77.8871 163.3252 0.0000 0.0000 0.0000
# 4 0.0000 0.0000 0.0000 18.5549 0.0000 0.0000
# 5 0.0000 0.0000 0.0000 0.0000 35.3727 0.0000
# 6 0.0000 0.0000 0.0000 0.0000 0.0000 21.2222
#
#
#
# Elastic Compliance Matrix: (Units=1/GPa)
#
#
# Indices 1 2 3 4 5 6 
#
# 1 0.072276 -0.018189 -0.014919 0.000000 0.000000 0.000000
# 2 -0.018189 0.028081 -0.007454 0.000000 0.000000 0.000000
# 3 -0.014919 -0.007454 0.014547 0.000000 0.000000 0.000000
# 4 0.000000 0.000000 0.000000 0.053894 0.000000 0.000000
# 5 0.000000 0.000000 0.000000 0.000000 0.028270 0.000000
# 6 0.000000 0.000000 0.000000 0.000000 0.000000 0.047120
#
#
# Mechanical properties :
#
#
# Convention : Reuss Voigt Hill
#
# Bulk Modulus (GPa) = 29.60220 67.95667 48.77943
# Shear Modulus (GPa) = 14.85560 22.33769 18.59665
#
# Velocity S-wave (km/s) = 2.91865 3.57895 3.26553
# Velocity P-wave (km/s) = 5.32283 7.48641 6.49534
#
# Compressibility (1/GPa) = 0.03378128
#
# Stress axis : x y z
#
# Youngs Moduli (GPa) = 13.83584 35.61096 68.74134
#
# Poissons Ratio (x) = 0.64772 1.02552
# Poissons Ratio (y) = 0.25166 0.51241
# Poissons Ratio (z) = 0.20641 0.26545
#
# Static dielectric constant tensor:
#      x y z
#    x 1.591220 0.000000 0.000000 
#    y 0.000000 1.583460 0.000000 
#    z 0.000000 0.000000 1.580870 
# 
# From -- ./inp_files/20992.got.cif
#   From: 2010.05.17/outbox.cif.g08.bks.cpg/sg59_11_cif.got.tgz:20992.got - 2010.06.03 14:40:33.
