data_PCOD9450948
_publ_section_title
;
Structure prediction by ZEFSAII (Michael W. Deem and Ramdas Pophale) SiO2 
 PCOD9450948
Probable space group: P M M N
;
_chemical_formula_sum "Si O2"
_cell_formula_units_Z 48
_cell_length_a 18.437059
_cell_length_b 8.924050
_cell_length_c 16.788281
_cell_angle_alpha 90.000000
_cell_angle_beta 90.000000
_cell_angle_gamma 90.000000
_cell_volume 2762.230206
_symmetry_space_group_name_H-M "P M M N"
_symmetry_group_IT_number 59
_space_group.IT_coordinate_system_code '2'
_symmetry_cell_setting 'orthorhombic'
loop_
_space_group_symop_operation_xyz
x,y,z
1/2-x,1/2-y,z
1/2+x,-y,-z
-x,1/2+y,-z
-x,-y,-z
1/2+x,1/2+y,-z
1/2-x,y,z
x,1/2-y,z
loop_
_atom_site_type_symbol
_atom_site_label
_atom_site_fract_x
_atom_site_fract_y
_atom_site_fract_z
Si Si1 0.919771 0.929000 0.499721
Si Si2 0.167720 0.429929 0.160004
Si Si3 0.528171 0.429275 0.918665
Si Si4 0.834849 0.071031 0.352303
Si Si5 0.949934 0.571627 0.244660
Si Si6 0.910795 0.572095 0.678281
O O1 0.925094 0.750000 0.488400
O O2 0.887656 0.958368 0.587980
O O3 0.872128 0.999471 0.430013
O O4 0.000000 0.000000 0.500000
O O5 0.250000 0.477021 0.143242
O O6 0.162878 0.250000 0.149268
O O7 0.106766 0.507827 0.106547
O O8 0.146803 0.461110 0.252317
O O9 0.531250 0.250000 0.924959
O O10 0.474544 0.467352 0.844958
O O11 0.500000 0.500000 0.000000
O O12 0.750000 0.033415 0.349090
O O13 0.842798 0.250000 0.355887
O O14 0.878484 0.008517 0.276544
O O15 0.941958 0.750000 0.250638
O O16 0.016583 0.517940 0.300148
O O17 0.927865 0.750000 0.683142
#
# Coordination Sequence:
#
# PCOD9450948 Si02
#       6
#     8   8   8   8   8   8
#     4  11  21  33  54  81 111 148 191 234 275 325
#     4   9  18  34  56  82 113 146 180 223 274 324
#     4  10  21  37  59  87 113 142 181 222 271 333
#     4  11  24  39  54  76 109 148 190 235 282 328
#     4  10  20  35  57  81 105 137 179 225 272 327
#     4   9  18  32  53  79 107 143 183 222 267 325
#
# _framework density 17.377262000000002
#
# number of rings (size 3 to 8) (size 9 to 14) (size 15 to 20)
#    0.000    2.000    1.667    2.000    0.000    5.000 
#    0.000    2.500    0.000    1.000    0.000    0.000 
#    0.000    0.000    0.000    0.000    0.000    0.000 
#
# Total GULP energy -267934.535931 kJ/mol
# GULP energy per Si atom -5581.969499 kJ/mol
# Density = 1.733771 g / cm^3
# Si number density = 17.377262 Si / 1000 Ang^3
#
#
#
# Elastic Constant Matrix: (Units=GPa)
#
#
# Indices 1 2 3 4 5 6 
#
# 1 152.1022 66.7270 88.7491 0.0000 0.0000 0.0000
# 2 66.7270 57.5813 59.2173 0.0000 0.0000 0.0000
# 3 88.7491 59.2173 138.4627 0.0000 0.0000 0.0000
# 4 0.0000 0.0000 0.0000 27.0760 0.0000 0.0000
# 5 0.0000 0.0000 0.0000 0.0000 19.3731 0.0000
# 6 0.0000 0.0000 0.0000 0.0000 0.0000 26.6111
#
#
#
# Elastic Compliance Matrix: (Units=1/GPa)
#
#
# Indices 1 2 3 4 5 6 
#
# 1 0.014377 -0.012824 -0.003731 0.000000 0.000000 0.000000
# 2 -0.012824 0.042441 -0.009931 0.000000 0.000000 0.000000
# 3 -0.003731 -0.009931 0.013861 0.000000 0.000000 0.000000
# 4 0.000000 0.000000 0.000000 0.036933 0.000000 0.000000
# 5 0.000000 0.000000 0.000000 0.000000 0.051618 0.000000
# 6 0.000000 0.000000 0.000000 0.000000 0.000000 0.037578
#
#
# Mechanical properties :
#
#
# Convention : Reuss Voigt Hill
#
# Bulk Modulus (GPa) = 56.47501 86.39255 71.43378
# Shear Modulus (GPa) = 19.55545 23.50890 21.53217
#
# Velocity S-wave (km/s) = 3.35826 3.68211 3.52390
# Velocity P-wave (km/s) = 6.89979 8.24021 7.59961
#
# Compressibility (1/GPa) = 0.01770695
#
# Stress axis : x y z
#
# Youngs Moduli (GPa) = 69.55456 23.56197 72.14594
#
# Poissons Ratio (x) = 0.30216 0.26915
# Poissons Ratio (y) = 0.89197 0.71651
# Poissons Ratio (z) = 0.25948 0.23400
#
# Static dielectric constant tensor:
#      x y z
#    x 1.565200 0.000000 0.000000 
#    y 0.000000 1.581140 0.000000 
#    z 0.000000 0.000000 1.592500 
# 
# From -- ./inp_files/27782.got.cif
#   From: 2010.05.17/outbox.cif.g08.bks.cpg/sg59_14_cif.got.tgz:27782.got - 2010.06.03 14:40:33.
