data_PCOD9450312
_publ_section_title
;
Structure prediction by ZEFSAII (Michael W. Deem and Ramdas Pophale) SiO2 
 PCOD9450312
Probable space group: P M M N
;
_chemical_formula_sum "Si O2"
_cell_formula_units_Z 56
_cell_length_a 14.642983
_cell_length_b 8.884343
_cell_length_c 24.365439
_cell_angle_alpha 90.000000
_cell_angle_beta 90.000000
_cell_angle_gamma 90.000000
_cell_volume 3169.779964
_symmetry_space_group_name_H-M "P M M N"
_symmetry_group_IT_number 59
_space_group.IT_coordinate_system_code '2'
_symmetry_cell_setting 'orthorhombic'
loop_
_space_group_symop_operation_xyz
x,y,z
1/2-x,1/2-y,z
1/2+x,-y,-z
-x,1/2+y,-z
-x,-y,-z
1/2+x,1/2+y,-z
1/2-x,y,z
x,1/2-y,z
loop_
_atom_site_type_symbol
_atom_site_label
_atom_site_fract_x
_atom_site_fract_y
_atom_site_fract_z
Si Si1 0.855188 0.931390 0.149813
Si Si2 0.005837 0.931087 0.766411
Si Si3 0.141351 0.072463 0.560440
Si Si4 0.641408 0.427498 0.556401
Si Si5 0.644101 0.568522 0.855529
Si Si6 0.497482 0.069518 0.360294
Si Si7 0.994761 0.069540 0.939856
O O1 0.750000 0.980740 0.146053
O O2 0.856304 0.750000 0.153741
O O3 0.916266 0.972558 0.096726
O O4 0.908243 0.998367 0.201960
O O5 0.014602 0.750000 0.767860
O O6 0.998675 0.978050 0.703254
O O7 0.915603 0.971018 0.801705
O O8 0.250000 0.051871 0.566943
O O9 0.121122 0.250000 0.561740
O O10 0.115587 0.005810 0.501039
O O11 0.086513 0.988550 0.607770
O O12 0.750000 0.447401 0.563622
O O13 0.621845 0.250000 0.552814
O O14 0.586688 0.500302 0.606172
O O15 0.750000 0.524681 0.851283
O O16 0.640206 0.750000 0.861798
O O17 0.592133 0.493013 0.906445
O O18 0.492971 0.250000 0.362492
O O19 0.990538 0.250000 0.942973
O O20 0.000000 0.000000 0.000000
#
# Coordination Sequence:
#
# PCOD9450312 Si02
#       7
#     8   8   8   8   8   8   8
#     4   9  19  36  56  76 102 139 177 214 260 308
#     4   9  20  36  53  77 105 135 174 217 259 305
#     4  10  21  37  56  77 103 137 176 217 263 317
#     4  10  21  37  56  78 105 136 172 216 264 315
#     4   9  18  35  57  77 102 139 178 216 260 307
#     4  11  22  35  54  79 108 140 173 214 263 315
#     4  10  20  34  53  80 112 141 174 216 258 306
#
# _framework density 17.666841000000002
#
# number of rings (size 3 to 8) (size 9 to 14) (size 15 to 20)
#    0.000    2.286    0.000    2.143    0.000    5.714 
#    0.000    5.714    0.000    0.000    0.000    0.000 
#    0.000    0.000    0.000    0.000    0.000    0.000 
#
# Total GULP energy -312616.272535 kJ/mol
# GULP energy per Si atom -5582.433438 kJ/mol
# Density = 1.762663 g / cm^3
# Si number density = 17.666841 Si / 1000 Ang^3
#
#
#
# Elastic Constant Matrix: (Units=GPa)
#
#
# Indices 1 2 3 4 5 6 
#
# 1 132.1141 35.1535 72.3854 0.0000 0.0000 0.0000
# 2 35.1535 42.1632 44.5448 0.0000 0.0000 0.0000
# 3 72.3854 44.5448 170.5444 0.0000 0.0000 0.0000
# 4 0.0000 0.0000 0.0000 30.7149 0.0000 0.0000
# 5 0.0000 0.0000 0.0000 0.0000 12.5621 0.0000
# 6 0.0000 0.0000 0.0000 0.0000 0.0000 34.0743
#
#
#
# Elastic Compliance Matrix: (Units=1/GPa)
#
#
# Indices 1 2 3 4 5 6 
#
# 1 0.010782 -0.005738 -0.003078 0.000000 0.000000 0.000000
# 2 -0.005738 0.035810 -0.006918 0.000000 0.000000 0.000000
# 3 -0.003078 -0.006918 0.008977 0.000000 0.000000 0.000000
# 4 0.000000 0.000000 0.000000 0.032557 0.000000 0.000000
# 5 0.000000 0.000000 0.000000 0.000000 0.079604 0.000000
# 6 0.000000 0.000000 0.000000 0.000000 0.000000 0.029348
#
#
# Mechanical properties :
#
#
# Convention : Reuss Voigt Hill
#
# Bulk Modulus (GPa) = 41.49065 72.10990 56.80028
# Shear Modulus (GPa) = 21.13450 28.31947 24.72698
#
# Velocity S-wave (km/s) = 3.46248 4.00806 3.74522
# Velocity P-wave (km/s) = 6.28658 7.89459 7.13602
#
# Compressibility (1/GPa) = 0.02410181
#
# Stress axis : x y z
#
# Youngs Moduli (GPa) = 92.74451 27.92503 111.39939
#
# Poissons Ratio (x) = 0.16024 0.34285
# Poissons Ratio (y) = 0.53219 0.77064
# Poissons Ratio (z) = 0.28543 0.19318
#
# Static dielectric constant tensor:
#      x y z
#    x 1.600460 0.000000 0.000000 
#    y 0.000000 1.592320 0.000000 
#    z 0.000000 0.000000 1.569520 
# 
# From -- ./inp_files/29027.got.cif
#   From: 2010.05.17/outbox.cif.g08.bks.cpg/sg59_15_cif.got.tgz:29027.got - 2010.06.03 14:40:33.
