data_PCOD9450183
_publ_section_title
;
Structure prediction by ZEFSAII (Michael W. Deem and Ramdas Pophale) SiO2 
 PCOD9450183
Probable space group: P M M N
;
_chemical_formula_sum "Si O2"
_cell_formula_units_Z 40
_cell_length_a 21.693763
_cell_length_b 8.772192
_cell_length_c 11.948363
_cell_angle_alpha 90.000000
_cell_angle_beta 90.000000
_cell_angle_gamma 90.000000
_cell_volume 2273.795634
_symmetry_space_group_name_H-M "P M M N"
_symmetry_group_IT_number 59
_space_group.IT_coordinate_system_code '2'
_symmetry_cell_setting 'orthorhombic'
loop_
_space_group_symop_operation_xyz
x,y,z
1/2-x,1/2-y,z
1/2+x,-y,-z
-x,1/2+y,-z
-x,-y,-z
1/2+x,1/2+y,-z
1/2-x,y,z
x,1/2-y,z
loop_
_atom_site_type_symbol
_atom_site_label
_atom_site_fract_x
_atom_site_fract_y
_atom_site_fract_z
Si Si1 0.823320 0.424921 0.206444
Si Si2 0.467865 0.430876 0.178028
Si Si3 0.820610 0.064416 0.460786
Si Si4 0.553831 0.432900 0.578909
Si Si5 0.084022 0.070668 0.947228
O O1 0.750000 0.422188 0.197326
O O2 0.845863 0.250000 0.194954
O O3 0.836900 0.479008 0.332859
O O4 0.852927 0.528555 0.112415
O O5 0.467097 0.250000 0.198139
O O6 0.456876 0.515356 0.293985
O O7 0.532425 0.479609 0.122270
O O8 0.419818 0.469334 0.078401
O O9 0.750000 0.013532 0.486866
O O10 0.818536 0.250000 0.461847
O O11 0.877705 0.016677 0.538088
O O12 0.500000 0.500000 0.500000
O O13 0.551410 0.250000 0.570793
O O14 0.070257 0.250000 0.938560
#
# Coordination Sequence:
#
# PCOD9450183 Si02
#       5
#     8   8   8   8   8
#     4   9  17  31  53  78 103 133 168 207 255 310
#     4  10  21  36  52  72 102 136 169 210 260 313
#     4   8  16  32  52  74 101 134 170 208 252 301
#     4  11  21  33  54  81 107 136 173 217 261 310
#     4  10  20  34  53  75 100 132 170 214 262 309
#
# _framework density 17.591729999999998
#
# number of rings (size 3 to 8) (size 9 to 14) (size 15 to 20)
#    0.000    2.400    0.000    4.200    0.000    4.400 
#    0.000    2.000    0.000    8.400    0.000    0.000 
#    0.000    0.000    0.000    0.000    0.000    0.000 
#
# Total GULP energy -223006.710839 kJ/mol
# GULP energy per Si atom -5575.167771 kJ/mol
# Density = 1.755169 g / cm^3
# Si number density = 17.591730 Si / 1000 Ang^3
#
#
#
# Elastic Constant Matrix: (Units=GPa)
#
#
# Indices 1 2 3 4 5 6 
#
# 1 61.6883 25.1012 65.2563 0.0000 0.0000 0.0000
# 2 25.1012 37.1825 36.9514 0.0000 0.0000 0.0000
# 3 65.2563 36.9514 136.8902 0.0000 0.0000 0.0000
# 4 0.0000 0.0000 0.0000 25.1051 0.0000 0.0000
# 5 0.0000 0.0000 0.0000 0.0000 28.1074 0.0000
# 6 0.0000 0.0000 0.0000 0.0000 0.0000 26.5385
#
#
#
# Elastic Compliance Matrix: (Units=1/GPa)
#
#
# Indices 1 2 3 4 5 6 
#
# 1 0.035063 -0.009647 -0.014110 0.000000 0.000000 0.000000
# 2 -0.009647 0.039408 -0.006039 0.000000 0.000000 0.000000
# 3 -0.014110 -0.006039 0.015662 0.000000 0.000000 0.000000
# 4 0.000000 0.000000 0.000000 0.039833 0.000000 0.000000
# 5 0.000000 0.000000 0.000000 0.000000 0.035578 0.000000
# 6 0.000000 0.000000 0.000000 0.000000 0.000000 0.037681
#
#
# Mechanical properties :
#
#
# Convention : Reuss Voigt Hill
#
# Bulk Modulus (GPa) = 32.74435 54.48653 43.61544
# Shear Modulus (GPa) = 18.31523 23.18035 20.74779
#
# Velocity S-wave (km/s) = 3.23015 3.63393 3.43797
# Velocity P-wave (km/s) = 5.70664 6.97476 6.37232
#
# Compressibility (1/GPa) = 0.03053962
#
# Stress axis : x y z
#
# Youngs Moduli (GPa) = 28.52040 25.37535 63.85022
#
# Poissons Ratio (x) = 0.24481 0.90095
# Poissons Ratio (y) = 0.27515 0.38557
# Poissons Ratio (z) = 0.40243 0.15323
#
# Static dielectric constant tensor:
#      x y z
#    x 1.611780 0.000000 0.000000 
#    y 0.000000 1.608360 0.000000 
#    z 0.000000 0.000000 1.590630 
# 
# From -- ./inp_files/14083.got.cif
#   From: 2010.05.17/outbox.cif.g08.bks.cpg/sg59_8_cif.got.tgz:14083.got - 2010.06.03 14:40:33.
