data_PCOD9450375
_publ_section_title
;
Structure prediction by ZEFSAII (Michael W. Deem and Ramdas Pophale) SiO2 
 PCOD9450375
Probable space group: P M M N
;
_chemical_formula_sum "Si O2"
_cell_formula_units_Z 56
_cell_length_a 15.203911
_cell_length_b 16.114600
_cell_length_c 12.250990
_cell_angle_alpha 90.000000
_cell_angle_beta 90.000000
_cell_angle_gamma 90.000000
_cell_volume 3001.553121
_symmetry_space_group_name_H-M "P M M N"
_symmetry_group_IT_number 59
_space_group.IT_coordinate_system_code '2'
_symmetry_cell_setting 'orthorhombic'
loop_
_space_group_symop_operation_xyz
x,y,z
1/2-x,1/2-y,z
1/2+x,-y,-z
-x,1/2+y,-z
-x,-y,-z
1/2+x,1/2+y,-z
1/2-x,y,z
x,1/2-y,z
loop_
_atom_site_type_symbol
_atom_site_label
_atom_site_fract_x
_atom_site_fract_y
_atom_site_fract_z
Si Si1 0.652374 0.152075 0.477220
Si Si2 0.348088 0.625358 0.265926
Si Si3 0.013012 0.655160 0.688268
Si Si4 0.516480 0.840342 0.117747
Si Si5 0.151971 0.434021 0.206390
Si Si6 0.607583 0.341297 0.083083
Si Si7 0.151704 0.469014 0.949922
O O1 0.750000 0.117426 0.450565
O O2 0.655014 0.250000 0.448700
O O3 0.640766 0.146451 0.607116
O O4 0.570082 0.116474 0.410187
O O5 0.250000 0.655189 0.230639
O O6 0.430700 0.654664 0.194961
O O7 0.346229 0.526860 0.252332
O O8 0.990034 0.750000 0.659746
O O9 0.078298 0.656095 0.791823
O O10 0.925042 0.612044 0.730356
O O11 0.559955 0.750000 0.136218
O O12 0.580010 0.920031 0.122291
O O13 0.476775 0.840402 0.995989
O O14 0.250000 0.397018 0.219907
O O15 0.135830 0.444298 0.076489
O O16 0.650621 0.250000 0.064189
O O17 0.649542 0.430782 0.057697
O O18 0.250000 0.441570 0.920399
#
# Coordination Sequence:
#
# PCOD9450375 Si02
#       7
#     8   8   8   8   8   8   8
#     4   9  19  36  56  78 106 140 177 220 276 339
#     4  10  20  36  58  83 109 140 183 233 283 332
#     4  10  20  35  55  78 109 145 181 224 275 330
#     4  11  21  34  57  85 114 148 186 230 277 329
#     4  10  20  34  54  79 109 145 184 227 272 324
#     4  10  20  34  55  83 111 143 185 233 286 336
#     4  11  22  37  55  79 118 159 189 225 274 332
#
# _framework density 18.657007
#
# number of rings (size 3 to 8) (size 9 to 14) (size 15 to 20)
#    0.000    1.857    2.857    1.714    0.000    2.857 
#    0.000    4.286    0.000    0.857    0.000    2.000 
#    0.000    0.000    0.000    0.000    0.000    0.000 
#
# Total GULP energy -311938.569531 kJ/mol
# GULP energy per Si atom -5570.331599 kJ/mol
# Density = 1.861454 g / cm^3
# Si number density = 18.657007 Si / 1000 Ang^3
#
#
#
# Elastic Constant Matrix: (Units=GPa)
#
#
# Indices 1 2 3 4 5 6 
#
# 1 121.0012 64.3400 44.7770 0.0000 0.0000 0.0000
# 2 64.3400 84.6431 17.2082 0.0000 0.0000 0.0000
# 3 44.7770 17.2082 55.9819 0.0000 0.0000 0.0000
# 4 0.0000 0.0000 0.0000 21.2141 0.0000 0.0000
# 5 0.0000 0.0000 0.0000 0.0000 26.1887 0.0000
# 6 0.0000 0.0000 0.0000 0.0000 0.0000 101.2469
#
#
#
# Elastic Compliance Matrix: (Units=1/GPa)
#
#
# Indices 1 2 3 4 5 6 
#
# 1 0.018885 -0.012036 -0.011405 0.000000 0.000000 0.000000
# 2 -0.012036 0.020273 0.003396 0.000000 0.000000 0.000000
# 3 -0.011405 0.003396 0.025942 0.000000 0.000000 0.000000
# 4 0.000000 0.000000 0.000000 0.047138 0.000000 0.000000
# 5 0.000000 0.000000 0.000000 0.000000 0.038184 0.000000
# 6 0.000000 0.000000 0.000000 0.000000 0.000000 0.009877
#
#
# Mechanical properties :
#
#
# Convention : Reuss Voigt Hill
#
# Bulk Modulus (GPa) = 39.98784 57.14185 48.56484
# Shear Modulus (GPa) = 23.95459 38.75001 31.35230
#
# Velocity S-wave (km/s) = 3.58711 4.56232 4.10379
# Velocity P-wave (km/s) = 6.21580 7.64507 6.96718
#
# Compressibility (1/GPa) = 0.02500760
#
# Stress axis : x y z
#
# Youngs Moduli (GPa) = 52.95165 49.32595 38.54800
#
# Poissons Ratio (x) = 0.59371 0.43965
# Poissons Ratio (y) = 0.63735 -0.13089
# Poissons Ratio (z) = 0.60393 -0.16749
#
# Static dielectric constant tensor:
#      x y z
#    x 1.655310 0.000000 0.000000 
#    y 0.000000 1.675910 0.000000 
#    z 0.000000 0.000000 1.635780 
# 
# From -- ./inp_files/16925.got.cif
#   From: 2010.05.17/outbox.cif.g08.bks.cpg/sg59_9_cif.got.tgz:16925.got - 2010.06.03 14:40:33.
