data_PCOD9450092
_publ_section_title
;
Structure prediction by ZEFSAII (Michael W. Deem and Ramdas Pophale) SiO2 
 PCOD9450092
Probable space group: P M M N
;
_chemical_formula_sum "Si O2"
_cell_formula_units_Z 48
_cell_length_a 15.579151
_cell_length_b 7.519616
_cell_length_c 19.617030
_cell_angle_alpha 90.000000
_cell_angle_beta 90.000000
_cell_angle_gamma 90.000000
_cell_volume 2298.120021
_symmetry_space_group_name_H-M "P M M N"
_symmetry_group_IT_number 59
_space_group.IT_coordinate_system_code '2'
_symmetry_cell_setting 'orthorhombic'
loop_
_space_group_symop_operation_xyz
x,y,z
1/2-x,1/2-y,z
1/2+x,-y,-z
-x,1/2+y,-z
-x,-y,-z
1/2+x,1/2+y,-z
1/2-x,y,z
x,1/2-y,z
loop_
_atom_site_type_symbol
_atom_site_label
_atom_site_fract_x
_atom_site_fract_y
_atom_site_fract_z
Si Si1 0.997653 0.531655 0.258565
Si Si2 0.655760 0.532937 0.355334
Si Si3 0.000667 0.035443 0.897611
Si Si4 0.342818 0.541689 0.345262
Si Si5 0.349955 0.038242 0.999442
Si Si6 0.399210 0.039056 0.496277
O O1 0.997125 0.750000 0.258585
O O2 0.916518 0.473991 0.303150
O O3 0.996428 0.474744 0.180358
O O4 0.080953 0.468059 0.299627
O O5 0.750000 0.480919 0.332429
O O6 0.651801 0.750000 0.357554
O O7 0.640292 0.471922 0.432920
O O8 0.005251 0.250000 0.898259
O O9 0.084299 0.970210 0.940303
O O10 0.910013 0.989563 0.933824
O O11 0.250000 0.460679 0.332455
O O12 0.338760 0.750000 0.327976
O O13 0.363324 0.532562 0.425514
O O14 0.250000 0.971594 0.001573
O O15 0.342770 0.250000 0.989695
O O16 0.385216 0.250000 0.493995
O O17 0.500000 0.000000 0.500000
#
# Coordination Sequence:
#
# PCOD9450092 Si02
#       6
#     8   8   8   8   8   8
#     4   9  17  31  49  73 103 131 164 206 251 299
#     4   9  17  29  48  73  98 124 159 207 257 298
#     4   9  18  32  53  78 102 132 171 209 244 296
#     4  10  20  34  51  72 101 136 170 209 258 304
#     4   9  18  33  52  76 106 135 163 203 254 301
#     4  11  20  33  53  74  99 131 172 217 259 303
#
# _framework density 20.886638999999999
#
# number of rings (size 3 to 8) (size 9 to 14) (size 15 to 20)
#    0.000    2.500    1.667    1.000    0.000    2.667 
#    0.000    5.833    0.000    0.000    0.000    0.000 
#    0.000    0.000    0.000    0.000    0.000    0.000 
#
# Total GULP energy -267792.933716 kJ/mol
# GULP energy per Si atom -5579.019452 kJ/mol
# Density = 2.083910 g / cm^3
# Si number density = 20.886639 Si / 1000 Ang^3
#
#
#
# Elastic Constant Matrix: (Units=GPa)
#
#
# Indices 1 2 3 4 5 6 
#
# 1 227.2244 3.9615 108.4409 0.0000 0.0000 0.0000
# 2 3.9615 54.6584 -1.3668 0.0000 0.0000 0.0000
# 3 108.4409 -1.3668 175.7458 0.0000 0.0000 0.0000
# 4 0.0000 0.0000 0.0000 1.3415 0.0000 0.0000
# 5 0.0000 0.0000 0.0000 0.0000 -60.2336 0.0000
# 6 0.0000 0.0000 0.0000 0.0000 0.0000 -16.5267
#
#
#
# Elastic Compliance Matrix: (Units=1/GPa)
#
#
# Indices 1 2 3 4 5 6 
#
# 1 0.006254 -0.000550 -0.003863 0.000000 0.000000 0.000000
# 2 -0.000550 0.018347 0.000482 0.000000 0.000000 0.000000
# 3 -0.003863 0.000482 0.008078 0.000000 0.000000 0.000000
# 4 0.000000 0.000000 0.000000 0.745431 0.000000 0.000000
# 5 0.000000 0.000000 0.000000 0.000000 -0.016602 0.000000
# 6 0.000000 0.000000 0.000000 0.000000 0.000000 -0.060508
#
#
# Mechanical properties :
#
#
# Convention : Reuss Voigt Hill
#
# Bulk Modulus (GPa) = 40.29544 75.52221 57.90883
# Shear Modulus (GPa) = 6.97219 8.02245 7.49732
#
# Velocity S-wave (km/s) = 1.82903 1.96196 1.89666
# Velocity P-wave (km/s) = 4.87799 6.43188 5.70806
#
# Compressibility (1/GPa) = 0.02481670
#
# Stress axis : x y z
#
# Youngs Moduli (GPa) = 159.89038 54.50373 123.79895
#
# Poissons Ratio (x) = 0.02997 0.47828
# Poissons Ratio (y) = 0.08792 -0.05967
# Poissons Ratio (z) = 0.61772 -0.02627
#
# Static dielectric constant tensor:
#      x y z
#    x 1.747300 0.000000 0.000000 
#    y 0.000000 1.783320 0.000000 
#    z 0.000000 0.000000 1.717480 
# 
# From -- ./inp_files/27366.got.cif
#   From: 2010.05.17/outbox.cif.g08.bks.cpg/sg59_14_cif.got.tgz:27366.got - 2010.06.03 14:40:33.
