data_PCOD9450333
_publ_section_title
;
Structure prediction by ZEFSAII (Michael W. Deem and Ramdas Pophale) SiO2 
 PCOD9450333
Probable space group: P M M N
;
_chemical_formula_sum "Si O2"
_cell_formula_units_Z 64
_cell_length_a 14.079595
_cell_length_b 23.233398
_cell_length_c 10.030494
_cell_angle_alpha 90.000000
_cell_angle_beta 90.000000
_cell_angle_gamma 90.000000
_cell_volume 3281.143444
_symmetry_space_group_name_H-M "P M M N"
_symmetry_group_IT_number 59
_space_group.IT_coordinate_system_code '2'
_symmetry_cell_setting 'orthorhombic'
loop_
_space_group_symop_operation_xyz
x,y,z
1/2-x,1/2-y,z
1/2+x,-y,-z
-x,1/2+y,-z
-x,-y,-z
1/2+x,1/2+y,-z
1/2-x,y,z
x,1/2-y,z
loop_
_atom_site_type_symbol
_atom_site_label
_atom_site_fract_x
_atom_site_fract_y
_atom_site_fract_z
Si Si1 0.453899 0.625120 0.351684
Si Si2 0.358199 0.067101 0.703338
Si Si3 0.061205 0.621743 0.852828
Si Si4 0.862276 0.316834 0.900341
Si Si5 0.389807 0.502920 0.966692
Si Si6 0.855596 0.929401 0.790576
Si Si7 0.639101 0.316996 0.406429
Si Si8 0.638981 0.009099 0.543513
O O1 0.564825 0.616409 0.321191
O O2 0.399958 0.642400 0.216988
O O3 0.424632 0.670155 0.464787
O O4 0.418505 0.563812 0.407816
O O5 0.250000 0.084349 0.673746
O O6 0.364516 0.042892 0.852861
O O7 0.382291 0.014038 0.603955
O O8 0.120693 0.566293 0.906071
O O9 0.103288 0.643690 0.714159
O O10 0.949303 0.606063 0.834319
O O11 0.079491 0.668838 0.966516
O O12 0.750000 0.326181 0.923556
O O13 0.874776 0.250000 0.862015
O O14 0.500000 0.500000 0.000000
O O15 0.347296 0.482942 0.106383
O O16 0.750000 0.901261 0.789997
O O17 0.875422 0.956308 0.645662
O O18 0.750000 0.329418 0.437065
O O19 0.632500 0.250000 0.368523
O O20 0.750000 0.024453 0.548293
#
# Coordination Sequence:
#
# PCOD9450333 Si02
#       8
#     8   8   8   8   8   8   8   8
#     4  12  21  37  61  82 111 148 186 225 277 335
#     4  11  23  37  56  85 121 153 183 222 271 333
#     4  11  21  37  59  82 113 152 188 225 280 338
#     4  11  24  40  58  81 107 139 185 240 290 331
#     4  10  20  34  53  83 116 150 187 224 269 327
#     4  10  20  35  56  85 121 152 185 227 271 332
#     4  11  24  40  59  84 110 141 187 241 291 334
#     4  10  20  34  55  86 118 149 184 223 271 331
#
# _framework density 19.505395
#
# number of rings (size 3 to 8) (size 9 to 14) (size 15 to 20)
#    0.000    1.250    0.000    8.250    0.000    6.000 
#    0.000    0.000    0.000    4.500    0.000    0.000 
#    0.000    0.000    0.000    0.000    0.000    0.000 
#
# Total GULP energy -357511.913461 kJ/mol
# GULP energy per Si atom -5586.123648 kJ/mol
# Density = 1.946100 g / cm^3
# Si number density = 19.505395 Si / 1000 Ang^3
#
#
#
# Elastic Constant Matrix: (Units=GPa)
#
#
# Indices 1 2 3 4 5 6 
#
# 1 86.8512 33.5377 -22.5932 0.0000 0.0000 0.0000
# 2 33.5377 44.5639 -7.7939 0.0000 0.0000 0.0000
# 3 -22.5932 -7.7939 48.9909 0.0000 0.0000 0.0000
# 4 0.0000 0.0000 0.0000 19.5687 0.0000 0.0000
# 5 0.0000 0.0000 0.0000 0.0000 38.8275 0.0000
# 6 0.0000 0.0000 0.0000 0.0000 0.0000 25.4246
#
#
#
# Elastic Compliance Matrix: (Units=1/GPa)
#
#
# Indices 1 2 3 4 5 6 
#
# 1 0.017942 -0.012400 0.006301 0.000000 0.000000 0.000000
# 2 -0.012400 0.031652 -0.000683 0.000000 0.000000 0.000000
# 3 0.006301 -0.000683 0.023209 0.000000 0.000000 0.000000
# 4 0.000000 0.000000 0.000000 0.051102 0.000000 0.000000
# 5 0.000000 0.000000 0.000000 0.000000 0.025755 0.000000
# 6 0.000000 0.000000 0.000000 0.000000 0.000000 0.039332
#
#
# Mechanical properties :
#
#
# Convention : Reuss Voigt Hill
#
# Bulk Modulus (GPa) = 16.88075 20.74525 18.81300
# Shear Modulus (GPa) = 22.49184 28.58117 25.53650
#
# Velocity S-wave (km/s) = 3.39943 3.83207 3.62222
# Velocity P-wave (km/s) = 4.90727 5.49895 5.21151
#
# Compressibility (1/GPa) = 0.05923908
#
# Stress axis : x y z
#
# Youngs Moduli (GPa) = 55.73646 31.59318 43.08624
#
# Poissons Ratio (x) = 0.39177 -0.27150
# Poissons Ratio (y) = 0.69115 0.02943
# Poissons Ratio (z) = -0.35122 0.02158
#
# Static dielectric constant tensor:
#      x y z
#    x 1.712530 0.000000 0.000000 
#    y 0.000000 1.684610 0.000000 
#    z 0.000000 0.000000 1.680550 
# 
# From -- ./inp_files/9605.got.cif
#   From: 2010.05.17/outbox.cif.g08.bks.cpg/sg59_5_cif.got.tgz:9605.got - 2010.06.03 14:40:33.
