data_PCOD9450977
_publ_section_title
;
Structure prediction by ZEFSAII (Michael W. Deem and Ramdas Pophale) SiO2 
 PCOD9450977
Probable space group: P M M N
;
_chemical_formula_sum "Si O2"
_cell_formula_units_Z 48
_cell_length_a 9.100286
_cell_length_b 16.023832
_cell_length_c 17.407875
_cell_angle_alpha 90.000000
_cell_angle_beta 90.000000
_cell_angle_gamma 90.000000
_cell_volume 2538.441644
_symmetry_space_group_name_H-M "P M M N"
_symmetry_group_IT_number 59
_space_group.IT_coordinate_system_code '2'
_symmetry_cell_setting 'orthorhombic'
loop_
_space_group_symop_operation_xyz
x,y,z
1/2-x,1/2-y,z
1/2+x,-y,-z
-x,1/2+y,-z
-x,-y,-z
1/2+x,1/2+y,-z
1/2-x,y,z
x,1/2-y,z
loop_
_atom_site_type_symbol
_atom_site_label
_atom_site_fract_x
_atom_site_fract_y
_atom_site_fract_z
Si Si1 0.922348 0.102851 0.163868
Si Si2 0.572415 0.004503 0.583516
Si Si3 0.580219 0.349813 0.995698
Si Si4 0.427326 0.154655 0.677309
Si Si5 0.573616 0.658018 0.682698
Si Si6 0.579396 0.905368 0.157449
O O1 0.750000 0.127631 0.166075
O O2 0.980687 0.123310 0.078709
O O3 0.006439 0.146402 0.232910
O O4 0.931519 0.003535 0.175084
O O5 0.750000 0.008064 0.578860
O O6 0.509665 0.085255 0.627654
O O7 0.500000 0.000000 0.500000
O O8 0.529891 0.920441 0.630258
O O9 0.750000 0.377765 0.994158
O O10 0.575468 0.250000 0.991742
O O11 0.502149 0.385728 0.921178
O O12 0.250000 0.140665 0.673331
O O13 0.456083 0.250000 0.653087
O O14 0.472298 0.142937 0.766606
O O15 0.750000 0.655530 0.688314
O O16 0.531507 0.750000 0.652307
O O17 0.750000 0.883803 0.146030
#
# Coordination Sequence:
#
# PCOD9450977 Si02
#       6
#     8   8   8   8   8   8
#     4  10  20  36  58  83 114 153 198 246 294 346
#     4  11  24  42  65  92 123 156 195 243 296 361
#     4  10  21  34  49  77 116 155 197 245 295 344
#     4  10  21  39  63  90 122 159 200 248 301 354
#     4  10  22  40  62  89 120 155 194 239 294 352
#     4  10  20  35  57  83 113 154 202 246 293 348
#
# _framework density 18.909238999999999
#
# number of rings (size 3 to 8) (size 9 to 14) (size 15 to 20)
#    0.000    1.833    1.667    2.000    0.000    5.667 
#    0.000    1.667    0.000    0.000    0.000    0.000 
#    0.000    0.000    0.000    0.000    0.000    0.000 
#
# Total GULP energy -268023.377121 kJ/mol
# GULP energy per Si atom -5583.820357 kJ/mol
# Density = 1.886620 g / cm^3
# Si number density = 18.909239 Si / 1000 Ang^3
#
#
#
# Elastic Constant Matrix: (Units=GPa)
#
#
# Indices 1 2 3 4 5 6 
#
# 1 32.5317 42.5867 44.7315 0.0000 0.0000 0.0000
# 2 42.5867 114.5931 72.7973 0.0000 0.0000 0.0000
# 3 44.7315 72.7973 136.9001 0.0000 0.0000 0.0000
# 4 0.0000 0.0000 0.0000 3.4729 0.0000 0.0000
# 5 0.0000 0.0000 0.0000 0.0000 36.3431 0.0000
# 6 0.0000 0.0000 0.0000 0.0000 0.0000 22.4275
#
#
#
# Elastic Compliance Matrix: (Units=1/GPa)
#
#
# Indices 1 2 3 4 5 6 
#
# 1 0.075427 -0.018688 -0.014708 0.000000 0.000000 0.000000
# 2 -0.018688 0.017808 -0.003364 0.000000 0.000000 0.000000
# 3 -0.014708 -0.003364 0.013899 0.000000 0.000000 0.000000
# 4 0.000000 0.000000 0.000000 0.287947 0.000000 0.000000
# 5 0.000000 0.000000 0.000000 0.000000 0.027516 0.000000
# 6 0.000000 0.000000 0.000000 0.000000 0.000000 0.044588
#
#
# Mechanical properties :
#
#
# Convention : Reuss Voigt Hill
#
# Bulk Modulus (GPa) = 29.74818 67.13954 48.44386
# Shear Modulus (GPa) = 9.05948 20.70931 14.88439
#
# Velocity S-wave (km/s) = 2.19122 3.31296 2.80866
# Velocity P-wave (km/s) = 4.70831 7.08644 6.01605
#
# Compressibility (1/GPa) = 0.03361550
#
# Stress axis : x y z
#
# Youngs Moduli (GPa) = 13.25789 56.15382 71.94768
#
# Poissons Ratio (x) = 1.04938 1.05822
# Poissons Ratio (y) = 0.24776 0.24200
# Poissons Ratio (z) = 0.19500 0.18888
#
# Static dielectric constant tensor:
#      x y z
#    x 1.646940 0.000000 0.000000 
#    y 0.000000 1.668770 0.000000 
#    z 0.000000 0.000000 1.634780 
# 
# From -- ./inp_files/23665.got.cif
#   From: 2010.05.17/outbox.cif.g08.bks.cpg/sg59_12_cif.got.tgz:23665.got - 2010.06.03 14:40:33.
