data_PCOD9450394
_publ_section_title
;
Structure prediction by ZEFSAII (Michael W. Deem and Ramdas Pophale) SiO2 
 PCOD9450394
Probable space group: P M M N
;
_chemical_formula_sum "Si O2"
_cell_formula_units_Z 48
_cell_length_a 7.453026
_cell_length_b 19.599675
_cell_length_c 14.017095
_cell_angle_alpha 90.000000
_cell_angle_beta 90.000000
_cell_angle_gamma 90.000000
_cell_volume 2047.573608
_symmetry_space_group_name_H-M "P M M N"
_symmetry_group_IT_number 59
_space_group.IT_coordinate_system_code '2'
_symmetry_cell_setting 'orthorhombic'
loop_
_space_group_symop_operation_xyz
x,y,z
1/2-x,1/2-y,z
1/2+x,-y,-z
-x,1/2+y,-z
-x,-y,-z
1/2+x,1/2+y,-z
1/2-x,y,z
x,1/2-y,z
loop_
_atom_site_type_symbol
_atom_site_label
_atom_site_fract_x
_atom_site_fract_y
_atom_site_fract_z
Si Si1 0.464885 0.957172 0.301263
Si Si2 0.455816 0.081185 0.413729
Si Si3 0.033507 0.829601 0.767382
Si Si4 0.035196 0.172266 0.586145
Si Si5 0.031055 0.827439 0.981457
Si Si6 0.035485 0.954119 0.092164
O O1 0.250000 0.966798 0.301845
O O2 0.500127 0.878464 0.325945
O O3 0.534443 0.975600 0.195748
O O4 0.536544 0.008255 0.383036
O O5 0.250000 0.069437 0.442458
O O6 0.458139 0.124111 0.315736
O O7 0.537531 0.129525 0.495085
O O8 0.250000 0.833817 0.763291
O O9 0.985016 0.750000 0.753678
O O10 0.976570 0.849560 0.874521
O O11 0.250000 0.177733 0.574984
O O12 0.966814 0.250000 0.593220
O O13 0.250000 0.827535 0.980944
O O14 0.973253 0.750000 0.996381
O O15 0.969374 0.879483 0.061297
O O16 0.250000 0.950798 0.102122
O O17 0.000000 0.000000 0.000000
#
# Coordination Sequence:
#
# PCOD9450394 Si02
#       6
#     8   8   8   8   8   8
#     4  10  22  37  55  82 110 138 177 223 268 315
#     4  10  20  35  54  77 108 141 173 214 267 325
#     4   9  17  29  48  76 105 135 177 222 261 308
#     4  10  22  39  57  77 103 140 182 219 265 326
#     4   8  15  29  48  70  99 136 175 212 253 306
#     4  10  20  34  54  80 108 139 176 216 260 311
#
# _framework density 23.44238
#
# number of rings (size 3 to 8) (size 9 to 14) (size 15 to 20)
#    0.000    2.500    0.000    3.000    0.000    4.000 
#    0.000    1.667    0.000    1.500    0.000    0.000 
#    0.000    0.000    0.000    0.000    0.000    0.000 
#
# Total GULP energy -268154.127211 kJ/mol
# GULP energy per Si atom -5586.544317 kJ/mol
# Density = 2.338902 g / cm^3
# Si number density = 23.442380 Si / 1000 Ang^3
#
#
#
# Elastic Constant Matrix: (Units=GPa)
#
#
# Indices 1 2 3 4 5 6 
#
# 1 75.6744 2.5906 6.7299 0.0000 0.0000 0.0000
# 2 2.5906 126.0632 60.4213 0.0000 0.0000 0.0000
# 3 6.7299 60.4213 107.9668 0.0000 0.0000 0.0000
# 4 0.0000 0.0000 0.0000 44.1524 0.0000 0.0000
# 5 0.0000 0.0000 0.0000 0.0000 -23.4273 0.0000
# 6 0.0000 0.0000 0.0000 0.0000 0.0000 10.7804
#
#
#
# Elastic Compliance Matrix: (Units=1/GPa)
#
#
# Indices 1 2 3 4 5 6 
#
# 1 0.013291 0.000169 -0.000923 0.000000 0.000000 0.000000
# 2 0.000169 0.010842 -0.006078 0.000000 0.000000 0.000000
# 3 -0.000923 -0.006078 0.012721 0.000000 0.000000 0.000000
# 4 0.000000 0.000000 0.000000 0.022649 0.000000 0.000000
# 5 0.000000 0.000000 0.000000 0.000000 -0.042685 0.000000
# 6 0.000000 0.000000 0.000000 0.000000 0.000000 0.092761
#
#
# Mechanical properties :
#
#
# Convention : Reuss Voigt Hill
#
# Bulk Modulus (GPa) = 43.12176 49.90976 46.51576
# Shear Modulus (GPa) = 38.17585 22.29862 30.23723
#
# Velocity S-wave (km/s) = 4.03984 3.08751 3.59535
# Velocity P-wave (km/s) = 6.33996 5.83498 6.09270
#
# Compressibility (1/GPa) = 0.02319015
#
# Stress axis : x y z
#
# Youngs Moduli (GPa) = 75.23996 92.23137 78.60894
#
# Poissons Ratio (x) = -0.01562 0.07258
# Poissons Ratio (y) = -0.01274 0.47780
# Poissons Ratio (z) = 0.06947 0.56060
#
# Static dielectric constant tensor:
#      x y z
#    x 1.870510 0.000000 0.000000 
#    y 0.000000 1.894460 0.000000 
#    z 0.000000 0.000000 1.894440 
# 
# From -- ./inp_files/20430.got.cif
#   From: 2010.05.17/outbox.cif.g08.bks.cpg/sg59_11_cif.got.tgz:20430.got - 2010.06.03 14:40:33.
