data_PCOD9450114
_publ_section_title
;
Structure prediction by ZEFSAII (Michael W. Deem and Ramdas Pophale) SiO2 
 PCOD9450114
Probable space group: P M M N
;
_chemical_formula_sum "Si O2"
_cell_formula_units_Z 48
_cell_length_a 14.408336
_cell_length_b 7.772880
_cell_length_c 21.505855
_cell_angle_alpha 90.000000
_cell_angle_beta 90.000000
_cell_angle_gamma 90.000000
_cell_volume 2408.532461
_symmetry_space_group_name_H-M "P M M N"
_symmetry_group_IT_number 59
_space_group.IT_coordinate_system_code '2'
_symmetry_cell_setting 'orthorhombic'
loop_
_space_group_symop_operation_xyz
x,y,z
1/2-x,1/2-y,z
1/2+x,-y,-z
-x,1/2+y,-z
-x,-y,-z
1/2+x,1/2+y,-z
1/2-x,y,z
x,1/2-y,z
loop_
_atom_site_type_symbol
_atom_site_label
_atom_site_fract_x
_atom_site_fract_y
_atom_site_fract_z
Si Si1 0.853973 0.045820 0.395212
Si Si2 0.642369 0.542649 0.533582
Si Si3 0.855184 0.043209 0.030354
Si Si4 0.855344 0.955768 0.780747
Si Si5 0.961488 0.538543 0.658208
Si Si6 0.459698 0.545204 0.093380
O O1 0.750000 0.971422 0.390490
O O2 0.846826 0.250000 0.385383
O O3 0.932019 0.980441 0.348272
O O4 0.889042 0.021329 0.466063
O O5 0.750000 0.491281 0.539453
O O6 0.637850 0.750000 0.532037
O O7 0.588925 0.483695 0.594665
O O8 0.750000 0.979556 0.040507
O O9 0.850048 0.250000 0.026134
O O10 0.899068 0.977111 0.965211
O O11 0.933138 0.003404 0.081792
O O12 0.750000 0.023391 0.786612
O O13 0.848540 0.750000 0.773482
O O14 0.907514 0.021273 0.719190
O O15 0.915022 0.988253 0.842239
O O16 0.960769 0.750000 0.658735
O O17 0.454338 0.750000 0.091098
#
# Coordination Sequence:
#
# PCOD9450114 Si02
#       6
#     8   8   8   8   8   8
#     4   9  17  29  45  65  89 117 151 194 244 295
#     4   9  16  27  45  67  89 115 150 194 243 290
#     4   9  18  34  56  80 106 137 173 209 243 286
#     4  10  20  34  52  72  96 130 171 209 246 296
#     4   9  17  30  47  66  90 122 161 200 237 286
#     4  10  20  34  53  79 110 138 165 203 252 299
#
# _framework density 19.929147
#
# number of rings (size 3 to 8) (size 9 to 14) (size 15 to 20)
#    0.000    2.667    0.000    2.000    0.000    4.000 
#    0.000    2.500    0.000    5.000    0.000    0.000 
#    0.000    0.000    0.000    0.000    0.000    0.000 
#
# Total GULP energy -267760.444988 kJ/mol
# GULP energy per Si atom -5578.342604 kJ/mol
# Density = 1.988379 g / cm^3
# Si number density = 19.929147 Si / 1000 Ang^3
#
#
#
# Elastic Constant Matrix: (Units=GPa)
#
#
# Indices 1 2 3 4 5 6 
#
# 1 180.8291 8.4447 107.2115 0.0000 0.0000 0.0000
# 2 8.4447 26.2838 2.2382 0.0000 0.0000 0.0000
# 3 107.2115 2.2382 109.2250 0.0000 0.0000 0.0000
# 4 0.0000 0.0000 0.0000 9.3080 0.0000 0.0000
# 5 0.0000 0.0000 0.0000 0.0000 35.9923 0.0000
# 6 0.0000 0.0000 0.0000 0.0000 0.0000 11.6031
#
#
#
# Elastic Compliance Matrix: (Units=1/GPa)
#
#
# Indices 1 2 3 4 5 6 
#
# 1 0.013494 -0.003213 -0.013180 0.000000 0.000000 0.000000
# 2 -0.003213 0.038878 0.002357 0.000000 0.000000 0.000000
# 3 -0.013180 0.002357 0.022044 0.000000 0.000000 0.000000
# 4 0.000000 0.000000 0.000000 0.107434 0.000000 0.000000
# 5 0.000000 0.000000 0.000000 0.000000 0.027784 0.000000
# 6 0.000000 0.000000 0.000000 0.000000 0.000000 0.086184
#
#
# Mechanical properties :
#
#
# Convention : Reuss Voigt Hill
#
# Bulk Modulus (GPa) = 21.57739 61.34740 41.46240
# Shear Modulus (GPa) = 14.73463 24.61025 19.67244
#
# Velocity S-wave (km/s) = 2.72205 3.51791 3.14525
# Velocity P-wave (km/s) = 4.55302 6.88117 5.83440
#
# Compressibility (1/GPa) = 0.04634481
#
# Stress axis : x y z
#
# Youngs Moduli (GPa) = 74.10626 25.72159 45.36444
#
# Poissons Ratio (x) = 0.08265 0.59788
# Poissons Ratio (y) = 0.23812 -0.10694
# Poissons Ratio (z) = 0.97669 -0.06063
#
# Static dielectric constant tensor:
#      x y z
#    x 1.738870 0.000000 0.000000 
#    y 0.000000 1.722520 0.000000 
#    z 0.000000 0.000000 1.673680 
# 
# From -- ./inp_files/25464.got.cif
#   From: 2010.05.17/outbox.cif.g08.bks.cpg/sg59_13_cif.got.tgz:25464.got - 2010.06.03 14:40:33.
