data_PCOD9450861
_publ_section_title
;
Structure prediction by ZEFSAII (Michael W. Deem and Ramdas Pophale) SiO2 
 PCOD9450861
Probable space group: P M M N
;
_chemical_formula_sum "Si O2"
_cell_formula_units_Z 64
_cell_length_a 18.237552
_cell_length_b 9.170246
_cell_length_c 21.050217
_cell_angle_alpha 90.000000
_cell_angle_beta 90.000000
_cell_angle_gamma 90.000000
_cell_volume 3520.498037
_symmetry_space_group_name_H-M "P M M N"
_symmetry_group_IT_number 59
_space_group.IT_coordinate_system_code '2'
_symmetry_cell_setting 'orthorhombic'
loop_
_space_group_symop_operation_xyz
x,y,z
1/2-x,1/2-y,z
1/2+x,-y,-z
-x,1/2+y,-z
-x,-y,-z
1/2+x,1/2+y,-z
1/2-x,y,z
x,1/2-y,z
loop_
_atom_site_type_symbol
_atom_site_label
_atom_site_fract_x
_atom_site_fract_y
_atom_site_fract_z
Si Si1 0.839412 0.417819 0.929992
Si Si2 0.162391 0.078564 0.577315
Si Si3 0.916413 0.423847 0.684401
Si Si4 0.336131 0.576653 0.814046
Si Si5 0.073400 0.923884 0.686612
Si Si6 0.839433 0.918028 0.057326
Si Si7 0.337860 0.079206 0.430192
Si Si8 0.338568 0.419342 0.198778
O O1 0.750000 0.418039 0.930739
O O2 0.863110 0.250000 0.925574
O O3 0.861490 0.509782 0.868222
O O4 0.863802 0.492217 0.995558
O O5 0.250000 0.059483 0.584029
O O6 0.146322 0.250000 0.589239
O O7 0.143486 0.047983 0.503690
O O8 0.119971 0.978716 0.626565
O O9 0.917860 0.250000 0.687600
O O10 0.878779 0.478370 0.619536
O O11 0.871184 0.490518 0.743126
O O12 0.997218 0.491323 0.687291
O O13 0.250000 0.542711 0.803140
O O14 0.341119 0.750000 0.826624
O O15 0.381788 0.543599 0.751074
O O16 0.361932 0.490625 0.876332
O O17 0.061649 0.750000 0.683377
O O18 0.750000 0.921249 0.056928
O O19 0.862154 0.750000 0.053202
O O20 0.250000 0.063359 0.423419
O O21 0.355105 0.250000 0.417562
O O22 0.250000 0.424183 0.201882
O O23 0.361004 0.250000 0.202514
#
# Coordination Sequence:
#
# PCOD9450861 Si02
#       8
#     8   8   8   8   8   8   8   8
#     4   9  16  27  46  74 107 139 173 217 265 312
#     4   9  19  37  61  87 113 140 173 217 268 320
#     4  12  25  38  54  78 109 144 182 224 269 318
#     4   9  18  33  53  77 104 136 176 221 267 315
#     4  11  23  38  56  78 108 146 185 224 267 318
#     4   9  16  26  44  73 106 138 173 215 264 315
#     4   9  19  38  62  85 110 141 176 216 265 320
#     4  10  20  35  56  80 107 140 178 221 269 322
#
# _framework density 18.179247
#
# number of rings (size 3 to 8) (size 9 to 14) (size 15 to 20)
#    0.000    2.250    0.000    4.125    0.000    8.250 
#    0.000    2.500    0.000    0.750    0.000    0.000 
#    0.000    0.000    0.000    0.000    0.000    0.000 
#
# Total GULP energy -357324.375203 kJ/mol
# GULP energy per Si atom -5583.193363 kJ/mol
# Density = 1.813787 g / cm^3
# Si number density = 18.179247 Si / 1000 Ang^3
#
#
#
# Elastic Constant Matrix: (Units=GPa)
#
#
# Indices 1 2 3 4 5 6 
#
# 1 29.8882 48.4189 47.8240 0.0000 0.0000 0.0000
# 2 48.4189 145.6588 107.7413 0.0000 0.0000 0.0000
# 3 47.8240 107.7413 148.7327 0.0000 0.0000 0.0000
# 4 0.0000 0.0000 0.0000 38.7298 0.0000 0.0000
# 5 0.0000 0.0000 0.0000 0.0000 -11.7742 0.0000
# 6 0.0000 0.0000 0.0000 0.0000 0.0000 18.9397
#
#
#
# Elastic Compliance Matrix: (Units=1/GPa)
#
#
# Indices 1 2 3 4 5 6 
#
# 1 0.085441 -0.017408 -0.014863 0.000000 0.000000 0.000000
# 2 -0.017408 0.018337 -0.007686 0.000000 0.000000 0.000000
# 3 -0.014863 -0.007686 0.017070 0.000000 0.000000 0.000000
# 4 0.000000 0.000000 0.000000 0.025820 0.000000 0.000000
# 5 0.000000 0.000000 0.000000 0.000000 -0.084932 0.000000
# 6 0.000000 0.000000 0.000000 0.000000 0.000000 0.052799
#
#
# Mechanical properties :
#
#
# Convention : Reuss Voigt Hill
#
# Bulk Modulus (GPa) = 24.42904 81.36089 52.89496
# Shear Modulus (GPa) = 24.02768 17.19877 20.61323
#
# Velocity S-wave (km/s) = 3.63948 3.07916 3.37098
# Velocity P-wave (km/s) = 5.57926 7.58245 6.65664
#
# Compressibility (1/GPa) = 0.04093489
#
# Stress axis : x y z
#
# Youngs Moduli (GPa) = 11.70402 54.53396 58.58206
#
# Poissons Ratio (x) = 0.94933 0.87068
# Poissons Ratio (y) = 0.20374 0.45026
# Poissons Ratio (z) = 0.17395 0.41914
#
# Static dielectric constant tensor:
#      x y z
#    x 1.607370 0.000000 0.000000 
#    y 0.000000 1.605510 0.000000 
#    z 0.000000 0.000000 1.602160 
# 
# From -- ./inp_files/30682.got.cif
#   From: 2010.05.17/outbox.cif.g08.bks.cpg/sg59_16_cif.got.tgz:30682.got - 2010.06.03 14:40:33.
