data_PCOD9450732
_publ_section_title
;
Structure prediction by ZEFSAII (Michael W. Deem and Ramdas Pophale) SiO2 
 PCOD9450732
Probable space group: P M M N
;
_chemical_formula_sum "Si O2"
_cell_formula_units_Z 48
_cell_length_a 20.050326
_cell_length_b 7.530736
_cell_length_c 15.407851
_cell_angle_alpha 90.000000
_cell_angle_beta 90.000000
_cell_angle_gamma 90.000000
_cell_volume 2326.488614
_symmetry_space_group_name_H-M "P M M N"
_symmetry_group_IT_number 59
_space_group.IT_coordinate_system_code '2'
_symmetry_cell_setting 'orthorhombic'
loop_
_space_group_symop_operation_xyz
x,y,z
1/2-x,1/2-y,z
1/2+x,-y,-z
-x,1/2+y,-z
-x,-y,-z
1/2+x,1/2+y,-z
1/2-x,y,z
x,1/2-y,z
loop_
_atom_site_type_symbol
_atom_site_label
_atom_site_fract_x
_atom_site_fract_y
_atom_site_fract_z
Si Si1 0.825265 0.960981 0.864528
Si Si2 0.173311 0.532874 0.601908
Si Si3 0.090962 0.532292 0.772067
Si Si4 0.058611 0.457245 0.256627
Si Si5 0.928758 0.461262 0.544028
Si Si6 0.673892 0.464040 0.062566
O O1 0.750000 0.034280 0.854028
O O2 0.820550 0.750000 0.848497
O O3 0.881115 0.034999 0.799972
O O4 0.845321 0.985461 0.964881
O O5 0.250000 0.475407 0.599593
O O6 0.173306 0.750000 0.601451
O O7 0.135625 0.478122 0.689796
O O8 0.129678 0.473701 0.519580
O O9 0.090421 0.750000 0.770891
O O10 0.124970 0.474622 0.861661
O O11 0.015155 0.468696 0.761152
O O12 0.054270 0.250000 0.232014
O O13 0.073028 0.466727 0.358801
O O14 0.922214 0.250000 0.550719
O O15 0.000000 0.500000 0.500000
O O16 0.750000 0.526382 0.077469
O O17 0.675023 0.250000 0.066292
#
# Coordination Sequence:
#
# PCOD9450732 Si02
#       6
#     8   8   8   8   8   8
#     4   9  19  35  52  71 102 142 175 207 256 315
#     4   9  17  30  51  78 103 130 169 213 255 303
#     4   9  16  29  50  76 102 130 166 210 257 305
#     4  10  20  35  54  75 100 136 176 212 256 309
#     4  11  21  35  55  78 105 138 172 210 258 309
#     4   9  17  30  51  76 100 129 168 214 258 300
#
# _framework density 20.631951000000001
#
# number of rings (size 3 to 8) (size 9 to 14) (size 15 to 20)
#    0.000    2.500    1.667    1.000    0.000    4.000 
#    0.000    0.833    0.000    1.500    0.000    0.000 
#    0.000    0.000    0.000    0.000    0.000    0.000 
#
# Total GULP energy -267997.706616 kJ/mol
# GULP energy per Si atom -5583.285554 kJ/mol
# Density = 2.058499 g / cm^3
# Si number density = 20.631951 Si / 1000 Ang^3
#
#
#
# Elastic Constant Matrix: (Units=GPa)
#
#
# Indices 1 2 3 4 5 6 
#
# 1 202.7501 3.0294 140.4661 0.0000 0.0000 0.0000
# 2 3.0294 49.2152 -13.3768 0.0000 0.0000 0.0000
# 3 140.4661 -13.3768 173.8174 0.0000 0.0000 0.0000
# 4 0.0000 0.0000 0.0000 22.2652 0.0000 0.0000
# 5 0.0000 0.0000 0.0000 0.0000 41.0551 0.0000
# 6 0.0000 0.0000 0.0000 0.0000 0.0000 5.0031
#
#
#
# Elastic Compliance Matrix: (Units=1/GPa)
#
#
# Indices 1 2 3 4 5 6 
#
# 1 0.011729 -0.003369 -0.009737 0.000000 0.000000 0.000000
# 2 -0.003369 0.021721 0.004394 0.000000 0.000000 0.000000
# 3 -0.009737 0.004394 0.013960 0.000000 0.000000 0.000000
# 4 0.000000 0.000000 0.000000 0.044913 0.000000 0.000000
# 5 0.000000 0.000000 0.000000 0.000000 0.024358 0.000000
# 6 0.000000 0.000000 0.000000 0.000000 0.000000 0.199878
#
#
# Mechanical properties :
#
#
# Convention : Reuss Voigt Hill
#
# Bulk Modulus (GPa) = 33.34985 76.22444 54.78715
# Shear Modulus (GPa) = 14.53584 33.37561 23.95573
#
# Velocity S-wave (km/s) = 2.65718 4.02639 3.41119
# Velocity P-wave (km/s) = 5.06097 7.65773 6.49054
#
# Compressibility (1/GPa) = 0.02998514
#
# Stress axis : x y z
#
# Youngs Moduli (GPa) = 85.26112 46.03937 71.63118
#
# Poissons Ratio (x) = 0.15509 0.69751
# Poissons Ratio (y) = 0.28721 -0.31474
# Poissons Ratio (z) = 0.83023 -0.20229
#
# Static dielectric constant tensor:
#      x y z
#    x 1.727500 0.000000 0.000000 
#    y 0.000000 1.798910 0.000000 
#    z 0.000000 0.000000 1.679570 
# 
# From -- ./inp_files/17612.got.cif
#   From: 2010.05.17/outbox.cif.g08.bks.cpg/sg59_9_cif.got.tgz:17612.got - 2010.06.03 14:40:33.
