data_PCOD9450484
_publ_section_title
;
Structure prediction by ZEFSAII (Michael W. Deem and Ramdas Pophale) SiO2 
 PCOD9450484
Probable space group: P M M N
;
_chemical_formula_sum "Si O2"
_cell_formula_units_Z 64
_cell_length_a 8.825154
_cell_length_b 14.961763
_cell_length_c 26.594622
_cell_angle_alpha 90.000000
_cell_angle_beta 90.000000
_cell_angle_gamma 90.000000
_cell_volume 3511.550234
_symmetry_space_group_name_H-M "P M M N"
_symmetry_group_IT_number 59
_space_group.IT_coordinate_system_code '2'
_symmetry_cell_setting 'orthorhombic'
loop_
_space_group_symop_operation_xyz
x,y,z
1/2-x,1/2-y,z
1/2+x,-y,-z
-x,1/2+y,-z
-x,-y,-z
1/2+x,1/2+y,-z
1/2-x,y,z
x,1/2-y,z
loop_
_atom_site_type_symbol
_atom_site_label
_atom_site_fract_x
_atom_site_fract_y
_atom_site_fract_z
Si Si1 0.431275 0.995928 0.788128
Si Si2 0.067095 0.354336 0.868768
Si Si3 0.432852 0.145725 0.136282
Si Si4 0.075932 0.852472 0.607950
Si Si5 0.931723 0.495749 0.944606
Si Si6 0.930937 0.997623 0.677726
Si Si7 0.430247 0.401426 0.496730
Si Si8 0.927215 0.150086 0.599944
O O1 0.250000 0.988938 0.787673
O O2 0.472342 0.085270 0.819969
O O3 0.493654 0.001423 0.732011
O O4 0.498352 0.909919 0.817250
O O5 0.250000 0.356177 0.873875
O O6 0.020947 0.250000 0.865850
O O7 0.994953 0.409577 0.914762
O O8 0.250000 0.144767 0.140586
O O9 0.480467 0.250000 0.133542
O O10 0.472885 0.084882 0.087637
O O11 0.250000 0.884860 0.605122
O O12 0.076698 0.750000 0.624058
O O13 0.002762 0.858534 0.552778
O O14 0.982879 0.911007 0.647018
O O15 0.750000 0.491026 0.946715
O O16 0.000000 0.500000 0.000000
O O17 0.750000 0.999500 0.683295
O O18 0.976995 0.079554 0.641526
O O19 0.500000 0.500000 0.500000
O O20 0.250000 0.403803 0.491708
O O21 0.479050 0.356151 0.548733
O O22 0.750000 0.131233 0.587377
O O23 0.936373 0.250000 0.620386
#
# Coordination Sequence:
#
# PCOD9450484 Si02
#       8
#     8   8   8   8   8   8   8   8
#     4  10  21  37  58  83 112 144 183 236 288 336
#     4   9  19  37  59  82 111 151 195 237 284 336
#     4   9  19  37  59  81 108 147 193 235 278 333
#     4  11  24  41  61  85 114 147 184 231 283 335
#     4  10  20  34  54  84 120 155 192 235 283 334
#     4  11  23  39  60  84 113 150 187 229 279 337
#     4  12  23  37  60  86 114 149 186 226 276 335
#     4  10  22  40  60  84 114 147 184 228 278 332
#
# _framework density 18.225567999999999
#
# number of rings (size 3 to 8) (size 9 to 14) (size 15 to 20)
#    0.000    1.750    1.250    3.000    0.000    6.250 
#    0.000    1.250    0.000    0.000    0.000    0.000 
#    0.000    0.000    0.000    0.000    0.000    0.000 
#
# Total GULP energy -357367.360342 kJ/mol
# GULP energy per Si atom -5583.865005 kJ/mol
# Density = 1.818409 g / cm^3
# Si number density = 18.225568 Si / 1000 Ang^3
#
#
#
# Elastic Constant Matrix: (Units=GPa)
#
#
# Indices 1 2 3 4 5 6 
#
# 1 33.7215 29.2918 34.0665 0.0000 0.0000 0.0000
# 2 29.2918 146.3387 67.7925 0.0000 0.0000 0.0000
# 3 34.0665 67.7925 153.1855 0.0000 0.0000 0.0000
# 4 0.0000 0.0000 0.0000 26.6135 0.0000 0.0000
# 5 0.0000 0.0000 0.0000 0.0000 30.0516 0.0000
# 6 0.0000 0.0000 0.0000 0.0000 0.0000 25.4726
#
#
#
# Elastic Compliance Matrix: (Units=1/GPa)
#
#
# Indices 1 2 3 4 5 6 
#
# 1 0.040969 -0.005006 -0.006896 0.000000 0.000000 0.000000
# 2 -0.005006 0.009207 -0.002961 0.000000 0.000000 0.000000
# 3 -0.006896 -0.002961 0.009372 0.000000 0.000000 0.000000
# 4 0.000000 0.000000 0.000000 0.037575 0.000000 0.000000
# 5 0.000000 0.000000 0.000000 0.000000 0.033276 0.000000
# 6 0.000000 0.000000 0.000000 0.000000 0.000000 0.039258
#
#
# Mechanical properties :
#
#
# Convention : Reuss Voigt Hill
#
# Bulk Modulus (GPa) = 33.53174 66.17192 49.85183
# Shear Modulus (GPa) = 23.88630 29.90054 26.89342
#
# Velocity S-wave (km/s) = 3.62414 4.05480 3.84551
# Velocity P-wave (km/s) = 5.99588 7.63596 6.86508
#
# Compressibility (1/GPa) = 0.02982249
#
# Stress axis : x y z
#
# Youngs Moduli (GPa) = 24.40849 108.60775 106.69957
#
# Poissons Ratio (x) = 0.54371 0.73575
# Poissons Ratio (y) = 0.12219 0.31599
# Poissons Ratio (z) = 0.16831 0.32164
#
# Static dielectric constant tensor:
#      x y z
#    x 1.619650 0.000000 0.000000 
#    y 0.000000 1.819580 0.000000 
#    z 0.000000 0.000000 1.588970 
# 
# From -- ./inp_files/31425.got.cif
#   From: 2010.05.17/outbox.cif.g08.bks.cpg/sg59_16_cif.got.tgz:31425.got - 2010.06.03 14:40:33.
