data_PCOD9450772
_publ_section_title
;
Structure prediction by ZEFSAII (Michael W. Deem and Ramdas Pophale) SiO2 
 PCOD9450772
Probable space group: P M M N
;
_chemical_formula_sum "Si O2"
_cell_formula_units_Z 64
_cell_length_a 22.301266
_cell_length_b 8.951985
_cell_length_c 17.161916
_cell_angle_alpha 90.000000
_cell_angle_beta 90.000000
_cell_angle_gamma 90.000000
_cell_volume 3426.215185
_symmetry_space_group_name_H-M "P M M N"
_symmetry_group_IT_number 59
_space_group.IT_coordinate_system_code '2'
_symmetry_cell_setting 'orthorhombic'
loop_
_space_group_symop_operation_xyz
x,y,z
1/2-x,1/2-y,z
1/2+x,-y,-z
-x,1/2+y,-z
-x,-y,-z
1/2+x,1/2+y,-z
1/2-x,y,z
x,1/2-y,z
loop_
_atom_site_type_symbol
_atom_site_label
_atom_site_fract_x
_atom_site_fract_y
_atom_site_fract_z
Si Si1 0.115470 0.571505 0.386252
Si Si2 0.989987 0.427684 0.363705
Si Si3 0.813543 0.570963 0.294619
Si Si4 0.680536 0.567956 0.940133
Si Si5 0.821472 0.925322 0.761129
Si Si6 0.560684 0.929832 0.033825
Si Si7 0.137195 0.571225 0.556318
Si Si8 0.563728 0.570433 0.216100
O O1 0.114715 0.750000 0.383252
O O2 0.144666 0.509421 0.307655
O O3 0.147531 0.526156 0.467092
O O4 0.048288 0.510595 0.393967
O O5 0.998320 0.250000 0.364957
O O6 0.930715 0.463721 0.414411
O O7 0.979338 0.484890 0.275517
O O8 0.750000 0.522971 0.260778
O O9 0.814926 0.750000 0.298319
O O10 0.821300 0.507667 0.380920
O O11 0.869891 0.524855 0.243716
O O12 0.750000 0.521128 0.959309
O O13 0.682015 0.750000 0.941702
O O14 0.667095 0.523562 0.850220
O O15 0.624163 0.521241 0.994169
O O16 0.750000 0.938582 0.749280
O O17 0.837505 0.750000 0.756973
O O18 0.558289 0.750000 0.024334
O O19 0.558776 0.963525 0.125634
O O20 0.500000 0.000000 0.000000
O O21 0.144250 0.750000 0.562158
O O22 0.556263 0.750000 0.226867
#
# Coordination Sequence:
#
# PCOD9450772 Si02
#       8
#     8   8   8   8   8   8   8   8
#     4  11  22  34  52  77 105 136 173 218 270 321
#     4  10  20  35  55  75 100 137 180 217 260 317
#     4   9  18  33  54  78 105 139 177 219 265 312
#     4   8  16  34  58  80 104 140 185 226 264 314
#     4   9  19  36  55  76 103 136 179 223 259 306
#     4  10  21  35  55  84 115 144 178 224 277 328
#     4   9  20  36  51  73 104 138 175 218 266 318
#     4   9  19  35  52  77 111 140 171 216 268 319
#
# _framework density 18.679504000000001
#
# number of rings (size 3 to 8) (size 9 to 14) (size 15 to 20)
#    0.000    2.625    0.000    1.875    1.750    3.500 
#    0.000    5.000    0.000    1.125    0.000    1.750 
#    0.000    0.000    0.000    0.000    0.000    0.000 
#
# Total GULP energy -356768.449369 kJ/mol
# GULP energy per Si atom -5574.507021 kJ/mol
# Density = 1.863699 g / cm^3
# Si number density = 18.679504 Si / 1000 Ang^3
#
#
#
# Elastic Constant Matrix: (Units=GPa)
#
#
# Indices 1 2 3 4 5 6 
#
# 1 54.6074 10.4784 30.6020 0.0000 0.0000 0.0000
# 2 10.4784 8.6926 17.5684 0.0000 0.0000 0.0000
# 3 30.6020 17.5684 90.1201 0.0000 0.0000 0.0000
# 4 0.0000 0.0000 0.0000 22.8994 0.0000 0.0000
# 5 0.0000 0.0000 0.0000 0.0000 9.1043 0.0000
# 6 0.0000 0.0000 0.0000 0.0000 0.0000 16.7496
#
#
#
# Elastic Compliance Matrix: (Units=1/GPa)
#
#
# Indices 1 2 3 4 5 6 
#
# 1 0.024783 -0.021231 -0.004277 0.000000 0.000000 0.000000
# 2 -0.021231 0.208022 -0.033343 0.000000 0.000000 0.000000
# 3 -0.004277 -0.033343 0.019049 0.000000 0.000000 0.000000
# 4 0.000000 0.000000 0.000000 0.043669 0.000000 0.000000
# 5 0.000000 0.000000 0.000000 0.000000 0.109838 0.000000
# 6 0.000000 0.000000 0.000000 0.000000 0.000000 0.059703
#
#
# Mechanical properties :
#
#
# Convention : Reuss Voigt Hill
#
# Bulk Modulus (GPa) = 7.45424 30.07973 18.76699
# Shear Modulus (GPa) = 7.96835 16.06876 12.01856
#
# Velocity S-wave (km/s) = 2.06763 2.93616 2.53930
# Velocity P-wave (km/s) = 3.11438 5.25668 4.32042
#
# Compressibility (1/GPa) = 0.13415182
#
# Stress axis : x y z
#
# Youngs Moduli (GPa) = 40.35005 4.80719 52.49732
#
# Poissons Ratio (x) = 0.10206 0.22452
# Poissons Ratio (y) = 0.85667 1.75043
# Poissons Ratio (z) = 0.17257 0.16029
#
# Static dielectric constant tensor:
#      x y z
#    x 1.670250 0.000000 0.000000 
#    y 0.000000 1.626450 0.000000 
#    z 0.000000 0.000000 1.641590 
# 
# From -- ./inp_files/24737.got.cif
#   From: 2010.05.17/outbox.cif.g08.bks.cpg/sg59_13_cif.got.tgz:24737.got - 2010.06.03 14:40:33.
