data_PCOD9450165
_publ_section_title
;
Structure prediction by ZEFSAII (Michael W. Deem and Ramdas Pophale) SiO2 
 PCOD9450165
Probable space group: P M M N
;
_chemical_formula_sum "Si O2"
_cell_formula_units_Z 64
_cell_length_a 7.541443
_cell_length_b 29.350789
_cell_length_c 13.199772
_cell_angle_alpha 90.000000
_cell_angle_beta 90.000000
_cell_angle_gamma 90.000000
_cell_volume 2921.733922
_symmetry_space_group_name_H-M "P M M N"
_symmetry_group_IT_number 59
_space_group.IT_coordinate_system_code '2'
_symmetry_cell_setting 'orthorhombic'
loop_
_space_group_symop_operation_xyz
x,y,z
1/2-x,1/2-y,z
1/2+x,-y,-z
-x,1/2+y,-z
-x,-y,-z
1/2+x,1/2+y,-z
1/2-x,y,z
x,1/2-y,z
loop_
_atom_site_type_symbol
_atom_site_label
_atom_site_fract_x
_atom_site_fract_y
_atom_site_fract_z
Si Si1 0.464806 0.053953 0.330150
Si Si2 0.045443 0.198999 0.586692
Si Si3 0.031656 0.397223 0.534431
Si Si4 0.963127 0.949732 0.042912
Si Si5 0.547447 0.305175 0.813133
Si Si6 0.461484 0.111401 0.139488
Si Si7 0.537041 0.198455 0.030823
Si Si8 0.041139 0.450482 0.729932
O O1 0.250000 0.053739 0.331004
O O2 0.523603 0.072313 0.439204
O O3 0.527490 0.088112 0.241786
O O4 0.522229 0.003063 0.302765
O O5 0.250000 0.202776 0.555812
O O6 0.965735 0.250000 0.577059
O O7 0.970277 0.155261 0.529199
O O8 0.043379 0.185892 0.706301
O O9 0.250000 0.396828 0.535053
O O10 0.969203 0.419552 0.639407
O O11 0.750000 0.944853 0.047902
O O12 0.033495 0.944061 0.157030
O O13 0.033448 0.914740 0.959322
O O14 0.000000 0.000000 0.000000
O O15 0.750000 0.321263 0.803620
O O16 0.550192 0.250000 0.822520
O O17 0.469423 0.320157 0.921290
O O18 0.250000 0.104823 0.140380
O O19 0.495277 0.164325 0.120829
O O20 0.750000 0.200420 0.019639
O O21 0.472790 0.250000 0.047038
O O22 0.250000 0.440076 0.736219
#
# Coordination Sequence:
#
# PCOD9450165 Si02
#       8
#     8   8   8   8   8   8   8   8
#     4  10  20  37  55  73 102 138 174 217 262 306
#     4   9  17  30  50  75 101 132 170 208 250 304
#     4   9  19  34  53  76 103 134 171 215 260 302
#     4  10  20  34  52  77 108 138 170 210 258 313
#     4   8  15  29  47  68  98 132 162 199 250 298
#     4  10  21  34  52  78 107 138 172 215 262 308
#     4   9  19  35  53  75 105 141 178 214 255 309
#     4  10  20  34  54  77 104 137 171 214 261 306
#
# _framework density 21.904800999999999
#
# number of rings (size 3 to 8) (size 9 to 14) (size 15 to 20)
#    0.000    2.625    1.250    1.125    1.750    1.750 
#    0.000    3.125    0.000    2.250    0.000    1.750 
#    0.000    0.000    0.000    0.000    0.000    0.000 
#
# Total GULP energy -357208.631377 kJ/mol
# GULP energy per Si atom -5581.384865 kJ/mol
# Density = 2.185494 g / cm^3
# Si number density = 21.904801 Si / 1000 Ang^3
#
#
#
# Elastic Constant Matrix: (Units=GPa)
#
#
# Indices 1 2 3 4 5 6 
#
# 1 54.7455 -7.3975 7.4721 0.0000 0.0000 0.0000
# 2 -7.3975 75.0931 35.5746 0.0000 0.0000 0.0000
# 3 7.4721 35.5746 114.4854 0.0000 0.0000 0.0000
# 4 0.0000 0.0000 0.0000 17.7609 0.0000 0.0000
# 5 0.0000 0.0000 0.0000 0.0000 12.3614 0.0000
# 6 0.0000 0.0000 0.0000 0.0000 0.0000 13.6430
#
#
#
# Elastic Compliance Matrix: (Units=1/GPa)
#
#
# Indices 1 2 3 4 5 6 
#
# 1 0.018946 0.002875 -0.002130 0.000000 0.000000 0.000000
# 2 0.002875 0.016052 -0.005176 0.000000 0.000000 0.000000
# 3 -0.002130 -0.005176 0.010482 0.000000 0.000000 0.000000
# 4 0.000000 0.000000 0.000000 0.056304 0.000000 0.000000
# 5 0.000000 0.000000 0.000000 0.000000 0.080897 0.000000
# 6 0.000000 0.000000 0.000000 0.000000 0.000000 0.073298
#
#
# Mechanical properties :
#
#
# Convention : Reuss Voigt Hill
#
# Bulk Modulus (GPa) = 27.30806 35.06916 31.18861
# Shear Modulus (GPa) = 18.04766 22.66472 20.35619
#
# Velocity S-wave (km/s) = 2.87350 3.22015 3.05175
# Velocity P-wave (km/s) = 4.84800 5.46538 5.16592
#
# Compressibility (1/GPa) = 0.03661922
#
# Stress axis : x y z
#
# Youngs Moduli (GPa) = 52.78271 62.29777 95.40176
#
# Poissons Ratio (x) = -0.17913 0.20321
# Poissons Ratio (y) = -0.15177 0.49376
# Poissons Ratio (z) = 0.11243 0.32243
#
# Static dielectric constant tensor:
#      x y z
#    x 1.827480 0.000000 0.000000 
#    y 0.000000 1.801820 0.000000 
#    z 0.000000 0.000000 1.797550 
# 
# From -- ./inp_files/15069.got.cif
#   From: 2010.05.17/outbox.cif.g08.bks.cpg/sg59_8_cif.got.tgz:15069.got - 2010.06.03 14:40:33.
