data_PCOD9450682
_publ_section_title
;
Structure prediction by ZEFSAII (Michael W. Deem and Ramdas Pophale) SiO2 
 PCOD9450682
Probable space group: P M M N
;
_chemical_formula_sum "Si O2"
_cell_formula_units_Z 64
_cell_length_a 19.068989
_cell_length_b 8.988163
_cell_length_c 19.321859
_cell_angle_alpha 90.000000
_cell_angle_beta 90.000000
_cell_angle_gamma 90.000000
_cell_volume 3311.673528
_symmetry_space_group_name_H-M "P M M N"
_symmetry_group_IT_number 59
_space_group.IT_coordinate_system_code '2'
_symmetry_cell_setting 'orthorhombic'
loop_
_space_group_symop_operation_xyz
x,y,z
1/2-x,1/2-y,z
1/2+x,-y,-z
-x,1/2+y,-z
-x,-y,-z
1/2+x,1/2+y,-z
1/2-x,y,z
x,1/2-y,z
loop_
_atom_site_type_symbol
_atom_site_label
_atom_site_fract_x
_atom_site_fract_y
_atom_site_fract_z
Si Si1 0.167584 0.928141 0.200775
Si Si2 0.586272 0.573150 0.925442
Si Si3 0.551531 0.574633 0.707513
Si Si4 0.833340 0.575286 0.498286
Si Si5 0.834310 0.919834 0.338684
Si Si6 0.457842 0.574469 0.436908
Si Si7 0.067000 0.425589 0.920192
Si Si8 0.908419 0.077419 0.214571
O O1 0.250000 0.963814 0.206652
O O2 0.159298 0.750000 0.202627
O O3 0.135688 0.991183 0.129158
O O4 0.121208 0.000644 0.261637
O O5 0.587508 0.750000 0.911691
O O6 0.506640 0.513767 0.919601
O O7 0.604497 0.546939 0.006281
O O8 0.562053 0.750000 0.695158
O O9 0.526078 0.496582 0.637295
O O10 0.489748 0.557388 0.763729
O O11 0.750000 0.558128 0.505795
O O12 0.850130 0.750000 0.511210
O O13 0.852444 0.543080 0.418122
O O14 0.877368 0.469125 0.547171
O O15 0.750000 0.921061 0.335247
O O16 0.858278 0.750000 0.325512
O O17 0.865412 0.026994 0.281522
O O18 0.500000 0.500000 0.500000
O O19 0.469564 0.750000 0.436235
O O20 0.052099 0.250000 0.916157
O O21 0.107751 0.479715 0.852578
O O22 0.896654 0.250000 0.199222
#
# Coordination Sequence:
#
# PCOD9450682 Si02
#       8
#     8   8   8   8   8   8   8   8
#     4  11  24  41  62  89 122 162 205 250 303 360
#     4  10  20  36  58  87 116 149 194 241 291 347
#     4  11  24  41  61  87 118 154 200 247 298 357
#     4   9  19  38  62  85 111 147 191 238 292 356
#     4   9  19  36  58  83 112 149 190 231 285 353
#     4  12  25  40  60  87 120 156 196 247 302 357
#     4  10  20  34  58  86 116 152 191 238 290 344
#     4  11  22  35  56  87 118 150 192 241 291 348
#
# _framework density 19.325576999999999
#
# number of rings (size 3 to 8) (size 9 to 14) (size 15 to 20)
#    0.000    1.625    1.250    4.500    0.000    7.500 
#    0.000    1.875    0.000    0.750    0.000    0.000 
#    0.000    0.000    0.000    0.000    0.000    0.000 
#
# Total GULP energy -357639.794023 kJ/mol
# GULP energy per Si atom -5588.121782 kJ/mol
# Density = 1.928159 g / cm^3
# Si number density = 19.325577 Si / 1000 Ang^3
#
#
#
# Elastic Constant Matrix: (Units=GPa)
#
#
# Indices 1 2 3 4 5 6 
#
# 1 38.8485 24.2245 11.4965 0.0000 0.0000 0.0000
# 2 24.2245 91.2698 52.7404 0.0000 0.0000 0.0000
# 3 11.4965 52.7404 97.6058 0.0000 0.0000 0.0000
# 4 0.0000 0.0000 0.0000 35.1768 0.0000 0.0000
# 5 0.0000 0.0000 0.0000 0.0000 29.0951 0.0000
# 6 0.0000 0.0000 0.0000 0.0000 0.0000 29.0403
#
#
#
# Elastic Compliance Matrix: (Units=1/GPa)
#
#
# Indices 1 2 3 4 5 6 
#
# 1 0.030935 -0.008877 0.001153 0.000000 0.000000 0.000000
# 2 -0.008877 0.018478 -0.008939 0.000000 0.000000 0.000000
# 3 0.001153 -0.008939 0.014940 0.000000 0.000000 0.000000
# 4 0.000000 0.000000 0.000000 0.028428 0.000000 0.000000
# 5 0.000000 0.000000 0.000000 0.000000 0.034370 0.000000
# 6 0.000000 0.000000 0.000000 0.000000 0.000000 0.034435
#
#
# Mechanical properties :
#
#
# Convention : Reuss Voigt Hill
#
# Bulk Modulus (GPa) = 32.23011 44.96077 38.59544
# Shear Modulus (GPa) = 24.36015 27.94662 26.15339
#
# Velocity S-wave (km/s) = 3.55422 3.80688 3.68272
# Velocity P-wave (km/s) = 5.79284 6.52982 6.17234
#
# Compressibility (1/GPa) = 0.03102689
#
# Stress axis : x y z
#
# Youngs Moduli (GPa) = 32.32569 54.11874 66.93663
#
# Poissons Ratio (x) = 0.48040 -0.07717
# Poissons Ratio (y) = 0.28695 0.59833
# Poissons Ratio (z) = -0.03727 0.48376
#
# Static dielectric constant tensor:
#      x y z
#    x 1.680880 0.000000 0.000000 
#    y 0.000000 1.646060 0.000000 
#    z 0.000000 0.000000 1.684320 
# 
# From -- ./inp_files/28136.got.cif
#   From: 2010.05.17/outbox.cif.g08.bks.cpg/sg59_15_cif.got.tgz:28136.got - 2010.06.03 14:40:33.
