data_PCOD9450108
_publ_section_title
;
Structure prediction by ZEFSAII (Michael W. Deem and Ramdas Pophale) SiO2 
 PCOD9450108
Probable space group: P M M N
;
_chemical_formula_sum "Si O2"
_cell_formula_units_Z 64
_cell_length_a 33.201179
_cell_length_b 7.734431
_cell_length_c 12.351711
_cell_angle_alpha 90.000000
_cell_angle_beta 90.000000
_cell_angle_gamma 90.000000
_cell_volume 3171.823388
_symmetry_space_group_name_H-M "P M M N"
_symmetry_group_IT_number 59
_space_group.IT_coordinate_system_code '2'
_symmetry_cell_setting 'orthorhombic'
loop_
_space_group_symop_operation_xyz
x,y,z
1/2-x,1/2-y,z
1/2+x,-y,-z
-x,1/2+y,-z
-x,-y,-z
1/2+x,1/2+y,-z
1/2-x,y,z
x,1/2-y,z
loop_
_atom_site_type_symbol
_atom_site_label
_atom_site_fract_x
_atom_site_fract_y
_atom_site_fract_z
Si Si1 0.407761 0.448349 0.149038
Si Si2 0.005581 0.546265 0.124841
Si Si3 0.295335 0.541274 0.041293
Si Si4 0.622512 0.446596 0.628998
Si Si5 0.427035 0.041864 0.733379
Si Si6 0.952978 0.444966 0.502238
Si Si7 0.125321 0.046486 0.923804
Si Si8 0.295791 0.961705 0.291924
O O1 0.393078 0.250000 0.154057
O O2 0.455309 0.450380 0.167202
O O3 0.387669 0.555140 0.243785
O O4 0.398707 0.521288 0.029278
O O5 0.013220 0.750000 0.134753
O O6 0.965736 0.507462 0.191640
O O7 0.000000 0.500000 0.000000
O O8 0.250000 0.488282 0.012753
O O9 0.297024 0.750000 0.041557
O O10 0.302676 0.485156 0.166062
O O11 0.328660 0.476714 0.957993
O O12 0.625855 0.250000 0.586286
O O13 0.583151 0.530863 0.572935
O O14 0.667763 0.523143 0.631057
O O15 0.424421 0.250000 0.713712
O O16 0.389644 0.980414 0.807700
O O17 0.435604 0.955574 0.618965
O O18 0.955469 0.250000 0.544996
O O19 0.000000 0.500000 0.500000
O O20 0.115223 0.250000 0.919660
O O21 0.250000 0.012663 0.320953
O O22 0.296838 0.750000 0.292704
#
# Coordination Sequence:
#
# PCOD9450108 Si02
#       8
#     8   8   8   8   8   8   8   8
#     4  11  21  33  49  77 110 140 177 216 261 317
#     4  11  21  34  51  73 103 137 172 215 265 314
#     4   9  17  30  51  80 111 143 178 214 260 324
#     4  10  20  35  55  79 107 140 179 222 271 325
#     4  10  22  40  56  74 105 142 181 224 266 317
#     4  11  24  40  58  80 105 142 190 235 277 327
#     4  10  20  34  51  76 110 143 176 217 265 320
#     4   8  14  27  50  79 108 137 170 212 267 327
#
# _framework density 20.177667
#
# number of rings (size 3 to 8) (size 9 to 14) (size 15 to 20)
#    0.000    2.000    2.500    2.625    0.000    6.250 
#    0.000    0.000    0.000    1.125    0.000    1.750 
#    0.000    0.000    0.000    0.000    0.000    0.000 
#
# Total GULP energy -356839.064560 kJ/mol
# GULP energy per Si atom -5575.610384 kJ/mol
# Density = 2.013174 g / cm^3
# Si number density = 20.177667 Si / 1000 Ang^3
#
#
#
# Elastic Constant Matrix: (Units=GPa)
#
#
# Indices 1 2 3 4 5 6 
#
# 1 162.4515 6.6209 45.4259 0.0000 0.0000 0.0000
# 2 6.6209 26.3086 2.6249 0.0000 0.0000 0.0000
# 3 45.4259 2.6249 72.4680 0.0000 0.0000 0.0000
# 4 0.0000 0.0000 0.0000 13.9405 0.0000 0.0000
# 5 0.0000 0.0000 0.0000 0.0000 36.3238 0.0000
# 6 0.0000 0.0000 0.0000 0.0000 0.0000 18.4225
#
#
#
# Elastic Compliance Matrix: (Units=1/GPa)
#
#
# Indices 1 2 3 4 5 6 
#
# 1 0.007517 -0.001427 -0.004660 0.000000 0.000000 0.000000
# 2 -0.001427 0.038419 -0.000497 0.000000 0.000000 0.000000
# 3 -0.004660 -0.000497 0.016738 0.000000 0.000000 0.000000
# 4 0.000000 0.000000 0.000000 0.071733 0.000000 0.000000
# 5 0.000000 0.000000 0.000000 0.000000 0.027530 0.000000
# 6 0.000000 0.000000 0.000000 0.000000 0.000000 0.054281
#
#
# Mechanical properties :
#
#
# Convention : Reuss Voigt Hill
#
# Bulk Modulus (GPa) = 20.19964 41.17464 30.68714
# Shear Modulus (GPa) = 20.33432 27.50780 23.92106
#
# Velocity S-wave (km/s) = 3.17797 3.69627 3.44688
# Velocity P-wave (km/s) = 4.84754 6.21827 5.57519
#
# Compressibility (1/GPa) = 0.04950583
#
# Stress axis : x y z
#
# Youngs Moduli (GPa) = 133.03228 26.02878 59.74271
#
# Poissons Ratio (x) = 0.03714 0.27842
# Poissons Ratio (y) = 0.18981 0.02971
# Poissons Ratio (z) = 0.61997 0.01294
#
# Static dielectric constant tensor:
#      x y z
#    x 1.774830 0.000000 0.000000 
#    y 0.000000 1.774030 0.000000 
#    z 0.000000 0.000000 1.702580 
# 
# From -- ./inp_files/19217.got.cif
#   From: 2010.05.17/outbox.cif.g08.bks.cpg/sg59_10_cif.got.tgz:19217.got - 2010.06.03 14:40:33.
