data_PCOD9450957
_publ_section_title
;
Structure prediction by ZEFSAII (Michael W. Deem and Ramdas Pophale) SiO2 
 PCOD9450957
Probable space group: P M M N
;
_chemical_formula_sum "Si O2"
_cell_formula_units_Z 56
_cell_length_a 13.568343
_cell_length_b 19.766218
_cell_length_c 9.857246
_cell_angle_alpha 90.000000
_cell_angle_beta 90.000000
_cell_angle_gamma 90.000000
_cell_volume 2643.662372
_symmetry_space_group_name_H-M "P M M N"
_symmetry_group_IT_number 59
_space_group.IT_coordinate_system_code '2'
_symmetry_cell_setting 'orthorhombic'
loop_
_space_group_symop_operation_xyz
x,y,z
1/2-x,1/2-y,z
1/2+x,-y,-z
-x,1/2+y,-z
-x,-y,-z
1/2+x,1/2+y,-z
1/2-x,y,z
x,1/2-y,z
loop_
_atom_site_type_symbol
_atom_site_label
_atom_site_fract_x
_atom_site_fract_y
_atom_site_fract_z
Si Si1 0.130913 0.455959 0.794552
Si Si2 0.958135 0.327853 0.173464
Si Si3 0.630749 0.471799 0.677507
Si Si4 0.129925 0.941491 0.019032
Si Si5 0.369975 0.175598 0.641335
Si Si6 0.631479 0.081940 0.397534
Si Si7 0.133279 0.130986 0.336077
O O1 0.250000 0.452005 0.794191
O O2 0.105547 0.488918 0.938960
O O3 0.096041 0.383644 0.741577
O O4 0.104987 0.513503 0.684324
O O5 0.935317 0.250000 0.144728
O O6 0.920307 0.379074 0.058372
O O7 0.907280 0.355210 0.311872
O O8 0.072553 0.337144 0.212791
O O9 0.750000 0.467340 0.676563
O O10 0.595508 0.427810 0.550627
O O11 0.609775 0.551112 0.658233
O O12 0.599164 0.448217 0.825510
O O13 0.250000 0.933295 0.010997
O O14 0.250000 0.175821 0.646478
O O15 0.406033 0.250000 0.679828
O O16 0.392781 0.161224 0.483332
O O17 0.750000 0.085415 0.398090
O O18 0.250000 0.139026 0.316365
#
# Coordination Sequence:
#
# PCOD9450957 Si02
#       7
#     8   8   8   8   8   8   8
#     4   8  13  26  47  76 108 138 176 223 272 324
#     4  11  23  36  54  83 116 153 193 233 285 341
#     4   9  17  34  59  86 113 144 186 235 287 340
#     4   9  19  35  57  84 115 149 188 236 285 341
#     4   9  15  25  46  74 104 140 181 228 279 327
#     4   9  17  33  57  84 114 142 181 235 284 335
#     4  10  20  35  57  82 111 145 189 241 283 331
#
# _framework density 21.182736999999999
#
# number of rings (size 3 to 8) (size 9 to 14) (size 15 to 20)
#    0.000    2.714    1.429    1.714    0.000    3.143 
#    0.000    0.714    0.000    4.286    0.000   10.000 
#    0.000    0.000    0.000    0.000    0.000    0.000 
#
# Total GULP energy -312955.638017 kJ/mol
# GULP energy per Si atom -5588.493536 kJ/mol
# Density = 2.113452 g / cm^3
# Si number density = 21.182737 Si / 1000 Ang^3
#
#
#
# Elastic Constant Matrix: (Units=GPa)
#
#
# Indices 1 2 3 4 5 6 
#
# 1 66.7267 25.8556 19.6479 0.0000 0.0000 0.0000
# 2 25.8556 133.1531 52.1070 0.0000 0.0000 0.0000
# 3 19.6479 52.1070 122.2130 0.0000 0.0000 0.0000
# 4 0.0000 0.0000 0.0000 22.5447 0.0000 0.0000
# 5 0.0000 0.0000 0.0000 0.0000 25.4566 0.0000
# 6 0.0000 0.0000 0.0000 0.0000 0.0000 17.8921
#
#
#
# Elastic Compliance Matrix: (Units=1/GPa)
#
#
# Indices 1 2 3 4 5 6 
#
# 1 0.016444 -0.002591 -0.001539 0.000000 0.000000 0.000000
# 2 -0.002591 0.009422 -0.003601 0.000000 0.000000 0.000000
# 3 -0.001539 -0.003601 0.009965 0.000000 0.000000 0.000000
# 4 0.000000 0.000000 0.000000 0.044356 0.000000 0.000000
# 5 0.000000 0.000000 0.000000 0.000000 0.039282 0.000000
# 6 0.000000 0.000000 0.000000 0.000000 0.000000 0.055891
#
#
# Mechanical properties :
#
#
# Convention : Reuss Voigt Hill
#
# Bulk Modulus (GPa) = 49.09210 57.47930 53.28570
# Shear Modulus (GPa) = 25.30217 28.14417 26.72317
#
# Velocity S-wave (km/s) = 3.45986 3.64900 3.55569
# Velocity P-wave (km/s) = 6.25993 6.70429 6.48592
#
# Compressibility (1/GPa) = 0.02036988
#
# Stress axis : x y z
#
# Youngs Moduli (GPa) = 60.81415 106.13081 100.35012
#
# Poissons Ratio (x) = 0.27496 0.15444
# Poissons Ratio (y) = 0.15755 0.36134
# Poissons Ratio (z) = 0.09359 0.38216
#
# Static dielectric constant tensor:
#      x y z
#    x 1.856610 0.000000 0.000000 
#    y 0.000000 1.719690 0.000000 
#    z 0.000000 0.000000 1.742880 
# 
# From -- ./inp_files/9339.got.cif
#   From: 2010.05.17/outbox.cif.g08.bks.cpg/sg59_5_cif.got.tgz:9339.got - 2010.06.03 14:40:33.
