data_PCOD9450548
_publ_section_title
;
Structure prediction by ZEFSAII (Michael W. Deem and Ramdas Pophale) SiO2 
 PCOD9450548
Probable space group: P M M N
;
_chemical_formula_sum "Si O2"
_cell_formula_units_Z 64
_cell_length_a 18.134466
_cell_length_b 7.556808
_cell_length_c 20.346424
_cell_angle_alpha 90.000000
_cell_angle_beta 90.000000
_cell_angle_gamma 90.000000
_cell_volume 2788.247042
_symmetry_space_group_name_H-M "P M M N"
_symmetry_group_IT_number 59
_space_group.IT_coordinate_system_code '2'
_symmetry_cell_setting 'orthorhombic'
loop_
_space_group_symop_operation_xyz
x,y,z
1/2-x,1/2-y,z
1/2+x,-y,-z
-x,1/2+y,-z
-x,-y,-z
1/2+x,1/2+y,-z
1/2-x,y,z
x,1/2-y,z
loop_
_atom_site_type_symbol
_atom_site_label
_atom_site_fract_x
_atom_site_fract_y
_atom_site_fract_z
Si Si1 0.167408 0.955353 0.721530
Si Si2 0.946418 0.954449 0.387701
Si Si3 0.669440 0.539069 0.489576
Si Si4 0.610992 0.463806 0.631827
Si Si5 0.610990 0.960392 0.135484
Si Si6 0.667664 0.466072 0.772683
Si Si7 0.830800 0.037874 0.993892
Si Si8 0.555802 0.466228 0.886259
O O1 0.250000 0.028968 0.711354
O O2 0.168506 0.750000 0.702461
O O3 0.104628 0.041553 0.676846
O O4 0.146122 0.966451 0.798044
O O5 0.960364 0.750000 0.405715
O O6 0.897546 0.034900 0.446224
O O7 0.027037 0.031510 0.374916
O O8 0.750000 0.467584 0.471061
O O9 0.671306 0.750000 0.477232
O O10 0.654560 0.511366 0.566222
O O11 0.609628 0.250000 0.636289
O O12 0.647746 0.525708 0.699307
O O13 0.607214 0.750000 0.144941
O O14 0.527914 0.027711 0.122012
O O15 0.657194 0.998245 0.070220
O O16 0.750000 0.522524 0.791296
O O17 0.667717 0.250000 0.773172
O O18 0.605569 0.519721 0.824304
O O19 0.750000 0.972016 0.972368
O O20 0.829820 0.250000 0.985691
O O21 0.899732 0.972553 0.950777
O O22 0.553002 0.250000 0.888026
#
# Coordination Sequence:
#
# PCOD9450548 Si02
#       8
#     8   8   8   8   8   8   8   8
#     4  11  24  40  58  82 111 143 182 228 275 325
#     4  10  21  38  59  82 110 145 184 227 277 333
#     4  10  21  36  54  78 110 148 187 227 275 330
#     4  10  20  34  55  83 112 143 182 227 274 327
#     4  11  22  36  56  80 109 145 182 223 271 326
#     4   9  16  28  49  77 106 135 172 220 270 319
#     4  10  20  35  56  81 109 141 179 225 273 321
#     4   9  18  33  53  78 107 140 179 221 268 321
#
# _framework density 22.953489999999999
#
# number of rings (size 3 to 8) (size 9 to 14) (size 15 to 20)
#    0.000    2.000    0.000    3.750    0.000    8.500 
#    0.000    0.625    0.000    0.750    0.000    0.000 
#    0.000    0.000    0.000    0.000    0.000    0.000 
#
# Total GULP energy -357877.491013 kJ/mol
# GULP energy per Si atom -5591.835797 kJ/mol
# Density = 2.290125 g / cm^3
# Si number density = 22.953490 Si / 1000 Ang^3
#
#
#
# Elastic Constant Matrix: (Units=GPa)
#
#
# Indices 1 2 3 4 5 6 
#
# 1 113.6457 2.1127 -8.2199 0.0000 0.0000 0.0000
# 2 2.1127 55.3924 -16.5929 0.0000 0.0000 0.0000
# 3 -8.2199 -16.5929 69.0902 0.0000 0.0000 0.0000
# 4 0.0000 0.0000 0.0000 24.1573 0.0000 0.0000
# 5 0.0000 0.0000 0.0000 0.0000 42.3203 0.0000
# 6 0.0000 0.0000 0.0000 0.0000 0.0000 -3.2585
#
#
#
# Elastic Compliance Matrix: (Units=1/GPa)
#
#
# Indices 1 2 3 4 5 6 
#
# 1 0.008876 -0.000024 0.001050 0.000000 0.000000 0.000000
# 2 -0.000024 0.019453 0.004669 0.000000 0.000000 0.000000
# 3 0.001050 0.004669 0.015720 0.000000 0.000000 0.000000
# 4 0.000000 0.000000 0.000000 0.041395 0.000000 0.000000
# 5 0.000000 0.000000 0.000000 0.000000 0.023629 0.000000
# 6 0.000000 0.000000 0.000000 0.000000 0.000000 -0.306885
#
#
# Mechanical properties :
#
#
# Convention : Reuss Voigt Hill
#
# Bulk Modulus (GPa) = 18.03793 21.41423 19.72608
# Shear Modulus (GPa) = -26.21599 30.03236 1.90818
#
# Velocity S-wave (km/s) = -3.38322 3.62111 0.91276
# Velocity P-wave (km/s) = 2.71772 5.18005 3.11824
#
# Compressibility (1/GPa) = 0.05543873
#
# Stress axis : x y z
#
# Youngs Moduli (GPa) = 112.66734 51.40722 63.61287
#
# Poissons Ratio (x) = 0.00123 -0.06681
# Poissons Ratio (y) = 0.00270 -0.29700
# Poissons Ratio (z) = -0.11833 -0.24002
#
# Static dielectric constant tensor:
#      x y z
#    x 1.841310 0.000000 0.000000 
#    y 0.000000 1.886280 0.000000 
#    z 0.000000 0.000000 1.809060 
# 
# From -- ./inp_files/30760.got.cif
#   From: 2010.05.17/outbox.cif.g08.bks.cpg/sg59_16_cif.got.tgz:30760.got - 2010.06.03 14:40:33.
