data_PCOD9450966
_publ_section_title
;
Structure prediction by ZEFSAII (Michael W. Deem and Ramdas Pophale) SiO2 
 PCOD9450966
Probable space group: P M M N
;
_chemical_formula_sum "Si O2"
_cell_formula_units_Z 48
_cell_length_a 7.797221
_cell_length_b 9.391839
_cell_length_c 31.928328
_cell_angle_alpha 90.000000
_cell_angle_beta 90.000000
_cell_angle_gamma 90.000000
_cell_volume 2338.119259
_symmetry_space_group_name_H-M "P M M N"
_symmetry_group_IT_number 59
_space_group.IT_coordinate_system_code '2'
_symmetry_cell_setting 'orthorhombic'
loop_
_space_group_symop_operation_xyz
x,y,z
1/2-x,1/2-y,z
1/2+x,-y,-z
-x,1/2+y,-z
-x,-y,-z
1/2+x,1/2+y,-z
1/2-x,y,z
x,1/2-y,z
loop_
_atom_site_type_symbol
_atom_site_label
_atom_site_fract_x
_atom_site_fract_y
_atom_site_fract_z
Si Si1 0.544633 0.088354 0.124007
Si Si2 0.456275 0.412807 0.378994
Si Si3 0.956190 0.086905 0.285849
Si Si4 0.543205 0.088648 0.541272
Si Si5 0.460337 0.086186 0.795036
Si Si6 0.454330 0.587918 0.041472
O O1 0.750000 0.098405 0.128582
O O2 0.477357 0.250000 0.120904
O O3 0.480951 0.004893 0.164974
O O4 0.511468 0.997892 0.082410
O O5 0.250000 0.407646 0.382041
O O6 0.520989 0.250000 0.382786
O O7 0.499443 0.465072 0.332400
O O8 0.520703 0.509366 0.416948
O O9 0.750000 0.092335 0.282980
O O10 0.020468 0.250000 0.281733
O O11 0.017064 0.988514 0.247976
O O12 0.750000 0.094444 0.544130
O O13 0.478373 0.250000 0.538264
O O14 0.500000 0.000000 0.500000
O O15 0.250000 0.085949 0.795231
O O16 0.514855 0.250000 0.797850
O O17 0.250000 0.597323 0.043050
O O18 0.523740 0.750000 0.040495
O O19 0.500000 0.500000 0.000000
#
# Coordination Sequence:
#
# PCOD9450966 Si02
#       6
#     8   8   8   8   8   8
#     4  10  20  35  57  83 109 140 179 220 264 314
#     4   9  18  33  51  71  99 134 168 205 255 311
#     4   9  17  30  49  73 100 131 170 214 255 300
#     4  10  21  36  54  76 102 133 170 212 259 311
#     4   9  17  30  50  76 105 137 173 214 260 307
#     4  11  24  40  58  82 111 142 178 219 263 313
#
# _framework density 20.529320999999999
#
# number of rings (size 3 to 8) (size 9 to 14) (size 15 to 20)
#    0.000    2.333    0.000    2.500    0.000    8.667 
#    0.000    2.500    0.000    3.000    0.000    0.000 
#    0.000    0.000    0.000    0.000    0.000    0.000 
#
# Total GULP energy -268084.410655 kJ/mol
# GULP energy per Si atom -5585.091889 kJ/mol
# Density = 2.048259 g / cm^3
# Si number density = 20.529321 Si / 1000 Ang^3
#
#
#
# Elastic Constant Matrix: (Units=GPa)
#
#
# Indices 1 2 3 4 5 6 
#
# 1 25.4029 8.5706 0.6146 0.0000 0.0000 0.0000
# 2 8.5706 194.9144 145.0689 0.0000 0.0000 0.0000
# 3 0.6146 145.0689 232.4579 0.0000 0.0000 0.0000
# 4 0.0000 0.0000 0.0000 42.0753 0.0000 0.0000
# 5 0.0000 0.0000 0.0000 0.0000 25.2915 0.0000
# 6 0.0000 0.0000 0.0000 0.0000 0.0000 15.3692
#
#
#
# Elastic Compliance Matrix: (Units=1/GPa)
#
#
# Indices 1 2 3 4 5 6 
#
# 1 0.040389 -0.003168 0.001870 0.000000 0.000000 0.000000
# 2 -0.003168 0.009829 -0.006125 0.000000 0.000000 0.000000
# 3 0.001870 -0.006125 0.008120 0.000000 0.000000 0.000000
# 4 0.000000 0.000000 0.000000 0.023767 0.000000 0.000000
# 5 0.000000 0.000000 0.000000 0.000000 0.039539 0.000000
# 6 0.000000 0.000000 0.000000 0.000000 0.000000 0.065065
#
#
# Mechanical properties :
#
#
# Convention : Reuss Voigt Hill
#
# Bulk Modulus (GPa) = 22.99314 84.58702 53.79008
# Shear Modulus (GPa) = 23.14264 36.44861 29.79563
#
# Velocity S-wave (km/s) = 3.36117 4.21817 3.81382
# Velocity P-wave (km/s) = 5.12716 8.06328 6.75663
#
# Compressibility (1/GPa) = 0.04349123
#
# Stress axis : x y z
#
# Youngs Moduli (GPa) = 24.75915 101.74321 123.15984
#
# Poissons Ratio (x) = 0.32231 -0.23033
# Poissons Ratio (y) = 0.07843 0.75440
# Poissons Ratio (z) = -0.04630 0.62321
#
# Static dielectric constant tensor:
#      x y z
#    x 1.761370 0.000000 0.000000 
#    y 0.000000 1.725880 0.000000 
#    z 0.000000 0.000000 1.718420 
# 
# From -- ./inp_files/32770.got.cif
#   From: 2010.05.17/outbox.cif.g08.bks.cpg/sg59_17_cif.got.tgz:32770.got - 2010.06.03 14:40:33.
