data_PCOD9450417
_publ_section_title
;
Structure prediction by ZEFSAII (Michael W. Deem and Ramdas Pophale) SiO2 
 PCOD9450417
Probable space group: P M M N
;
_chemical_formula_sum "Si O2"
_cell_formula_units_Z 40
_cell_length_a 10.440142
_cell_length_b 7.579596
_cell_length_c 28.906092
_cell_angle_alpha 90.000000
_cell_angle_beta 90.000000
_cell_angle_gamma 90.000000
_cell_volume 2287.398564
_symmetry_space_group_name_H-M "P M M N"
_symmetry_group_IT_number 59
_space_group.IT_coordinate_system_code '2'
_symmetry_cell_setting 'orthorhombic'
loop_
_space_group_symop_operation_xyz
x,y,z
1/2-x,1/2-y,z
1/2+x,-y,-z
-x,1/2+y,-z
-x,-y,-z
1/2+x,1/2+y,-z
1/2-x,y,z
x,1/2-y,z
loop_
_atom_site_type_symbol
_atom_site_label
_atom_site_fract_x
_atom_site_fract_y
_atom_site_fract_z
Si Si1 0.594340 0.951579 0.858509
Si Si2 0.750000 0.961075 0.541633
Si Si3 0.982689 0.535167 0.608860
Si Si4 0.404541 0.750000 0.318312
Si Si5 0.750000 0.043277 0.434003
Si Si6 0.604590 0.961494 0.961180
Si Si7 0.406181 0.750000 0.211767
O O1 0.750000 0.947404 0.857972
O O2 0.549407 0.750000 0.852936
O O3 0.562564 0.021989 0.909898
O O4 0.552226 0.079421 0.817561
O O5 0.750000 0.750000 0.539185
O O6 0.625208 0.012501 0.570880
O O7 0.750000 0.024484 0.489197
O O8 0.978609 0.750000 0.615492
O O9 0.951866 0.423838 0.654537
O O10 0.119317 0.476584 0.588509
O O11 0.250000 0.750000 0.319717
O O12 0.446809 0.750000 0.264942
O O13 0.750000 0.250000 0.423759
O O14 0.750000 0.026316 0.971243
O O15 0.613367 0.750000 0.957224
O O16 0.500000 0.000000 0.000000
O O17 0.250000 0.750000 0.211889
#
# Coordination Sequence:
#
# PCOD9450417 Si02
#       7
#     8   4   8   4   4   8   4
#     4   8  15  29  46  69 106 135 169 221 263 313
#     4  10  20  34  54  80 112 144 170 209 271 315
#     4  10  22  38  53  80 112 140 176 220 263 317
#     4  11  22  35  57  79 109 143 175 227 282 311
#     4  10  22  36  56  80 106 146 182 213 255 315
#     4   9  18  30  46  74 107 142 176 212 263 313
#     4   9  18  30  49  79  97 133 181 217 274 319
#
# _framework density 17.487113999999998
#
# number of rings (size 3 to 8) (size 9 to 14) (size 15 to 20)
#    0.000    2.600    1.000    1.800    4.200    1.200 
#    0.000    2.000    0.000    0.000    5.200    0.000 
#    0.000    0.000    0.000    0.000    0.000    0.000 
#
# Total GULP energy -222937.490091 kJ/mol
# GULP energy per Si atom -5573.437252 kJ/mol
# Density = 1.744731 g / cm^3
# Si number density = 17.487114 Si / 1000 Ang^3
#
#
#
# Elastic Constant Matrix: (Units=GPa)
#
#
# Indices 1 2 3 4 5 6 
#
# 1 96.2480 27.1531 66.4327 0.0000 0.0000 0.0000
# 2 27.1531 72.8201 56.9342 0.0000 0.0000 0.0000
# 3 66.4327 56.9342 175.4488 0.0000 0.0000 0.0000
# 4 0.0000 0.0000 0.0000 14.5834 0.0000 0.0000
# 5 0.0000 0.0000 0.0000 0.0000 14.1713 0.0000
# 6 0.0000 0.0000 0.0000 0.0000 0.0000 6.8433
#
#
#
# Elastic Compliance Matrix: (Units=1/GPa)
#
#
# Indices 1 2 3 4 5 6 
#
# 1 0.014181 -0.001460 -0.004896 0.000000 0.000000 0.000000
# 2 -0.001460 0.018551 -0.005467 0.000000 0.000000 0.000000
# 3 -0.004896 -0.005467 0.009328 0.000000 0.000000 0.000000
# 4 0.000000 0.000000 0.000000 0.068571 0.000000 0.000000
# 5 0.000000 0.000000 0.000000 0.000000 0.070565 0.000000
# 6 0.000000 0.000000 0.000000 0.000000 0.000000 0.146127
#
#
# Mechanical properties :
#
#
# Convention : Reuss Voigt Hill
#
# Bulk Modulus (GPa) = 54.30685 71.72856 63.01771
# Shear Modulus (GPa) = 14.00140 20.05274 17.02707
#
# Velocity S-wave (km/s) = 2.83268 3.38999 3.12379
# Velocity P-wave (km/s) = 6.46696 7.51197 7.00897
#
# Compressibility (1/GPa) = 0.01841388
#
# Stress axis : x y z
#
# Youngs Moduli (GPa) = 70.51752 53.90426 107.20943
#
# Poissons Ratio (x) = 0.07870 0.52487
# Poissons Ratio (y) = 0.10296 0.58614
# Poissons Ratio (z) = 0.34523 0.29471
#
# Static dielectric constant tensor:
#      x y z
#    x 1.596070 0.000000 0.000000 
#    y 0.000000 1.596630 0.000000 
#    z 0.000000 0.000000 1.585680 
# 
# From -- ./inp_files/32456.got.cif
#   From: 2010.05.17/outbox.cif.g08.bks.cpg/sg59_17_cif.got.tgz:32456.got - 2010.06.03 14:40:33.
