data_PCOD9450826
_publ_section_title
;
Structure prediction by ZEFSAII (Michael W. Deem and Ramdas Pophale) SiO2 
 PCOD9450826
Probable space group: P M M N
;
_chemical_formula_sum "Si O2"
_cell_formula_units_Z 56
_cell_length_a 7.844782
_cell_length_b 21.233392
_cell_length_c 15.575899
_cell_angle_alpha 90.000000
_cell_angle_beta 90.000000
_cell_angle_gamma 90.000000
_cell_volume 2594.498234
_symmetry_space_group_name_H-M "P M M N"
_symmetry_group_IT_number 59
_space_group.IT_coordinate_system_code '2'
_symmetry_cell_setting 'orthorhombic'
loop_
_space_group_symop_operation_xyz
x,y,z
1/2-x,1/2-y,z
1/2+x,-y,-z
-x,1/2+y,-z
-x,-y,-z
1/2+x,1/2+y,-z
1/2-x,y,z
x,1/2-y,z
loop_
_atom_site_type_symbol
_atom_site_label
_atom_site_fract_x
_atom_site_fract_y
_atom_site_fract_z
Si Si1 0.442095 0.750000 0.565500
Si Si2 0.045295 0.678548 0.883853
Si Si3 0.051072 0.389027 0.634623
Si Si4 0.955231 0.073219 0.982655
Si Si5 0.950092 0.041870 0.803613
Si Si6 0.448591 0.388949 0.441457
Si Si7 0.558919 0.250000 0.640734
Si Si8 0.542913 0.587136 0.741060
O O1 0.250000 0.750000 0.601826
O O2 0.536451 0.815046 0.583010
O O3 0.427535 0.750000 0.462355
O O4 0.250000 0.681159 0.892797
O O5 0.980488 0.750000 0.894976
O O6 0.007015 0.650542 0.789718
O O7 0.977514 0.626414 0.952030
O O8 0.250000 0.404688 0.632372
O O9 0.978561 0.398479 0.537502
O O10 0.967677 0.427765 0.710516
O O11 0.031662 0.315536 0.659445
O O12 0.750000 0.078379 0.987752
O O13 0.016038 0.081967 0.883891
O O14 0.000000 0.000000 0.000000
O O15 0.750000 0.034124 0.820833
O O16 0.023483 0.971588 0.796812
O O17 0.250000 0.405831 0.447934
O O18 0.522172 0.421223 0.356614
O O19 0.750000 0.250000 0.677525
O O20 0.750000 0.585391 0.737271
#
# Coordination Sequence:
#
# PCOD9450826 Si02
#       8
#     4   8   8   8   8   8   4   8
#     4   9  17  29  49  75 102 139 188 233 275 330
#     4  10  22  39  59  87 120 147 181 235 292 345
#     4  10  20  35  55  80 113 150 191 235 282 336
#     4  10  20  38  63  86 112 149 190 233 288 349
#     4  10  21  37  57  83 111 146 193 237 281 340
#     4   9  19  34  51  75 110 152 188 228 279 332
#     4   9  17  33  55  77 104 143 188 235 285 328
#     4  10  21  37  57  82 113 150 193 232 277 338
#
# _framework density 21.584135
#
# number of rings (size 3 to 8) (size 9 to 14) (size 15 to 20)
#    0.000    2.286    1.429    0.857    1.000    4.857 
#    1.286    0.000    0.000    0.000    0.000    0.000 
#    0.000    0.000    0.000    0.000    0.000    0.000 
#
# Total GULP energy -312135.911335 kJ/mol
# GULP energy per Si atom -5573.855560 kJ/mol
# Density = 2.153501 g / cm^3
# Si number density = 21.584135 Si / 1000 Ang^3
#
#
#
# Elastic Constant Matrix: (Units=GPa)
#
#
# Indices 1 2 3 4 5 6 
#
# 1 25.2762 -10.2462 -3.3387 0.0000 0.0000 0.0000
# 2 -10.2462 85.1858 50.7955 0.0000 0.0000 0.0000
# 3 -3.3387 50.7955 137.7796 0.0000 0.0000 0.0000
# 4 0.0000 0.0000 0.0000 18.5851 0.0000 0.0000
# 5 0.0000 0.0000 0.0000 0.0000 16.2102 0.0000
# 6 0.0000 0.0000 0.0000 0.0000 0.0000 18.6101
#
#
#
# Elastic Compliance Matrix: (Units=1/GPa)
#
#
# Indices 1 2 3 4 5 6 
#
# 1 0.041715 0.005659 -0.001075 0.000000 0.000000 0.000000
# 2 0.005659 0.015815 -0.005693 0.000000 0.000000 0.000000
# 3 -0.001075 -0.005693 0.009331 0.000000 0.000000 0.000000
# 4 0.000000 0.000000 0.000000 0.053807 0.000000 0.000000
# 5 0.000000 0.000000 0.000000 0.000000 0.061690 0.000000
# 6 0.000000 0.000000 0.000000 0.000000 0.000000 0.053734
#
#
# Mechanical properties :
#
#
# Convention : Reuss Voigt Hill
#
# Bulk Modulus (GPa) = 15.47022 35.85141 25.66082
# Shear Modulus (GPa) = 19.24134 24.74981 21.99558
#
# Velocity S-wave (km/s) = 2.98897 3.38992 3.19574
# Velocity P-wave (km/s) = 4.36977 5.65404 5.05287
#
# Compressibility (1/GPa) = 0.06464031
#
# Stress axis : x y z
#
# Youngs Moduli (GPa) = 23.97233 63.23308 107.17139
#
# Poissons Ratio (x) = -0.35782 0.11525
# Poissons Ratio (y) = -0.13565 0.61015
# Poissons Ratio (z) = 0.02578 0.36000
#
# Static dielectric constant tensor:
#      x y z
#    x 1.797740 0.000000 0.000000 
#    y 0.000000 1.813450 0.000000 
#    z 0.000000 0.000000 1.828940 
# 
# From -- ./inp_files/21098.got.cif
#   From: 2010.05.17/outbox.cif.g08.bks.cpg/sg59_11_cif.got.tgz:21098.got - 2010.06.03 14:40:33.
