data_PCOD9450943
_publ_section_title
;
Structure prediction by ZEFSAII (Michael W. Deem and Ramdas Pophale) SiO2 
 PCOD9450943
Probable space group: P M M N
;
_chemical_formula_sum "Si O2"
_cell_formula_units_Z 48
_cell_length_a 12.689348
_cell_length_b 22.783852
_cell_length_c 7.472174
_cell_angle_alpha 90.000000
_cell_angle_beta 90.000000
_cell_angle_gamma 90.000000
_cell_volume 2160.296864
_symmetry_space_group_name_H-M "P M M N"
_symmetry_group_IT_number 59
_space_group.IT_coordinate_system_code '2'
_symmetry_cell_setting 'orthorhombic'
loop_
_space_group_symop_operation_xyz
x,y,z
1/2-x,1/2-y,z
1/2+x,-y,-z
-x,1/2+y,-z
-x,-y,-z
1/2+x,1/2+y,-z
1/2-x,y,z
x,1/2-y,z
loop_
_atom_site_type_symbol
_atom_site_label
_atom_site_fract_x
_atom_site_fract_y
_atom_site_fract_z
Si Si1 0.571257 0.683335 0.000084
Si Si2 0.945889 0.318560 0.668333
Si Si3 0.863905 0.939865 0.099710
Si Si4 0.634678 0.427339 0.462634
Si Si5 0.132239 0.319514 0.404049
Si Si6 0.044766 0.013217 0.265659
O O1 0.610475 0.750000 0.032895
O O2 0.573796 0.674067 0.787100
O O3 0.464245 0.678506 0.117518
O O4 0.637185 0.629647 0.075575
O O5 0.919108 0.250000 0.625394
O O6 0.057304 0.333277 0.570060
O O7 0.873770 0.368889 0.584478
O O8 0.750000 0.959539 0.165716
O O9 0.961982 0.961740 0.215602
O O10 0.889567 0.967069 0.905128
O O11 0.750000 0.426311 0.376177
O O12 0.533869 0.435515 0.332940
O O13 0.619910 0.485085 0.586520
O O14 0.250000 0.347048 0.402061
O O15 0.146734 0.250000 0.419407
#
# Coordination Sequence:
#
# PCOD9450943 Si02
#       6
#     8   8   8   8   8   8
#     4  10  20  35  56  86 122 155 191 241 298 358
#     4  10  21  38  59  88 122 157 201 252 299 361
#     4  11  21  37  61  88 120 159 197 243 305 367
#     4  11  22  41  63  84 115 159 203 253 307 354
#     4   9  18  32  52  81 120 161 194 232 292 359
#     4  10  23  40  59  88 119 151 205 255 298 355
#
# _framework density 22.219169000000001
#
# number of rings (size 3 to 8) (size 9 to 14) (size 15 to 20)
#    0.000    1.833    1.667    2.500    0.000    2.667 
#    0.000    5.833    0.000    0.000    0.000    4.667 
#    0.000    0.000    0.000    0.000    0.000    0.000 
#
# Total GULP energy -267575.895488 kJ/mol
# GULP energy per Si atom -5574.497823 kJ/mol
# Density = 2.216860 g / cm^3
# Si number density = 22.219169 Si / 1000 Ang^3
#
#
#
# Elastic Constant Matrix: (Units=GPa)
#
#
# Indices 1 2 3 4 5 6 
#
# 1 54.9592 32.5663 1.3735 0.0000 0.0000 0.0000
# 2 32.5663 105.5185 1.9696 0.0000 0.0000 0.0000
# 3 1.3735 1.9696 58.2147 0.0000 0.0000 0.0000
# 4 0.0000 0.0000 0.0000 30.8655 0.0000 0.0000
# 5 0.0000 0.0000 0.0000 0.0000 -67.1377 0.0000
# 6 0.0000 0.0000 0.0000 0.0000 0.0000 7.0209
#
#
#
# Elastic Compliance Matrix: (Units=1/GPa)
#
#
# Indices 1 2 3 4 5 6 
#
# 1 0.022273 -0.006869 -0.000293 0.000000 0.000000 0.000000
# 2 -0.006869 0.011601 -0.000230 0.000000 0.000000 0.000000
# 3 -0.000293 -0.000230 0.017193 0.000000 0.000000 0.000000
# 4 0.000000 0.000000 0.000000 0.032399 0.000000 0.000000
# 5 0.000000 0.000000 0.000000 0.000000 -0.014895 0.000000
# 6 0.000000 0.000000 0.000000 0.000000 0.000000 0.142432
#
#
# Mechanical properties :
#
#
# Convention : Reuss Voigt Hill
#
# Bulk Modulus (GPa) = 27.56183 32.27902 29.92043
# Shear Modulus (GPa) = 21.01897 6.33526 13.67711
#
# Velocity S-wave (km/s) = 3.07902 1.69040 2.48373
# Velocity P-wave (km/s) = 5.00719 4.28591 4.66052
#
# Compressibility (1/GPa) = 0.03628206
#
# Stress axis : x y z
#
# Youngs Moduli (GPa) = 44.89812 86.19825 58.16485
#
# Poissons Ratio (x) = 0.59206 0.01705
# Poissons Ratio (y) = 0.30839 0.01340
# Poissons Ratio (z) = 0.01316 0.01986
#
# Static dielectric constant tensor:
#      x y z
#    x 1.809220 0.000000 0.000000 
#    y 0.000000 1.849120 0.000000 
#    z 0.000000 0.000000 1.839120 
# 
# From -- ./inp_files/7594.got.cif
#   From: 2010.05.17/outbox.cif.g08.bks.cpg/sg59_4_cif.got.tgz:7594.got - 2010.06.03 14:40:33.
