data_PCOD9450155
_publ_section_title
;
Structure prediction by ZEFSAII (Michael W. Deem and Ramdas Pophale) SiO2 
 PCOD9450155
Probable space group: P M M N
;
_chemical_formula_sum "Si O2"
_cell_formula_units_Z 64
_cell_length_a 24.278374
_cell_length_b 7.884135
_cell_length_c 16.829981
_cell_angle_alpha 90.000000
_cell_angle_beta 90.000000
_cell_angle_gamma 90.000000
_cell_volume 3221.493616
_symmetry_space_group_name_H-M "P M M N"
_symmetry_group_IT_number 59
_space_group.IT_coordinate_system_code '2'
_symmetry_cell_setting 'orthorhombic'
loop_
_space_group_symop_operation_xyz
x,y,z
1/2-x,1/2-y,z
1/2+x,-y,-z
-x,1/2+y,-z
-x,-y,-z
1/2+x,1/2+y,-z
1/2-x,y,z
x,1/2-y,z
loop_
_atom_site_type_symbol
_atom_site_label
_atom_site_fract_x
_atom_site_fract_y
_atom_site_fract_z
Si Si1 0.813688 0.046941 0.390830
Si Si2 0.185068 0.560329 0.279471
Si Si3 0.137375 0.542465 0.440217
Si Si4 0.971413 0.450329 0.128748
Si Si5 0.919158 0.949663 0.294596
Si Si6 0.922063 0.543105 0.958972
Si Si7 0.485007 0.546327 0.410735
Si Si8 0.311658 0.052116 0.110026
O O1 0.750000 0.984820 0.379989
O O2 0.809477 0.250000 0.398288
O O3 0.841283 0.982329 0.473840
O O4 0.858988 0.014937 0.321823
O O5 0.250000 0.575535 0.271215
O O6 0.160073 0.750000 0.275101
O O7 0.175655 0.491902 0.367192
O O8 0.168442 0.459432 0.201502
O O9 0.136419 0.750000 0.446208
O O10 0.077800 0.485205 0.408247
O O11 0.974653 0.250000 0.142747
O O12 0.939347 0.523741 0.204364
O O13 0.033382 0.513226 0.107712
O O14 0.940621 0.485220 0.045824
O O15 0.916371 0.750000 0.309428
O O16 0.968253 0.021556 0.351134
O O17 0.922586 0.750000 0.958167
O O18 0.861096 0.477717 0.940810
O O19 0.500000 0.500000 0.500000
O O20 0.483722 0.750000 0.400570
O O21 0.250000 0.978434 0.101096
O O22 0.307472 0.250000 0.089710
#
# Coordination Sequence:
#
# PCOD9450155 Si02
#       8
#     8   8   8   8   8   8   8   8
#     4  10  20  36  59  80 103 143 190 233 276 322
#     4   9  17  29  47  73 104 138 177 216 253 302
#     4   9  17  31  51  75 103 137 179 224 265 308
#     4  10  21  37  59  83 107 139 178 225 273 326
#     4  11  23  37  55  82 113 145 180 223 275 327
#     4   9  19  37  58  82 109 138 175 219 272 329
#     4  10  20  34  52  76 106 141 178 218 266 316
#     4   9  18  33  52  76 109 144 173 207 260 325
#
# _framework density 19.866561999999998
#
# number of rings (size 3 to 8) (size 9 to 14) (size 15 to 20)
#    0.000    2.375    1.250    1.125    1.750    3.250 
#    0.000    1.875    0.000    3.750    0.000    0.000 
#    0.000    0.000    0.000    0.000    0.000    0.000 
#
# Total GULP energy -356347.740945 kJ/mol
# GULP energy per Si atom -5567.933452 kJ/mol
# Density = 1.982135 g / cm^3
# Si number density = 19.866562 Si / 1000 Ang^3
#
#
#
# Elastic Constant Matrix: (Units=GPa)
#
#
# Indices 1 2 3 4 5 6 
#
# 1 144.2944 12.3047 64.9126 0.0000 0.0000 0.0000
# 2 12.3047 18.7770 -6.7950 0.0000 0.0000 0.0000
# 3 64.9126 -6.7950 77.1511 0.0000 0.0000 0.0000
# 4 0.0000 0.0000 0.0000 19.3745 0.0000 0.0000
# 5 0.0000 0.0000 0.0000 0.0000 30.9659 0.0000
# 6 0.0000 0.0000 0.0000 0.0000 0.0000 12.0951
#
#
#
# Elastic Compliance Matrix: (Units=1/GPa)
#
#
# Indices 1 2 3 4 5 6 
#
# 1 0.013925 -0.013805 -0.012932 0.000000 0.000000 0.000000
# 2 -0.013805 0.068696 0.017665 0.000000 0.000000 0.000000
# 3 -0.012932 0.017665 0.025398 0.000000 0.000000 0.000000
# 4 0.000000 0.000000 0.000000 0.051614 0.000000 0.000000
# 5 0.000000 0.000000 0.000000 0.000000 0.032294 0.000000
# 6 0.000000 0.000000 0.000000 0.000000 0.000000 0.082678
#
#
# Mechanical properties :
#
#
# Convention : Reuss Voigt Hill
#
# Bulk Modulus (GPa) = 11.12649 42.34081 26.73365
# Shear Modulus (GPa) = 15.49394 23.80711 19.65053
#
# Velocity S-wave (km/s) = 2.79570 3.46548 3.14845
# Velocity P-wave (km/s) = 4.00425 6.11323 5.16747
#
# Compressibility (1/GPa) = 0.08987561
#
# Stress axis : x y z
#
# Youngs Moduli (GPa) = 71.81255 14.55694 39.37309
#
# Poissons Ratio (x) = 0.20096 0.50917
# Poissons Ratio (y) = 0.99138 -0.69554
# Poissons Ratio (z) = 0.92868 -0.25715
#
# Static dielectric constant tensor:
#      x y z
#    x 1.665630 0.000000 0.000000 
#    y 0.000000 1.913810 0.000000 
#    z 0.000000 0.000000 1.709790 
# 
# From -- ./inp_files/24789.got.cif
#   From: 2010.05.17/outbox.cif.g08.bks.cpg/sg59_13_cif.got.tgz:24789.got - 2010.06.03 14:40:33.
