data_PCOD9450164
_publ_section_title
;
Structure prediction by ZEFSAII (Michael W. Deem and Ramdas Pophale) SiO2 
 PCOD9450164
Probable space group: P M M N
;
_chemical_formula_sum "Si O2"
_cell_formula_units_Z 56
_cell_length_a 26.074631
_cell_length_b 8.871197
_cell_length_c 14.663414
_cell_angle_alpha 90.000000
_cell_angle_beta 90.000000
_cell_angle_gamma 90.000000
_cell_volume 3391.841044
_symmetry_space_group_name_H-M "P M M N"
_symmetry_group_IT_number 59
_space_group.IT_coordinate_system_code '2'
_symmetry_cell_setting 'orthorhombic'
loop_
_space_group_symop_operation_xyz
x,y,z
1/2-x,1/2-y,z
1/2+x,-y,-z
-x,1/2+y,-z
-x,-y,-z
1/2+x,1/2+y,-z
1/2-x,y,z
x,1/2-y,z
loop_
_atom_site_type_symbol
_atom_site_label
_atom_site_fract_x
_atom_site_fract_y
_atom_site_fract_z
Si Si1 0.100138 0.070064 0.719549
Si Si2 0.998599 0.431003 0.601126
Si Si3 0.691294 0.569736 0.592990
Si Si4 0.944556 0.070132 0.103807
Si Si5 0.190408 0.570322 0.604403
Si Si6 0.595207 0.930529 0.716232
Si Si7 0.057817 0.570313 0.103960
O O1 0.101706 0.250000 0.729344
O O2 0.051024 0.032906 0.655539
O O3 0.091124 0.993836 0.817204
O O4 0.151008 0.010137 0.671279
O O5 0.994123 0.250000 0.595757
O O6 0.950975 0.497738 0.657619
O O7 0.000000 0.500000 0.500000
O O8 0.750000 0.535261 0.620171
O O9 0.688096 0.750000 0.576250
O O10 0.680162 0.485664 0.498461
O O11 0.648884 0.531384 0.667788
O O12 0.950481 0.250000 0.113054
O O13 0.926383 0.038399 0.000458
O O14 0.000104 0.992764 0.114587
O O15 0.250000 0.533833 0.624468
O O16 0.184016 0.750000 0.609473
O O17 0.589193 0.750000 0.716611
O O18 0.591374 0.993319 0.818309
O O19 0.056994 0.750000 0.117362
#
# Coordination Sequence:
#
# PCOD9450164 Si02
#       7
#     8   8   8   8   8   8   8
#     4  11  22  35  53  77 106 140 176 214 262 315
#     4  11  23  35  48  72 107 141 172 211 259 315
#     4   9  19  36  55  76 104 138 179 222 260 305
#     4  10  20  34  54  77 104 138 176 216 261 314
#     4  10  21  36  55  79 105 137 179 222 263 309
#     4  11  21  33  53  78 104 139 177 215 264 315
#     4  10  20  34  52  77 107 138 173 215 262 314
#
# _framework density 16.510207000000001
#
# number of rings (size 3 to 8) (size 9 to 14) (size 15 to 20)
#    0.000    1.714    1.429    3.429    0.000    8.857 
#    0.000    0.000    0.000    0.857    0.000    4.000 
#    0.000    0.000    0.000    0.000    0.000    0.000 
#
# Total GULP energy -312768.353285 kJ/mol
# GULP energy per Si atom -5585.149166 kJ/mol
# Density = 1.647263 g / cm^3
# Si number density = 16.510207 Si / 1000 Ang^3
#
#
#
# Elastic Constant Matrix: (Units=GPa)
#
#
# Indices 1 2 3 4 5 6 
#
# 1 88.1974 47.9616 75.7468 0.0000 0.0000 0.0000
# 2 47.9616 58.4630 61.0403 0.0000 0.0000 0.0000
# 3 75.7468 61.0403 139.4473 0.0000 0.0000 0.0000
# 4 0.0000 0.0000 0.0000 33.5999 0.0000 0.0000
# 5 0.0000 0.0000 0.0000 0.0000 21.7257 0.0000
# 6 0.0000 0.0000 0.0000 0.0000 0.0000 22.1292
#
#
#
# Elastic Compliance Matrix: (Units=1/GPa)
#
#
# Indices 1 2 3 4 5 6 
#
# 1 0.024908 -0.011617 -0.008445 0.000000 0.000000 0.000000
# 2 -0.011617 0.036920 -0.009851 0.000000 0.000000 0.000000
# 3 -0.008445 -0.009851 0.016070 0.000000 0.000000 0.000000
# 4 0.000000 0.000000 0.000000 0.029762 0.000000 0.000000
# 5 0.000000 0.000000 0.000000 0.000000 0.046028 0.000000
# 6 0.000000 0.000000 0.000000 0.000000 0.000000 0.045189
#
#
# Mechanical properties :
#
#
# Convention : Reuss Voigt Hill
#
# Bulk Modulus (GPa) = 55.32966 72.84501 64.08733
# Shear Modulus (GPa) = 18.88730 22.24823 20.56777
#
# Velocity S-wave (km/s) = 3.38594 3.67487 3.53336
# Velocity P-wave (km/s) = 6.99080 7.88817 7.45300
#
# Compressibility (1/GPa) = 0.01807349
#
# Stress axis : x y z
#
# Youngs Moduli (GPa) = 40.14741 27.08546 62.22615
#
# Poissons Ratio (x) = 0.31465 0.52549
# Poissons Ratio (y) = 0.46639 0.61298
# Poissons Ratio (z) = 0.33904 0.26682
#
# Static dielectric constant tensor:
#      x y z
#    x 1.535190 0.000000 0.000000 
#    y 0.000000 1.549860 0.000000 
#    z 0.000000 0.000000 1.545100 
# 
# From -- ./inp_files/24208.got.cif
#   From: 2010.05.17/outbox.cif.g08.bks.cpg/sg59_13_cif.got.tgz:24208.got - 2010.06.03 14:40:33.
