data_PCOD9450275
_publ_section_title
;
Structure prediction by ZEFSAII (Michael W. Deem and Ramdas Pophale) SiO2 
 PCOD9450275
Probable space group: P M M N
;
_chemical_formula_sum "Si O2"
_cell_formula_units_Z 64
_cell_length_a 8.825616
_cell_length_b 25.414997
_cell_length_c 15.751604
_cell_angle_alpha 90.000000
_cell_angle_beta 90.000000
_cell_angle_gamma 90.000000
_cell_volume 3533.132098
_symmetry_space_group_name_H-M "P M M N"
_symmetry_group_IT_number 59
_space_group.IT_coordinate_system_code '2'
_symmetry_cell_setting 'orthorhombic'
loop_
_space_group_symop_operation_xyz
x,y,z
1/2-x,1/2-y,z
1/2+x,-y,-z
-x,1/2+y,-z
-x,-y,-z
1/2+x,1/2+y,-z
1/2-x,y,z
x,1/2-y,z
loop_
_atom_site_type_symbol
_atom_site_label
_atom_site_fract_x
_atom_site_fract_y
_atom_site_fract_z
Si Si1 0.932580 0.311573 0.300956
Si Si2 0.070307 0.440568 0.990229
Si Si3 0.570318 0.687264 0.519606
Si Si4 0.583915 0.974176 0.754907
Si Si5 0.925651 0.110984 0.151769
Si Si6 0.074107 0.978931 0.416144
Si Si7 0.576812 0.405169 0.817730
Si Si8 0.930180 0.873072 0.350764
O O1 0.750000 0.314917 0.304034
O O2 0.975325 0.250000 0.292247
O O3 0.981786 0.344511 0.217935
O O4 0.994960 0.331247 0.392033
O O5 0.250000 0.447187 0.991792
O O6 0.017412 0.412443 0.903560
O O7 0.000000 0.500000 0.000000
O O8 0.015528 0.402774 0.066496
O O9 0.750000 0.676353 0.525590
O O10 0.547565 0.750000 0.516071
O O11 0.517154 0.663298 0.429634
O O12 0.750000 0.952520 0.780978
O O13 0.448182 0.942712 0.795453
O O14 0.573440 0.975448 0.654156
O O15 0.582211 0.034850 0.782609
O O16 0.750000 0.120939 0.131803
O O17 0.250000 0.962160 0.425768
O O18 0.973131 0.931102 0.382980
O O19 0.000000 0.000000 0.500000
O O20 0.750000 0.389284 0.835702
O O21 0.507774 0.369779 0.742005
O O22 0.750000 0.866625 0.340640
#
# Coordination Sequence:
#
# PCOD9450275 Si02
#       8
#     8   8   8   8   8   8   8   8
#     4   9  20  38  57  80 110 142 180 227 276 324
#     4  12  23  36  56  81 111 146 183 225 269 322
#     4   9  19  36  58  83 110 143 183 227 275 326
#     4   9  19  33  48  69 101 139 176 218 262 313
#     4  11  22  34  54  81 107 142 182 225 274 326
#     4  10  21  34  47  67 101 142 182 219 262 318
#     4  10  20  36  55  77 109 144 178 221 266 316
#     4  10  20  34  53  78 107 141 178 220 271 324
#
# _framework density 18.114239000000001
#
# number of rings (size 3 to 8) (size 9 to 14) (size 15 to 20)
#    0.000    2.000    1.250    3.375    1.750    4.500 
#    0.000    0.000    0.000    0.750    0.000    0.000 
#    0.000    0.000    0.000    0.000    0.000    0.000 
#
# Total GULP energy -356647.202803 kJ/mol
# GULP energy per Si atom -5572.612544 kJ/mol
# Density = 1.807301 g / cm^3
# Si number density = 18.114239 Si / 1000 Ang^3
#
#
#
# Elastic Constant Matrix: (Units=GPa)
#
#
# Indices 1 2 3 4 5 6 
#
# 1 75.7741 18.6525 58.8740 0.0000 0.0000 0.0000
# 2 18.6525 33.3398 39.6907 0.0000 0.0000 0.0000
# 3 58.8740 39.6907 168.8577 0.0000 0.0000 0.0000
# 4 0.0000 0.0000 0.0000 29.0336 0.0000 0.0000
# 5 0.0000 0.0000 0.0000 0.0000 32.9382 0.0000
# 6 0.0000 0.0000 0.0000 0.0000 0.0000 16.2632
#
#
#
# Elastic Compliance Matrix: (Units=1/GPa)
#
#
# Indices 1 2 3 4 5 6 
#
# 1 0.018422 -0.003694 -0.005555 0.000000 0.000000 0.000000
# 2 -0.003694 0.042389 -0.008676 0.000000 0.000000 0.000000
# 3 -0.005555 -0.008676 0.009898 0.000000 0.000000 0.000000
# 4 0.000000 0.000000 0.000000 0.034443 0.000000 0.000000
# 5 0.000000 0.000000 0.000000 0.000000 0.030360 0.000000
# 6 0.000000 0.000000 0.000000 0.000000 0.000000 0.061488
#
#
# Mechanical properties :
#
#
# Convention : Reuss Voigt Hill
#
# Bulk Modulus (GPa) = 28.68546 56.93398 42.80972
# Shear Modulus (GPa) = 20.45240 26.36398 23.40819
#
# Velocity S-wave (km/s) = 3.36382 3.81915 3.59869
# Velocity P-wave (km/s) = 5.56393 7.13769 6.39937
#
# Compressibility (1/GPa) = 0.03486086
#
# Stress axis : x y z
#
# Youngs Moduli (GPa) = 54.28191 23.59093 101.02793
#
# Poissons Ratio (x) = 0.08713 0.56121
# Poissons Ratio (y) = 0.20049 0.87651
# Poissons Ratio (z) = 0.30153 0.20467
#
# Static dielectric constant tensor:
#      x y z
#    x 1.639940 0.000000 0.000000 
#    y 0.000000 1.609520 0.000000 
#    z 0.000000 0.000000 1.655430 
# 
# From -- ./inp_files/21612.got.cif
#   From: 2010.05.17/outbox.cif.g08.bks.cpg/sg59_11_cif.got.tgz:21612.got - 2010.06.03 14:40:33.
