data_PCOD9450307
_publ_section_title
;
Structure prediction by ZEFSAII (Michael W. Deem and Ramdas Pophale) SiO2 
 PCOD9450307
Probable space group: P M M N
;
_chemical_formula_sum "Si O2"
_cell_formula_units_Z 56
_cell_length_a 16.281510
_cell_length_b 7.876543
_cell_length_c 21.555688
_cell_angle_alpha 90.000000
_cell_angle_beta 90.000000
_cell_angle_gamma 90.000000
_cell_volume 2764.344834
_symmetry_space_group_name_H-M "P M M N"
_symmetry_group_IT_number 59
_space_group.IT_coordinate_system_code '2'
_symmetry_cell_setting 'orthorhombic'
loop_
_space_group_symop_operation_xyz
x,y,z
1/2-x,1/2-y,z
1/2+x,-y,-z
-x,1/2+y,-z
-x,-y,-z
1/2+x,1/2+y,-z
1/2-x,y,z
x,1/2-y,z
loop_
_atom_site_type_symbol
_atom_site_label
_atom_site_fract_x
_atom_site_fract_y
_atom_site_fract_z
Si Si1 0.412123 0.546391 0.809515
Si Si2 0.661723 0.453697 0.860588
Si Si3 0.750000 0.458746 0.406228
Si Si4 0.575305 0.954821 0.740723
Si Si5 0.905955 0.441747 0.486011
Si Si6 0.655565 0.546453 0.616767
Si Si7 0.000300 0.547897 0.071676
Si Si8 0.750000 0.457892 0.261105
O O1 0.412216 0.750000 0.804100
O O2 0.490753 0.481031 0.770752
O O3 0.427555 0.507742 0.881971
O O4 0.329864 0.483975 0.776851
O O5 0.750000 0.520211 0.880865
O O6 0.661985 0.250000 0.867985
O O7 0.645658 0.493314 0.788809
O O8 0.584168 0.523450 0.898048
O O9 0.750000 0.250000 0.410661
O O10 0.835380 0.518108 0.439790
O O11 0.750000 0.506239 0.333580
O O12 0.572474 0.750000 0.738975
O O13 0.596060 0.012167 0.671745
O O14 0.916304 0.250000 0.463487
O O15 0.863021 0.454991 0.552809
O O16 0.000000 0.500000 0.500000
O O17 0.750000 0.520356 0.635516
O O18 0.644318 0.750000 0.607010
O O19 0.002307 0.750000 0.075319
O O20 0.000000 0.500000 0.000000
O O21 0.750000 0.250000 0.260896
#
# Coordination Sequence:
#
# PCOD9450307 Si02
#       8
#     8   8   4   8   8   8   8   4
#     4   9  18  34  57  83 109 140 184 228 275 329
#     4   9  18  33  52  76 104 136 173 216 262 313
#     4   9  20  38  61  85 113 148 197 248 293 347
#     4   9  18  31  52  80 108 141 177 220 271 325
#     4  11  23  39  58  82 111 148 193 243 296 351
#     4  10  20  34  53  79 113 147 182 228 284 341
#     4  10  20  36  57  79 111 145 178 218 266 320
#     4   9  18  34  59  85 107 142 191 240 279 329
#
# _framework density 20.257963
#
# number of rings (size 3 to 8) (size 9 to 14) (size 15 to 20)
#    0.000    2.429    0.714    1.286    2.000    2.000 
#    1.286    0.357    0.000    1.714    0.000    0.000 
#    0.000    0.000    0.000    0.000    0.000    0.000 
#
# Total GULP energy -312128.301911 kJ/mol
# GULP energy per Si atom -5573.719677 kJ/mol
# Density = 2.021186 g / cm^3
# Si number density = 20.257963 Si / 1000 Ang^3
#
#
#
# Elastic Constant Matrix: (Units=GPa)
#
#
# Indices 1 2 3 4 5 6 
#
# 1 137.7633 13.8909 67.6642 0.0000 0.0000 0.0000
# 2 13.8909 19.4969 -2.9006 0.0000 0.0000 0.0000
# 3 67.6642 -2.9006 145.5742 0.0000 0.0000 0.0000
# 4 0.0000 0.0000 0.0000 22.9793 0.0000 0.0000
# 5 0.0000 0.0000 0.0000 0.0000 21.8024 0.0000
# 6 0.0000 0.0000 0.0000 0.0000 0.0000 17.7858
#
#
#
# Elastic Compliance Matrix: (Units=1/GPa)
#
#
# Indices 1 2 3 4 5 6 
#
# 1 0.010597 -0.008307 -0.005091 0.000000 0.000000 0.000000
# 2 -0.008307 0.057955 0.005016 0.000000 0.000000 0.000000
# 3 -0.005091 0.005016 0.009336 0.000000 0.000000 0.000000
# 4 0.000000 0.000000 0.000000 0.043517 0.000000 0.000000
# 5 0.000000 0.000000 0.000000 0.000000 0.045867 0.000000
# 6 0.000000 0.000000 0.000000 0.000000 0.000000 0.056225
#
#
# Mechanical properties :
#
#
# Convention : Reuss Voigt Hill
#
# Bulk Modulus (GPa) = 16.36044 51.12704 33.74374
# Shear Modulus (GPa) = 19.18385 27.45882 23.32134
#
# Velocity S-wave (km/s) = 3.08064 3.68565 3.39664
# Velocity P-wave (km/s) = 4.55493 6.58823 5.66358
#
# Compressibility (1/GPa) = 0.06112304
#
# Stress axis : x y z
#
# Youngs Moduli (GPa) = 94.36583 17.25472 107.11565
#
# Poissons Ratio (x) = 0.14334 0.54534
# Poissons Ratio (y) = 0.78394 -0.53731
# Poissons Ratio (z) = 0.48043 -0.08655
#
# Static dielectric constant tensor:
#      x y z
#    x 1.759560 0.000000 0.000000 
#    y 0.000000 1.753370 0.000000 
#    z 0.000000 0.000000 1.708860 
# 
# From -- ./inp_files/30452.got.cif
#   From: 2010.05.17/outbox.cif.g08.bks.cpg/sg59_16_cif.got.tgz:30452.got - 2010.06.03 14:40:33.
