data_PCOD9450756
_publ_section_title
;
Structure prediction by ZEFSAII (Michael W. Deem and Ramdas Pophale) SiO2 
 PCOD9450756
Probable space group: P M M N
;
_chemical_formula_sum "Si O2"
_cell_formula_units_Z 64
_cell_length_a 21.444155
_cell_length_b 7.680151
_cell_length_c 17.078950
_cell_angle_alpha 90.000000
_cell_angle_beta 90.000000
_cell_angle_gamma 90.000000
_cell_volume 2812.806543
_symmetry_space_group_name_H-M "P M M N"
_symmetry_group_IT_number 59
_space_group.IT_coordinate_system_code '2'
_symmetry_cell_setting 'orthorhombic'
loop_
_space_group_symop_operation_xyz
x,y,z
1/2-x,1/2-y,z
1/2+x,-y,-z
-x,1/2+y,-z
-x,-y,-z
1/2+x,1/2+y,-z
1/2-x,y,z
x,1/2-y,z
loop_
_atom_site_type_symbol
_atom_site_label
_atom_site_fract_x
_atom_site_fract_y
_atom_site_fract_z
Si Si1 0.818265 0.458021 0.680567
Si Si2 0.909036 0.958421 0.805471
Si Si3 0.987433 0.455919 0.319052
Si Si4 0.079386 0.959719 0.446115
Si Si5 0.678934 0.962885 0.100897
Si Si6 0.849911 0.949417 0.276684
Si Si7 0.928252 0.959708 0.980599
Si Si8 0.816885 0.048569 0.443401
O O1 0.750000 0.529489 0.665906
O O2 0.816245 0.250000 0.672155
O O3 0.843115 0.500149 0.766487
O O4 0.869825 0.518104 0.619240
O O5 0.916097 0.750000 0.807967
O O6 0.961240 0.021936 0.743774
O O7 0.915764 0.026453 0.892879
O O8 0.977959 0.250000 0.308601
O O9 0.923213 0.544163 0.295826
O O10 0.014690 0.478075 0.407322
O O11 0.072686 0.750000 0.449205
O O12 0.117505 0.021474 0.522748
O O13 0.750000 0.013763 0.079524
O O14 0.677327 0.750000 0.100765
O O15 0.664485 0.018561 0.190171
O O16 0.623805 0.022586 0.042646
O O17 0.828078 0.750000 0.278935
O O18 0.819609 0.043989 0.350123
O O19 0.922477 0.750000 0.979555
O O20 0.000000 0.000000 0.000000
O O21 0.750000 0.970488 0.468673
O O22 0.815554 0.250000 0.469731
#
# Coordination Sequence:
#
# PCOD9450756 Si02
#       8
#     8   8   8   8   8   8   8   8
#     4   9  17  30  50  75 103 136 171 207 250 304
#     4   9  19  33  50  76 106 136 171 212 260 313
#     4  10  20  35  54  78 110 142 175 218 267 320
#     4   9  18  34  55  78 105 138 176 215 258 315
#     4   9  19  36  57  81 109 144 187 230 272 323
#     4  11  22  36  56  79 104 138 181 227 272 319
#     4  10  20  35  57  82 108 140 178 222 271 323
#     4  10  21  37  57  80 106 137 174 218 269 322
#
# _framework density 22.753074999999999
#
# number of rings (size 3 to 8) (size 9 to 14) (size 15 to 20)
#    0.000    2.375    0.000    2.250    0.000    5.000 
#    0.000    1.875    0.000    4.125    0.000    0.000 
#    0.000    0.000    0.000    0.000    0.000    0.000 
#
# Total GULP energy -357227.426487 kJ/mol
# GULP energy per Si atom -5581.678539 kJ/mol
# Density = 2.270129 g / cm^3
# Si number density = 22.753075 Si / 1000 Ang^3
#
#
#
# Elastic Constant Matrix: (Units=GPa)
#
#
# Indices 1 2 3 4 5 6 
#
# 1 161.7077 -2.3913 51.7621 0.0000 0.0000 0.0000
# 2 -2.3913 43.5204 2.0226 0.0000 0.0000 0.0000
# 3 51.7621 2.0226 134.7941 0.0000 0.0000 0.0000
# 4 0.0000 0.0000 0.0000 12.5121 0.0000 0.0000
# 5 0.0000 0.0000 0.0000 0.0000 15.4217 0.0000
# 6 0.0000 0.0000 0.0000 0.0000 0.0000 13.4451
#
#
#
# Elastic Compliance Matrix: (Units=1/GPa)
#
#
# Indices 1 2 3 4 5 6 
#
# 1 0.007062 0.000514 -0.002720 0.000000 0.000000 0.000000
# 2 0.000514 0.023031 -0.000543 0.000000 0.000000 0.000000
# 3 -0.002720 -0.000543 0.008471 0.000000 0.000000 0.000000
# 4 0.000000 0.000000 0.000000 0.079923 0.000000 0.000000
# 5 0.000000 0.000000 0.000000 0.000000 0.064844 0.000000
# 6 0.000000 0.000000 0.000000 0.000000 0.000000 0.074377
#
#
# Mechanical properties :
#
#
# Convention : Reuss Voigt Hill
#
# Bulk Modulus (GPa) = 30.24076 49.20100 39.72088
# Shear Modulus (GPa) = 18.23308 27.51770 22.87539
#
# Velocity S-wave (km/s) = 2.83388 3.48142 3.17421
# Velocity P-wave (km/s) = 4.90179 6.15071 5.56142
#
# Compressibility (1/GPa) = 0.03306795
#
# Stress axis : x y z
#
# Youngs Moduli (GPa) = 141.59980 43.41928 118.04643
#
# Poissons Ratio (x) = -0.02234 0.32105
# Poissons Ratio (y) = -0.07284 0.06412
# Poissons Ratio (z) = 0.38510 0.02358
#
# Static dielectric constant tensor:
#      x y z
#    x 1.899660 0.000000 0.000000 
#    y 0.000000 1.847390 0.000000 
#    z 0.000000 0.000000 1.855790 
# 
# From -- ./inp_files/26268.got.cif
#   From: 2010.05.17/outbox.cif.g08.bks.cpg/sg59_14_cif.got.tgz:26268.got - 2010.06.03 14:40:33.
