data_PCOD9450347
_publ_section_title
;
Structure prediction by ZEFSAII (Michael W. Deem and Ramdas Pophale) SiO2 
 PCOD9450347
Probable space group: P M M N
;
_chemical_formula_sum "Si O2"
_cell_formula_units_Z 40
_cell_length_a 7.875915
_cell_length_b 14.865259
_cell_length_c 17.696914
_cell_angle_alpha 90.000000
_cell_angle_beta 90.000000
_cell_angle_gamma 90.000000
_cell_volume 2071.910738
_symmetry_space_group_name_H-M "P M M N"
_symmetry_group_IT_number 59
_space_group.IT_coordinate_system_code '2'
_symmetry_cell_setting 'orthorhombic'
loop_
_space_group_symop_operation_xyz
x,y,z
1/2-x,1/2-y,z
1/2+x,-y,-z
-x,1/2+y,-z
-x,-y,-z
1/2+x,1/2+y,-z
1/2-x,y,z
x,1/2-y,z
loop_
_atom_site_type_symbol
_atom_site_label
_atom_site_fract_x
_atom_site_fract_y
_atom_site_fract_z
Si Si1 0.045252 0.941880 0.073457
Si Si2 0.047592 0.517861 0.614292
Si Si3 0.045468 0.250000 0.156542
Si Si4 0.455180 0.750000 0.020296
Si Si5 0.955254 0.942223 0.785071
Si Si6 0.547654 0.851611 0.484025
O O1 0.250000 0.938472 0.077983
O O2 0.983033 0.990832 0.149084
O O3 0.981836 0.840919 0.059676
O O4 0.000000 0.000000 0.000000
O O5 0.250000 0.517977 0.605581
O O6 0.980793 0.425204 0.576277
O O7 0.004271 0.527478 0.701685
O O8 0.980696 0.601691 0.565162
O O9 0.250000 0.250000 0.162263
O O10 0.982910 0.341598 0.195260
O O11 0.002066 0.250000 0.067955
O O12 0.250000 0.750000 0.024178
O O13 0.750000 0.940576 0.788748
O O14 0.750000 0.845426 0.472382
O O15 0.478384 0.750000 0.479266
#
# Coordination Sequence:
#
# PCOD9450347 Si02
#       6
#     8   8   4   4   8   8
#     4  10  20  35  55  77 106 141 179 221 267 316
#     4  10  21  36  56  84 111 135 175 223 262 307
#     4  10  20  34  54  78 103 138 183 220 261 322
#     4  10  20  34  54  80 105 134 177 230 277 308
#     4  10  21  36  53  77 109 144 178 215 265 322
#     4   9  19  38  61  80 106 143 175 209 262 323
#
# _framework density 19.30585
#
# number of rings (size 3 to 8) (size 9 to 14) (size 15 to 20)
#    0.000    2.200    2.000    0.600    1.400    2.800 
#    1.800    0.000    0.000    0.000    0.000    0.000 
#    0.000    0.000    0.000    0.000    0.000    0.000 
#
# Total GULP energy -223255.798384 kJ/mol
# GULP energy per Si atom -5581.394960 kJ/mol
# Density = 1.926191 g / cm^3
# Si number density = 19.305850 Si / 1000 Ang^3
#
#
#
# Elastic Constant Matrix: (Units=GPa)
#
#
# Indices 1 2 3 4 5 6 
#
# 1 16.1931 8.0496 -6.9592 0.0000 0.0000 0.0000
# 2 8.0496 201.7668 96.1942 0.0000 0.0000 0.0000
# 3 -6.9592 96.1942 157.3070 0.0000 0.0000 0.0000
# 4 0.0000 0.0000 0.0000 12.6941 0.0000 0.0000
# 5 0.0000 0.0000 0.0000 0.0000 25.3720 0.0000
# 6 0.0000 0.0000 0.0000 0.0000 0.0000 10.5212
#
#
#
# Elastic Compliance Matrix: (Units=1/GPa)
#
#
# Indices 1 2 3 4 5 6 
#
# 1 0.067449 -0.005806 0.006534 0.000000 0.000000 0.000000
# 2 -0.005806 0.007496 -0.004840 0.000000 0.000000 0.000000
# 3 0.006534 -0.004840 0.009606 0.000000 0.000000 0.000000
# 4 0.000000 0.000000 0.000000 0.078777 0.000000 0.000000
# 5 0.000000 0.000000 0.000000 0.000000 0.039414 0.000000
# 6 0.000000 0.000000 0.000000 0.000000 0.000000 0.095046
#
#
# Mechanical properties :
#
#
# Convention : Reuss Voigt Hill
#
# Bulk Modulus (GPa) = 13.10164 63.31513 38.20839
# Shear Modulus (GPa) = 15.08505 28.24960 21.66733
#
# Velocity S-wave (km/s) = 2.79834 3.82942 3.35374
# Velocity P-wave (km/s) = 4.15235 7.24014 5.90176
#
# Compressibility (1/GPa) = 0.07632631
#
# Stress axis : x y z
#
# Youngs Moduli (GPa) = 14.82597 133.41154 104.10095
#
# Poissons Ratio (x) = 0.77463 -0.68025
# Poissons Ratio (y) = 0.08608 0.50390
# Poissons Ratio (z) = -0.09688 0.64578
#
# Static dielectric constant tensor:
#      x y z
#    x 1.696330 0.000000 0.000000 
#    y 0.000000 1.697390 0.000000 
#    z 0.000000 0.000000 1.626100 
# 
# From -- ./inp_files/19937.got.cif
#   From: 2010.05.17/outbox.cif.g08.bks.cpg/sg59_10_cif.got.tgz:19937.got - 2010.06.03 14:40:33.
