data_PCOD9450273
_publ_section_title
;
Structure prediction by ZEFSAII (Michael W. Deem and Ramdas Pophale) SiO2 
 PCOD9450273
Probable space group: P M M N
;
_chemical_formula_sum "Si O2"
_cell_formula_units_Z 48
_cell_length_a 31.399854
_cell_length_b 8.943762
_cell_length_c 9.912765
_cell_angle_alpha 90.000000
_cell_angle_beta 90.000000
_cell_angle_gamma 90.000000
_cell_volume 2783.829759
_symmetry_space_group_name_H-M "P M M N"
_symmetry_group_IT_number 59
_space_group.IT_coordinate_system_code '2'
_symmetry_cell_setting 'orthorhombic'
loop_
_space_group_symop_operation_xyz
x,y,z
1/2-x,1/2-y,z
1/2+x,-y,-z
-x,1/2+y,-z
-x,-y,-z
1/2+x,1/2+y,-z
1/2-x,y,z
x,1/2-y,z
loop_
_atom_site_type_symbol
_atom_site_label
_atom_site_fract_x
_atom_site_fract_y
_atom_site_fract_z
Si Si1 0.633874 0.571860 0.868842
Si Si2 0.961275 0.078490 0.172811
Si Si3 0.799935 0.072233 0.663887
Si Si4 0.046562 0.579496 0.154680
Si Si5 0.133473 0.930472 0.834079
Si Si6 0.299814 0.071692 0.629601
O O1 0.636567 0.750000 0.877476
O O2 0.669806 0.505245 0.772107
O O3 0.587264 0.522376 0.815413
O O4 0.638573 0.499839 0.017261
O O5 0.968393 0.250000 0.214354
O O6 0.914233 0.029026 0.217546
O O7 0.958299 0.077827 0.008818
O O8 0.001837 0.980075 0.211178
O O9 0.750000 0.050177 0.697840
O O10 0.808011 0.250000 0.658546
O O11 0.807112 0.999270 0.517511
O O12 0.054853 0.750000 0.195364
O O13 0.135077 0.750000 0.843232
O O14 0.169280 0.994145 0.736280
O O15 0.250000 0.046265 0.664123
O O16 0.306958 0.250000 0.625883
#
# Coordination Sequence:
#
# PCOD9450273 Si02
#       6
#     8   8   8   8   8   8
#     4  11  21  33  52  78 108 138 171 215 261 303
#     4   8  15  27  44  69 100 133 169 208 250 297
#     4  10  21  38  58  77 100 134 174 213 256 310
#     4   9  16  27  45  70 101 135 170 207 250 303
#     4  10  20  34  53  78 107 138 174 215 257 303
#     4  10  21  37  56  78 104 135 172 212 256 309
#
# _framework density 17.242433999999999
#
# number of rings (size 3 to 8) (size 9 to 14) (size 15 to 20)
#    0.000    2.333    0.000    4.500    0.000    7.333 
#    0.000    0.000    0.000    1.000    0.000    0.000 
#    0.000    0.000    0.000    0.000    0.000    0.000 
#
# Total GULP energy -267729.217270 kJ/mol
# GULP energy per Si atom -5577.692026 kJ/mol
# Density = 1.720319 g / cm^3
# Si number density = 17.242434 Si / 1000 Ang^3
#
#
#
# Elastic Constant Matrix: (Units=GPa)
#
#
# Indices 1 2 3 4 5 6 
#
# 1 134.5040 89.3346 73.3840 0.0000 0.0000 0.0000
# 2 89.3346 126.4753 51.3866 0.0000 0.0000 0.0000
# 3 73.3840 51.3866 56.5398 0.0000 0.0000 0.0000
# 4 0.0000 0.0000 0.0000 25.3097 0.0000 0.0000
# 5 0.0000 0.0000 0.0000 0.0000 -16.2508 0.0000
# 6 0.0000 0.0000 0.0000 0.0000 0.0000 27.0650
#
#
#
# Elastic Compliance Matrix: (Units=1/GPa)
#
#
# Indices 1 2 3 4 5 6 
#
# 1 0.030457 -0.008644 -0.031675 0.000000 0.000000 0.000000
# 2 -0.008644 0.014989 -0.002404 0.000000 0.000000 0.000000
# 3 -0.031675 -0.002404 0.060983 0.000000 0.000000 0.000000
# 4 0.000000 0.000000 0.000000 0.039510 0.000000 0.000000
# 5 0.000000 0.000000 0.000000 0.000000 -0.061535 0.000000
# 6 0.000000 0.000000 0.000000 0.000000 0.000000 0.036948
#
#
# Mechanical properties :
#
#
# Convention : Reuss Voigt Hill
#
# Bulk Modulus (GPa) = 47.65581 82.85884 65.25733
# Shear Modulus (GPa) = 23.38711 14.11904 18.75307
#
# Velocity S-wave (km/s) = 3.68689 2.86467 3.30147
# Velocity P-wave (km/s) = 6.76926 7.68773 7.24307
#
# Compressibility (1/GPa) = 0.02098380
#
# Stress axis : x y z
#
# Youngs Moduli (GPa) = 32.83275 66.71688 16.39792
#
# Poissons Ratio (x) = 0.57668 0.51941
# Poissons Ratio (y) = 0.28380 0.03942
# Poissons Ratio (z) = 1.03999 0.16038
#
# Static dielectric constant tensor:
#      x y z
#    x 1.593820 0.000000 0.000000 
#    y 0.000000 1.575510 0.000000 
#    z 0.000000 0.000000 1.552120 
# 
# From -- ./inp_files/6254.got.cif
#   From: 2010.05.17/outbox.cif.g08.bks.cpg/sg59_4_cif.got.tgz:6254.got - 2010.06.03 14:40:33.
