data_PCOD9450550
_publ_section_title
;
Structure prediction by ZEFSAII (Michael W. Deem and Ramdas Pophale) SiO2 
 PCOD9450550
Probable space group: P M M N
;
_chemical_formula_sum "Si O2"
_cell_formula_units_Z 64
_cell_length_a 29.973535
_cell_length_b 8.207838
_cell_length_c 12.737305
_cell_angle_alpha 90.000000
_cell_angle_beta 90.000000
_cell_angle_gamma 90.000000
_cell_volume 3133.605277
_symmetry_space_group_name_H-M "P M M N"
_symmetry_group_IT_number 59
_space_group.IT_coordinate_system_code '2'
_symmetry_cell_setting 'orthorhombic'
loop_
_space_group_symop_operation_xyz
x,y,z
1/2-x,1/2-y,z
1/2+x,-y,-z
-x,1/2+y,-z
-x,-y,-z
1/2+x,1/2+y,-z
1/2-x,y,z
x,1/2-y,z
loop_
_atom_site_type_symbol
_atom_site_label
_atom_site_fract_x
_atom_site_fract_y
_atom_site_fract_z
Si Si1 0.332869 0.940267 0.516894
Si Si2 0.801400 0.551085 0.935695
Si Si3 0.201959 0.057568 0.724531
Si Si4 0.526838 0.555919 0.102759
Si Si5 0.567055 0.053324 0.496469
Si Si6 0.994316 0.944542 0.673184
Si Si7 0.196399 0.436477 0.297216
Si Si8 0.870716 0.949138 0.116173
O O1 0.330987 0.750000 0.544000
O O2 0.383283 0.002549 0.526704
O O3 0.302780 0.032225 0.600699
O O4 0.319103 0.963815 0.396952
O O5 0.750000 0.499459 0.957894
O O6 0.800188 0.750000 0.934331
O O7 0.838484 0.503039 0.019779
O O8 0.815225 0.499187 0.818377
O O9 0.250000 0.989073 0.760330
O O10 0.203135 0.250000 0.747689
O O11 0.157615 0.994182 0.782307
O O12 0.529383 0.750000 0.098290
O O13 0.501705 0.508205 0.210080
O O14 0.578241 0.492322 0.108297
O O15 0.500000 0.500000 0.000000
O O16 0.566549 0.250000 0.496631
O O17 0.533833 0.995318 0.404742
O O18 0.549735 0.996290 0.609859
O O19 0.996042 0.750000 0.676906
O O20 0.250000 0.430943 0.298219
O O21 0.179894 0.250000 0.307815
O O22 0.872952 0.750000 0.117516
#
# Coordination Sequence:
#
# PCOD9450550 Si02
#       8
#     8   8   8   8   8   8   8   8
#     4  11  22  34  50  75 109 145 178 214 261 316
#     4   8  14  28  52  79 104 130 168 221 272 315
#     4  10  20  34  55  83 113 144 180 223 268 317
#     4  11  23  38  56  80 113 148 184 229 280 335
#     4   9  20  37  56  80 108 138 175 223 275 326
#     4  10  20  37  60  81 103 136 179 223 272 329
#     4   9  18  32  50  73 102 137 176 218 261 305
#     4   9  18  33  55  82 108 137 176 221 270 324
#
# _framework density 20.423757999999999
#
# number of rings (size 3 to 8) (size 9 to 14) (size 15 to 20)
#    0.000    2.375    0.000    3.375    0.000    6.000 
#    0.000    1.875    0.000    1.500    0.000    1.750 
#    0.000    0.000    0.000    0.000    0.000    0.000 
#
# Total GULP energy -357091.634432 kJ/mol
# GULP energy per Si atom -5579.556788 kJ/mol
# Density = 2.037727 g / cm^3
# Si number density = 20.423758 Si / 1000 Ang^3
#
#
#
# Elastic Constant Matrix: (Units=GPa)
#
#
# Indices 1 2 3 4 5 6 
#
# 1 97.8645 11.4000 46.3898 0.0000 0.0000 0.0000
# 2 11.4000 14.0991 4.4583 0.0000 0.0000 0.0000
# 3 46.3898 4.4583 124.3587 0.0000 0.0000 0.0000
# 4 0.0000 0.0000 0.0000 15.4347 0.0000 0.0000
# 5 0.0000 0.0000 0.0000 0.0000 1415.7443 0.0000
# 6 0.0000 0.0000 0.0000 0.0000 0.0000 10.2150
#
#
#
# Elastic Compliance Matrix: (Units=1/GPa)
#
#
# Indices 1 2 3 4 5 6 
#
# 1 0.013558 -0.009471 -0.004718 0.000000 0.000000 0.000000
# 2 -0.009471 0.078355 0.000724 0.000000 0.000000 0.000000
# 3 -0.004718 0.000724 0.009775 0.000000 0.000000 0.000000
# 4 0.000000 0.000000 0.000000 0.064789 0.000000 0.000000
# 5 0.000000 0.000000 0.000000 0.000000 0.000706 0.000000
# 6 0.000000 0.000000 0.000000 0.000000 0.000000 0.097896
#
#
# Mechanical properties :
#
#
# Convention : Reuss Voigt Hill
#
# Bulk Modulus (GPa) = 13.37635 40.09096 26.73365
# Shear Modulus (GPa) = 15.77642 299.88372 157.83007
#
# Velocity S-wave (km/s) = 2.78232 12.13052 8.80031
# Velocity P-wave (km/s) = 4.10918 14.69257 10.78789
#
# Compressibility (1/GPa) = 0.07475879
#
# Stress axis : x y z
#
# Youngs Moduli (GPa) = 73.75806 12.76239 102.29898
#
# Poissons Ratio (x) = 0.12087 0.48265
# Poissons Ratio (y) = 0.69853 -0.07404
# Poissons Ratio (z) = 0.34799 -0.00924
#
# Static dielectric constant tensor:
#      x y z
#    x 1.742180 0.000000 0.000000 
#    y 0.000000 1.717090 0.000000 
#    z 0.000000 0.000000 1.728240 
# 
# From -- ./inp_files/19364.got.cif
#   From: 2010.05.17/outbox.cif.g08.bks.cpg/sg59_10_cif.got.tgz:19364.got - 2010.06.03 14:40:33.
