data_PCOD9450382
_publ_section_title
;
Structure prediction by ZEFSAII (Michael W. Deem and Ramdas Pophale) SiO2 
 PCOD9450382
Probable space group: P M M N
;
_chemical_formula_sum "Si O2"
_cell_formula_units_Z 40
_cell_length_a 9.072838
_cell_length_b 20.537051
_cell_length_c 11.699140
_cell_angle_alpha 90.000000
_cell_angle_beta 90.000000
_cell_angle_gamma 90.000000
_cell_volume 2179.892996
_symmetry_space_group_name_H-M "P M M N"
_symmetry_group_IT_number 59
_space_group.IT_coordinate_system_code '2'
_symmetry_cell_setting 'orthorhombic'
loop_
_space_group_symop_operation_xyz
x,y,z
1/2-x,1/2-y,z
1/2+x,-y,-z
-x,1/2+y,-z
-x,-y,-z
1/2+x,1/2+y,-z
1/2-x,y,z
x,1/2-y,z
loop_
_atom_site_type_symbol
_atom_site_label
_atom_site_fract_x
_atom_site_fract_y
_atom_site_fract_z
Si Si1 0.572327 0.173132 0.517992
Si Si2 0.426326 0.050159 0.410529
Si Si3 0.080607 0.961950 0.828964
Si Si4 0.084234 0.827791 0.221556
Si Si5 0.418350 0.402268 0.968272
O O1 0.750000 0.166250 0.504739
O O2 0.537939 0.250000 0.500739
O O3 0.485861 0.122521 0.439864
O O4 0.536932 0.154382 0.649873
O O5 0.250000 0.046691 0.419015
O O6 0.481658 0.033511 0.283412
O O7 0.500000 0.000000 0.500000
O O8 0.250000 0.947875 0.797689
O O9 0.076962 0.029984 0.897595
O O10 0.016875 0.910065 0.919110
O O11 0.250000 0.854235 0.202614
O O12 0.092619 0.750000 0.222157
O O13 0.979904 0.850769 0.121309
O O14 0.250000 0.389564 0.000838
#
# Coordination Sequence:
#
# PCOD9450382 Si02
#       5
#     8   8   8   8   8
#     4   9  19  37  59  82 111 147 185 226 275 329
#     4  12  24  37  56  83 114 146 185 230 273 323
#     4  10  21  37  56  78 106 140 176 217 269 323
#     4   9  18  33  54  79 106 139 177 215 259 313
#     4  10  20  34  54  80 107 136 172 217 267 316
#
# _framework density 18.349523000000001
#
# number of rings (size 3 to 8) (size 9 to 14) (size 15 to 20)
#    0.000    2.000    0.000    5.400    0.000    7.200 
#    0.000    3.000    0.000    6.000    0.000    0.000 
#    0.000    0.000    0.000    0.000    0.000    0.000 
#
# Total GULP energy -223280.188694 kJ/mol
# GULP energy per Si atom -5582.004717 kJ/mol
# Density = 1.830776 g / cm^3
# Si number density = 18.349523 Si / 1000 Ang^3
#
#
#
# Elastic Constant Matrix: (Units=GPa)
#
#
# Indices 1 2 3 4 5 6 
#
# 1 97.2615 25.3946 44.4318 0.0000 0.0000 0.0000
# 2 25.3946 27.4621 10.4295 0.0000 0.0000 0.0000
# 3 44.4318 10.4295 69.2387 0.0000 0.0000 0.0000
# 4 0.0000 0.0000 0.0000 20.3825 0.0000 0.0000
# 5 0.0000 0.0000 0.0000 0.0000 34.6865 0.0000
# 6 0.0000 0.0000 0.0000 0.0000 0.0000 25.3304
#
#
#
# Elastic Compliance Matrix: (Units=1/GPa)
#
#
# Indices 1 2 3 4 5 6 
#
# 1 0.018103 -0.013076 -0.009647 0.000000 0.000000 0.000000
# 2 -0.013076 0.048069 0.001151 0.000000 0.000000 0.000000
# 3 -0.009647 0.001151 0.020460 0.000000 0.000000 0.000000
# 4 0.000000 0.000000 0.000000 0.049062 0.000000 0.000000
# 5 0.000000 0.000000 0.000000 0.000000 0.028830 0.000000
# 6 0.000000 0.000000 0.000000 0.000000 0.000000 0.039478
#
#
# Mechanical properties :
#
#
# Convention : Reuss Voigt Hill
#
# Bulk Modulus (GPa) = 22.99585 39.38601 31.19093
# Shear Modulus (GPa) = 19.11006 23.66032 21.38519
#
# Velocity S-wave (km/s) = 3.23065 3.59475 3.41755
# Velocity P-wave (km/s) = 5.14543 6.22419 5.71034
#
# Compressibility (1/GPa) = 0.04348611
#
# Stress axis : x y z
#
# Youngs Moduli (GPa) = 55.24000 20.80360 48.87513
#
# Poissons Ratio (x) = 0.27203 0.47151
# Poissons Ratio (y) = 0.72233 -0.05624
# Poissons Ratio (z) = 0.53291 -0.02394
#
# Static dielectric constant tensor:
#      x y z
#    x 1.648180 0.000000 0.000000 
#    y 0.000000 1.640190 0.000000 
#    z 0.000000 0.000000 1.624600 
# 
# From -- ./inp_files/5667.got.cif
#   From: 2010.05.17/outbox.cif.g08.bks.cpg/sg59_3_cif.got.tgz:5667.got - 2010.06.03 14:40:33.
