data_PCOD9450441
_publ_section_title
;
Structure prediction by ZEFSAII (Michael W. Deem and Ramdas Pophale) SiO2 
 PCOD9450441
Probable space group: P M M N
;
_chemical_formula_sum "Si O2"
_cell_formula_units_Z 64
_cell_length_a 8.081718
_cell_length_b 29.607890
_cell_length_c 12.984529
_cell_angle_alpha 90.000000
_cell_angle_beta 90.000000
_cell_angle_gamma 90.000000
_cell_volume 3106.972087
_symmetry_space_group_name_H-M "P M M N"
_symmetry_group_IT_number 59
_space_group.IT_coordinate_system_code '2'
_symmetry_cell_setting 'orthorhombic'
loop_
_space_group_symop_operation_xyz
x,y,z
1/2-x,1/2-y,z
1/2+x,-y,-z
-x,1/2+y,-z
-x,-y,-z
1/2+x,1/2+y,-z
1/2-x,y,z
x,1/2-y,z
loop_
_atom_site_type_symbol
_atom_site_label
_atom_site_fract_x
_atom_site_fract_y
_atom_site_fract_z
Si Si1 0.949719 0.060196 0.248280
Si Si2 0.948756 0.199966 0.005020
Si Si3 0.447973 0.478560 0.891477
Si Si4 0.052690 0.157756 0.215015
Si Si5 0.550308 0.367116 0.615449
Si Si6 0.550490 0.376049 0.847809
Si Si7 0.449853 0.302031 0.432585
Si Si8 0.050669 0.550858 0.520727
O O1 0.750000 0.059020 0.248662
O O2 0.010173 0.063687 0.365549
O O3 0.002710 0.106085 0.193004
O O4 0.008704 0.014157 0.194969
O O5 0.750000 0.200597 0.994415
O O6 0.011518 0.250000 0.977938
O O7 0.988131 0.188651 0.123101
O O8 0.012834 0.159988 0.931419
O O9 0.250000 0.477418 0.886841
O O10 0.509179 0.427731 0.875149
O O11 0.500000 0.500000 0.000000
O O12 0.250000 0.160818 0.216620
O O13 0.990036 0.173316 0.327867
O O14 0.750000 0.368469 0.619344
O O15 0.490283 0.363894 0.732666
O O16 0.503043 0.328107 0.535354
O O17 0.489808 0.413937 0.564266
O O18 0.750000 0.373014 0.847203
O O19 0.250000 0.302405 0.429654
O O20 0.505158 0.250000 0.432788
O O21 0.250000 0.553347 0.521641
O O22 0.000000 0.500000 0.500000
#
# Coordination Sequence:
#
# PCOD9450441 Si02
#       8
#     8   8   8   8   8   8   8   8
#     4  10  21  37  56  81 117 155 194 239 289 351
#     4  10  22  40  61  84 113 152 193 238 298 358
#     4  11  23  38  58  85 118 159 201 245 296 351
#     4  11  22  37  60  89 119 151 193 249 301 350
#     4  10  21  38  60  86 116 152 196 242 287 347
#     4  10  22  40  61  87 120 154 195 247 294 348
#     4  10  22  39  58  84 119 155 192 241 300 355
#     4  10  20  34  54  81 113 148 190 235 281 338
#
# _framework density 20.598832999999999
#
# number of rings (size 3 to 8) (size 9 to 14) (size 15 to 20)
#    0.000    1.750    1.250    2.625    0.000    8.000 
#    0.000    1.250    0.000    0.000    0.000    0.000 
#    0.000    0.000    0.000    0.000    0.000    0.000 
#
# Total GULP energy -357590.934454 kJ/mol
# GULP energy per Si atom -5587.358351 kJ/mol
# Density = 2.055195 g / cm^3
# Si number density = 20.598833 Si / 1000 Ang^3
#
#
#
# Elastic Constant Matrix: (Units=GPa)
#
#
# Indices 1 2 3 4 5 6 
#
# 1 9.9895 5.9876 8.9419 0.0000 0.0000 0.0000
# 2 5.9876 171.1745 70.3506 0.0000 0.0000 0.0000
# 3 8.9419 70.3506 139.1792 0.0000 0.0000 0.0000
# 4 0.0000 0.0000 0.0000 36.3669 0.0000 0.0000
# 5 0.0000 0.0000 0.0000 0.0000 19.6432 0.0000
# 6 0.0000 0.0000 0.0000 0.0000 0.0000 26.7253
#
#
#
# Elastic Compliance Matrix: (Units=1/GPa)
#
#
# Indices 1 2 3 4 5 6 
#
# 1 0.106393 -0.001151 -0.006253 0.000000 0.000000 0.000000
# 2 -0.001151 0.007386 -0.003660 0.000000 0.000000 0.000000
# 3 -0.006253 -0.003660 0.009437 0.000000 0.000000 0.000000
# 4 0.000000 0.000000 0.000000 0.027498 0.000000 0.000000
# 5 0.000000 0.000000 0.000000 0.000000 0.050908 0.000000
# 6 0.000000 0.000000 0.000000 0.000000 0.000000 0.037418
#
#
# Mechanical properties :
#
#
# Convention : Reuss Voigt Hill
#
# Bulk Modulus (GPa) = 9.89251 54.54482 32.21866
# Shear Modulus (GPa) = 16.95700 32.21795 24.58747
#
# Velocity S-wave (km/s) = 2.87226 3.95912 3.45865
# Velocity P-wave (km/s) = 3.97652 6.88742 5.62358
#
# Compressibility (1/GPa) = 0.10108661
#
# Stress axis : x y z
#
# Youngs Moduli (GPa) = 9.39914 135.38573 105.97098
#
# Poissons Ratio (x) = 0.15589 0.66269
# Poissons Ratio (y) = 0.01082 0.38781
# Poissons Ratio (z) = 0.05878 0.49545
#
# Static dielectric constant tensor:
#      x y z
#    x 1.731630 0.000000 0.000000 
#    y 0.000000 1.726070 0.000000 
#    z 0.000000 0.000000 1.740250 
# 
# From -- ./inp_files/15014.got.cif
#   From: 2010.05.17/outbox.cif.g08.bks.cpg/sg59_8_cif.got.tgz:15014.got - 2010.06.03 14:40:33.
