data_PCOD9450257
_publ_section_title
;
Structure prediction by ZEFSAII (Michael W. Deem and Ramdas Pophale) SiO2 
 PCOD9450257
Probable space group: P M M N
;
_chemical_formula_sum "Si O2"
_cell_formula_units_Z 64
_cell_length_a 19.676738
_cell_length_b 9.028151
_cell_length_c 20.508143
_cell_angle_alpha 90.000000
_cell_angle_beta 90.000000
_cell_angle_gamma 90.000000
_cell_volume 3643.160078
_symmetry_space_group_name_H-M "P M M N"
_symmetry_group_IT_number 59
_space_group.IT_coordinate_system_code '2'
_symmetry_cell_setting 'orthorhombic'
loop_
_space_group_symop_operation_xyz
x,y,z
1/2-x,1/2-y,z
1/2+x,-y,-z
-x,1/2+y,-z
-x,-y,-z
1/2+x,1/2+y,-z
1/2-x,y,z
x,1/2-y,z
loop_
_atom_site_type_symbol
_atom_site_label
_atom_site_fract_x
_atom_site_fract_y
_atom_site_fract_z
Si Si1 0.170406 0.427685 0.343296
Si Si2 0.332497 0.580160 0.477565
Si Si3 0.903458 0.425710 0.045275
Si Si4 0.042814 0.926094 0.094447
Si Si5 0.328909 0.423763 0.846222
Si Si6 0.065519 0.072465 0.230909
Si Si7 0.088346 0.926677 0.730592
Si Si8 0.830260 0.927168 0.387198
O O1 0.250000 0.464228 0.332631
O O2 0.165864 0.250000 0.352006
O O3 0.146298 0.505330 0.409818
O O4 0.124156 0.468909 0.281895
O O5 0.250000 0.579779 0.476326
O O6 0.355404 0.750000 0.482042
O O7 0.351279 0.489542 0.542126
O O8 0.900085 0.250000 0.057062
O O9 0.843951 0.509328 0.082829
O O10 0.972960 0.490165 0.076334
O O11 0.908384 0.451002 0.967814
O O12 0.029916 0.750000 0.098991
O O13 0.070011 0.989002 0.162233
O O14 0.250000 0.439933 0.828865
O O15 0.346198 0.250000 0.844848
O O16 0.374521 0.510745 0.794563
O O17 0.068873 0.250000 0.219513
O O18 0.991653 0.040563 0.262155
O O19 0.096735 0.750000 0.727072
O O20 0.123917 0.001542 0.668711
O O21 0.750000 0.964550 0.376747
O O22 0.835771 0.750000 0.385882
#
# Coordination Sequence:
#
# PCOD9450257 Si02
#       8
#     8   8   8   8   8   8   8   8
#     4   9  18  35  58  81 106 138 176 220 272 328
#     4   9  17  31  53  80 107 136 175 222 270 323
#     4  10  20  35  55  80 106 138 181 224 269 320
#     4  10  20  34  56  81 106 138 177 222 269 319
#     4  11  23  37  54  79 111 147 187 229 272 322
#     4  10  21  36  55  81 111 143 180 222 269 326
#     4  11  22  35  52  77 109 145 184 225 270 321
#     4  10  20  34  53  77 106 142 183 225 268 318
#
# _framework density 17.567167000000001
#
# number of rings (size 3 to 8) (size 9 to 14) (size 15 to 20)
#    0.000    2.000    1.250    2.625    0.000    7.250 
#    0.000    1.250    0.000    2.250    0.000    0.000 
#    0.000    0.000    0.000    0.000    0.000    0.000 
#
# Total GULP energy -357239.282686 kJ/mol
# GULP energy per Si atom -5581.863792 kJ/mol
# Density = 1.752718 g / cm^3
# Si number density = 17.567167 Si / 1000 Ang^3
#
#
#
# Elastic Constant Matrix: (Units=GPa)
#
#
# Indices 1 2 3 4 5 6 
#
# 1 60.0513 40.5115 54.3150 0.0000 0.0000 0.0000
# 2 40.5115 69.8696 63.1832 0.0000 0.0000 0.0000
# 3 54.3150 63.1832 149.3775 0.0000 0.0000 0.0000
# 4 0.0000 0.0000 0.0000 38.1680 0.0000 0.0000
# 5 0.0000 0.0000 0.0000 0.0000 28.3732 0.0000
# 6 0.0000 0.0000 0.0000 0.0000 0.0000 17.9231
#
#
#
# Elastic Compliance Matrix: (Units=1/GPa)
#
#
# Indices 1 2 3 4 5 6 
#
# 1 0.030145 -0.012253 -0.005778 0.000000 0.000000 0.000000
# 2 -0.012253 0.028159 -0.007455 0.000000 0.000000 0.000000
# 3 -0.005778 -0.007455 0.011949 0.000000 0.000000 0.000000
# 4 0.000000 0.000000 0.000000 0.026200 0.000000 0.000000
# 5 0.000000 0.000000 0.000000 0.000000 0.035245 0.000000
# 6 0.000000 0.000000 0.000000 0.000000 0.000000 0.055794
#
#
# Mechanical properties :
#
#
# Convention : Reuss Voigt Hill
#
# Bulk Modulus (GPa) = 51.86899 66.14643 59.00771
# Shear Modulus (GPa) = 20.41734 24.97877 22.69805
#
# Velocity S-wave (km/s) = 3.41287 3.77490 3.59844
# Velocity P-wave (km/s) = 6.71717 7.53227 7.13637
#
# Compressibility (1/GPa) = 0.01927934
#
# Stress axis : x y z
#
# Youngs Moduli (GPa) = 33.17317 35.51309 83.69108
#
# Poissons Ratio (x) = 0.43515 0.48357
# Poissons Ratio (y) = 0.40648 0.62392
# Poissons Ratio (z) = 0.19168 0.26475
#
# Static dielectric constant tensor:
#      x y z
#    x 1.586040 0.000000 0.000000 
#    y 0.000000 1.586570 0.000000 
#    z 0.000000 0.000000 1.588790 
# 
# From -- ./inp_files/28199.got.cif
#   From: 2010.05.17/outbox.cif.g08.bks.cpg/sg59_15_cif.got.tgz:28199.got - 2010.06.03 14:40:33.
