data_PCOD9450831
_publ_section_title
;
Structure prediction by ZEFSAII (Michael W. Deem and Ramdas Pophale) SiO2 
 PCOD9450831
Probable space group: P M M N
;
_chemical_formula_sum "Si O2"
_cell_formula_units_Z 48
_cell_length_a 8.303900
_cell_length_b 21.183172
_cell_length_c 14.625106
_cell_angle_alpha 90.000000
_cell_angle_beta 90.000000
_cell_angle_gamma 90.000000
_cell_volume 2572.599172
_symmetry_space_group_name_H-M "P M M N"
_symmetry_group_IT_number 59
_space_group.IT_coordinate_system_code '2'
_symmetry_cell_setting 'orthorhombic'
loop_
_space_group_symop_operation_xyz
x,y,z
1/2-x,1/2-y,z
1/2+x,-y,-z
-x,1/2+y,-z
-x,-y,-z
1/2+x,1/2+y,-z
1/2-x,y,z
x,1/2-y,z
loop_
_atom_site_type_symbol
_atom_site_label
_atom_site_fract_x
_atom_site_fract_y
_atom_site_fract_z
Si Si1 0.555307 0.927890 0.897847
Si Si2 0.555938 0.625277 0.290558
Si Si3 0.944518 0.750000 0.395123
Si Si4 0.443107 0.998939 0.395921
Si Si5 0.440158 0.750000 0.603764
Si Si6 0.555268 0.928135 0.102546
Si Si7 0.444828 0.126118 0.290752
O O1 0.750000 0.928139 0.897556
O O2 0.502037 0.883802 0.814341
O O3 0.499837 0.999828 0.880807
O O4 0.500652 0.910002 0.000202
O O5 0.750000 0.629410 0.287972
O O6 0.495979 0.687271 0.343086
O O7 0.510191 0.562487 0.345487
O O8 0.498890 0.615314 0.186185
O O9 0.750000 0.750000 0.390173
O O10 0.988194 0.750000 0.501660
O O11 0.250000 0.996600 0.392556
O O12 0.495275 0.063109 0.345252
O O13 0.500000 0.000000 0.500000
O O14 0.250000 0.750000 0.594453
O O15 0.493175 0.688101 0.659374
O O16 0.750000 0.927693 0.102462
O O17 0.250000 0.128557 0.291953
#
# Coordination Sequence:
#
# PCOD9450831 Si02
#       7
#     8   8   4   8   4   8   8
#     4   9  17  32  54  82 112 144 180 217 268 328
#     4  10  20  35  55  81 111 144 182 225 273 322
#     4  10  22  40  57  74 108 152 185 218 273 336
#     4  11  22  35  54  80 108 139 181 230 276 326
#     4  12  26  40  57  80 106 140 187 234 277 324
#     4   9  17  30  53  84 114 141 177 225 271 315
#     4  10  21  38  57  78 109 147 183 219 272 334
#
# _framework density 18.658172
#
# number of rings (size 3 to 8) (size 9 to 14) (size 15 to 20)
#    0.000    2.000    1.667    2.250    0.000    6.667 
#    0.000    0.833    0.000    4.000    0.000    1.167 
#    0.000    0.000    0.000    0.000    0.000    0.000 
#
# Total GULP energy -267926.672861 kJ/mol
# GULP energy per Si atom -5581.805685 kJ/mol
# Density = 1.861571 g / cm^3
# Si number density = 18.658172 Si / 1000 Ang^3
#
#
#
# Elastic Constant Matrix: (Units=GPa)
#
#
# Indices 1 2 3 4 5 6 
#
# 1 8.3929 16.1856 18.6905 0.0000 0.0000 0.0000
# 2 16.1856 153.5701 103.1821 0.0000 0.0000 0.0000
# 3 18.6905 103.1821 200.2198 0.0000 0.0000 0.0000
# 4 0.0000 0.0000 0.0000 32.8002 0.0000 0.0000
# 5 0.0000 0.0000 0.0000 0.0000 16.8390 0.0000
# 6 0.0000 0.0000 0.0000 0.0000 0.0000 25.3988
#
#
#
# Elastic Compliance Matrix: (Units=1/GPa)
#
#
# Indices 1 2 3 4 5 6 
#
# 1 0.160763 -0.010494 -0.009599 0.000000 0.000000 0.000000
# 2 -0.010494 0.010646 -0.004507 0.000000 0.000000 0.000000
# 3 -0.009599 -0.004507 0.008213 0.000000 0.000000 0.000000
# 4 0.000000 0.000000 0.000000 0.030488 0.000000 0.000000
# 5 0.000000 0.000000 0.000000 0.000000 0.059386 0.000000
# 6 0.000000 0.000000 0.000000 0.000000 0.000000 0.039372
#
#
# Mechanical properties :
#
#
# Convention : Reuss Voigt Hill
#
# Bulk Modulus (GPa) = 7.66741 70.92215 39.29478
# Shear Modulus (GPa) = 12.45203 29.94922 21.20062
#
# Velocity S-wave (km/s) = 2.58617 4.01078 3.37451
# Velocity P-wave (km/s) = 3.61054 7.71637 6.02405
#
# Compressibility (1/GPa) = 0.13042205
#
# Stress axis : x y z
#
# Youngs Moduli (GPa) = 6.22033 93.93542 121.75820
#
# Poissons Ratio (x) = 0.98578 1.16877
# Poissons Ratio (y) = 0.06528 0.54871
# Poissons Ratio (z) = 0.05971 0.42332
#
# Static dielectric constant tensor:
#      x y z
#    x 1.649340 0.000000 0.000000 
#    y 0.000000 1.610570 0.000000 
#    z 0.000000 0.000000 1.669320 
# 
# From -- ./inp_files/20483.got.cif
#   From: 2010.05.17/outbox.cif.g08.bks.cpg/sg59_11_cif.got.tgz:20483.got - 2010.06.03 14:40:33.
