data_PCOD9450470
_publ_section_title
;
Structure prediction by ZEFSAII (Michael W. Deem and Ramdas Pophale) SiO2 
 PCOD9450470
Probable space group: P M M N
;
_chemical_formula_sum "Si O2"
_cell_formula_units_Z 56
_cell_length_a 19.802900
_cell_length_b 14.571586
_cell_length_c 9.552090
_cell_angle_alpha 90.000000
_cell_angle_beta 90.000000
_cell_angle_gamma 90.000000
_cell_volume 2756.347847
_symmetry_space_group_name_H-M "P M M N"
_symmetry_group_IT_number 59
_space_group.IT_coordinate_system_code '2'
_symmetry_cell_setting 'orthorhombic'
loop_
_space_group_symop_operation_xyz
x,y,z
1/2-x,1/2-y,z
1/2+x,-y,-z
-x,1/2+y,-z
-x,-y,-z
1/2+x,1/2+y,-z
1/2-x,y,z
x,1/2-y,z
loop_
_atom_site_type_symbol
_atom_site_label
_atom_site_fract_x
_atom_site_fract_y
_atom_site_fract_z
Si Si1 0.177339 0.859007 0.909500
Si Si2 0.329034 0.651468 0.574556
Si Si3 0.671086 0.967836 0.583073
Si Si4 0.823108 0.639828 0.296296
Si Si5 0.526850 0.986685 0.659282
Si Si6 0.963260 0.640326 0.165549
Si Si7 0.033428 0.859990 0.886097
O O1 0.250000 0.898552 0.953842
O O2 0.180154 0.750000 0.941848
O O3 0.171191 0.866198 0.740647
O O4 0.104296 0.891875 0.956615
O O5 0.250000 0.659371 0.539185
O O6 0.362436 0.750000 0.547041
O O7 0.350245 0.565380 0.485157
O O8 0.750000 0.970819 0.634773
O O9 0.670962 0.897068 0.453797
O O10 0.604192 0.950563 0.673516
O O11 0.750000 0.606823 0.242267
O O12 0.822742 0.750000 0.297185
O O13 0.887999 0.610546 0.209391
O O14 0.481516 0.913217 0.743944
O O15 0.500000 0.000000 0.500000
O O16 0.514137 0.082372 0.739157
O O17 0.970598 0.750000 0.188456
O O18 0.977351 0.622234 0.003106
O O19 0.037536 0.750000 0.861743
#
# Coordination Sequence:
#
# PCOD9450470 Si02
#       7
#     8   8   8   8   8   8   8
#     4   8  14  27  49  77 106 139 183 228 272 331
#     4   8  14  26  46  74 108 141 179 229 275 326
#     4  10  20  34  54  82 119 152 189 237 290 349
#     4   9  18  35  59  83 108 147 202 252 287 330
#     4  12  23  37  59  89 118 153 197 240 298 355
#     4  10  22  41  60  83 117 156 197 244 297 351
#     4  10  22  39  59  84 119 158 194 243 299 352
#
# _framework density 20.316739999999999
#
# number of rings (size 3 to 8) (size 9 to 14) (size 15 to 20)
#    0.000    2.429    1.429    2.143    0.000    1.714 
#    0.000    1.429    0.000    1.714    0.000    0.000 
#    0.000    0.000    0.000    0.000    0.000    0.000 
#
# Total GULP energy -311897.223430 kJ/mol
# GULP energy per Si atom -5569.593276 kJ/mol
# Density = 2.027050 g / cm^3
# Si number density = 20.316740 Si / 1000 Ang^3
#
#
#
# Elastic Constant Matrix: (Units=GPa)
#
#
# Indices 1 2 3 4 5 6 
#
# 1 172.5481 14.6399 31.1880 0.0000 0.0000 0.0000
# 2 14.6399 35.4264 17.6543 0.0000 0.0000 0.0000
# 3 31.1880 17.6543 59.1738 0.0000 0.0000 0.0000
# 4 0.0000 0.0000 0.0000 24.4029 0.0000 0.0000
# 5 0.0000 0.0000 0.0000 0.0000 26.5751 0.0000
# 6 0.0000 0.0000 0.0000 0.0000 0.0000 21.9274
#
#
#
# Elastic Compliance Matrix: (Units=1/GPa)
#
#
# Indices 1 2 3 4 5 6 
#
# 1 0.006445 -0.001140 -0.003057 0.000000 0.000000 0.000000
# 2 -0.001140 0.033359 -0.009352 0.000000 0.000000 0.000000
# 3 -0.003057 -0.009352 0.021300 0.000000 0.000000 0.000000
# 4 0.000000 0.000000 0.000000 0.040979 0.000000 0.000000
# 5 0.000000 0.000000 0.000000 0.000000 0.037629 0.000000
# 6 0.000000 0.000000 0.000000 0.000000 0.000000 0.045605
#
#
# Mechanical properties :
#
#
# Convention : Reuss Voigt Hill
#
# Bulk Modulus (GPa) = 29.40530 43.79028 36.59779
# Shear Modulus (GPa) = 22.34642 28.15882 25.25262
#
# Velocity S-wave (km/s) = 3.32007 3.72693 3.52937
# Velocity P-wave (km/s) = 5.40389 6.33408 5.88739
#
# Compressibility (1/GPa) = 0.03400748
#
# Stress axis : x y z
#
# Youngs Moduli (GPa) = 155.16648 29.97695 46.94745
#
# Poissons Ratio (x) = 0.03418 0.14350
# Poissons Ratio (y) = 0.17690 0.43904
# Poissons Ratio (z) = 0.47428 0.28033
#
# Static dielectric constant tensor:
#      x y z
#    x 1.788020 0.000000 0.000000 
#    y 0.000000 1.794470 0.000000 
#    z 0.000000 0.000000 1.685400 
# 
# From -- ./inp_files/11424.got.cif
#   From: 2010.05.17/outbox.cif.g08.bks.cpg/sg59_6_cif.got.tgz:11424.got - 2010.06.03 14:40:33.
