data_PCOD9450906
_publ_section_title
;
Structure prediction by ZEFSAII (Michael W. Deem and Ramdas Pophale) SiO2 
 PCOD9450906
Probable space group: P M M N
;
_chemical_formula_sum "Si O2"
_cell_formula_units_Z 64
_cell_length_a 23.436659
_cell_length_b 9.373959
_cell_length_c 14.977250
_cell_angle_alpha 90.000000
_cell_angle_beta 90.000000
_cell_angle_gamma 90.000000
_cell_volume 3290.416164
_symmetry_space_group_name_H-M "P M M N"
_symmetry_group_IT_number 59
_space_group.IT_coordinate_system_code '2'
_symmetry_cell_setting 'orthorhombic'
loop_
_space_group_symop_operation_xyz
x,y,z
1/2-x,1/2-y,z
1/2+x,-y,-z
-x,1/2+y,-z
-x,-y,-z
1/2+x,1/2+y,-z
1/2-x,y,z
x,1/2-y,z
loop_
_atom_site_type_symbol
_atom_site_label
_atom_site_fract_x
_atom_site_fract_y
_atom_site_fract_z
Si Si1 0.684789 0.578898 0.000425
Si Si2 0.182339 0.582907 0.372645
Si Si3 0.812460 0.085210 0.297555
Si Si4 0.396806 0.920146 0.863768
Si Si5 0.356413 0.082024 0.198296
Si Si6 0.647442 0.588320 0.458639
Si Si7 0.983930 0.586390 0.411303
Si Si8 0.011498 0.419506 0.230213
O O1 0.750000 0.535192 0.022754
O O2 0.680844 0.750000 0.013121
O O3 0.672493 0.549701 0.896266
O O4 0.636561 0.502871 0.059198
O O5 0.250000 0.567955 0.390291
O O6 0.168142 0.750000 0.372843
O O7 0.167786 0.512521 0.278095
O O8 0.149074 0.500522 0.450407
O O9 0.750000 0.072246 0.254520
O O10 0.820096 0.250000 0.325648
O O11 0.861006 0.051300 0.226550
O O12 0.815146 0.988092 0.384083
O O13 0.394501 0.750000 0.881214
O O14 0.462026 0.959727 0.840429
O O15 0.346532 0.250000 0.218278
O O16 0.424736 0.060587 0.193694
O O17 0.665661 0.750000 0.476877
O O18 0.584539 0.590623 0.416325
O O19 0.005170 0.750000 0.413818
O O20 0.000000 0.500000 0.500000
O O21 0.003900 0.506794 0.321820
O O22 0.003727 0.250000 0.249719
#
# Coordination Sequence:
#
# PCOD9450906 Si02
#       8
#     8   8   8   8   8   8   8   8
#     4  10  22  40  62  89 121 157 197 245 301 358
#     4  11  24  40  59  86 119 156 200 249 301 356
#     4  10  20  35  56  82 114 153 193 235 287 345
#     4  10  21  38  61  88 121 157 195 243 296 351
#     4  10  22  41  64  89 118 155 200 248 300 357
#     4  11  23  37  55  83 116 153 196 241 293 351
#     4  11  23  37  56  83 117 157 201 245 291 348
#     4  10  21  39  62  88 119 156 199 245 297 355
#
# _framework density 19.450427999999999
#
# number of rings (size 3 to 8) (size 9 to 14) (size 15 to 20)
#    0.000    1.625    1.250    3.000    0.000   11.000 
#    0.000    0.000    0.000    0.000    0.000    0.000 
#    0.000    0.000    0.000    0.000    0.000    0.000 
#
# Total GULP energy -357560.428234 kJ/mol
# GULP energy per Si atom -5586.881691 kJ/mol
# Density = 1.940616 g / cm^3
# Si number density = 19.450428 Si / 1000 Ang^3
#
#
#
# Elastic Constant Matrix: (Units=GPa)
#
#
# Indices 1 2 3 4 5 6 
#
# 1 45.6508 19.6028 4.5918 0.0000 0.0000 0.0000
# 2 19.6028 69.9585 44.5134 0.0000 0.0000 0.0000
# 3 4.5918 44.5134 69.9687 0.0000 0.0000 0.0000
# 4 0.0000 0.0000 0.0000 35.7308 0.0000 0.0000
# 5 0.0000 0.0000 0.0000 0.0000 31.3065 0.0000
# 6 0.0000 0.0000 0.0000 0.0000 0.0000 51.4167
#
#
#
# Elastic Compliance Matrix: (Units=1/GPa)
#
#
# Indices 1 2 3 4 5 6 
#
# 1 0.025862 -0.010361 0.004894 0.000000 0.000000 0.000000
# 2 -0.010361 0.028166 -0.017239 0.000000 0.000000 0.000000
# 3 0.004894 -0.017239 0.024938 0.000000 0.000000 0.000000
# 4 0.000000 0.000000 0.000000 0.027987 0.000000 0.000000
# 5 0.000000 0.000000 0.000000 0.000000 0.031942 0.000000
# 6 0.000000 0.000000 0.000000 0.000000 0.000000 0.019449
#
#
# Mechanical properties :
#
#
# Convention : Reuss Voigt Hill
#
# Bulk Modulus (GPa) = 29.80166 35.88822 32.84494
# Shear Modulus (GPa) = 23.26211 31.48214 27.37213
#
# Velocity S-wave (km/s) = 3.46203 4.02753 3.75544
# Velocity P-wave (km/s) = 5.59786 6.33397 5.97725
#
# Compressibility (1/GPa) = 0.03355518
#
# Stress axis : x y z
#
# Youngs Moduli (GPa) = 38.66650 35.50333 40.09895
#
# Poissons Ratio (x) = 0.36785 -0.19625
# Poissons Ratio (y) = 0.40062 0.69127
# Poissons Ratio (z) = -0.18924 0.61205
#
# Static dielectric constant tensor:
#      x y z
#    x 1.752870 0.000000 0.000000 
#    y 0.000000 1.665230 0.000000 
#    z 0.000000 0.000000 1.632810 
# 
# From -- ./inp_files/24734.got.cif
#   From: 2010.05.17/outbox.cif.g08.bks.cpg/sg59_13_cif.got.tgz:24734.got - 2010.06.03 14:40:33.
