data_PCOD9450979
_publ_section_title
;
Structure prediction by ZEFSAII (Michael W. Deem and Ramdas Pophale) SiO2 
 PCOD9450979
Probable space group: P M M N
;
_chemical_formula_sum "Si O2"
_cell_formula_units_Z 48
_cell_length_a 8.495982
_cell_length_b 16.562401
_cell_length_c 18.507849
_cell_angle_alpha 90.000000
_cell_angle_beta 90.000000
_cell_angle_gamma 90.000000
_cell_volume 2604.310887
_symmetry_space_group_name_H-M "P M M N"
_symmetry_group_IT_number 59
_space_group.IT_coordinate_system_code '2'
_symmetry_cell_setting 'orthorhombic'
loop_
_space_group_symop_operation_xyz
x,y,z
1/2-x,1/2-y,z
1/2+x,-y,-z
-x,1/2+y,-z
-x,-y,-z
1/2+x,1/2+y,-z
1/2-x,y,z
x,1/2-y,z
loop_
_atom_site_type_symbol
_atom_site_label
_atom_site_fract_x
_atom_site_fract_y
_atom_site_fract_z
Si Si1 0.441902 0.750000 0.451860
Si Si2 0.062218 0.584928 0.531157
Si Si3 0.061269 0.431557 0.308499
Si Si4 0.439389 0.495106 0.081172
Si Si5 0.560670 0.250000 0.716849
Si Si6 0.562224 0.916519 0.218719
Si Si7 0.441206 0.338511 0.167612
O O1 0.250000 0.750000 0.454670
O O2 0.494897 0.833358 0.490528
O O3 0.487661 0.750000 0.367656
O O4 0.250000 0.583781 0.524125
O O5 0.000000 0.500000 0.500000
O O6 0.014053 0.586542 0.614799
O O7 0.250000 0.433379 0.315823
O O8 0.017041 0.364840 0.248722
O O9 0.007131 0.516247 0.273558
O O10 0.250000 0.498939 0.082307
O O11 0.503812 0.560577 0.138205
O O12 0.492196 0.409165 0.114379
O O13 0.500000 0.500000 0.000000
O O14 0.750000 0.250000 0.719260
O O15 0.496874 0.329699 0.755713
O O16 0.750000 0.920460 0.220823
O O17 0.250000 0.337370 0.164979
O O18 0.500450 0.250000 0.149330
#
# Coordination Sequence:
#
# PCOD9450979 Si02
#       7
#     4   8   8   8   4   8   8
#     4   9  22  39  57  81 116 155 192 243 307 357
#     4  11  22  38  57  82 115 153 196 244 301 362
#     4  10  20  35  57  83 114 150 191 240 294 348
#     4  10  20  37  60  85 119 155 191 237 291 344
#     4  11  21  39  63  85 114 151 198 251 299 347
#     4  11  22  38  60  87 116 154 200 241 288 352
#     4   8  16  32  55  82 109 143 186 231 282 337
#
# _framework density 18.430980999999999
#
# number of rings (size 3 to 8) (size 9 to 14) (size 15 to 20)
#    0.000    2.000    0.000    5.250    1.167    1.333 
#    1.500    3.750    0.000    9.500    0.000    0.000 
#    0.000    0.000    0.000    0.000    0.000    0.000 
#
# Total GULP energy -267982.328373 kJ/mol
# GULP energy per Si atom -5582.965174 kJ/mol
# Density = 1.838903 g / cm^3
# Si number density = 18.430981 Si / 1000 Ang^3
#
#
#
# Elastic Constant Matrix: (Units=GPa)
#
#
# Indices 1 2 3 4 5 6 
#
# 1 58.0085 26.5413 26.1233 0.0000 0.0000 0.0000
# 2 26.5413 146.9746 89.3661 0.0000 0.0000 0.0000
# 3 26.1233 89.3661 166.6000 0.0000 0.0000 0.0000
# 4 0.0000 0.0000 0.0000 11.4445 0.0000 0.0000
# 5 0.0000 0.0000 0.0000 0.0000 33.4648 0.0000
# 6 0.0000 0.0000 0.0000 0.0000 0.0000 20.1611
#
#
#
# Elastic Compliance Matrix: (Units=1/GPa)
#
#
# Indices 1 2 3 4 5 6 
#
# 1 0.019110 -0.002418 -0.001700 0.000000 0.000000 0.000000
# 2 -0.002418 0.010403 -0.005201 0.000000 0.000000 0.000000
# 3 -0.001700 -0.005201 0.009059 0.000000 0.000000 0.000000
# 4 0.000000 0.000000 0.000000 0.087378 0.000000 0.000000
# 5 0.000000 0.000000 0.000000 0.000000 0.029882 0.000000
# 6 0.000000 0.000000 0.000000 0.000000 0.000000 0.049601
#
#
# Mechanical properties :
#
#
# Convention : Reuss Voigt Hill
#
# Bulk Modulus (GPa) = 50.16221 72.84940 61.50580
# Shear Modulus (GPa) = 21.67169 28.31755 24.99462
#
# Velocity S-wave (km/s) = 3.43276 3.92396 3.68655
# Velocity P-wave (km/s) = 6.55645 7.75508 7.18082
#
# Compressibility (1/GPa) = 0.01993533
#
# Stress axis : x y z
#
# Youngs Moduli (GPa) = 52.32744 96.12618 110.38849
#
# Poissons Ratio (x) = 0.23239 0.18764
# Poissons Ratio (y) = 0.12650 0.57415
# Poissons Ratio (z) = 0.08895 0.49997
#
# Static dielectric constant tensor:
#      x y z
#    x 1.628480 0.000000 0.000000 
#    y 0.000000 1.634230 0.000000 
#    z 0.000000 0.000000 1.609610 
# 
# From -- ./inp_files/25591.got.cif
#   From: 2010.05.17/outbox.cif.g08.bks.cpg/sg59_13_cif.got.tgz:25591.got - 2010.06.03 14:40:33.
