data_PCOD9450583
_publ_section_title
;
Structure prediction by ZEFSAII (Michael W. Deem and Ramdas Pophale) SiO2 
 PCOD9450583
Probable space group: P M M N
;
_chemical_formula_sum "Si O2"
_cell_formula_units_Z 64
_cell_length_a 9.018380
_cell_length_b 14.277785
_cell_length_c 26.706426
_cell_angle_alpha 90.000000
_cell_angle_beta 90.000000
_cell_angle_gamma 90.000000
_cell_volume 3438.785929
_symmetry_space_group_name_H-M "P M M N"
_symmetry_group_IT_number 59
_space_group.IT_coordinate_system_code '2'
_symmetry_cell_setting 'orthorhombic'
loop_
_space_group_symop_operation_xyz
x,y,z
1/2-x,1/2-y,z
1/2+x,-y,-z
-x,1/2+y,-z
-x,-y,-z
1/2+x,1/2+y,-z
1/2-x,y,z
x,1/2-y,z
loop_
_atom_site_type_symbol
_atom_site_label
_atom_site_fract_x
_atom_site_fract_y
_atom_site_fract_z
Si Si1 0.575335 0.017323 0.946642
Si Si2 0.071837 0.358462 0.476411
Si Si3 0.426788 0.027722 0.577329
Si Si4 0.427508 0.643048 0.335411
Si Si5 0.577157 0.354805 0.230375
Si Si6 0.918510 0.356932 0.109540
Si Si7 0.925634 0.453615 0.768437
Si Si8 0.073372 0.360148 0.864896
O O1 0.750000 0.031404 0.951796
O O2 0.501699 0.101559 0.915368
O O3 0.537035 0.925714 0.913813
O O4 0.500000 0.000000 0.000000
O O5 0.250000 0.362976 0.470469
O O6 0.026207 0.250000 0.473086
O O7 0.036543 0.402253 0.530987
O O8 0.995819 0.427448 0.436759
O O9 0.250000 0.020333 0.580572
O O10 0.492838 0.072524 0.627142
O O11 0.250000 0.637037 0.342969
O O12 0.474601 0.750000 0.344900
O O13 0.456494 0.614780 0.278052
O O14 0.750000 0.367179 0.244607
O O15 0.529873 0.250000 0.246309
O O16 0.572171 0.356449 0.169688
O O17 0.480598 0.442798 0.246717
O O18 0.750000 0.387417 0.096314
O O19 0.937472 0.250000 0.092402
O O20 0.750000 0.454782 0.778339
O O21 0.009169 0.417565 0.817818
O O22 0.250000 0.374500 0.867500
O O23 0.043495 0.250000 0.858056
#
# Coordination Sequence:
#
# PCOD9450583 Si02
#       8
#     8   8   8   8   8   8   8   8
#     4  12  25  40  60  85 115 149 184 228 278 334
#     4   9  18  34  56  82 115 155 196 240 293 352
#     4  10  20  34  55  85 117 149 194 248 295 343
#     4  10  22  39  57  80 115 157 197 238 288 345
#     4   9  18  34  58  85 113 145 180 222 273 329
#     4   9  18  35  59  84 111 142 176 219 270 324
#     4  11  22  37  60  89 118 150 191 238 284 337
#     4  11  24  42  63  86 115 151 190 232 280 337
#
# _framework density 18.611219999999999
#
# number of rings (size 3 to 8) (size 9 to 14) (size 15 to 20)
#    0.000    1.875    1.250    3.750    0.000    5.000 
#    0.000    1.875    0.000    0.750    0.000    0.000 
#    0.000    0.000    0.000    0.000    0.000    0.000 
#
# Total GULP energy -357405.785524 kJ/mol
# GULP energy per Si atom -5584.465399 kJ/mol
# Density = 1.856886 g / cm^3
# Si number density = 18.611220 Si / 1000 Ang^3
#
#
#
# Elastic Constant Matrix: (Units=GPa)
#
#
# Indices 1 2 3 4 5 6 
#
# 1 63.1940 42.0439 31.9143 0.0000 0.0000 0.0000
# 2 42.0439 127.0198 26.1956 0.0000 0.0000 0.0000
# 3 31.9143 26.1956 54.5297 0.0000 0.0000 0.0000
# 4 0.0000 0.0000 0.0000 20.0647 0.0000 0.0000
# 5 0.0000 0.0000 0.0000 0.0000 27.4994 0.0000
# 6 0.0000 0.0000 0.0000 0.0000 0.0000 27.0125
#
#
#
# Elastic Compliance Matrix: (Units=1/GPa)
#
#
# Indices 1 2 3 4 5 6 
#
# 1 0.026123 -0.006098 -0.012360 0.000000 0.000000 0.000000
# 2 -0.006098 0.010162 -0.001313 0.000000 0.000000 0.000000
# 3 -0.012360 -0.001313 0.026203 0.000000 0.000000 0.000000
# 4 0.000000 0.000000 0.000000 0.049839 0.000000 0.000000
# 5 0.000000 0.000000 0.000000 0.000000 0.036364 0.000000
# 6 0.000000 0.000000 0.000000 0.000000 0.000000 0.037020
#
#
# Mechanical properties :
#
#
# Convention : Reuss Voigt Hill
#
# Bulk Modulus (GPa) = 43.57788 49.45013 46.51401
# Shear Modulus (GPa) = 21.46836 24.55462 23.01149
#
# Velocity S-wave (km/s) = 3.40003 3.63622 3.52011
# Velocity P-wave (km/s) = 6.23533 6.65261 6.44734
#
# Compressibility (1/GPa) = 0.02294742
#
# Stress axis : x y z
#
# Youngs Moduli (GPa) = 38.28031 98.40621 38.16373
#
# Poissons Ratio (x) = 0.60007 0.47169
# Poissons Ratio (y) = 0.23343 0.05010
# Poissons Ratio (z) = 0.47313 0.12919
#
# Static dielectric constant tensor:
#      x y z
#    x 1.622460 0.000000 0.000000 
#    y 0.000000 1.653440 0.000000 
#    z 0.000000 0.000000 1.624100 
# 
# From -- ./inp_files/31619.got.cif
#   From: 2010.05.17/outbox.cif.g08.bks.cpg/sg59_16_cif.got.tgz:31619.got - 2010.06.03 14:40:33.
