data_PCOD9450187
_publ_section_title
;
Structure prediction by ZEFSAII (Michael W. Deem and Ramdas Pophale) SiO2 
 PCOD9450187
Probable space group: P M M N
;
_chemical_formula_sum "Si O2"
_cell_formula_units_Z 64
_cell_length_a 23.596471
_cell_length_b 8.996783
_cell_length_c 18.476252
_cell_angle_alpha 90.000000
_cell_angle_beta 90.000000
_cell_angle_gamma 90.000000
_cell_volume 3922.366571
_symmetry_space_group_name_H-M "P M M N"
_symmetry_group_IT_number 59
_space_group.IT_coordinate_system_code '2'
_symmetry_cell_setting 'orthorhombic'
loop_
_space_group_symop_operation_xyz
x,y,z
1/2-x,1/2-y,z
1/2+x,-y,-z
-x,1/2+y,-z
-x,-y,-z
1/2+x,1/2+y,-z
1/2-x,y,z
x,1/2-y,z
loop_
_atom_site_type_symbol
_atom_site_label
_atom_site_fract_x
_atom_site_fract_y
_atom_site_fract_z
Si Si1 0.682871 0.423154 0.508511
Si Si2 0.681128 0.078550 0.928120
Si Si3 0.318937 0.420069 0.926271
Si Si4 0.184451 0.571155 0.777051
Si Si5 0.387755 0.573263 0.637689
Si Si6 0.000488 0.572117 0.419844
Si Si7 0.885425 0.573387 0.634927
Si Si8 0.182883 0.929508 0.234590
O O1 0.750000 0.446574 0.505176
O O2 0.672969 0.250000 0.530233
O O3 0.654558 0.443594 0.430323
O O4 0.653551 0.528578 0.566596
O O5 0.750000 0.076638 0.928638
O O6 0.663831 0.250000 0.936371
O O7 0.665610 0.027085 0.847400
O O8 0.661171 0.987359 0.997508
O O9 0.250000 0.425113 0.928389
O O10 0.336455 0.250000 0.919423
O O11 0.335157 0.509734 0.854503
O O12 0.250000 0.523061 0.764868
O O13 0.184814 0.750000 0.779688
O O14 0.144511 0.526773 0.710660
O O15 0.401525 0.750000 0.642585
O O16 0.443766 0.480843 0.620451
O O17 0.003299 0.750000 0.426078
O O18 0.055078 0.508510 0.378511
O O19 0.000000 0.500000 0.500000
O O20 0.893194 0.750000 0.638424
O O21 0.854040 0.511356 0.705747
O O22 0.250000 0.962215 0.244465
O O23 0.177046 0.750000 0.240566
#
# Coordination Sequence:
#
# PCOD9450187 Si02
#       8
#     8   8   8   8   8   8   8   8
#     4  10  20  34  53  75 102 136 168 202 251 307
#     4   8  14  26  45  68  96 133 173 207 244 297
#     4   9  16  25  40  66 101 138 172 207 248 291
#     4   9  17  30  49  74 105 139 172 204 244 300
#     4  10  20  35  55  77 101 131 170 213 255 301
#     4  12  24  40  59  76  96 127 169 218 263 306
#     4  12  24  36  52  75 102 134 171 212 256 301
#     4   9  18  33  52  75 105 139 172 209 256 307
#
# _framework density 16.316679000000001
#
# number of rings (size 3 to 8) (size 9 to 14) (size 15 to 20)
#    0.000    2.125    1.250    4.125    0.000    6.000 
#    0.000    1.250    0.000    2.250    0.000    0.875 
#    0.000    0.000    0.000    0.000    0.000    0.000 
#
# Total GULP energy -357029.568103 kJ/mol
# GULP energy per Si atom -5578.587002 kJ/mol
# Density = 1.627954 g / cm^3
# Si number density = 16.316679 Si / 1000 Ang^3
#
#
#
# Elastic Constant Matrix: (Units=GPa)
#
#
# Indices 1 2 3 4 5 6 
#
# 1 70.0950 43.6781 45.3983 0.0000 0.0000 0.0000
# 2 43.6781 77.3816 59.5106 0.0000 0.0000 0.0000
# 3 45.3983 59.5106 134.7694 0.0000 0.0000 0.0000
# 4 0.0000 0.0000 0.0000 -6.0146 0.0000 0.0000
# 5 0.0000 0.0000 0.0000 0.0000 -1.2758 0.0000
# 6 0.0000 0.0000 0.0000 0.0000 0.0000 21.1266
#
#
#
# Elastic Compliance Matrix: (Units=1/GPa)
#
#
# Indices 1 2 3 4 5 6 
#
# 1 0.022792 -0.010540 -0.003024 0.000000 0.000000 0.000000
# 2 -0.010540 0.024442 -0.007243 0.000000 0.000000 0.000000
# 3 -0.003024 -0.007243 0.011637 0.000000 0.000000 0.000000
# 4 0.000000 0.000000 0.000000 -0.166263 0.000000 0.000000
# 5 0.000000 0.000000 0.000000 0.000000 -0.783809 0.000000
# 6 0.000000 0.000000 0.000000 0.000000 0.000000 0.047334
#
#
# Mechanical properties :
#
#
# Convention : Reuss Voigt Hill
#
# Bulk Modulus (GPa) = 57.94044 64.38000 61.16022
# Shear Modulus (GPa) = -6.27745 11.67783 2.70019
#
# Velocity S-wave (km/s) = -1.96357 2.67816 1.28781
# Velocity P-wave (km/s) = 5.51781 7.00754 6.30681
#
# Compressibility (1/GPa) = 0.01725910
#
# Stress axis : x y z
#
# Youngs Moduli (GPa) = 43.87442 40.91315 85.93443
#
# Poissons Ratio (x) = 0.43121 0.25984
# Poissons Ratio (y) = 0.46242 0.62238
# Poissons Ratio (z) = 0.13267 0.29632
#
# Static dielectric constant tensor:
#      x y z
#    x 1.396410 0.000000 0.000000 
#    y 0.000000 1.551260 0.000000 
#    z 0.000000 0.000000 1.545520 
# 
# From -- ./inp_files/28270.got.cif
#   From: 2010.05.17/outbox.cif.g08.bks.cpg/sg59_15_cif.got.tgz:28270.got - 2010.06.03 14:40:33.
