data_PCOD9450901
_publ_section_title
;
Structure prediction by ZEFSAII (Michael W. Deem and Ramdas Pophale) SiO2 
 PCOD9450901
Probable space group: P M M N
;
_chemical_formula_sum "Si O2"
_cell_formula_units_Z 56
_cell_length_a 14.583257
_cell_length_b 8.602934
_cell_length_c 22.404569
_cell_angle_alpha 90.000000
_cell_angle_beta 90.000000
_cell_angle_gamma 90.000000
_cell_volume 2810.850285
_symmetry_space_group_name_H-M "P M M N"
_symmetry_group_IT_number 59
_space_group.IT_coordinate_system_code '2'
_symmetry_cell_setting 'orthorhombic'
loop_
_space_group_symop_operation_xyz
x,y,z
1/2-x,1/2-y,z
1/2+x,-y,-z
-x,1/2+y,-z
-x,-y,-z
1/2+x,1/2+y,-z
1/2-x,y,z
x,1/2-y,z
loop_
_atom_site_type_symbol
_atom_site_label
_atom_site_fract_x
_atom_site_fract_y
_atom_site_fract_z
Si Si1 0.453860 0.431004 0.288359
Si Si2 0.957199 0.435325 0.587755
Si Si3 0.154057 0.066342 0.864515
Si Si4 0.851565 0.567987 0.278663
Si Si5 0.520486 0.438431 0.934275
Si Si6 0.645423 0.437855 0.828189
Si Si7 0.856147 0.437795 0.465682
O O1 0.434614 0.250000 0.286553
O O2 0.417506 0.504536 0.349699
O O3 0.562622 0.463416 0.294054
O O4 0.415722 0.505747 0.227472
O O5 0.962224 0.250000 0.589521
O O6 0.060928 0.496619 0.574946
O O7 0.891480 0.480079 0.532427
O O8 0.250000 0.995608 0.885434
O O9 0.155066 0.250000 0.879231
O O10 0.151270 0.059909 0.793338
O O11 0.064690 0.002341 0.894698
O O12 0.750000 0.522809 0.300936
O O13 0.867536 0.750000 0.294609
O O14 0.522487 0.250000 0.937160
O O15 0.607089 0.485917 0.893419
O O16 0.500000 0.500000 0.000000
O O17 0.750000 0.489249 0.820118
O O18 0.642209 0.250000 0.826914
O O19 0.750000 0.488498 0.455249
O O20 0.857366 0.250000 0.460561
#
# Coordination Sequence:
#
# PCOD9450901 Si02
#       7
#     8   8   8   8   8   8   8
#     4  12  24  37  57  86 123 157 192 245 301 349
#     4  10  21  37  59  87 118 156 201 239 284 349
#     4   8  14  28  52  77 100 131 173 221 272 330
#     4   9  17  33  58  82 106 142 188 233 281 346
#     4  10  20  35  56  82 112 145 187 234 289 350
#     4  10  22  42  64  83 111 155 203 247 292 349
#     4   9  19  38  62  87 117 152 193 245 297 340
#
# _framework density 19.922798
#
# number of rings (size 3 to 8) (size 9 to 14) (size 15 to 20)
#    0.000    2.286    1.429    2.571    0.000    3.714 
#    0.000    1.429    0.000    0.000    0.000    0.000 
#    0.000    0.000    0.000    0.000    0.000    0.000 
#
# Total GULP energy -312127.868190 kJ/mol
# GULP energy per Si atom -5573.711932 kJ/mol
# Density = 1.987745 g / cm^3
# Si number density = 19.922798 Si / 1000 Ang^3
#
#
#
# Elastic Constant Matrix: (Units=GPa)
#
#
# Indices 1 2 3 4 5 6 
#
# 1 87.0828 17.8936 32.6778 0.0000 0.0000 0.0000
# 2 17.8936 21.0996 19.4711 0.0000 0.0000 0.0000
# 3 32.6778 19.4711 113.4319 0.0000 0.0000 0.0000
# 4 0.0000 0.0000 0.0000 28.2414 0.0000 0.0000
# 5 0.0000 0.0000 0.0000 0.0000 2.8923 0.0000
# 6 0.0000 0.0000 0.0000 0.0000 0.0000 13.3126
#
#
#
# Elastic Compliance Matrix: (Units=1/GPa)
#
#
# Indices 1 2 3 4 5 6 
#
# 1 0.014457 -0.010001 -0.002448 0.000000 0.000000 0.000000
# 2 -0.010001 0.063234 -0.007973 0.000000 0.000000 0.000000
# 3 -0.002448 -0.007973 0.010890 0.000000 0.000000 0.000000
# 4 0.000000 0.000000 0.000000 0.035409 0.000000 0.000000
# 5 0.000000 0.000000 0.000000 0.000000 0.345746 0.000000
# 6 0.000000 0.000000 0.000000 0.000000 0.000000 0.075117
#
#
# Mechanical properties :
#
#
# Convention : Reuss Voigt Hill
#
# Bulk Modulus (GPa) = 20.94875 40.18882 30.56878
# Shear Modulus (GPa) = 8.31104 18.99404 13.65254
#
# Velocity S-wave (km/s) = 2.04467 3.09104 2.62061
# Velocity P-wave (km/s) = 4.01398 5.74068 4.95315
#
# Compressibility (1/GPa) = 0.04773554
#
# Stress axis : x y z
#
# Youngs Moduli (GPa) = 69.17076 15.81435 91.82958
#
# Poissons Ratio (x) = 0.15816 0.22480
# Poissons Ratio (y) = 0.69179 0.73217
# Poissons Ratio (z) = 0.16933 0.12609
#
# Static dielectric constant tensor:
#      x y z
#    x 1.747060 0.000000 0.000000 
#    y 0.000000 1.681720 0.000000 
#    z 0.000000 0.000000 1.714730 
# 
# From -- ./inp_files/30352.got.cif
#   From: 2010.05.17/outbox.cif.g08.bks.cpg/sg59_16_cif.got.tgz:30352.got - 2010.06.03 14:40:33.
