data_PCOD9450975
_publ_section_title
;
Structure prediction by ZEFSAII (Michael W. Deem and Ramdas Pophale) SiO2 
 PCOD9450975
Probable space group: P M M N
;
_chemical_formula_sum "Si O2"
_cell_formula_units_Z 48
_cell_length_a 7.943169
_cell_length_b 8.917134
_cell_length_c 35.226181
_cell_angle_alpha 90.000000
_cell_angle_beta 90.000000
_cell_angle_gamma 90.000000
_cell_volume 2495.081051
_symmetry_space_group_name_H-M "P M M N"
_symmetry_group_IT_number 59
_space_group.IT_coordinate_system_code '2'
_symmetry_cell_setting 'orthorhombic'
loop_
_space_group_symop_operation_xyz
x,y,z
1/2-x,1/2-y,z
1/2+x,-y,-z
-x,1/2+y,-z
-x,-y,-z
1/2+x,1/2+y,-z
1/2-x,y,z
x,1/2-y,z
loop_
_atom_site_type_symbol
_atom_site_label
_atom_site_fract_x
_atom_site_fract_y
_atom_site_fract_z
Si Si1 0.450850 0.920583 0.961215
Si Si2 0.449211 0.424635 0.120495
Si Si3 0.435107 0.430145 0.802791
Si Si4 0.048188 0.579992 0.538979
Si Si5 0.250000 0.932426 0.249085
Si Si6 0.750000 0.929901 0.667392
Si Si7 0.050309 0.429800 0.618559
O O1 0.250000 0.917464 0.958753
O O2 0.516700 0.750000 0.963043
O O3 0.515964 0.987859 0.921575
O O4 0.500000 0.000000 0.000000
O O5 0.250000 0.429714 0.127303
O O6 0.504160 0.250000 0.120226
O O7 0.537314 0.507829 0.154993
O O8 0.250000 0.475651 0.788854
O O9 0.441246 0.250000 0.804634
O O10 0.585762 0.477185 0.775201
O O11 0.250000 0.588590 0.539502
O O12 0.980416 0.750000 0.540733
O O13 0.001884 0.486267 0.576348
O O14 0.000000 0.500000 0.500000
O O15 0.250000 0.750000 0.253340
O O16 0.250000 0.009531 0.289729
O O17 0.750000 0.750000 0.665845
O O18 0.582020 0.993450 0.646846
O O19 0.250000 0.467139 0.625145
O O20 0.035224 0.250000 0.620917
#
# Coordination Sequence:
#
# PCOD9450975 Si02
#       7
#     8   8   8   8   4   4   8
#     4  10  21  36  53  76 107 146 192 240 290 346
#     4  10  20  35  57  83 113 149 189 236 293 351
#     4  10  21  38  62  90 119 153 193 239 293 350
#     4  10  21  36  56  85 122 163 208 259 313 369
#     4  10  22  42  62  88 124 156 198 250 294 358
#     4  12  26  42  66  96 128 166 206 256 318 382
#     4  10  22  42  66  91 123 165 214 263 313 373
#
# _framework density 19.237852
#
# number of rings (size 3 to 8) (size 9 to 14) (size 15 to 20)
#    0.000    1.833    0.833    2.750    1.167    6.000 
#    0.000    1.667    0.000    0.000    0.000    0.000 
#    0.000    0.000    0.000    0.000    0.000    0.000 
#
# Total GULP energy -268032.283954 kJ/mol
# GULP energy per Si atom -5584.005916 kJ/mol
# Density = 1.919407 g / cm^3
# Si number density = 19.237852 Si / 1000 Ang^3
#
#
#
# Elastic Constant Matrix: (Units=GPa)
#
#
# Indices 1 2 3 4 5 6 
#
# 1 113.2645 44.6898 79.1018 0.0000 0.0000 0.0000
# 2 44.6898 67.1311 54.9615 0.0000 0.0000 0.0000
# 3 79.1018 54.9615 170.9233 0.0000 0.0000 0.0000
# 4 0.0000 0.0000 0.0000 37.9984 0.0000 0.0000
# 5 0.0000 0.0000 0.0000 0.0000 28.2167 0.0000
# 6 0.0000 0.0000 0.0000 0.0000 0.0000 22.0398
#
#
#
# Elastic Compliance Matrix: (Units=1/GPa)
#
#
# Indices 1 2 3 4 5 6 
#
# 1 0.014459 -0.005629 -0.004881 0.000000 0.000000 0.000000
# 2 -0.005629 0.022411 -0.004601 0.000000 0.000000 0.000000
# 3 -0.004881 -0.004601 0.009589 0.000000 0.000000 0.000000
# 4 0.000000 0.000000 0.000000 0.026317 0.000000 0.000000
# 5 0.000000 0.000000 0.000000 0.000000 0.035440 0.000000
# 6 0.000000 0.000000 0.000000 0.000000 0.000000 0.045372
#
#
# Mechanical properties :
#
#
# Convention : Reuss Voigt Hill
#
# Bulk Modulus (GPa) = 61.59341 78.75837 70.17589
# Shear Modulus (GPa) = 26.42382 29.15538 27.78960
#
# Velocity S-wave (km/s) = 3.71014 3.89719 3.80482
# Velocity P-wave (km/s) = 7.10210 7.82809 7.47391
#
# Compressibility (1/GPa) = 0.01623550
#
# Stress axis : x y z
#
# Youngs Moduli (GPa) = 69.16122 44.62178 104.28357
#
# Poissons Ratio (x) = 0.25117 0.50906
# Poissons Ratio (y) = 0.38930 0.47983
# Poissons Ratio (z) = 0.33761 0.20532
#
# Static dielectric constant tensor:
#      x y z
#    x 1.517480 0.000000 0.000000 
#    y 0.000000 1.385510 0.000000 
#    z 0.000000 0.000000 1.641120 
# 
# From -- ./inp_files/33001.got.cif
#   From: 2010.05.17/outbox.cif.g08.bks.cpg/sg59_17_cif.got.tgz:33001.got - 2010.06.03 14:40:33.
