data_PCOD9450863
_publ_section_title
;
Structure prediction by ZEFSAII (Michael W. Deem and Ramdas Pophale) SiO2 
 PCOD9450863
Probable space group: P M M N
;
_chemical_formula_sum "Si O2"
_cell_formula_units_Z 56
_cell_length_a 8.359060
_cell_length_b 20.230817
_cell_length_c 17.802549
_cell_angle_alpha 90.000000
_cell_angle_beta 90.000000
_cell_angle_gamma 90.000000
_cell_volume 3010.599977
_symmetry_space_group_name_H-M "P M M N"
_symmetry_group_IT_number 59
_space_group.IT_coordinate_system_code '2'
_symmetry_cell_setting 'orthorhombic'
loop_
_space_group_symop_operation_xyz
x,y,z
1/2-x,1/2-y,z
1/2+x,-y,-z
-x,1/2+y,-z
-x,-y,-z
1/2+x,1/2+y,-z
1/2-x,y,z
x,1/2-y,z
loop_
_atom_site_type_symbol
_atom_site_label
_atom_site_fract_x
_atom_site_fract_y
_atom_site_fract_z
Si Si1 0.560731 0.174765 0.314406
Si Si2 0.054954 0.325174 0.884144
Si Si3 0.060173 0.402649 0.448394
Si Si4 0.940273 0.050277 0.600842
Si Si5 0.445054 0.174787 0.055984
Si Si6 0.940402 0.935990 0.232125
Si Si7 0.939729 0.921476 0.812629
O O1 0.750000 0.170057 0.300052
O O2 0.508433 0.250000 0.300915
O O3 0.525353 0.152863 0.399475
O O4 0.471707 0.124071 0.259804
O O5 0.250000 0.326259 0.884149
O O6 0.006317 0.250000 0.865737
O O7 0.000056 0.379327 0.824608
O O8 0.005775 0.339266 0.970205
O O9 0.250000 0.396588 0.438175
O O10 0.007699 0.474359 0.415406
O O11 0.018763 0.405230 0.536219
O O12 0.750000 0.052405 0.590906
O O13 0.984688 0.068665 0.685253
O O14 0.250000 0.174757 0.057732
O O15 0.495290 0.250000 0.075446
O O16 0.499065 0.120550 0.115752
O O17 0.750000 0.929295 0.240050
O O18 0.978770 0.008051 0.198745
O O19 0.750000 0.932402 0.819850
#
# Coordination Sequence:
#
# PCOD9450863 Si02
#       7
#     8   8   8   8   8   8   8
#     4  11  23  37  54  79 114 151 184 226 277 324
#     4   8  16  33  55  78 104 138 182 229 277 328
#     4  10  20  35  57  81 105 141 183 222 266 321
#     4  10  20  35  56  80 108 141 178 222 269 322
#     4   8  15  30  52  76 104 141 185 228 269 320
#     4  11  21  33  54  82 111 142 180 229 280 328
#     4  11  21  33  52  80 111 146 186 226 271 327
#
# _framework density 18.600943000000001
#
# number of rings (size 3 to 8) (size 9 to 14) (size 15 to 20)
#    0.000    2.143    1.429    3.429    0.000    3.429 
#    0.000    0.714    0.000    6.857    0.000    8.000 
#    0.000    0.000    0.000    0.000    0.000    0.000 
#
# Total GULP energy -312604.211437 kJ/mol
# GULP energy per Si atom -5582.218061 kJ/mol
# Density = 1.855861 g / cm^3
# Si number density = 18.600943 Si / 1000 Ang^3
#
#
#
# Elastic Constant Matrix: (Units=GPa)
#
#
# Indices 1 2 3 4 5 6 
#
# 1 11.4894 -4.8541 -8.9810 0.0000 0.0000 0.0000
# 2 -4.8541 81.5675 54.4386 0.0000 0.0000 0.0000
# 3 -8.9810 54.4386 111.8924 0.0000 0.0000 0.0000
# 4 0.0000 0.0000 0.0000 20.2911 0.0000 0.0000
# 5 0.0000 0.0000 0.0000 0.0000 17.0304 0.0000
# 6 0.0000 0.0000 0.0000 0.0000 0.0000 11.0727
#
#
#
# Elastic Compliance Matrix: (Units=1/GPa)
#
#
# Indices 1 2 3 4 5 6 
#
# 1 0.092900 0.000817 0.007059 0.000000 0.000000 0.000000
# 2 0.000817 0.018162 -0.008771 0.000000 0.000000 0.000000
# 3 0.007059 -0.008771 0.013771 0.000000 0.000000 0.000000
# 4 0.000000 0.000000 0.000000 0.049283 0.000000 0.000000
# 5 0.000000 0.000000 0.000000 0.000000 0.058719 0.000000
# 6 0.000000 0.000000 0.000000 0.000000 0.000000 0.090312
#
#
# Mechanical properties :
#
#
# Convention : Reuss Voigt Hill
#
# Bulk Modulus (GPa) = 8.12716 31.79515 19.96115
# Shear Modulus (GPa) = 13.66306 20.63522 17.14914
#
# Velocity S-wave (km/s) = 2.71317 3.33433 3.03966
# Velocity P-wave (km/s) = 3.76746 5.65279 4.80353
#
# Compressibility (1/GPa) = 0.12304428
#
# Stress axis : x y z
#
# Youngs Moduli (GPa) = 10.76425 55.05986 72.61677
#
# Poissons Ratio (x) = -0.04500 -0.51260
# Poissons Ratio (y) = -0.00880 0.63690
# Poissons Ratio (z) = -0.07598 0.48291
#
# Static dielectric constant tensor:
#      x y z
#    x 1.637350 0.000000 0.000000 
#    y 0.000000 1.628430 0.000000 
#    z 0.000000 0.000000 1.639600 
# 
# From -- ./inp_files/20993.got.cif
#   From: 2010.05.17/outbox.cif.g08.bks.cpg/sg59_11_cif.got.tgz:20993.got - 2010.06.03 14:40:33.
