data_PCOD9450254
_publ_section_title
;
Structure prediction by ZEFSAII (Michael W. Deem and Ramdas Pophale) SiO2 
 PCOD9450254
Probable space group: P M M N
;
_chemical_formula_sum "Si O2"
_cell_formula_units_Z 64
_cell_length_a 20.634349
_cell_length_b 8.967234
_cell_length_c 20.129430
_cell_angle_alpha 90.000000
_cell_angle_beta 90.000000
_cell_angle_gamma 90.000000
_cell_volume 3724.609544
_symmetry_space_group_name_H-M "P M M N"
_symmetry_group_IT_number 59
_space_group.IT_coordinate_system_code '2'
_symmetry_cell_setting 'orthorhombic'
loop_
_space_group_symop_operation_xyz
x,y,z
1/2-x,1/2-y,z
1/2+x,-y,-z
-x,1/2+y,-z
-x,-y,-z
1/2+x,1/2+y,-z
1/2-x,y,z
x,1/2-y,z
loop_
_atom_site_type_symbol
_atom_site_label
_atom_site_fract_x
_atom_site_fract_y
_atom_site_fract_z
Si Si1 0.323782 0.571983 0.422874
Si Si2 0.324490 0.570729 0.057444
Si Si3 0.565768 0.428692 0.471067
Si Si4 0.959625 0.572105 0.336280
Si Si5 0.575766 0.927256 0.840794
Si Si6 0.175441 0.570799 0.901922
Si Si7 0.562595 0.571918 0.184125
Si Si8 0.402200 0.073178 0.311748
O O1 0.250000 0.538953 0.441889
O O2 0.329319 0.750000 0.411267
O O3 0.374909 0.532814 0.480328
O O4 0.343997 0.486683 0.356203
O O5 0.250000 0.528635 0.073834
O O6 0.329351 0.750000 0.064076
O O7 0.376444 0.493760 0.104511
O O8 0.335404 0.534647 0.979750
O O9 0.500000 0.500000 0.500000
O O10 0.558920 0.250000 0.469101
O O11 0.575475 0.492469 0.397275
O O12 0.959536 0.750000 0.345688
O O13 0.932504 0.537194 0.262922
O O14 0.033364 0.512506 0.335631
O O15 0.569217 0.750000 0.849252
O O16 0.604057 0.955633 0.766819
O O17 0.504602 0.000684 0.841547
O O18 0.250000 0.530600 0.885763
O O19 0.169599 0.750000 0.895295
O O20 0.123071 0.491763 0.856111
O O21 0.558751 0.750000 0.177384
O O22 0.411207 0.250000 0.321176
#
# Coordination Sequence:
#
# PCOD9450254 Si02
#       8
#     8   8   8   8   8   8   8   8
#     4  10  22  38  54  76 108 144 180 219 264 318
#     4   9  19  36  56  78 106 143 185 225 270 329
#     4  11  21  34  57  83 107 139 181 224 266 318
#     4  10  20  35  55  80 108 138 177 221 266 320
#     4  10  21  35  53  80 112 144 181 225 271 321
#     4   9  19  37  59  81 107 141 182 227 276 331
#     4  10  21  36  56  82 111 143 181 226 274 326
#     4  10  20  34  53  77 105 139 178 219 266 317
#
# _framework density 17.183008999999998
#
# number of rings (size 3 to 8) (size 9 to 14) (size 15 to 20)
#    0.000    2.125    1.250    2.625    0.000    5.750 
#    0.000    4.375    0.000    2.250    0.000    0.000 
#    0.000    0.000    0.000    0.000    0.000    0.000 
#
# Total GULP energy -357233.717778 kJ/mol
# GULP energy per Si atom -5581.776840 kJ/mol
# Density = 1.714390 g / cm^3
# Si number density = 17.183009 Si / 1000 Ang^3
#
#
#
# Elastic Constant Matrix: (Units=GPa)
#
#
# Indices 1 2 3 4 5 6 
#
# 1 137.7660 63.5835 98.8486 0.0000 0.0000 0.0000
# 2 63.5835 55.7493 62.0493 0.0000 0.0000 0.0000
# 3 98.8486 62.0493 116.4011 0.0000 0.0000 0.0000
# 4 0.0000 0.0000 0.0000 32.2776 0.0000 0.0000
# 5 0.0000 0.0000 0.0000 0.0000 30.8035 0.0000
# 6 0.0000 0.0000 0.0000 0.0000 0.0000 30.8192
#
#
#
# Elastic Compliance Matrix: (Units=1/GPa)
#
#
# Indices 1 2 3 4 5 6 
#
# 1 0.020580 -0.009885 -0.012207 0.000000 0.000000 0.000000
# 2 -0.009885 0.048854 -0.017647 0.000000 0.000000 0.000000
# 3 -0.012207 -0.017647 0.028364 0.000000 0.000000 0.000000
# 4 0.000000 0.000000 0.000000 0.030981 0.000000 0.000000
# 5 0.000000 0.000000 0.000000 0.000000 0.032464 0.000000
# 6 0.000000 0.000000 0.000000 0.000000 0.000000 0.032447
#
#
# Mechanical properties :
#
#
# Convention : Reuss Voigt Hill
#
# Bulk Modulus (GPa) = 54.59003 84.31991 69.45497
# Shear Modulus (GPa) = 17.90348 24.47572 21.18960
#
# Velocity S-wave (km/s) = 3.23139 3.77824 3.51546
# Velocity P-wave (km/s) = 6.76471 8.25903 7.54894
#
# Compressibility (1/GPa) = 0.01831836
#
# Stress axis : x y z
#
# Youngs Moduli (GPa) = 48.59180 20.46932 35.25548
#
# Poissons Ratio (x) = 0.20234 0.43036
# Poissons Ratio (y) = 0.48034 0.62217
# Poissons Ratio (z) = 0.59315 0.36123
#
# Static dielectric constant tensor:
#      x y z
#    x 1.556940 0.000000 0.000000 
#    y 0.000000 1.572720 0.000000 
#    z 0.000000 0.000000 1.582790 
# 
# From -- ./inp_files/28141.got.cif
#   From: 2010.05.17/outbox.cif.g08.bks.cpg/sg59_15_cif.got.tgz:28141.got - 2010.06.03 14:40:33.
