data_PCOD9450769
_publ_section_title
;
Structure prediction by ZEFSAII (Michael W. Deem and Ramdas Pophale) SiO2 
 PCOD9450769
Probable space group: P M M N
;
_chemical_formula_sum "Si O2"
_cell_formula_units_Z 32
_cell_length_a 14.075737
_cell_length_b 23.218604
_cell_length_c 5.047779
_cell_angle_alpha 90.000000
_cell_angle_beta 90.000000
_cell_angle_gamma 90.000000
_cell_volume 1649.709900
_symmetry_space_group_name_H-M "P M M N"
_symmetry_group_IT_number 59
_space_group.IT_coordinate_system_code '2'
_symmetry_cell_setting 'orthorhombic'
loop_
_space_group_symop_operation_xyz
x,y,z
1/2-x,1/2-y,z
1/2+x,-y,-z
-x,1/2+y,-z
-x,-y,-z
1/2+x,1/2+y,-z
1/2-x,y,z
x,1/2-y,z
loop_
_atom_site_type_symbol
_atom_site_label
_atom_site_fract_x
_atom_site_fract_y
_atom_site_fract_z
Si Si1 0.352562 0.430083 0.412474
Si Si2 0.637685 0.316865 0.820225
Si Si3 0.439251 0.879077 0.692958
Si Si4 0.389990 0.997207 0.928522
O O1 0.250000 0.399192 0.395879
O O2 0.449324 0.395872 0.341764
O O3 0.364611 0.456461 0.704610
O O4 0.346860 0.483267 0.205866
O O5 0.750000 0.326254 0.868203
O O6 0.625470 0.250000 0.745198
O O7 0.601001 0.357495 0.585396
O O8 0.579008 0.331405 0.083919
O O9 0.380035 0.934293 0.801976
O O10 0.500000 0.000000 0.000000
#
# Coordination Sequence:
#
# PCOD9450769 Si02
#       4
#     8   8   8   8
#     4  11  22  36  57  86 121 154 185 223 272 337
#     4  11  24  40  59  83 108 141 189 242 292 334
#     4  11  21  38  60  82 114 150 186 229 280 336
#     4  10  20  35  54  82 117 151 187 224 265 325
#
# _framework density 19.397348000000001
#
# number of rings (size 3 to 8) (size 9 to 14) (size 15 to 20)
#    0.000    1.250    0.000    9.750    0.000    8.000 
#    0.000    0.000    0.000    4.500    0.000    0.000 
#    0.000    0.000    0.000    0.000    0.000    0.000 
#
# Total GULP energy -178542.068663 kJ/mol
# GULP energy per Si atom -5579.439646 kJ/mol
# Density = 1.935320 g / cm^3
# Si number density = 19.397348 Si / 1000 Ang^3
#
#
#
# Elastic Constant Matrix: (Units=GPa)
#
#
# Indices 1 2 3 4 5 6 
#
# 1 117.7657 28.4293 9.2085 0.0000 0.0000 0.0000
# 2 28.4293 48.2641 -5.2360 0.0000 0.0000 0.0000
# 3 9.2085 -5.2360 85.7361 0.0000 0.0000 0.0000
# 4 0.0000 0.0000 0.0000 34.2972 0.0000 0.0000
# 5 0.0000 0.0000 0.0000 0.0000 81.8832 0.0000
# 6 0.0000 0.0000 0.0000 0.0000 0.0000 20.7886
#
#
#
# Elastic Compliance Matrix: (Units=1/GPa)
#
#
# Indices 1 2 3 4 5 6 
#
# 1 0.010076 -0.006093 -0.001454 0.000000 0.000000 0.000000
# 2 -0.006093 0.024542 0.002153 0.000000 0.000000 0.000000
# 3 -0.001454 0.002153 0.011951 0.000000 0.000000 0.000000
# 4 0.000000 0.000000 0.000000 0.029157 0.000000 0.000000
# 5 0.000000 0.000000 0.000000 0.000000 0.012213 0.000000
# 6 0.000000 0.000000 0.000000 0.000000 0.000000 0.048103
#
#
# Mechanical properties :
#
#
# Convention : Reuss Voigt Hill
#
# Bulk Modulus (GPa) = 27.94756 35.17437 31.56097
# Shear Modulus (GPa) = 31.49467 42.01809 36.75638
#
# Velocity S-wave (km/s) = 4.03384 4.65927 4.35779
# Velocity P-wave (km/s) = 6.01124 6.86426 6.45186
#
# Compressibility (1/GPa) = 0.03578130
#
# Stress axis : x y z
#
# Youngs Moduli (GPa) = 99.24562 40.74666 83.67217
#
# Poissons Ratio (x) = 0.24827 0.12169
# Poissons Ratio (y) = 0.60469 -0.18017
# Poissons Ratio (z) = 0.14434 -0.08774
#
# Static dielectric constant tensor:
#      x y z
#    x 1.692980 0.000000 0.000000 
#    y 0.000000 1.695170 0.000000 
#    z 0.000000 0.000000 1.669200 
# 
# From -- ./inp_files/1894.got.cif
#   From: 2010.05.17/outbox.cif.g08.bks.cpg/sg59_1_cif.got.tgz:1894.got - 2010.06.03 14:40:33.
