data_PCOD9450061
_publ_section_title
;
Structure prediction by ZEFSAII (Michael W. Deem and Ramdas Pophale) SiO2 
 PCOD9450061
Probable space group: P M M N
;
_chemical_formula_sum "Si O2"
_cell_formula_units_Z 48
_cell_length_a 7.633847
_cell_length_b 14.710262
_cell_length_c 20.498383
_cell_angle_alpha 90.000000
_cell_angle_beta 90.000000
_cell_angle_gamma 90.000000
_cell_volume 2301.884151
_symmetry_space_group_name_H-M "P M M N"
_symmetry_group_IT_number 59
_space_group.IT_coordinate_system_code '2'
_symmetry_cell_setting 'orthorhombic'
loop_
_space_group_symop_operation_xyz
x,y,z
1/2-x,1/2-y,z
1/2+x,-y,-z
-x,1/2+y,-z
-x,-y,-z
1/2+x,1/2+y,-z
1/2-x,y,z
x,1/2-y,z
loop_
_atom_site_type_symbol
_atom_site_label
_atom_site_fract_x
_atom_site_fract_y
_atom_site_fract_z
Si Si1 0.548569 0.556995 0.809035
Si Si2 0.543710 0.750000 0.348102
Si Si3 0.959949 0.062971 0.438687
Si Si4 0.536378 0.250000 0.498089
Si Si5 0.964018 0.750000 0.014954
Si Si6 0.540999 0.556070 0.065036
Si Si7 0.965004 0.750000 0.862578
Si Si8 0.955457 0.948478 0.318068
O O1 0.750000 0.571127 0.790544
O O2 0.538966 0.495972 0.873902
O O3 0.476210 0.657005 0.827428
O O4 0.466636 0.500020 0.750373
O O5 0.750000 0.750000 0.331042
O O6 0.524401 0.750000 0.426712
O O7 0.469850 0.654133 0.321174
O O8 0.750000 0.071964 0.431110
O O9 0.025442 0.161834 0.458892
O O10 0.031040 0.013637 0.374356
O O11 0.000000 0.000000 0.500000
O O12 0.750000 0.250000 0.500936
O O13 0.750000 0.750000 0.013921
O O14 0.020429 0.841305 0.051594
O O15 0.018941 0.750000 0.938865
O O16 0.750000 0.558070 0.074966
O O17 0.500000 0.500000 0.000000
O O18 0.750000 0.750000 0.863170
O O19 0.750000 0.937609 0.334213
#
# Coordination Sequence:
#
# PCOD9450061 Si02
#       8
#     8   4   8   4   4   8   4   8
#     4  11  23  40  61  85 117 154 194 240 289 344
#     4  10  20  37  60  83 113 157 195 231 286 355
#     4  10  20  35  57  84 115 148 189 237 287 339
#     4  10  20  33  56  90 119 147 187 244 296 335
#     4   9  18  35  60  85 116 154 187 227 284 343
#     4  11  21  37  61  88 116 151 193 236 284 340
#     4   9  18  37  60  82 112 152 191 230 288 349
#     4  10  22  39  58  84 118 154 194 237 286 346
#
# _framework density 20.852482999999999
#
# number of rings (size 3 to 8) (size 9 to 14) (size 15 to 20)
#    0.000    1.833    3.333    1.000    0.000    2.667 
#    0.000    8.333    0.000    0.000    0.000    0.000 
#    0.000    0.000    0.000    0.000    0.000    0.000 
#
# Total GULP energy -268015.758206 kJ/mol
# GULP energy per Si atom -5583.661629 kJ/mol
# Density = 2.080502 g / cm^3
# Si number density = 20.852483 Si / 1000 Ang^3
#
#
#
# Elastic Constant Matrix: (Units=GPa)
#
#
# Indices 1 2 3 4 5 6 
#
# 1 37.3145 -4.8043 -22.5574 0.0000 0.0000 0.0000
# 2 -4.8043 238.9673 82.0792 0.0000 0.0000 0.0000
# 3 -22.5574 82.0792 122.4640 0.0000 0.0000 0.0000
# 4 0.0000 0.0000 0.0000 28.0908 0.0000 0.0000
# 5 0.0000 0.0000 0.0000 0.0000 26.3764 0.0000
# 6 0.0000 0.0000 0.0000 0.0000 0.0000 9.3831
#
#
#
# Elastic Compliance Matrix: (Units=1/GPa)
#
#
# Indices 1 2 3 4 5 6 
#
# 1 0.030693 -0.001721 0.006807 0.000000 0.000000 0.000000
# 2 -0.001721 0.005533 -0.004025 0.000000 0.000000 0.000000
# 3 0.006807 -0.004025 0.012117 0.000000 0.000000 0.000000
# 4 0.000000 0.000000 0.000000 0.035599 0.000000 0.000000
# 5 0.000000 0.000000 0.000000 0.000000 0.037913 0.000000
# 6 0.000000 0.000000 0.000000 0.000000 0.000000 0.106574
#
#
# Mechanical properties :
#
#
# Convention : Reuss Voigt Hill
#
# Bulk Modulus (GPa) = 19.81609 56.46454 38.14031
# Shear Modulus (GPa) = 20.56533 35.70529 28.13531
#
# Velocity S-wave (km/s) = 3.14384 4.14246 3.67721
# Velocity P-wave (km/s) = 4.76465 7.07226 6.02987
#
# Compressibility (1/GPa) = 0.05046405
#
# Stress axis : x y z
#
# Youngs Moduli (GPa) = 32.58120 180.74684 82.52710
#
# Poissons Ratio (x) = 0.31105 -0.56175
# Poissons Ratio (y) = 0.05607 0.33218
# Poissons Ratio (z) = -0.22178 0.72753
#
# Static dielectric constant tensor:
#      x y z
#    x 1.782590 0.000000 0.000000 
#    y 0.000000 1.737080 0.000000 
#    z 0.000000 0.000000 1.678220 
# 
# From -- ./inp_files/25707.got.cif
#   From: 2010.05.17/outbox.cif.g08.bks.cpg/sg59_13_cif.got.tgz:25707.got - 2010.06.03 14:40:33.
