data_PCOD9450777
_publ_section_title
;
Structure prediction by ZEFSAII (Michael W. Deem and Ramdas Pophale) SiO2 
 PCOD9450777
Probable space group: P M M N
;
_chemical_formula_sum "Si O2"
_cell_formula_units_Z 64
_cell_length_a 9.387241
_cell_length_b 15.377625
_cell_length_c 24.627298
_cell_angle_alpha 90.000000
_cell_angle_beta 90.000000
_cell_angle_gamma 90.000000
_cell_volume 3555.035969
_symmetry_space_group_name_H-M "P M M N"
_symmetry_group_IT_number 59
_space_group.IT_coordinate_system_code '2'
_symmetry_cell_setting 'orthorhombic'
loop_
_space_group_symop_operation_xyz
x,y,z
1/2-x,1/2-y,z
1/2+x,-y,-z
-x,1/2+y,-z
-x,-y,-z
1/2+x,1/2+y,-z
1/2-x,y,z
x,1/2-y,z
loop_
_atom_site_type_symbol
_atom_site_label
_atom_site_fract_x
_atom_site_fract_y
_atom_site_fract_z
Si Si1 0.587703 0.908980 0.605013
Si Si2 0.078489 0.353506 0.999773
Si Si3 0.578586 0.487354 0.205299
Si Si4 0.413683 0.886026 0.381846
Si Si5 0.918533 0.650203 0.721005
Si Si6 0.586939 0.352123 0.497120
Si Si7 0.079187 0.513527 0.921550
Si Si8 0.580231 0.845129 0.273778
O O1 0.750000 0.879473 0.595016
O O2 0.531515 0.860329 0.658482
O O3 0.500044 0.897219 0.550273
O O4 0.588623 0.009897 0.620731
O O5 0.250000 0.354793 0.007686
O O6 0.038435 0.250000 0.994897
O O7 0.000968 0.407430 0.047892
O O8 0.047708 0.418778 0.948764
O O9 0.750000 0.478819 0.209363
O O10 0.503524 0.411662 0.239015
O O11 0.541627 0.486783 0.141875
O O12 0.536313 0.577607 0.234058
O O13 0.250000 0.854398 0.378448
O O14 0.470019 0.862665 0.441720
O O15 0.503836 0.852720 0.331634
O O16 0.750000 0.627077 0.720969
O O17 0.932586 0.750000 0.737501
O O18 0.750000 0.385495 0.498080
O O19 0.589191 0.250000 0.484613
O O20 0.250000 0.526425 0.927045
O O21 0.750000 0.852429 0.282233
O O22 0.550350 0.750000 0.250115
#
# Coordination Sequence:
#
# PCOD9450777 Si02
#       8
#     8   8   8   8   8   8   8   8
#     4  10  20  35  55  76  99 133 176 220 269 323
#     4   9  18  34  57  84 113 147 185 222 264 314
#     4  10  21  37  56  80 111 145 183 224 266 316
#     4  10  20  36  56  76 101 135 174 217 268 326
#     4  10  21  37  56  78 106 141 182 227 273 321
#     4  10  21  34  49  74 104 132 167 214 269 328
#     4   9  19  35  55  81 113 148 183 223 268 312
#     4  10  21  36  55  80 108 139 177 222 270 319
#
# _framework density 18.002631000000001
#
# number of rings (size 3 to 8) (size 9 to 14) (size 15 to 20)
#    0.000    2.250    1.250    1.125    0.000    5.000 
#    0.000    5.000    0.000    0.000    0.000    3.500 
#    0.000    0.000    0.000    0.000    0.000    0.000 
#
# Total GULP energy -356860.882052 kJ/mol
# GULP energy per Si atom -5575.951282 kJ/mol
# Density = 1.796166 g / cm^3
# Si number density = 18.002631 Si / 1000 Ang^3
#
#
#
# Elastic Constant Matrix: (Units=GPa)
#
#
# Indices 1 2 3 4 5 6 
#
# 1 20.8197 27.6216 34.6204 0.0000 0.0000 0.0000
# 2 27.6216 111.5422 43.9727 0.0000 0.0000 0.0000
# 3 34.6204 43.9727 112.6139 0.0000 0.0000 0.0000
# 4 0.0000 0.0000 0.0000 -85.4893 0.0000 0.0000
# 5 0.0000 0.0000 0.0000 0.0000 29.6964 0.0000
# 6 0.0000 0.0000 0.0000 0.0000 0.0000 25.1053
#
#
#
# Elastic Compliance Matrix: (Units=1/GPa)
#
#
# Indices 1 2 3 4 5 6 
#
# 1 0.123934 -0.018521 -0.030868 0.000000 0.000000 0.000000
# 2 -0.018521 0.013364 0.000475 0.000000 0.000000 0.000000
# 3 -0.030868 0.000475 0.018184 0.000000 0.000000 0.000000
# 4 0.000000 0.000000 0.000000 -0.011697 0.000000 0.000000
# 5 0.000000 0.000000 0.000000 0.000000 0.033674 0.000000
# 6 0.000000 0.000000 0.000000 0.000000 0.000000 0.039832
#
#
# Mechanical properties :
#
#
# Convention : Reuss Voigt Hill
#
# Bulk Modulus (GPa) = 17.34488 50.82279 34.08384
# Shear Modulus (GPa) = 14.95497 3.11321 9.03409
#
# Velocity S-wave (km/s) = 2.88533 1.31646 2.24257
# Velocity P-wave (km/s) = 4.55585 5.53198 5.06747
#
# Compressibility (1/GPa) = 0.05765389
#
# Stress axis : x y z
#
# Youngs Moduli (GPa) = 8.06883 74.82671 54.99345
#
# Poissons Ratio (x) = 1.38587 1.69756
# Poissons Ratio (y) = 0.14944 -0.02615
# Poissons Ratio (z) = 0.24907 -0.03558
#
# Static dielectric constant tensor:
#      x y z
#    x 1.617600 0.000000 0.000000 
#    y 0.000000 1.631900 0.000000 
#    z 0.000000 0.000000 1.598720 
# 
# From -- ./inp_files/31643.got.cif
#   From: 2010.05.17/outbox.cif.g08.bks.cpg/sg59_16_cif.got.tgz:31643.got - 2010.06.03 14:40:33.
