data_PCOD9450849
_publ_section_title
;
Structure prediction by ZEFSAII (Michael W. Deem and Ramdas Pophale) SiO2 
 PCOD9450849
Probable space group: P M M N
;
_chemical_formula_sum "Si O2"
_cell_formula_units_Z 56
_cell_length_a 7.577320
_cell_length_b 23.617218
_cell_length_c 15.008308
_cell_angle_alpha 90.000000
_cell_angle_beta 90.000000
_cell_angle_gamma 90.000000
_cell_volume 2685.815034
_symmetry_space_group_name_H-M "P M M N"
_symmetry_group_IT_number 59
_space_group.IT_coordinate_system_code '2'
_symmetry_cell_setting 'orthorhombic'
loop_
_space_group_symop_operation_xyz
x,y,z
1/2-x,1/2-y,z
1/2+x,-y,-z
-x,1/2+y,-z
-x,-y,-z
1/2+x,1/2+y,-z
1/2-x,y,z
x,1/2-y,z
loop_
_atom_site_type_symbol
_atom_site_label
_atom_site_fract_x
_atom_site_fract_y
_atom_site_fract_z
Si Si1 0.951886 0.900844 0.782071
Si Si2 0.045848 0.950284 0.599211
Si Si3 0.966144 0.684875 0.929531
Si Si4 0.452346 0.075725 0.594759
Si Si5 0.960515 0.991242 0.104287
Si Si6 0.034071 0.187121 0.693552
Si Si7 0.964975 0.636549 0.120035
O O1 0.750000 0.885514 0.763138
O O2 0.028631 0.853160 0.847226
O O3 0.037549 0.913174 0.687407
O O4 0.957374 0.958665 0.838769
O O5 0.250000 0.958113 0.573294
O O6 0.956497 0.923616 0.512533
O O7 0.971626 0.013601 0.618498
O O8 0.750000 0.682127 0.929719
O O9 0.017110 0.750000 0.921616
O O10 0.024233 0.659668 0.024441
O O11 0.250000 0.074028 0.627792
O O12 0.528371 0.133223 0.635852
O O13 0.750000 0.994325 0.117676
O O14 0.020770 0.928549 0.131589
O O15 0.000000 0.000000 0.000000
O O16 0.250000 0.187938 0.689422
O O17 0.974658 0.250000 0.666459
O O18 0.983697 0.174177 0.795786
O O19 0.750000 0.636342 0.117909
#
# Coordination Sequence:
#
# PCOD9450849 Si02
#       7
#     8   8   8   8   8   8   8
#     4  11  21  34  52  79 108 137 174 218 265 312
#     4  10  20  35  56  79 102 135 173 213 265 318
#     4   9  17  30  48  71 101 137 178 219 255 298
#     4   9  18  34  54  79 107 132 166 214 261 314
#     4  11  20  32  50  76 108 141 176 218 265 311
#     4   9  16  27  48  78 107 134 167 212 263 309
#     4   9  16  28  47  74 106 137 172 213 257 305
#
# _framework density 20.850283000000001
#
# number of rings (size 3 to 8) (size 9 to 14) (size 15 to 20)
#    0.000    2.286    1.429    2.571    0.000    4.571 
#    0.000    0.714    0.000    6.429    0.000    0.000 
#    0.000    0.000    0.000    0.000    0.000    0.000 
#
# Total GULP energy -312686.183270 kJ/mol
# GULP energy per Si atom -5583.681844 kJ/mol
# Density = 2.080283 g / cm^3
# Si number density = 20.850283 Si / 1000 Ang^3
#
#
#
# Elastic Constant Matrix: (Units=GPa)
#
#
# Indices 1 2 3 4 5 6 
#
# 1 49.8487 0.1019 -7.7820 0.0000 0.0000 0.0000
# 2 0.1019 146.0549 53.7296 0.0000 0.0000 0.0000
# 3 -7.7820 53.7296 90.9293 0.0000 0.0000 0.0000
# 4 0.0000 0.0000 0.0000 28.8439 0.0000 0.0000
# 5 0.0000 0.0000 0.0000 0.0000 8.6457 0.0000
# 6 0.0000 0.0000 0.0000 0.0000 0.0000 8.8814
#
#
#
# Elastic Compliance Matrix: (Units=1/GPa)
#
#
# Indices 1 2 3 4 5 6 
#
# 1 0.020413 -0.000839 0.002243 0.000000 0.000000 0.000000
# 2 -0.000839 0.008783 -0.005262 0.000000 0.000000 0.000000
# 3 0.002243 -0.005262 0.014299 0.000000 0.000000 0.000000
# 4 0.000000 0.000000 0.000000 0.034669 0.000000 0.000000
# 5 0.000000 0.000000 0.000000 0.000000 0.115665 0.000000
# 6 0.000000 0.000000 0.000000 0.000000 0.000000 0.112594
#
#
# Mechanical properties :
#
#
# Convention : Reuss Voigt Hill
#
# Bulk Modulus (GPa) = 27.95014 42.10354 35.02684
# Shear Modulus (GPa) = 15.33438 25.32642 20.33040
#
# Velocity S-wave (km/s) = 2.71486 3.48901 3.12599
# Velocity P-wave (km/s) = 4.82303 6.03887 5.46487
#
# Compressibility (1/GPa) = 0.03577800
#
# Stress axis : x y z
#
# Youngs Moduli (GPa) = 48.98945 113.85719 69.93702
#
# Poissons Ratio (x) = 0.09557 -0.15686
# Poissons Ratio (y) = 0.04112 0.36798
# Poissons Ratio (z) = -0.10988 0.59907
#
# Static dielectric constant tensor:
#      x y z
#    x 1.824240 0.000000 0.000000 
#    y 0.000000 1.738860 0.000000 
#    z 0.000000 0.000000 1.749280 
# 
# From -- ./inp_files/21045.got.cif
#   From: 2010.05.17/outbox.cif.g08.bks.cpg/sg59_11_cif.got.tgz:21045.got - 2010.06.03 14:40:33.
