data_PCOD9450310
_publ_section_title
;
Structure prediction by ZEFSAII (Michael W. Deem and Ramdas Pophale) SiO2 
 PCOD9450310
Probable space group: P M M N
;
_chemical_formula_sum "Si O2"
_cell_formula_units_Z 56
_cell_length_a 8.587030
_cell_length_b 21.167584
_cell_length_c 15.481843
_cell_angle_alpha 90.000000
_cell_angle_beta 90.000000
_cell_angle_gamma 90.000000
_cell_volume 2814.083184
_symmetry_space_group_name_H-M "P M M N"
_symmetry_group_IT_number 59
_space_group.IT_coordinate_system_code '2'
_symmetry_cell_setting 'orthorhombic'
loop_
_space_group_symop_operation_xyz
x,y,z
1/2-x,1/2-y,z
1/2+x,-y,-z
-x,1/2+y,-z
-x,-y,-z
1/2+x,1/2+y,-z
1/2-x,y,z
x,1/2-y,z
loop_
_atom_site_type_symbol
_atom_site_label
_atom_site_fract_x
_atom_site_fract_y
_atom_site_fract_z
Si Si1 0.064219 0.180472 0.542728
Si Si2 0.063908 0.055945 0.438334
Si Si3 0.426319 0.882979 0.299631
Si Si4 0.564244 0.959183 0.917657
Si Si5 0.062699 0.821377 0.951113
Si Si6 0.574090 0.677101 0.142887
Si Si7 0.930118 0.490406 0.266147
O O1 0.250000 0.176644 0.559841
O O2 0.031321 0.250000 0.507099
O O3 0.021626 0.122788 0.480975
O O4 0.973308 0.169445 0.631528
O O5 0.250000 0.049883 0.435906
O O6 0.999883 0.053419 0.340921
O O7 0.000000 0.000000 0.500000
O O8 0.250000 0.904653 0.313137
O O9 0.453660 0.857286 0.204193
O O10 0.544651 0.940763 0.308124
O O11 0.750000 0.956896 0.926599
O O12 0.498234 0.887200 0.911342
O O13 0.516952 0.989627 0.825789
O O14 0.500000 0.000000 0.000000
O O15 0.250000 0.824570 0.956361
O O16 0.024417 0.750000 0.915665
O O17 0.985623 0.823805 0.045670
O O18 0.750000 0.650236 0.149178
O O19 0.581830 0.750000 0.170287
O O20 0.750000 0.476845 0.251170
#
# Coordination Sequence:
#
# PCOD9450310 Si02
#       7
#     8   8   8   8   8   8   8
#     4  10  22  40  62  89 124 165 206 252 311 376
#     4  11  22  40  66  94 125 164 209 258 309 371
#     4  12  23  35  55  85 121 158 202 255 315 380
#     4  12  25  43  66  95 131 168 214 270 326 387
#     4  10  21  39  62  88 121 162 209 261 319 381
#     4  10  20  34  53  79 115 159 204 249 306 376
#     4  12  25  42  64  90 122 164 213 263 316 380
#
# _framework density 19.899909999999998
#
# number of rings (size 3 to 8) (size 9 to 14) (size 15 to 20)
#    0.000    1.000    1.429    6.429    0.000    4.286 
#    0.000    0.714    0.000    2.571    0.000    0.000 
#    0.000    0.000    0.000    0.000    0.000    0.000 
#
# Total GULP energy -312738.141478 kJ/mol
# GULP energy per Si atom -5584.609669 kJ/mol
# Density = 1.985462 g / cm^3
# Si number density = 19.899910 Si / 1000 Ang^3
#
#
#
# Elastic Constant Matrix: (Units=GPa)
#
#
# Indices 1 2 3 4 5 6 
#
# 1 88.6085 31.7282 22.0156 0.0000 0.0000 0.0000
# 2 31.7282 114.7054 29.0095 0.0000 0.0000 0.0000
# 3 22.0156 29.0095 75.9107 0.0000 0.0000 0.0000
# 4 0.0000 0.0000 0.0000 29.6530 0.0000 0.0000
# 5 0.0000 0.0000 0.0000 0.0000 31.0399 0.0000
# 6 0.0000 0.0000 0.0000 0.0000 0.0000 28.7251
#
#
#
# Elastic Compliance Matrix: (Units=1/GPa)
#
#
# Indices 1 2 3 4 5 6 
#
# 1 0.012991 -0.002923 -0.002651 0.000000 0.000000 0.000000
# 2 -0.002923 0.010308 -0.003092 0.000000 0.000000 0.000000
# 3 -0.002651 -0.003092 0.015124 0.000000 0.000000 0.000000
# 4 0.000000 0.000000 0.000000 0.033723 0.000000 0.000000
# 5 0.000000 0.000000 0.000000 0.000000 0.032217 0.000000
# 6 0.000000 0.000000 0.000000 0.000000 0.000000 0.034813
#
#
# Mechanical properties :
#
#
# Convention : Reuss Voigt Hill
#
# Bulk Modulus (GPa) = 47.41055 49.41457 48.41256
# Shear Modulus (GPa) = 30.57417 30.98168 30.77793
#
# Velocity S-wave (km/s) = 3.92394 3.95001 3.93700
# Velocity P-wave (km/s) = 6.66378 6.75935 6.71174
#
# Compressibility (1/GPa) = 0.02109235
#
# Stress axis : x y z
#
# Youngs Moduli (GPa) = 76.97753 97.00837 66.12197
#
# Poissons Ratio (x) = 0.28355 0.17526
# Poissons Ratio (y) = 0.22500 0.20443
# Poissons Ratio (z) = 0.20403 0.29992
#
# Static dielectric constant tensor:
#      x y z
#    x 1.791960 0.000000 0.000000 
#    y 0.000000 1.766780 0.000000 
#    z 0.000000 0.000000 1.685710 
# 
# From -- ./inp_files/21074.got.cif
#   From: 2010.05.17/outbox.cif.g08.bks.cpg/sg59_11_cif.got.tgz:21074.got - 2010.06.03 14:40:33.
