data_PCOD9450531
_publ_section_title
;
Structure prediction by ZEFSAII (Michael W. Deem and Ramdas Pophale) SiO2 
 PCOD9450531
Probable space group: P M M N
;
_chemical_formula_sum "Si O2"
_cell_formula_units_Z 48
_cell_length_a 8.879545
_cell_length_b 15.666510
_cell_length_c 19.223594
_cell_angle_alpha 90.000000
_cell_angle_beta 90.000000
_cell_angle_gamma 90.000000
_cell_volume 2674.222623
_symmetry_space_group_name_H-M "P M M N"
_symmetry_group_IT_number 59
_space_group.IT_coordinate_system_code '2'
_symmetry_cell_setting 'orthorhombic'
loop_
_space_group_symop_operation_xyz
x,y,z
1/2-x,1/2-y,z
1/2+x,-y,-z
-x,1/2+y,-z
-x,-y,-z
1/2+x,1/2+y,-z
1/2-x,y,z
x,1/2-y,z
loop_
_atom_site_type_symbol
_atom_site_label
_atom_site_fract_x
_atom_site_fract_y
_atom_site_fract_z
Si Si1 0.075031 0.520382 0.073334
Si Si2 0.571530 0.063537 0.443306
Si Si3 0.581814 0.250000 0.264404
Si Si4 0.928858 0.846484 0.181232
Si Si5 0.082238 0.392822 0.193880
Si Si6 0.929457 0.750000 0.587965
Si Si7 0.426066 0.482047 0.709128
O O1 0.250000 0.542159 0.063618
O O2 0.066408 0.434018 0.118848
O O3 0.000279 0.592867 0.122108
O O4 0.000000 0.500000 0.000000
O O5 0.750000 0.074766 0.455850
O O6 0.497692 0.158977 0.439482
O O7 0.500000 0.000000 0.500000
O O8 0.555758 0.012382 0.369981
O O9 0.750000 0.250000 0.292669
O O10 0.546776 0.171381 0.215238
O O11 0.470868 0.250000 0.329989
O O12 0.750000 0.845149 0.167724
O O13 0.987304 0.750000 0.178351
O O14 0.945597 0.887396 0.258748
O O15 0.250000 0.356536 0.201621
O O16 0.053301 0.467629 0.248747
O O17 0.750000 0.750000 0.577271
O O18 0.250000 0.504603 0.727074
#
# Coordination Sequence:
#
# PCOD9450531 Si02
#       7
#     8   8   4   8   8   4   8
#     4  10  21  37  57  81 112 149 189 234 288 346
#     4  11  23  40  61  89 125 163 203 249 303 363
#     4  12  22  34  56  86 116 145 184 235 288 346
#     4   9  18  35  59  84 111 148 193 240 288 345
#     4  10  20  34  55  82 109 143 186 232 281 334
#     4  12  24  40  64  90 118 157 202 251 308 366
#     4   9  18  34  57  83 112 148 191 236 285 341
#
# _framework density 17.949141999999998
#
# number of rings (size 3 to 8) (size 9 to 14) (size 15 to 20)
#    0.000    1.833    1.667    3.000    0.000    3.000 
#    3.000    0.000    0.000    0.000    0.000    0.000 
#    0.000    0.000    0.000    0.000    0.000    0.000 
#
# Total GULP energy -267219.589283 kJ/mol
# GULP energy per Si atom -5567.074777 kJ/mol
# Density = 1.790829 g / cm^3
# Si number density = 17.949142 Si / 1000 Ang^3
#
#
#
# Elastic Constant Matrix: (Units=GPa)
#
#
# Indices 1 2 3 4 5 6 
#
# 1 85.1946 49.3454 55.1850 0.0000 0.0000 0.0000
# 2 49.3454 128.9972 54.3170 0.0000 0.0000 0.0000
# 3 55.1850 54.3170 104.2802 0.0000 0.0000 0.0000
# 4 0.0000 0.0000 0.0000 1.5720 0.0000 0.0000
# 5 0.0000 0.0000 0.0000 0.0000 24.0514 0.0000
# 6 0.0000 0.0000 0.0000 0.0000 0.0000 29.0736
#
#
#
# Elastic Compliance Matrix: (Units=1/GPa)
#
#
# Indices 1 2 3 4 5 6 
#
# 1 0.019314 -0.003951 -0.008163 0.000000 0.000000 0.000000
# 2 -0.003951 0.010738 -0.003502 0.000000 0.000000 0.000000
# 3 -0.008163 -0.003502 0.015734 0.000000 0.000000 0.000000
# 4 0.000000 0.000000 0.000000 0.636139 0.000000 0.000000
# 5 0.000000 0.000000 0.000000 0.000000 0.041578 0.000000
# 6 0.000000 0.000000 0.000000 0.000000 0.000000 0.034395
#
#
# Mechanical properties :
#
#
# Convention : Reuss Voigt Hill
#
# Bulk Modulus (GPa) = 68.71373 70.68521 69.69947
# Shear Modulus (GPa) = 6.29738 21.58103 13.93920
#
# Velocity S-wave (km/s) = 1.87512 3.47124 2.78977
# Velocity P-wave (km/s) = 6.56153 7.45200 7.02090
#
# Compressibility (1/GPa) = 0.01455313
#
# Stress axis : x y z
#
# Youngs Moduli (GPa) = 51.77650 93.12502 63.55791
#
# Poissons Ratio (x) = 0.36793 0.51882
# Poissons Ratio (y) = 0.20457 0.22261
# Poissons Ratio (z) = 0.42265 0.32617
#
# Static dielectric constant tensor:
#      x y z
#    x 1.623420 0.000000 0.000000 
#    y 0.000000 1.570720 0.000000 
#    z 0.000000 0.000000 1.600760 
# 
# From -- ./inp_files/25611.got.cif
#   From: 2010.05.17/outbox.cif.g08.bks.cpg/sg59_13_cif.got.tgz:25611.got - 2010.06.03 14:40:33.
