data_PCOD9450685
_publ_section_title
;
Structure prediction by ZEFSAII (Michael W. Deem and Ramdas Pophale) SiO2 
 PCOD9450685
Probable space group: P M M N
;
_chemical_formula_sum "Si O2"
_cell_formula_units_Z 48
_cell_length_a 15.199862
_cell_length_b 7.554362
_cell_length_c 20.114292
_cell_angle_alpha 90.000000
_cell_angle_beta 90.000000
_cell_angle_gamma 90.000000
_cell_volume 2309.628807
_symmetry_space_group_name_H-M "P M M N"
_symmetry_group_IT_number 59
_space_group.IT_coordinate_system_code '2'
_symmetry_cell_setting 'orthorhombic'
loop_
_space_group_symop_operation_xyz
x,y,z
1/2-x,1/2-y,z
1/2+x,-y,-z
-x,1/2+y,-z
-x,-y,-z
1/2+x,1/2+y,-z
1/2-x,y,z
x,1/2-y,z
loop_
_atom_site_type_symbol
_atom_site_label
_atom_site_fract_x
_atom_site_fract_y
_atom_site_fract_z
Si Si1 0.502507 0.454640 0.824054
Si Si2 0.062441 0.962076 0.562703
Si Si3 0.351630 0.464118 0.069087
Si Si4 0.250000 0.534119 0.511357
Si Si5 0.250000 0.457003 0.355279
Si Si6 0.559852 0.544200 0.678841
Si Si7 0.648919 0.533835 0.080947
O O1 0.483842 0.250000 0.809509
O O2 0.583329 0.466402 0.875316
O O3 0.527515 0.538187 0.754158
O O4 0.418749 0.530092 0.863686
O O5 0.071420 0.750000 0.569358
O O6 0.160653 0.027562 0.547136
O O7 0.011998 0.032009 0.627810
O O8 0.000000 0.000000 0.500000
O O9 0.250000 0.515387 0.080333
O O10 0.355171 0.250000 0.071010
O O11 0.376399 0.520883 0.994088
O O12 0.250000 0.750000 0.509491
O O13 0.250000 0.471985 0.435000
O O14 0.250000 0.250000 0.334802
O O15 0.157722 0.534746 0.329243
O O16 0.569057 0.750000 0.658783
O O17 0.750000 0.481922 0.092644
O O18 0.646458 0.750000 0.080920
#
# Coordination Sequence:
#
# PCOD9450685 Si02
#       7
#     8   8   8   4   4   8   8
#     4  11  22  34  53  81 110 139 175 223 270 307
#     4  10  20  36  58  82 109 139 175 219 264 314
#     4   9  18  34  57  80 104 140 179 213 260 324
#     4  10  20  34  58  88 110 131 166 223 282 313
#     4  10  20  36  58  80 102 139 182 215 254 315
#     4  10  22  38  54  76 109 146 181 212 255 322
#     4   8  16  34  57  78 103 138 179 220 264 317
#
# _framework density 20.782561999999999
#
# number of rings (size 3 to 8) (size 9 to 14) (size 15 to 20)
#    0.000    2.333    1.667    2.000    1.167    1.667 
#    1.500    0.833    0.000    3.500    0.000    0.000 
#    0.000    0.000    0.000    0.000    0.000    0.000 
#
# Total GULP energy -267996.040436 kJ/mol
# GULP energy per Si atom -5583.250842 kJ/mol
# Density = 2.073526 g / cm^3
# Si number density = 20.782562 Si / 1000 Ang^3
#
#
#
# Elastic Constant Matrix: (Units=GPa)
#
#
# Indices 1 2 3 4 5 6 
#
# 1 151.6866 -9.7334 94.6386 0.0000 0.0000 0.0000
# 2 -9.7334 43.2473 -16.4380 0.0000 0.0000 0.0000
# 3 94.6386 -16.4380 141.6234 0.0000 0.0000 0.0000
# 4 0.0000 0.0000 0.0000 -2.6733 0.0000 0.0000
# 5 0.0000 0.0000 0.0000 0.0000 -22.4440 0.0000
# 6 0.0000 0.0000 0.0000 0.0000 0.0000 4.5499
#
#
#
# Elastic Compliance Matrix: (Units=1/GPa)
#
#
# Indices 1 2 3 4 5 6 
#
# 1 0.011311 -0.000342 -0.007598 0.000000 0.000000 0.000000
# 2 -0.000342 0.024200 0.003038 0.000000 0.000000 0.000000
# 3 -0.007598 0.003038 0.012491 0.000000 0.000000 0.000000
# 4 0.000000 0.000000 0.000000 -0.374065 0.000000 0.000000
# 5 0.000000 0.000000 0.000000 0.000000 -0.044555 0.000000
# 6 0.000000 0.000000 0.000000 0.000000 0.000000 0.219783
#
#
# Mechanical properties :
#
#
# Convention : Reuss Voigt Hill
#
# Bulk Modulus (GPa) = 26.18032 52.61018 39.39525
# Shear Modulus (GPa) = -38.97232 13.75920 -12.60656
#
# Velocity S-wave (km/s) = -4.33510 2.57583 -2.46558
# Velocity P-wave (km/s) = 3.52603 5.84945 3.30024
#
# Compressibility (1/GPa) = 0.03819663
#
# Stress axis : x y z
#
# Youngs Moduli (GPa) = 88.40740 41.32169 80.05696
#
# Poissons Ratio (x) = 0.01415 0.60830
# Poissons Ratio (y) = 0.03026 -0.24319
# Poissons Ratio (z) = 0.67175 -0.12552
#
# Static dielectric constant tensor:
#      x y z
#    x 1.753740 0.000000 0.000000 
#    y 0.000000 1.782110 0.000000 
#    z 0.000000 0.000000 1.692020 
# 
# From -- ./inp_files/25569.got.cif
#   From: 2010.05.17/outbox.cif.g08.bks.cpg/sg59_13_cif.got.tgz:25569.got - 2010.06.03 14:40:33.
