data_PCOD9450404
_publ_section_title
;
Structure prediction by ZEFSAII (Michael W. Deem and Ramdas Pophale) SiO2 
 PCOD9450404
Probable space group: P M M N
;
_chemical_formula_sum "Si O2"
_cell_formula_units_Z 56
_cell_length_a 14.620066
_cell_length_b 8.669681
_cell_length_c 23.480448
_cell_angle_alpha 90.000000
_cell_angle_beta 90.000000
_cell_angle_gamma 90.000000
_cell_volume 2976.177506
_symmetry_space_group_name_H-M "P M M N"
_symmetry_group_IT_number 59
_space_group.IT_coordinate_system_code '2'
_symmetry_cell_setting 'orthorhombic'
loop_
_space_group_symop_operation_xyz
x,y,z
1/2-x,1/2-y,z
1/2+x,-y,-z
-x,1/2+y,-z
-x,-y,-z
1/2+x,1/2+y,-z
1/2-x,y,z
x,1/2-y,z
loop_
_atom_site_type_symbol
_atom_site_label
_atom_site_fract_x
_atom_site_fract_y
_atom_site_fract_z
Si Si1 0.858086 0.931132 0.528056
Si Si2 0.854697 0.434039 0.403375
Si Si3 0.348988 0.063328 0.894659
Si Si4 0.046868 0.435330 0.139209
Si Si5 0.597945 0.564558 0.982378
Si Si6 0.355948 0.936439 0.250834
Si Si7 0.463989 0.934456 0.364146
O O1 0.750000 0.949272 0.540921
O O2 0.877480 0.750000 0.520263
O O3 0.875314 0.016760 0.468509
O O4 0.916138 0.996850 0.579856
O O5 0.750000 0.482992 0.391288
O O6 0.859815 0.250000 0.398944
O O7 0.931371 0.510115 0.364226
O O8 0.250000 0.018881 0.869066
O O9 0.356740 0.250000 0.891243
O O10 0.442151 0.993054 0.869288
O O11 0.345317 0.019694 0.961941
O O12 0.045701 0.250000 0.140949
O O13 0.106943 0.485020 0.083377
O O14 0.092182 0.500522 0.195786
O O15 0.599514 0.750000 0.981166
O O16 0.500000 0.500000 0.000000
O O17 0.250000 0.986366 0.251914
O O18 0.357298 0.750000 0.249030
O O19 0.408524 0.984713 0.308224
O O20 0.460898 0.750000 0.367567
#
# Coordination Sequence:
#
# PCOD9450404 Si02
#       7
#     8   8   8   8   8   8   8
#     4  10  20  34  55  84 116 148 182 220 264 317
#     4  10  21  37  57  82 113 146 179 218 266 320
#     4   9  17  31  53  79 109 146 183 218 261 318
#     4  10  20  34  54  80 110 142 177 223 274 319
#     4   8  15  28  47  73 104 137 173 214 261 311
#     4  10  23  42  60  78 103 139 182 223 265 319
#     4  11  22  37  58  81 108 142 181 226 271 316
#
# _framework density 18.816082000000002
#
# number of rings (size 3 to 8) (size 9 to 14) (size 15 to 20)
#    0.000    2.286    0.000    2.571    0.000    5.143 
#    0.000    2.143    0.000    0.857    0.000    0.000 
#    0.000    0.000    0.000    0.000    0.000    0.000 
#
# Total GULP energy -312252.401634 kJ/mol
# GULP energy per Si atom -5575.935743 kJ/mol
# Density = 1.877326 g / cm^3
# Si number density = 18.816082 Si / 1000 Ang^3
#
#
#
# Elastic Constant Matrix: (Units=GPa)
#
#
# Indices 1 2 3 4 5 6 
#
# 1 131.4033 26.2736 76.0771 0.0000 0.0000 0.0000
# 2 26.2736 19.9946 12.2969 0.0000 0.0000 0.0000
# 3 76.0771 12.2969 71.6165 0.0000 0.0000 0.0000
# 4 0.0000 0.0000 0.0000 26.8076 0.0000 0.0000
# 5 0.0000 0.0000 0.0000 0.0000 25.1900 0.0000
# 6 0.0000 0.0000 0.0000 0.0000 0.0000 24.1471
#
#
#
# Elastic Compliance Matrix: (Units=1/GPa)
#
#
# Indices 1 2 3 4 5 6 
#
# 1 0.024493 -0.018093 -0.022911 0.000000 0.000000 0.000000
# 2 -0.018093 0.069285 0.007324 0.000000 0.000000 0.000000
# 3 -0.022911 0.007324 0.037044 0.000000 0.000000 0.000000
# 4 0.000000 0.000000 0.000000 0.037303 0.000000 0.000000
# 5 0.000000 0.000000 0.000000 0.000000 0.039698 0.000000
# 6 0.000000 0.000000 0.000000 0.000000 0.000000 0.041413
#
#
# Mechanical properties :
#
#
# Convention : Reuss Voigt Hill
#
# Bulk Modulus (GPa) = 15.75808 50.25661 33.00734
# Shear Modulus (GPa) = 14.80382 22.45339 18.62861
#
# Velocity S-wave (km/s) = 2.80797 3.45818 3.14990
# Velocity P-wave (km/s) = 4.34810 6.53550 5.55061
#
# Compressibility (1/GPa) = 0.06345951
#
# Stress axis : x y z
#
# Youngs Moduli (GPa) = 40.82859 14.43322 26.99477
#
# Poissons Ratio (x) = 0.26115 0.61849
# Poissons Ratio (y) = 0.73873 -0.19771
# Poissons Ratio (z) = 0.93544 -0.10571
#
# Static dielectric constant tensor:
#      x y z
#    x 1.677620 0.000000 0.000000 
#    y 0.000000 1.634630 0.000000 
#    z 0.000000 0.000000 1.641930 
# 
# From -- ./inp_files/30317.got.cif
#   From: 2010.05.17/outbox.cif.g08.bks.cpg/sg59_16_cif.got.tgz:30317.got - 2010.06.03 14:40:33.
