data_PCOD9450793
_publ_section_title
;
Structure prediction by ZEFSAII (Michael W. Deem and Ramdas Pophale) SiO2 
 PCOD9450793
Probable space group: P M M N
;
_chemical_formula_sum "Si O2"
_cell_formula_units_Z 48
_cell_length_a 15.578445
_cell_length_b 9.022590
_cell_length_c 17.786556
_cell_angle_alpha 90.000000
_cell_angle_beta 90.000000
_cell_angle_gamma 90.000000
_cell_volume 2500.041352
_symmetry_space_group_name_H-M "P M M N"
_symmetry_group_IT_number 59
_space_group.IT_coordinate_system_code '2'
_symmetry_cell_setting 'orthorhombic'
loop_
_space_group_symop_operation_xyz
x,y,z
1/2-x,1/2-y,z
1/2+x,-y,-z
-x,1/2+y,-z
-x,-y,-z
1/2+x,1/2+y,-z
1/2-x,y,z
x,1/2-y,z
loop_
_atom_site_type_symbol
_atom_site_label
_atom_site_fract_x
_atom_site_fract_y
_atom_site_fract_z
Si Si1 0.587253 0.582757 0.350283
Si Si2 0.250000 0.069821 0.073338
Si Si3 0.617911 0.081518 0.661565
Si Si4 0.098597 0.572300 0.803534
Si Si5 0.250000 0.428870 0.898959
Si Si6 0.102171 0.072020 0.185653
Si Si7 0.650372 0.080190 0.495104
O O1 0.621765 0.750000 0.344126
O O2 0.484989 0.588110 0.341243
O O3 0.618828 0.481827 0.281391
O O4 0.605295 0.515206 0.431688
O O5 0.250000 0.250000 0.074443
O O6 0.164660 0.021877 0.118560
O O7 0.250000 0.025902 0.986548
O O8 0.650831 0.250000 0.667803
O O9 0.644700 0.021058 0.580220
O O10 0.638545 0.989900 0.735730
O O11 0.105981 0.750000 0.808120
O O12 0.165860 0.494044 0.858352
O O13 0.998824 0.530418 0.821371
O O14 0.250000 0.250000 0.893730
O O15 0.104044 0.250000 0.188676
O O16 0.750000 0.086271 0.474341
O O17 0.616171 0.250000 0.496357
#
# Coordination Sequence:
#
# PCOD9450793 Si02
#       7
#     8   4   8   8   4   8   8
#     4  10  20  35  55  78 106 142 188 235 277 326
#     4   9  20  39  61  88 119 148 181 227 284 339
#     4   9  19  35  54  78 108 144 185 231 280 328
#     4  10  21  38  60  85 115 150 189 232 282 338
#     4  11  23  39  61  86 115 150 185 229 284 339
#     4   9  19  37  61  86 114 151 189 229 280 339
#     4  10  21  34  49  74 110 148 184 227 279 326
#
# _framework density 19.199681000000002
#
# number of rings (size 3 to 8) (size 9 to 14) (size 15 to 20)
#    0.000    2.333    0.000    1.750    2.333    3.000 
#    0.000    1.667    0.000    0.000    0.000    0.000 
#    0.000    0.000    0.000    0.000    0.000    0.000 
#
# Total GULP energy -267799.734224 kJ/mol
# GULP energy per Si atom -5579.161130 kJ/mol
# Density = 1.915598 g / cm^3
# Si number density = 19.199681 Si / 1000 Ang^3
#
#
#
# Elastic Constant Matrix: (Units=GPa)
#
#
# Indices 1 2 3 4 5 6 
#
# 1 83.3591 37.9629 66.9443 0.0000 0.0000 0.0000
# 2 37.9629 55.1378 45.0590 0.0000 0.0000 0.0000
# 3 66.9443 45.0590 146.8811 0.0000 0.0000 0.0000
# 4 0.0000 0.0000 0.0000 29.9244 0.0000 0.0000
# 5 0.0000 0.0000 0.0000 0.0000 35.7262 0.0000
# 6 0.0000 0.0000 0.0000 0.0000 0.0000 13.9087
#
#
#
# Elastic Compliance Matrix: (Units=1/GPa)
#
#
# Indices 1 2 3 4 5 6 
#
# 1 0.021979 -0.009271 -0.007174 0.000000 0.000000 0.000000
# 2 -0.009271 0.028115 -0.004399 0.000000 0.000000 0.000000
# 3 -0.007174 -0.004399 0.011427 0.000000 0.000000 0.000000
# 4 0.000000 0.000000 0.000000 0.033418 0.000000 0.000000
# 5 0.000000 0.000000 0.000000 0.000000 0.027991 0.000000
# 6 0.000000 0.000000 0.000000 0.000000 0.000000 0.071898
#
#
# Mechanical properties :
#
#
# Convention : Reuss Voigt Hill
#
# Bulk Modulus (GPa) = 50.41880 65.03448 57.72664
# Shear Modulus (GPa) = 20.56551 24.93932 22.75242
#
# Velocity S-wave (km/s) = 3.27638 3.60800 3.44618
# Velocity P-wave (km/s) = 6.37417 7.16262 6.77987
#
# Compressibility (1/GPa) = 0.01983387
#
# Stress axis : x y z
#
# Youngs Moduli (GPa) = 45.49754 35.56878 87.50929
#
# Poissons Ratio (x) = 0.32974 0.62775
# Poissons Ratio (y) = 0.42179 0.38499
# Poissons Ratio (z) = 0.32638 0.15648
#
# Static dielectric constant tensor:
#      x y z
#    x 1.685660 0.000000 0.000000 
#    y 0.000000 1.670890 0.000000 
#    z 0.000000 0.000000 1.647580 
# 
# From -- ./inp_files/27442.got.cif
#   From: 2010.05.17/outbox.cif.g08.bks.cpg/sg59_14_cif.got.tgz:27442.got - 2010.06.03 14:40:33.
