data_PCOD9450298
_publ_section_title
;
Structure prediction by ZEFSAII (Michael W. Deem and Ramdas Pophale) SiO2 
 PCOD9450298
Probable space group: P M M N
;
_chemical_formula_sum "Si O2"
_cell_formula_units_Z 64
_cell_length_a 9.052249
_cell_length_b 18.976219
_cell_length_c 20.830151
_cell_angle_alpha 90.000000
_cell_angle_beta 90.000000
_cell_angle_gamma 90.000000
_cell_volume 3578.150419
_symmetry_space_group_name_H-M "P M M N"
_symmetry_group_IT_number 59
_space_group.IT_coordinate_system_code '2'
_symmetry_cell_setting 'orthorhombic'
loop_
_space_group_symop_operation_xyz
x,y,z
1/2-x,1/2-y,z
1/2+x,-y,-z
-x,1/2+y,-z
-x,-y,-z
1/2+x,1/2+y,-z
1/2-x,y,z
x,1/2-y,z
loop_
_atom_site_type_symbol
_atom_site_label
_atom_site_fract_x
_atom_site_fract_y
_atom_site_fract_z
Si Si1 0.426041 0.443415 0.823385
Si Si2 0.576311 0.334878 0.319812
Si Si3 0.080254 0.335822 0.451985
Si Si4 0.422873 0.834153 0.923830
Si Si5 0.426322 0.092776 0.198453
Si Si6 0.573122 0.831862 0.285984
Si Si7 0.426261 0.071442 0.973547
Si Si8 0.920261 0.164128 0.581893
O O1 0.250000 0.458619 0.817369
O O2 0.517335 0.512774 0.806255
O O3 0.462725 0.380694 0.774430
O O4 0.453008 0.423532 0.897470
O O5 0.750000 0.351369 0.315023
O O6 0.560333 0.250000 0.313794
O O7 0.512742 0.355999 0.389290
O O8 0.487328 0.372005 0.263206
O O9 0.250000 0.358651 0.446685
O O10 0.079939 0.250000 0.453399
O O11 0.007510 0.359792 0.518638
O O12 0.250000 0.854998 0.922939
O O13 0.431902 0.750000 0.922175
O O14 0.502899 0.866590 0.861965
O O15 0.500988 0.865632 0.986497
O O16 0.250000 0.096511 0.195770
O O17 0.750000 0.834067 0.295790
O O18 0.532331 0.750000 0.274552
O O19 0.495128 0.856959 0.351238
O O20 0.250000 0.069336 0.984357
O O21 0.500000 0.000000 0.000000
O O22 0.750000 0.142270 0.579039
O O23 0.923840 0.250000 0.581133
#
# Coordination Sequence:
#
# PCOD9450298 Si02
#       8
#     8   8   8   8   8   8   8   8
#     4  10  22  39  60  83 112 149 186 227 278 339
#     4  10  20  34  53  78 111 148 185 231 284 334
#     4   9  16  27  46  74 107 143 185 230 274 326
#     4  11  24  41  61  86 117 151 189 236 287 337
#     4  12  24  37  57  82 111 149 191 234 278 336
#     4   9  18  34  56  82 110 142 183 230 278 329
#     4  11  22  38  62  87 114 149 189 234 282 340
#     4   9  16  27  46  74 108 144 181 225 278 331
#
# _framework density 17.886337000000001
#
# number of rings (size 3 to 8) (size 9 to 14) (size 15 to 20)
#    0.000    1.875    1.250    3.375    0.000    7.750 
#    0.000    1.250    0.000    2.250    0.000    0.000 
#    0.000    0.000    0.000    0.000    0.000    0.000 
#
# Total GULP energy -357396.320715 kJ/mol
# GULP energy per Si atom -5584.317511 kJ/mol
# Density = 1.784563 g / cm^3
# Si number density = 17.886337 Si / 1000 Ang^3
#
#
#
# Elastic Constant Matrix: (Units=GPa)
#
#
# Indices 1 2 3 4 5 6 
#
# 1 132.3420 57.5536 100.1572 0.0000 0.0000 0.0000
# 2 57.5536 56.4218 57.6862 0.0000 0.0000 0.0000
# 3 100.1572 57.6862 170.8669 0.0000 0.0000 0.0000
# 4 0.0000 0.0000 0.0000 45.7657 0.0000 0.0000
# 5 0.0000 0.0000 0.0000 0.0000 32.9112 0.0000
# 6 0.0000 0.0000 0.0000 0.0000 0.0000 21.6312
#
#
#
# Elastic Compliance Matrix: (Units=1/GPa)
#
#
# Indices 1 2 3 4 5 6 
#
# 1 0.017129 -0.011006 -0.006325 0.000000 0.000000 0.000000
# 2 -0.011006 0.034138 -0.005074 0.000000 0.000000 0.000000
# 3 -0.006325 -0.005074 0.011273 0.000000 0.000000 0.000000
# 4 0.000000 0.000000 0.000000 0.021850 0.000000 0.000000
# 5 0.000000 0.000000 0.000000 0.000000 0.030385 0.000000
# 6 0.000000 0.000000 0.000000 0.000000 0.000000 0.046230
#
#
# Mechanical properties :
#
#
# Convention : Reuss Voigt Hill
#
# Bulk Modulus (GPa) = 56.39992 87.82495 72.11244
# Shear Modulus (GPa) = 23.61546 29.67721 26.64634
#
# Velocity S-wave (km/s) = 3.63755 4.07776 3.86393
# Velocity P-wave (km/s) = 7.01735 8.44862 7.76603
#
# Compressibility (1/GPa) = 0.01773052
#
# Stress axis : x y z
#
# Youngs Moduli (GPa) = 58.37911 29.29262 88.70797
#
# Poissons Ratio (x) = 0.32241 0.56107
# Poissons Ratio (y) = 0.64254 0.45009
# Poissons Ratio (z) = 0.36924 0.14862
#
# Static dielectric constant tensor:
#      x y z
#    x 1.600660 0.000000 0.000000 
#    y 0.000000 1.599060 0.000000 
#    z 0.000000 0.000000 1.590530 
# 
# From -- ./inp_files/29567.got.cif
#   From: 2010.05.17/outbox.cif.g08.bks.cpg/sg59_15_cif.got.tgz:29567.got - 2010.06.03 14:40:33.
