data_PCOD9450322
_publ_section_title
;
Structure prediction by ZEFSAII (Michael W. Deem and Ramdas Pophale) SiO2 
 PCOD9450322
Probable space group: P M M N
;
_chemical_formula_sum "Si O2"
_cell_formula_units_Z 64
_cell_length_a 15.249267
_cell_length_b 14.805150
_cell_length_c 13.033566
_cell_angle_alpha 90.000000
_cell_angle_beta 90.000000
_cell_angle_gamma 90.000000
_cell_volume 2942.558027
_symmetry_space_group_name_H-M "P M M N"
_symmetry_group_IT_number 59
_space_group.IT_coordinate_system_code '2'
_symmetry_cell_setting 'orthorhombic'
loop_
_space_group_symop_operation_xyz
x,y,z
1/2-x,1/2-y,z
1/2+x,-y,-z
-x,1/2+y,-z
-x,-y,-z
1/2+x,1/2+y,-z
1/2-x,y,z
x,1/2-y,z
loop_
_atom_site_type_symbol
_atom_site_label
_atom_site_fract_x
_atom_site_fract_y
_atom_site_fract_z
Si Si1 0.857415 0.645526 0.520090
Si Si2 0.942827 0.409980 0.024315
Si Si3 0.148902 0.350574 0.857934
Si Si4 0.642357 0.526611 0.324369
Si Si5 0.351954 0.469342 0.288547
Si Si6 0.145598 0.646769 0.777872
Si Si7 0.120762 0.149261 0.089011
Si Si8 0.643541 0.147129 0.810584
O O1 0.750000 0.648900 0.520978
O O2 0.886337 0.750000 0.512590
O O3 0.883421 0.582893 0.424235
O O4 0.888610 0.595441 0.623502
O O5 0.870947 0.404432 0.113656
O O6 0.017143 0.347761 0.074419
O O7 0.901935 0.374205 0.919298
O O8 0.000000 0.500000 0.000000
O O9 0.250000 0.341274 0.826751
O O10 0.108409 0.250000 0.856711
O O11 0.109741 0.417637 0.775360
O O12 0.150994 0.381118 0.975890
O O13 0.750000 0.523779 0.324711
O O14 0.611758 0.423616 0.308066
O O15 0.250000 0.481704 0.316032
O O16 0.356320 0.417907 0.179703
O O17 0.387284 0.569774 0.268510
O O18 0.250000 0.653130 0.765880
O O19 0.112247 0.750000 0.774262
O O20 0.154212 0.250000 0.109378
O O21 0.750000 0.138794 0.822867
O O22 0.624866 0.250000 0.779878
#
# Coordination Sequence:
#
# PCOD9450322 Si02
#       8
#     8   8   8   8   8   8   8   8
#     4   9  17  31  53  81 113 148 186 233 286 342
#     4  12  22  36  54  81 113 149 188 237 287 335
#     4   9  17  29  46  73 111 148 181 224 280 341
#     4   9  17  30  51  77 104 139 188 238 286 333
#     4  10  20  34  53  80 114 151 192 228 274 341
#     4  10  21  37  57  82 114 153 195 238 286 342
#     4  11  21  32  49  78 113 147 182 224 284 342
#     4  10  21  38  58  79 110 154 198 235 275 333
#
# _framework density 21.749783999999998
#
# number of rings (size 3 to 8) (size 9 to 14) (size 15 to 20)
#    0.000    2.000    1.250    3.375    0.000    3.750 
#    0.000    0.625    0.000    4.500    0.000    0.000 
#    0.000    0.000    0.000    0.000    0.000    0.000 
#
# Total GULP energy -356948.936712 kJ/mol
# GULP energy per Si atom -5577.327136 kJ/mol
# Density = 2.170028 g / cm^3
# Si number density = 21.749784 Si / 1000 Ang^3
#
#
#
# Elastic Constant Matrix: (Units=GPa)
#
#
# Indices 1 2 3 4 5 6 
#
# 1 26.3416 16.4010 -1.3377 0.0000 0.0000 0.0000
# 2 16.4010 217.8232 100.1649 0.0000 0.0000 0.0000
# 3 -1.3377 100.1649 110.9953 0.0000 0.0000 0.0000
# 4 0.0000 0.0000 0.0000 26.0087 0.0000 0.0000
# 5 0.0000 0.0000 0.0000 0.0000 -38.6167 0.0000
# 6 0.0000 0.0000 0.0000 0.0000 0.0000 13.5207
#
#
#
# Elastic Compliance Matrix: (Units=1/GPa)
#
#
# Indices 1 2 3 4 5 6 
#
# 1 0.041854 -0.005783 0.005723 0.000000 0.000000 0.000000
# 2 -0.005783 0.008646 -0.007872 0.000000 0.000000 0.000000
# 3 0.005723 -0.007872 0.016183 0.000000 0.000000 0.000000
# 4 0.000000 0.000000 0.000000 0.038449 0.000000 0.000000
# 5 0.000000 0.000000 0.000000 0.000000 -0.025896 0.000000
# 6 0.000000 0.000000 0.000000 0.000000 0.000000 0.073961
#
#
# Mechanical properties :
#
#
# Convention : Reuss Voigt Hill
#
# Bulk Modulus (GPa) = 19.67783 65.06850 42.37317
# Shear Modulus (GPa) = 26.88153 16.17799 21.52976
#
# Velocity S-wave (km/s) = 3.51941 2.73027 3.14966
# Velocity P-wave (km/s) = 5.05787 6.31830 5.72289
#
# Compressibility (1/GPa) = 0.05081862
#
# Stress axis : x y z
#
# Youngs Moduli (GPa) = 23.89245 115.65460 61.79456
#
# Poissons Ratio (x) = 0.66886 -0.35367
# Poissons Ratio (y) = 0.13818 0.48647
# Poissons Ratio (z) = -0.13675 0.91049
#
# Static dielectric constant tensor:
#      x y z
#    x 1.776670 0.000000 0.000000 
#    y 0.000000 1.839420 0.000000 
#    z 0.000000 0.000000 1.760480 
# 
# From -- ./inp_files/17876.got.cif
#   From: 2010.05.17/outbox.cif.g08.bks.cpg/sg59_9_cif.got.tgz:17876.got - 2010.06.03 14:40:33.
