data_PCOD9450393
_publ_section_title
;
Structure prediction by ZEFSAII (Michael W. Deem and Ramdas Pophale) SiO2 
 PCOD9450393
Probable space group: P M M N
;
_chemical_formula_sum "Si O2"
_cell_formula_units_Z 48
_cell_length_a 8.187911
_cell_length_b 9.363926
_cell_length_c 32.364986
_cell_angle_alpha 90.000000
_cell_angle_beta 90.000000
_cell_angle_gamma 90.000000
_cell_volume 2481.455605
_symmetry_space_group_name_H-M "P M M N"
_symmetry_group_IT_number 59
_space_group.IT_coordinate_system_code '2'
_symmetry_cell_setting 'orthorhombic'
loop_
_space_group_symop_operation_xyz
x,y,z
1/2-x,1/2-y,z
1/2+x,-y,-z
-x,1/2+y,-z
-x,-y,-z
1/2+x,1/2+y,-z
1/2-x,y,z
x,1/2-y,z
loop_
_atom_site_type_symbol
_atom_site_label
_atom_site_fract_x
_atom_site_fract_y
_atom_site_fract_z
Si Si1 0.947400 0.913307 0.620767
Si Si2 0.949981 0.084051 0.701391
Si Si3 0.059324 0.923207 0.208300
Si Si4 0.552281 0.086981 0.040217
Si Si5 0.054803 0.412933 0.880565
Si Si6 0.945413 0.913435 0.459706
O O1 0.750000 0.910502 0.622017
O O2 0.005359 0.750000 0.617397
O O3 0.003869 0.988595 0.663052
O O4 0.997495 0.005545 0.581318
O O5 0.750000 0.083032 0.702484
O O6 0.998122 0.250000 0.695566
O O7 0.005579 0.031301 0.746735
O O8 0.250000 0.960357 0.206182
O O9 0.046643 0.750000 0.209262
O O10 0.980519 0.970105 0.165398
O O11 0.750000 0.088999 0.041426
O O12 0.494342 0.250000 0.038018
O O13 0.492792 0.009226 0.081937
O O14 0.500000 0.000000 0.000000
O O15 0.250000 0.404872 0.884699
O O16 0.989860 0.250000 0.883681
O O17 0.750000 0.908864 0.459587
O O18 0.007309 0.750000 0.460642
O O19 0.000000 0.000000 0.500000
#
# Coordination Sequence:
#
# PCOD9450393 Si02
#       6
#     8   8   8   8   8   8
#     4  10  20  34  54  80 108 139 175 213 255 303
#     4   8  14  27  48  72  99 133 171 210 251 293
#     4   8  14  26  46  71  97 128 168 208 244 289
#     4  10  21  36  53  73  98 129 165 206 252 302
#     4   9  17  30  48  70  97 128 161 201 250 299
#     4  11  24  40  58  81 107 136 172 212 255 305
#
# _framework density 19.343485000000001
#
# number of rings (size 3 to 8) (size 9 to 14) (size 15 to 20)
#    0.000    2.667    0.000    3.000    0.000    6.000 
#    0.000    3.333    0.000    4.000    0.000    0.000 
#    0.000    0.000    0.000    0.000    0.000    0.000 
#
# Total GULP energy -267707.802475 kJ/mol
# GULP energy per Si atom -5577.245885 kJ/mol
# Density = 1.929946 g / cm^3
# Si number density = 19.343485 Si / 1000 Ang^3
#
#
#
# Elastic Constant Matrix: (Units=GPa)
#
#
# Indices 1 2 3 4 5 6 
#
# 1 5.9392 12.8002 15.0436 0.0000 0.0000 0.0000
# 2 12.8002 139.4593 114.6914 0.0000 0.0000 0.0000
# 3 15.0436 114.6914 224.2143 0.0000 0.0000 0.0000
# 4 0.0000 0.0000 0.0000 34.7354 0.0000 0.0000
# 5 0.0000 0.0000 0.0000 0.0000 29.0349 0.0000
# 6 0.0000 0.0000 0.0000 0.0000 0.0000 16.3183
#
#
#
# Elastic Compliance Matrix: (Units=1/GPa)
#
#
# Indices 1 2 3 4 5 6 
#
# 1 0.217050 -0.013715 -0.007547 0.000000 0.000000 0.000000
# 2 -0.013715 0.013244 -0.005855 0.000000 0.000000 0.000000
# 3 -0.007547 -0.005855 0.007961 0.000000 0.000000 0.000000
# 4 0.000000 0.000000 0.000000 0.028789 0.000000 0.000000
# 5 0.000000 0.000000 0.000000 0.000000 0.034441 0.000000
# 6 0.000000 0.000000 0.000000 0.000000 0.000000 0.061281
#
#
# Mechanical properties :
#
#
# Convention : Reuss Voigt Hill
#
# Bulk Modulus (GPa) = 5.43415 72.74258 39.08836
# Shear Modulus (GPa) = 10.45281 31.15622 20.80451
#
# Velocity S-wave (km/s) = 2.32713 4.01769 3.28309
# Velocity P-wave (km/s) = 3.16798 7.69479 5.88412
#
# Compressibility (1/GPa) = 0.18402147
#
# Stress axis : x y z
#
# Youngs Moduli (GPa) = 4.60724 75.50525 125.61013
#
# Poissons Ratio (x) = 1.03554 0.94803
# Poissons Ratio (y) = 0.06319 0.73539
# Poissons Ratio (z) = 0.03477 0.44205
#
# Static dielectric constant tensor:
#      x y z
#    x 1.692410 0.000000 0.000000 
#    y 0.000000 1.669180 0.000000 
#    z 0.000000 0.000000 1.671180 
# 
# From -- ./inp_files/32895.got.cif
#   From: 2010.05.17/outbox.cif.g08.bks.cpg/sg59_17_cif.got.tgz:32895.got - 2010.06.03 14:40:33.
