data_PCOD9450259
_publ_section_title
;
Structure prediction by ZEFSAII (Michael W. Deem and Ramdas Pophale) SiO2 
 PCOD9450259
Probable space group: P M M N
;
_chemical_formula_sum "Si O2"
_cell_formula_units_Z 64
_cell_length_a 14.248184
_cell_length_b 8.897525
_cell_length_c 26.927203
_cell_angle_alpha 90.000000
_cell_angle_beta 90.000000
_cell_angle_gamma 90.000000
_cell_volume 3413.657744
_symmetry_space_group_name_H-M "P M M N"
_symmetry_group_IT_number 59
_space_group.IT_coordinate_system_code '2'
_symmetry_cell_setting 'orthorhombic'
loop_
_space_group_symop_operation_xyz
x,y,z
1/2-x,1/2-y,z
1/2+x,-y,-z
-x,1/2+y,-z
-x,-y,-z
1/2+x,1/2+y,-z
1/2-x,y,z
x,1/2-y,z
loop_
_atom_site_type_symbol
_atom_site_label
_atom_site_fract_x
_atom_site_fract_y
_atom_site_fract_z
Si Si1 0.859115 0.431859 0.728027
Si Si2 0.862626 0.074874 0.524940
Si Si3 0.642111 0.430567 0.123947
Si Si4 0.458770 0.071074 0.176978
Si Si5 0.364484 0.422040 0.980640
Si Si6 0.143740 0.430845 0.579408
Si Si7 0.136397 0.923594 0.082567
Si Si8 0.041628 0.566843 0.373123
O O1 0.750000 0.477945 0.729466
O O2 0.861192 0.250000 0.728958
O O3 0.914147 0.492545 0.775497
O O4 0.908083 0.483929 0.676954
O O5 0.750000 0.068226 0.529754
O O6 0.889485 0.250000 0.518445
O O7 0.906343 0.018742 0.576353
O O8 0.887493 0.985670 0.475142
O O9 0.750000 0.474354 0.134436
O O10 0.639926 0.250000 0.117495
O O11 0.567303 0.470216 0.166193
O O12 0.611289 0.504766 0.072031
O O13 0.452162 0.250000 0.182594
O O14 0.403677 0.020267 0.127600
O O15 0.250000 0.422097 0.981780
O O16 0.396220 0.250000 0.983808
O O17 0.394829 0.514454 0.028970
O O18 0.250000 0.485590 0.588305
O O19 0.145692 0.250000 0.578747
O O20 0.066687 0.478108 0.619676
O O21 0.250000 0.930487 0.083983
O O22 0.108613 0.750000 0.088589
O O23 0.045967 0.750000 0.372581
#
# Coordination Sequence:
#
# PCOD9450259 Si02
#       8
#     8   8   8   8   8   8   8   8
#     4  10  21  38  58  77  99 130 169 212 257 306
#     4   9  16  27  46  72 100 131 168 207 246 292
#     4   9  19  37  57  75 100 135 171 205 247 305
#     4  11  23  37  55  78 102 131 168 213 263 306
#     4   9  17  30  51  80 110 137 168 210 255 296
#     4   9  17  29  46  71 104 137 166 201 248 298
#     4  10  20  34  53  77 107 143 177 207 247 305
#     4   9  17  31  51  72  96 131 173 210 246 296
#
# _framework density 18.748218999999999
#
# number of rings (size 3 to 8) (size 9 to 14) (size 15 to 20)
#    0.000    2.500    0.000    2.250    0.000    7.000 
#    0.000    1.875    0.000    2.250    0.000    0.000 
#    0.000    0.000    0.000    0.000    0.000    0.000 
#
# Total GULP energy -357221.327424 kJ/mol
# GULP energy per Si atom -5581.583241 kJ/mol
# Density = 1.870555 g / cm^3
# Si number density = 18.748219 Si / 1000 Ang^3
#
#
#
# Elastic Constant Matrix: (Units=GPa)
#
#
# Indices 1 2 3 4 5 6 
#
# 1 104.0949 27.2053 80.2532 0.0000 0.0000 0.0000
# 2 27.2053 18.1100 21.7200 0.0000 0.0000 0.0000
# 3 80.2532 21.7200 125.6631 0.0000 0.0000 0.0000
# 4 0.0000 0.0000 0.0000 27.7299 0.0000 0.0000
# 5 0.0000 0.0000 0.0000 0.0000 35.4034 0.0000
# 6 0.0000 0.0000 0.0000 0.0000 0.0000 17.9559
#
#
#
# Elastic Compliance Matrix: (Units=1/GPa)
#
#
# Indices 1 2 3 4 5 6 
#
# 1 0.024718 -0.022958 -0.011817 0.000000 0.000000 0.000000
# 2 -0.022958 0.090982 -0.001064 0.000000 0.000000 0.000000
# 3 -0.011817 -0.001064 0.015689 0.000000 0.000000 0.000000
# 4 0.000000 0.000000 0.000000 0.036062 0.000000 0.000000
# 5 0.000000 0.000000 0.000000 0.000000 0.028246 0.000000
# 6 0.000000 0.000000 0.000000 0.000000 0.000000 0.055692
#
#
# Mechanical properties :
#
#
# Convention : Reuss Voigt Hill
#
# Bulk Modulus (GPa) = 16.74769 56.24724 36.49746
# Shear Modulus (GPa) = 14.57854 24.13048 19.35451
#
# Velocity S-wave (km/s) = 2.79157 3.59148 3.21649
# Velocity P-wave (km/s) = 4.39804 6.87494 5.77095
#
# Compressibility (1/GPa) = 0.05970972
#
# Stress axis : x y z
#
# Youngs Moduli (GPa) = 40.45712 10.99119 63.74039
#
# Poissons Ratio (x) = 0.25234 0.75324
# Poissons Ratio (y) = 0.92882 0.06779
# Poissons Ratio (z) = 0.47810 0.01169
#
# Static dielectric constant tensor:
#      x y z
#    x 1.704770 0.000000 0.000000 
#    y 0.000000 1.634680 0.000000 
#    z 0.000000 0.000000 1.603280 
# 
# From -- ./inp_files/31545.got.cif
#   From: 2010.05.17/outbox.cif.g08.bks.cpg/sg59_16_cif.got.tgz:31545.got - 2010.06.03 14:40:33.
