data_PCOD9450639
_publ_section_title
;
Structure prediction by ZEFSAII (Michael W. Deem and Ramdas Pophale) SiO2 
 PCOD9450639
Probable space group: P M M N
;
_chemical_formula_sum "Si O2"
_cell_formula_units_Z 48
_cell_length_a 14.361628
_cell_length_b 19.510546
_cell_length_c 9.588233
_cell_angle_alpha 90.000000
_cell_angle_beta 90.000000
_cell_angle_gamma 90.000000
_cell_volume 2686.653605
_symmetry_space_group_name_H-M "P M M N"
_symmetry_group_IT_number 59
_space_group.IT_coordinate_system_code '2'
_symmetry_cell_setting 'orthorhombic'
loop_
_space_group_symop_operation_xyz
x,y,z
1/2-x,1/2-y,z
1/2+x,-y,-z
-x,1/2+y,-z
-x,-y,-z
1/2+x,1/2+y,-z
1/2-x,y,z
x,1/2-y,z
loop_
_atom_site_type_symbol
_atom_site_label
_atom_site_fract_x
_atom_site_fract_y
_atom_site_fract_z
Si Si1 0.250000 0.954547 0.530587
Si Si2 0.560764 0.671356 0.382795
Si Si3 0.546731 0.441588 0.096960
Si Si4 0.036319 0.933024 0.583819
Si Si5 0.250000 0.097127 0.694907
Si Si6 0.077060 0.830097 0.120082
Si Si7 0.750000 0.426105 0.793668
Si Si8 0.250000 0.999419 0.935496
O O1 0.148832 0.924382 0.573580
O O2 0.250000 0.951368 0.363581
O O3 0.250000 0.029272 0.599602
O O4 0.572113 0.750000 0.422238
O O5 0.512407 0.629765 0.506590
O O6 0.658363 0.638490 0.341614
O O7 0.496771 0.667383 0.245059
O O8 0.509139 0.440645 0.254049
O O9 0.655843 0.461128 0.109768
O O10 0.500000 0.500000 0.000000
O O11 0.539434 0.369310 0.016810
O O12 0.000000 0.000000 0.500000
O O13 0.250000 0.071247 0.855348
O O14 0.101525 0.750000 0.095474
O O15 0.162473 0.877413 0.171508
O O16 0.750000 0.491085 0.897926
#
# Coordination Sequence:
#
# PCOD9450639 Si02
#       8
#     4   8   8   8   4   8   4   4
#     4  12  22  36  63  92 118 155 194 254 309 355
#     4  11  24  40  60  86 121 166 206 249 304 365
#     4  11  22  36  59  88 118 155 198 254 300 352
#     4  12  22  39  61  90 125 155 205 257 303 362
#     4  12  21  40  60  86 119 156 207 252 300 363
#     4  10  21  38  58  83 119 161 198 240 301 364
#     4  10  21  34  59  91 121 147 195 244 311 361
#     4  10  20  34  56  85 116 146 192 246 298 355
#
# _framework density 17.866092999999999
#
# number of rings (size 3 to 8) (size 9 to 14) (size 15 to 20)
#    0.000    1.000    5.000    2.500    2.333    0.667 
#    0.000    0.417    0.000    2.000    0.000    3.500 
#    0.000    0.000    0.000    0.000    0.000    0.000 
#
# Total GULP energy -267903.398871 kJ/mol
# GULP energy per Si atom -5581.320810 kJ/mol
# Density = 1.782543 g / cm^3
# Si number density = 17.866093 Si / 1000 Ang^3
#
#
#
# Elastic Constant Matrix: (Units=GPa)
#
#
# Indices 1 2 3 4 5 6 
#
# 1 100.7049 51.2515 31.8811 0.0000 0.0000 0.0000
# 2 51.2515 119.4427 61.6339 0.0000 0.0000 0.0000
# 3 31.8811 61.6339 157.9256 0.0000 0.0000 0.0000
# 4 0.0000 0.0000 0.0000 32.2102 0.0000 0.0000
# 5 0.0000 0.0000 0.0000 0.0000 19.6985 0.0000
# 6 0.0000 0.0000 0.0000 0.0000 0.0000 57.7720
#
#
#
# Elastic Compliance Matrix: (Units=1/GPa)
#
#
# Indices 1 2 3 4 5 6 
#
# 1 0.012742 -0.005184 -0.000549 0.000000 0.000000 0.000000
# 2 -0.005184 0.012593 -0.003868 0.000000 0.000000 0.000000
# 3 -0.000549 -0.003868 0.007953 0.000000 0.000000 0.000000
# 4 0.000000 0.000000 0.000000 0.031046 0.000000 0.000000
# 5 0.000000 0.000000 0.000000 0.000000 0.050765 0.000000
# 6 0.000000 0.000000 0.000000 0.000000 0.000000 0.017309
#
#
# Mechanical properties :
#
#
# Convention : Reuss Voigt Hill
#
# Bulk Modulus (GPa) = 70.99849 74.17847 72.58848
# Shear Modulus (GPa) = 31.98864 37.48993 34.73928
#
# Velocity S-wave (km/s) = 4.23598 4.58578 4.41435
# Velocity P-wave (km/s) = 7.98437 8.34557 8.16697
#
# Compressibility (1/GPa) = 0.01408481
#
# Stress axis : x y z
#
# Youngs Moduli (GPa) = 78.47932 79.41155 125.74657
#
# Poissons Ratio (x) = 0.41169 0.06904
# Poissons Ratio (y) = 0.40685 0.48639
# Poissons Ratio (z) = 0.04309 0.30716
#
# Static dielectric constant tensor:
#      x y z
#    x 1.612790 0.000000 0.000000 
#    y 0.000000 1.590040 0.000000 
#    z 0.000000 0.000000 1.613540 
# 
# From -- ./inp_files/9091.got.cif
#   From: 2010.05.17/outbox.cif.g08.bks.cpg/sg59_5_cif.got.tgz:9091.got - 2010.06.03 14:40:33.
