data_PCOD9450488
_publ_section_title
;
Structure prediction by ZEFSAII (Michael W. Deem and Ramdas Pophale) SiO2 
 PCOD9450488
Probable space group: P M M N
;
_chemical_formula_sum "Si O2"
_cell_formula_units_Z 48
_cell_length_a 8.683860
_cell_length_b 19.221487
_cell_length_c 13.722007
_cell_angle_alpha 90.000000
_cell_angle_beta 90.000000
_cell_angle_gamma 90.000000
_cell_volume 2290.432155
_symmetry_space_group_name_H-M "P M M N"
_symmetry_group_IT_number 59
_space_group.IT_coordinate_system_code '2'
_symmetry_cell_setting 'orthorhombic'
loop_
_space_group_symop_operation_xyz
x,y,z
1/2-x,1/2-y,z
1/2+x,-y,-z
-x,1/2+y,-z
-x,-y,-z
1/2+x,1/2+y,-z
1/2-x,y,z
x,1/2-y,z
loop_
_atom_site_type_symbol
_atom_site_label
_atom_site_fract_x
_atom_site_fract_y
_atom_site_fract_z
Si Si1 0.068574 0.331906 0.487871
Si Si2 0.572903 0.333551 0.696966
Si Si3 0.065869 0.034622 0.197025
Si Si4 0.937565 0.828969 0.909191
Si Si5 0.065360 0.097699 0.889220
Si Si6 0.430767 0.963061 0.595191
O O1 0.250000 0.344903 0.473162
O O2 0.039159 0.250000 0.472537
O O3 0.021453 0.349299 0.598977
O O4 0.971084 0.381841 0.419314
O O5 0.750000 0.357917 0.686887
O O6 0.575064 0.250000 0.705392
O O7 0.496399 0.363941 0.793114
O O8 0.250000 0.032077 0.195604
O O9 0.015440 0.112775 0.169011
O O10 0.006475 0.013958 0.303656
O O11 0.001536 0.979816 0.119077
O O12 0.750000 0.826748 0.907519
O O13 0.992460 0.750000 0.894285
O O14 0.982134 0.859679 0.014794
O O15 0.250000 0.094612 0.887755
O O16 0.250000 0.975385 0.598747
O O17 0.500000 0.000000 0.500000
#
# Coordination Sequence:
#
# PCOD9450488 Si02
#       6
#     8   8   8   8   8   8
#     4  10  21  38  60  86 117 155 199 246 300 362
#     4  10  20  34  54  84 121 158 198 247 301 353
#     4  11  23  40  62  88 120 156 197 246 300 356
#     4   9  20  39  63  90 119 155 199 244 291 348
#     4  11  21  36  60  88 120 157 198 243 293 351
#     4  12  25  42  63  88 120 157 202 251 302 358
#
# _framework density 20.956744
#
# number of rings (size 3 to 8) (size 9 to 14) (size 15 to 20)
#    0.000    1.500    0.000    5.500    0.000    3.333 
#    0.000    4.167    0.000    5.500    0.000    0.000 
#    0.000    0.000    0.000    0.000    0.000    0.000 
#
# Total GULP energy -268484.654658 kJ/mol
# GULP energy per Si atom -5593.430305 kJ/mol
# Density = 2.090905 g / cm^3
# Si number density = 20.956744 Si / 1000 Ang^3
#
#
#
# Elastic Constant Matrix: (Units=GPa)
#
#
# Indices 1 2 3 4 5 6 
#
# 1 59.7340 9.6614 -6.1427 0.0000 0.0000 0.0000
# 2 9.6614 90.9973 11.6329 0.0000 0.0000 0.0000
# 3 -6.1427 11.6329 45.6534 0.0000 0.0000 0.0000
# 4 0.0000 0.0000 0.0000 28.9917 0.0000 0.0000
# 5 0.0000 0.0000 0.0000 0.0000 17.4126 0.0000
# 6 0.0000 0.0000 0.0000 0.0000 0.0000 33.1109
#
#
#
# Elastic Compliance Matrix: (Units=1/GPa)
#
#
# Indices 1 2 3 4 5 6 
#
# 1 0.017399 -0.002219 0.002906 0.000000 0.000000 0.000000
# 2 -0.002219 0.011642 -0.003265 0.000000 0.000000 0.000000
# 3 0.002906 -0.003265 0.023127 0.000000 0.000000 0.000000
# 4 0.000000 0.000000 0.000000 0.034493 0.000000 0.000000
# 5 0.000000 0.000000 0.000000 0.000000 0.057430 0.000000
# 6 0.000000 0.000000 0.000000 0.000000 0.000000 0.030202
#
#
# Mechanical properties :
#
#
# Convention : Reuss Voigt Hill
#
# Bulk Modulus (GPa) = 21.27070 25.18755 23.22912
# Shear Modulus (GPa) = 25.62552 27.98526 26.80539
#
# Velocity S-wave (km/s) = 3.50062 3.65825 3.58031
# Velocity P-wave (km/s) = 5.14888 5.46705 5.31035
#
# Compressibility (1/GPa) = 0.04701304
#
# Stress axis : x y z
#
# Youngs Moduli (GPa) = 57.47580 85.89359 43.23917
#
# Poissons Ratio (x) = 0.19058 -0.12567
# Poissons Ratio (y) = 0.12753 0.14118
# Poissons Ratio (z) = -0.16704 0.28045
#
# Static dielectric constant tensor:
#      x y z
#    x 1.736200 0.000000 0.000000 
#    y 0.000000 1.800290 0.000000 
#    z 0.000000 0.000000 1.720180 
# 
# From -- ./inp_files/20402.got.cif
#   From: 2010.05.17/outbox.cif.g08.bks.cpg/sg59_11_cif.got.tgz:20402.got - 2010.06.03 14:40:33.
