data_PCOD9450365
_publ_section_title
;
Structure prediction by ZEFSAII (Michael W. Deem and Ramdas Pophale) SiO2 
 PCOD9450365
Probable space group: P M M N
;
_chemical_formula_sum "Si O2"
_cell_formula_units_Z 64
_cell_length_a 18.518705
_cell_length_b 14.283474
_cell_length_c 13.110455
_cell_angle_alpha 90.000000
_cell_angle_beta 90.000000
_cell_angle_gamma 90.000000
_cell_volume 3467.865349
_symmetry_space_group_name_H-M "P M M N"
_symmetry_group_IT_number 59
_space_group.IT_coordinate_system_code '2'
_symmetry_cell_setting 'orthorhombic'
loop_
_space_group_symop_operation_xyz
x,y,z
1/2-x,1/2-y,z
1/2+x,-y,-z
-x,1/2+y,-z
-x,-y,-z
1/2+x,1/2+y,-z
1/2-x,y,z
x,1/2-y,z
loop_
_atom_site_type_symbol
_atom_site_label
_atom_site_fract_x
_atom_site_fract_y
_atom_site_fract_z
Si Si1 0.668431 0.031006 0.554213
Si Si2 0.031622 0.637038 0.362687
Si Si3 0.328947 0.905041 0.679838
Si Si4 0.572076 0.637584 0.554604
Si Si5 0.529500 0.861913 0.142747
Si Si6 0.983551 0.354641 0.251111
Si Si7 0.330800 0.480786 0.879190
Si Si8 0.924999 0.137283 0.042968
O O1 0.750000 0.042935 0.592415
O O2 0.608197 0.088514 0.616003
O O3 0.666055 0.066417 0.437437
O O4 0.644183 0.922920 0.551040
O O5 0.041265 0.750000 0.360831
O O6 0.978104 0.615400 0.457020
O O7 0.995271 0.607953 0.255900
O O8 0.250000 0.859643 0.695718
O O9 0.401135 0.850743 0.708990
O O10 0.330192 0.991336 0.759195
O O11 0.582102 0.750000 0.556204
O O12 0.530115 0.605090 0.657022
O O13 0.539322 0.750000 0.145578
O O14 0.604269 0.908378 0.108035
O O15 0.466262 0.881354 0.061558
O O16 0.012136 0.250000 0.236580
O O17 0.976356 0.395065 0.137847
O O18 0.250000 0.450244 0.907224
O O19 0.353855 0.575369 0.939467
O O20 0.912691 0.250000 0.052515
#
# Coordination Sequence:
#
# PCOD9450365 Si02
#       8
#     8   8   8   8   8   8   8   8
#     4  11  22  34  52  77 109 148 177 216 271 319
#     4  10  21  36  57  82 107 141 183 223 263 316
#     4   9  18  30  47  76 110 138 168 214 275 323
#     4  10  20  34  54  79 104 136 180 223 264 314
#     4  10  21  37  57  79 107 147 186 220 260 316
#     4   9  17  30  51  77 100 131 171 216 264 310
#     4  10  20  34  55  84 112 140 176 227 279 318
#     4   9  19  35  56  81 107 139 178 218 268 321
#
# _framework density 18.455157
#
# number of rings (size 3 to 8) (size 9 to 14) (size 15 to 20)
#    0.000    2.250    1.250    1.500    3.500    1.250 
#    0.000    4.375    0.000    6.750    0.000    3.500 
#    0.000    0.000    0.000    0.000    0.000    0.000 
#
# Total GULP energy -356715.099156 kJ/mol
# GULP energy per Si atom -5573.673424 kJ/mol
# Density = 1.841315 g / cm^3
# Si number density = 18.455157 Si / 1000 Ang^3
#
#
#
# Elastic Constant Matrix: (Units=GPa)
#
#
# Indices 1 2 3 4 5 6 
#
# 1 85.6371 26.5672 10.6289 0.0000 0.0000 0.0000
# 2 26.5672 47.3856 13.7279 0.0000 0.0000 0.0000
# 3 10.6289 13.7279 59.7386 0.0000 0.0000 0.0000
# 4 0.0000 0.0000 0.0000 12.7483 0.0000 0.0000
# 5 0.0000 0.0000 0.0000 0.0000 17.1743 0.0000
# 6 0.0000 0.0000 0.0000 0.0000 0.0000 14.8910
#
#
#
# Elastic Compliance Matrix: (Units=1/GPa)
#
#
# Indices 1 2 3 4 5 6 
#
# 1 0.014167 -0.007727 -0.000745 0.000000 0.000000 0.000000
# 2 -0.007727 0.026823 -0.004789 0.000000 0.000000 0.000000
# 3 -0.000745 -0.004789 0.017973 0.000000 0.000000 0.000000
# 4 0.000000 0.000000 0.000000 0.078442 0.000000 0.000000
# 5 0.000000 0.000000 0.000000 0.000000 0.058227 0.000000
# 6 0.000000 0.000000 0.000000 0.000000 0.000000 0.067155
#
#
# Mechanical properties :
#
#
# Convention : Reuss Voigt Hill
#
# Bulk Modulus (GPa) = 30.82567 32.73438 31.78002
# Shear Modulus (GPa) = 16.65995 18.41854 17.53924
#
# Velocity S-wave (km/s) = 3.00780 3.16257 3.08615
# Velocity P-wave (km/s) = 5.36673 5.57777 5.47327
#
# Compressibility (1/GPa) = 0.03244050
#
# Stress axis : x y z
#
# Youngs Moduli (GPa) = 70.58775 37.28131 55.63995
#
# Poissons Ratio (x) = 0.28807 0.04145
# Poissons Ratio (y) = 0.54543 0.26647
# Poissons Ratio (z) = 0.05258 0.17855
#
# Static dielectric constant tensor:
#      x y z
#    x 1.614890 0.000000 0.000000 
#    y 0.000000 1.668800 0.000000 
#    z 0.000000 0.000000 1.640080 
# 
# From -- ./inp_files/17229.got.cif
#   From: 2010.05.17/outbox.cif.g08.bks.cpg/sg59_9_cif.got.tgz:17229.got - 2010.06.03 14:40:33.
