data_PCOD9450029
_publ_section_title
;
Structure prediction by ZEFSAII (Michael W. Deem and Ramdas Pophale) SiO2 
 PCOD9450029
Probable space group: P M M N
;
_chemical_formula_sum "Si O2"
_cell_formula_units_Z 64
_cell_length_a 8.859206
_cell_length_b 28.282631
_cell_length_c 14.312243
_cell_angle_alpha 90.000000
_cell_angle_beta 90.000000
_cell_angle_gamma 90.000000
_cell_volume 3586.099282
_symmetry_space_group_name_H-M "P M M N"
_symmetry_group_IT_number 59
_space_group.IT_coordinate_system_code '2'
_symmetry_cell_setting 'orthorhombic'
loop_
_space_group_symop_operation_xyz
x,y,z
1/2-x,1/2-y,z
1/2+x,-y,-z
-x,1/2+y,-z
-x,-y,-z
1/2+x,1/2+y,-z
1/2-x,y,z
x,1/2-y,z
loop_
_atom_site_type_symbol
_atom_site_label
_atom_site_fract_x
_atom_site_fract_y
_atom_site_fract_z
Si Si1 0.431063 0.888716 0.317450
Si Si2 0.577650 0.192605 0.373346
Si Si3 0.432020 0.195706 0.177468
Si Si4 0.931368 0.605603 0.927184
Si Si5 0.931904 0.973309 0.780511
Si Si6 0.570035 0.694356 0.431527
Si Si7 0.429931 0.571460 0.119795
Si Si8 0.569226 0.984149 0.401475
O O1 0.250000 0.892795 0.326491
O O2 0.489089 0.839565 0.358248
O O3 0.470104 0.895622 0.208243
O O4 0.506896 0.932340 0.372725
O O5 0.750000 0.175785 0.379182
O O6 0.579814 0.250000 0.372973
O O7 0.500174 0.179218 0.276246
O O8 0.485091 0.179110 0.465246
O O9 0.250000 0.194916 0.185535
O O10 0.478229 0.250000 0.160128
O O11 0.477523 0.159040 0.097516
O O12 0.750000 0.603762 0.932452
O O13 0.975407 0.572579 0.839622
O O14 0.994854 0.586380 0.023795
O O15 0.750000 0.973383 0.765178
O O16 0.968408 0.018592 0.845747
O O17 0.012943 0.981423 0.681976
O O18 0.750000 0.689639 0.425014
O O19 0.531883 0.750000 0.419257
O O20 0.250000 0.573155 0.107550
O O21 0.750000 0.983525 0.405885
O O22 0.500000 0.000000 0.500000
#
# Coordination Sequence:
#
# PCOD9450029 Si02
#       8
#     8   8   8   8   8   8   8   8
#     4  10  21  38  57  78 107 143 180 221 270 318
#     4   9  17  30  49  72  99 134 173 214 260 306
#     4   9  18  33  50  71 103 139 173 212 259 310
#     4  10  20  33  54  79 102 133 173 217 263 314
#     4   9  19  36  54  77 107 136 172 218 265 314
#     4  10  20  34  54  81 110 142 182 224 265 315
#     4   9  19  35  54  75 102 133 167 216 272 320
#     4  11  22  37  57  81 111 146 179 215 264 322
#
# _framework density 17.846689999999999
#
# number of rings (size 3 to 8) (size 9 to 14) (size 15 to 20)
#    0.000    2.375    0.000    3.375    0.000    6.750 
#    0.000    4.375    0.000    2.250    0.000    0.000 
#    0.000    0.000    0.000    0.000    0.000    0.000 
#
# Total GULP energy -357098.167732 kJ/mol
# GULP energy per Si atom -5579.658871 kJ/mol
# Density = 1.780607 g / cm^3
# Si number density = 17.846690 Si / 1000 Ang^3
#
#
#
# Elastic Constant Matrix: (Units=GPa)
#
#
# Indices 1 2 3 4 5 6 
#
# 1 61.6548 39.7440 51.4053 0.0000 0.0000 0.0000
# 2 39.7440 75.6671 72.3517 0.0000 0.0000 0.0000
# 3 51.4053 72.3517 128.0444 0.0000 0.0000 0.0000
# 4 0.0000 0.0000 0.0000 22.8877 0.0000 0.0000
# 5 0.0000 0.0000 0.0000 0.0000 36.2440 0.0000
# 6 0.0000 0.0000 0.0000 0.0000 0.0000 22.9731
#
#
#
# Elastic Compliance Matrix: (Units=1/GPa)
#
#
# Indices 1 2 3 4 5 6 
#
# 1 0.026506 -0.008151 -0.006035 0.000000 0.000000 0.000000
# 2 -0.008151 0.031255 -0.014388 0.000000 0.000000 0.000000
# 3 -0.006035 -0.014388 0.018363 0.000000 0.000000 0.000000
# 4 0.000000 0.000000 0.000000 0.043692 0.000000 0.000000
# 5 0.000000 0.000000 0.000000 0.000000 0.027591 0.000000
# 6 0.000000 0.000000 0.000000 0.000000 0.000000 0.043529
#
#
# Mechanical properties :
#
#
# Convention : Reuss Voigt Hill
#
# Bulk Modulus (GPa) = 52.70347 65.81870 59.26109
# Shear Modulus (GPa) = 19.65336 23.21199 21.43268
#
# Velocity S-wave (km/s) = 3.32208 3.61034 3.46921
# Velocity P-wave (km/s) = 6.65660 7.37154 7.02317
#
# Compressibility (1/GPa) = 0.01897408
#
# Stress axis : x y z
#
# Youngs Moduli (GPa) = 37.72760 31.99484 54.45789
#
# Poissons Ratio (x) = 0.26080 0.32867
# Poissons Ratio (y) = 0.30753 0.78355
# Poissons Ratio (z) = 0.22769 0.46035
#
# Static dielectric constant tensor:
#      x y z
#    x 1.598730 0.000000 0.000000 
#    y 0.000000 1.622500 0.000000 
#    z 0.000000 0.000000 1.582690 
# 
# From -- ./inp_files/15085.got.cif
#   From: 2010.05.17/outbox.cif.g08.bks.cpg/sg59_8_cif.got.tgz:15085.got - 2010.06.03 14:40:33.
