data_PCOD9450475
_publ_section_title
;
Structure prediction by ZEFSAII (Michael W. Deem and Ramdas Pophale) SiO2 
 PCOD9450475
Probable space group: P M M N
;
_chemical_formula_sum "Si O2"
_cell_formula_units_Z 56
_cell_length_a 8.668639
_cell_length_b 14.707239
_cell_length_c 24.460111
_cell_angle_alpha 90.000000
_cell_angle_beta 90.000000
_cell_angle_gamma 90.000000
_cell_volume 3118.462248
_symmetry_space_group_name_H-M "P M M N"
_symmetry_group_IT_number 59
_space_group.IT_coordinate_system_code '2'
_symmetry_cell_setting 'orthorhombic'
loop_
_space_group_symop_operation_xyz
x,y,z
1/2-x,1/2-y,z
1/2+x,-y,-z
-x,1/2+y,-z
-x,-y,-z
1/2+x,1/2+y,-z
1/2-x,y,z
x,1/2-y,z
loop_
_atom_site_type_symbol
_atom_site_label
_atom_site_fract_x
_atom_site_fract_y
_atom_site_fract_z
Si Si1 0.931364 0.358896 0.935634
Si Si2 0.936253 0.145429 0.351302
Si Si3 0.566610 0.998103 0.145440
Si Si4 0.936459 0.145078 0.645974
Si Si5 0.938097 0.354311 0.057740
Si Si6 0.565631 0.505447 0.733519
Si Si7 0.934937 0.995024 0.439229
O O1 0.750000 0.383025 0.930705
O O2 0.942223 0.250000 0.931984
O O3 0.023980 0.408250 0.888374
O O4 0.987071 0.384154 0.996829
O O5 0.750000 0.145255 0.349003
O O6 0.988119 0.250000 0.354749
O O7 0.998683 0.092465 0.298432
O O8 0.982128 0.083445 0.403293
O O9 0.750000 0.005883 0.151692
O O10 0.511096 0.080019 0.106055
O O11 0.491611 0.000181 0.204755
O O12 0.750000 0.143784 0.642661
O O13 0.986013 0.250000 0.649664
O O14 0.002992 0.092453 0.593596
O O15 0.981913 0.083716 0.698322
O O16 0.750000 0.355040 0.056528
O O17 0.986024 0.250000 0.066412
O O18 0.750000 0.510116 0.732418
O O19 0.750000 0.992160 0.440739
O O20 0.000000 0.000000 0.500000
#
# Coordination Sequence:
#
# PCOD9450475 Si02
#       7
#     8   8   8   8   8   8   8
#     4   9  18  34  54  73  97 132 171 211 258 312
#     4   9  19  37  58  77 102 140 180 217 261 308
#     4  11  21  32  51  78 105 134 169 212 262 312
#     4   9  19  37  58  76  99 137 180 220 264 309
#     4   8  16  32  52  73  98 131 170 209 255 314
#     4  10  21  36  53  76 105 136 175 220 262 309
#     4  10  20  34  54  83 115 143 174 213 256 304
#
# _framework density 17.957568999999999
#
# number of rings (size 3 to 8) (size 9 to 14) (size 15 to 20)
#    0.000    2.571    0.000    2.571    0.000    3.714 
#    0.000    5.000    0.000    3.000    0.000    0.000 
#    0.000    0.000    0.000    0.000    0.000    0.000 
#
# Total GULP energy -312410.336560 kJ/mol
# GULP energy per Si atom -5578.756010 kJ/mol
# Density = 1.791670 g / cm^3
# Si number density = 17.957569 Si / 1000 Ang^3
#
#
#
# Elastic Constant Matrix: (Units=GPa)
#
#
# Indices 1 2 3 4 5 6 
#
# 1 13.2371 25.3667 25.9302 0.0000 0.0000 0.0000
# 2 25.3667 129.9805 73.3515 0.0000 0.0000 0.0000
# 3 25.9302 73.3515 165.7828 0.0000 0.0000 0.0000
# 4 0.0000 0.0000 0.0000 17.3905 0.0000 0.0000
# 5 0.0000 0.0000 0.0000 0.0000 28.7109 0.0000
# 6 0.0000 0.0000 0.0000 0.0000 0.0000 26.2120
#
#
#
# Elastic Compliance Matrix: (Units=1/GPa)
#
#
# Indices 1 2 3 4 5 6 
#
# 1 0.138850 -0.019781 -0.012965 0.000000 0.000000 0.000000
# 2 -0.019781 0.013072 -0.002690 0.000000 0.000000 0.000000
# 3 -0.012965 -0.002690 0.009250 0.000000 0.000000 0.000000
# 4 0.000000 0.000000 0.000000 0.057503 0.000000 0.000000
# 5 0.000000 0.000000 0.000000 0.000000 0.034830 0.000000
# 6 0.000000 0.000000 0.000000 0.000000 0.000000 0.038150
#
#
# Mechanical properties :
#
#
# Convention : Reuss Voigt Hill
#
# Bulk Modulus (GPa) = 11.07422 62.03303 36.55362
# Shear Modulus (GPa) = 12.73471 26.75280 19.74376
#
# Velocity S-wave (km/s) = 2.66589 3.86395 3.31942
# Velocity P-wave (km/s) = 3.95679 7.38418 5.92378
#
# Compressibility (1/GPa) = 0.09029981
#
# Stress axis : x y z
#
# Youngs Moduli (GPa) = 7.20199 76.50071 108.10815
#
# Poissons Ratio (x) = 1.51326 1.40167
# Poissons Ratio (y) = 0.14246 0.29078
# Poissons Ratio (z) = 0.09338 0.20576
#
# Static dielectric constant tensor:
#      x y z
#    x 1.616410 0.000000 0.000000 
#    y 0.000000 1.615980 0.000000 
#    z 0.000000 0.000000 1.586250 
# 
# From -- ./inp_files/29089.got.cif
#   From: 2010.05.17/outbox.cif.g08.bks.cpg/sg59_15_cif.got.tgz:29089.got - 2010.06.03 14:40:33.
