data_PCOD9450192
_publ_section_title
;
Structure prediction by ZEFSAII (Michael W. Deem and Ramdas Pophale) SiO2 
 PCOD9450192
Probable space group: P M M N
;
_chemical_formula_sum "Si O2"
_cell_formula_units_Z 56
_cell_length_a 18.832291
_cell_length_b 8.785122
_cell_length_c 19.650928
_cell_angle_alpha 90.000000
_cell_angle_beta 90.000000
_cell_angle_gamma 90.000000
_cell_volume 3251.127621
_symmetry_space_group_name_H-M "P M M N"
_symmetry_group_IT_number 59
_space_group.IT_coordinate_system_code '2'
_symmetry_cell_setting 'orthorhombic'
loop_
_space_group_symop_operation_xyz
x,y,z
1/2-x,1/2-y,z
1/2+x,-y,-z
-x,1/2+y,-z
-x,-y,-z
1/2+x,1/2+y,-z
1/2-x,y,z
x,1/2-y,z
loop_
_atom_site_type_symbol
_atom_site_label
_atom_site_fract_x
_atom_site_fract_y
_atom_site_fract_z
Si Si1 0.407130 0.566091 0.777544
Si Si2 0.974385 0.066941 0.428898
Si Si3 0.328937 0.565673 0.639292
Si Si4 0.663711 0.574152 0.941146
Si Si5 0.831442 0.433213 0.798514
Si Si6 0.332777 0.933224 0.916856
Si Si7 0.541466 0.067542 0.704696
O O1 0.416932 0.750000 0.776861
O O2 0.351548 0.530056 0.716894
O O3 0.377160 0.520125 0.850756
O O4 0.479782 0.485992 0.756199
O O5 0.975420 0.250000 0.430881
O O6 0.894060 0.016443 0.408669
O O7 0.023606 0.009412 0.367131
O O8 0.000000 0.000000 0.500000
O O9 0.250000 0.508103 0.623386
O O10 0.326922 0.750000 0.635020
O O11 0.750000 0.564126 0.941862
O O12 0.643198 0.750000 0.939693
O O13 0.641639 0.494108 0.871250
O O14 0.640061 0.498281 0.011586
O O15 0.750000 0.484927 0.788481
O O16 0.831015 0.250000 0.801830
O O17 0.883787 0.478526 0.737955
O O18 0.250000 0.978996 0.908044
O O19 0.334028 0.750000 0.920409
O O20 0.539670 0.250000 0.697113
#
# Coordination Sequence:
#
# PCOD9450192 Si02
#       7
#     8   8   8   8   8   8   8
#     4   9  17  29  47  71  99 130 162 198 240 286
#     4  10  20  35  56  78 103 134 162 193 235 284
#     4   8  14  27  49  75  98 124 163 202 231 268
#     4   9  17  28  44  68  96 125 159 204 256 298
#     4   9  18  34  54  72  91 121 164 208 245 287
#     4   9  16  27  45  68  95 130 170 206 239 283
#     4  10  20  34  53  75  98 124 156 196 242 292
#
# _framework density 17.224792000000001
#
# number of rings (size 3 to 8) (size 9 to 14) (size 15 to 20)
#    0.000    2.857    0.000    2.571    0.000    5.143 
#    0.000    1.429    0.000   18.429    0.000    0.000 
#    0.000    0.000    0.000    0.000    0.000    0.000 
#
# Total GULP energy -312066.775767 kJ/mol
# GULP energy per Si atom -5572.620996 kJ/mol
# Density = 1.718559 g / cm^3
# Si number density = 17.224792 Si / 1000 Ang^3
#
#
#
# Elastic Constant Matrix: (Units=GPa)
#
#
# Indices 1 2 3 4 5 6 
#
# 1 91.2469 27.4763 86.4018 0.0000 0.0000 0.0000
# 2 27.4763 27.2272 39.1002 0.0000 0.0000 0.0000
# 3 86.4018 39.1002 151.5914 0.0000 0.0000 0.0000
# 4 0.0000 0.0000 0.0000 27.3403 0.0000 0.0000
# 5 0.0000 0.0000 0.0000 0.0000 22.0050 0.0000
# 6 0.0000 0.0000 0.0000 0.0000 0.0000 19.5842
#
#
#
# Elastic Compliance Matrix: (Units=1/GPa)
#
#
# Indices 1 2 3 4 5 6 
#
# 1 0.024735 -0.007490 -0.012166 0.000000 0.000000 0.000000
# 2 -0.007490 0.060604 -0.011363 0.000000 0.000000 0.000000
# 3 -0.012166 -0.011363 0.016462 0.000000 0.000000 0.000000
# 4 0.000000 0.000000 0.000000 0.036576 0.000000 0.000000
# 5 0.000000 0.000000 0.000000 0.000000 0.045444 0.000000
# 6 0.000000 0.000000 0.000000 0.000000 0.000000 0.051062
#
#
# Mechanical properties :
#
#
# Convention : Reuss Voigt Hill
#
# Bulk Modulus (GPa) = 25.14880 64.00247 44.57563
# Shear Modulus (GPa) = 16.11999 21.59169 18.85584
#
# Velocity S-wave (km/s) = 3.06250 3.54436 3.31220
# Velocity P-wave (km/s) = 5.20934 7.34764 6.36887
#
# Compressibility (1/GPa) = 0.03976333
#
# Stress axis : x y z
#
# Youngs Moduli (GPa) = 40.42922 16.50056 60.74685
#
# Poissons Ratio (x) = 0.12358 0.73905
# Poissons Ratio (y) = 0.30280 0.69026
# Poissons Ratio (z) = 0.49186 0.18749
#
# Static dielectric constant tensor:
#      x y z
#    x 1.597100 0.000000 0.000000 
#    y 0.000000 1.582380 0.000000 
#    z 0.000000 0.000000 1.563260 
# 
# From -- ./inp_files/28118.got.cif
#   From: 2010.05.17/outbox.cif.g08.bks.cpg/sg59_15_cif.got.tgz:28118.got - 2010.06.03 14:40:33.
