data_PCOD9450065
_publ_section_title
;
Structure prediction by ZEFSAII (Michael W. Deem and Ramdas Pophale) SiO2 
 PCOD9450065
Probable space group: P M M N
;
_chemical_formula_sum "Si O2"
_cell_formula_units_Z 40
_cell_length_a 24.389348
_cell_length_b 10.158544
_cell_length_c 7.479948
_cell_angle_alpha 90.000000
_cell_angle_beta 90.000000
_cell_angle_gamma 90.000000
_cell_volume 1853.233897
_symmetry_space_group_name_H-M "P M M N"
_symmetry_group_IT_number 59
_space_group.IT_coordinate_system_code '2'
_symmetry_cell_setting 'orthorhombic'
loop_
_space_group_symop_operation_xyz
x,y,z
1/2-x,1/2-y,z
1/2+x,-y,-z
-x,1/2+y,-z
-x,-y,-z
1/2+x,1/2+y,-z
1/2-x,y,z
x,1/2-y,z
loop_
_atom_site_type_symbol
_atom_site_label
_atom_site_fract_x
_atom_site_fract_y
_atom_site_fract_z
Si Si1 0.688088 0.250000 0.211214
Si Si2 0.116484 0.510822 0.782678
Si Si3 0.314334 0.250000 0.702897
Si Si4 0.314023 0.750000 0.227981
Si Si5 0.811240 0.750000 0.724169
Si Si6 0.000098 0.087704 0.183940
Si Si7 0.617455 0.001317 0.795387
O O1 0.750000 0.250000 0.270044
O O2 0.656824 0.376449 0.281267
O O3 0.688168 0.250000 0.992049
O O4 0.148212 0.374856 0.754897
O O5 0.054734 0.538006 0.715583
O O6 0.110709 0.532787 0.995374
O O7 0.250000 0.250000 0.768450
O O8 0.310100 0.250000 0.489410
O O9 0.250000 0.750000 0.284417
O O10 0.349606 0.623619 0.285080
O O11 0.750000 0.750000 0.795430
O O12 0.843172 0.622714 0.785539
O O13 0.998762 0.250000 0.157949
O O14 0.057760 0.044663 0.272929
O O15 0.000000 0.000000 0.000000
#
# Coordination Sequence:
#
# PCOD9450065 Si02
#       7
#     4   8   4   4   4   8   8
#     4   9  16  29  51  79 109 137 174 233 288 330
#     4  10  20  35  58  86 114 147 188 239 288 345
#     4  11  25  40  55  81 117 155 202 243 288 341
#     4   9  18  31  51  85 113 137 182 235 282 336
#     4  11  23  40  57  79 115 159 198 245 288 337
#     4  10  20  33  57  91 121 145 185 235 289 343
#     4  10  20  35  61  85 115 147 189 235 289 348
#
# _framework density 21.583894000000001
#
# number of rings (size 3 to 8) (size 9 to 14) (size 15 to 20)
#    0.000    2.000    2.000    1.800    8.400    3.200 
#    0.000    2.000    0.000    3.600    0.000    0.000 
#    0.000    0.000    0.000    0.000    0.000    0.000 
#
# Total GULP energy -222965.308776 kJ/mol
# GULP energy per Si atom -5574.132719 kJ/mol
# Density = 2.153477 g / cm^3
# Si number density = 21.583894 Si / 1000 Ang^3
#
#
#
# Elastic Constant Matrix: (Units=GPa)
#
#
# Indices 1 2 3 4 5 6 
#
# 1 281.9815 121.8886 0.4785 0.0000 0.0000 0.0000
# 2 121.8886 210.1804 -14.6248 0.0000 0.0000 0.0000
# 3 0.4785 -14.6248 44.4756 0.0000 0.0000 0.0000
# 4 0.0000 0.0000 0.0000 16.0653 0.0000 0.0000
# 5 0.0000 0.0000 0.0000 0.0000 -8.9601 0.0000
# 6 0.0000 0.0000 0.0000 0.0000 0.0000 46.5334
#
#
#
# Elastic Compliance Matrix: (Units=1/GPa)
#
#
# Indices 1 2 3 4 5 6 
#
# 1 0.004774 -0.002837 -0.000984 0.000000 0.000000 0.000000
# 2 -0.002837 0.006555 0.002186 0.000000 0.000000 0.000000
# 3 -0.000984 0.002186 0.023214 0.000000 0.000000 0.000000
# 4 0.000000 0.000000 0.000000 0.062246 0.000000 0.000000
# 5 0.000000 0.000000 0.000000 0.000000 -0.111606 0.000000
# 6 0.000000 0.000000 0.000000 0.000000 0.000000 0.021490
#
#
# Mechanical properties :
#
#
# Convention : Reuss Voigt Hill
#
# Bulk Modulus (GPa) = 31.97713 83.56915 57.77314
# Shear Modulus (GPa) = 245.47664 39.32073 142.39869
#
# Velocity S-wave (km/s) = 10.67606 4.27284 8.13128
# Velocity P-wave (km/s) = 12.91582 7.94640 10.72296
#
# Compressibility (1/GPa) = 0.03127235
#
# Stress axis : x y z
#
# Youngs Moduli (GPa) = 209.44813 152.54698 43.07806
#
# Poissons Ratio (x) = 0.43282 0.04240
# Poissons Ratio (y) = 0.59427 -0.09417
# Poissons Ratio (z) = 0.20617 -0.33348
#
# Static dielectric constant tensor:
#      x y z
#    x 1.836640 0.000000 0.000000 
#    y 0.000000 1.744580 0.000000 
#    z 0.000000 0.000000 1.810930 
# 
# From -- ./inp_files/12470.got.cif
#   From: 2010.05.17/outbox.cif.g08.bks.cpg/sg59_7_cif.got.tgz:12470.got - 2010.06.03 14:40:33.
