data_PCOD9450800
_publ_section_title
;
Structure prediction by ZEFSAII (Michael W. Deem and Ramdas Pophale) SiO2 
 PCOD9450800
Probable space group: P M M N
;
_chemical_formula_sum "Si O2"
_cell_formula_units_Z 48
_cell_length_a 8.429784
_cell_length_b 10.499835
_cell_length_c 29.968061
_cell_angle_alpha 90.000000
_cell_angle_beta 90.000000
_cell_angle_gamma 90.000000
_cell_volume 2652.513269
_symmetry_space_group_name_H-M "P M M N"
_symmetry_group_IT_number 59
_space_group.IT_coordinate_system_code '2'
_symmetry_cell_setting 'orthorhombic'
loop_
_space_group_symop_operation_xyz
x,y,z
1/2-x,1/2-y,z
1/2+x,-y,-z
-x,1/2+y,-z
-x,-y,-z
1/2+x,1/2+y,-z
1/2-x,y,z
x,1/2-y,z
loop_
_atom_site_type_symbol
_atom_site_label
_atom_site_fract_x
_atom_site_fract_y
_atom_site_fract_z
Si Si1 0.556486 0.250000 0.951401
Si Si2 0.060211 0.102902 0.806084
Si Si3 0.056516 0.105132 0.363514
Si Si4 0.941311 0.605579 0.534131
Si Si5 0.939845 0.250000 0.054077
Si Si6 0.560126 0.001043 0.896968
Si Si7 0.941734 0.103703 0.707667
O O1 0.750000 0.250000 0.951352
O O2 0.503963 0.375874 0.925136
O O3 0.503192 0.250000 0.002679
O O4 0.250000 0.099965 0.805796
O O5 0.008124 0.250000 0.814199
O O6 0.997631 0.067220 0.757212
O O7 0.996989 0.018070 0.846339
O O8 0.250000 0.103914 0.362987
O O9 0.008079 0.250000 0.351779
O O10 0.007979 0.079751 0.414700
O O11 0.002023 0.997415 0.329128
O O12 0.750000 0.604929 0.533842
O O13 0.993095 0.750000 0.522535
O O14 0.000000 0.500000 0.500000
O O15 0.750000 0.250000 0.053258
O O16 0.998219 0.125331 0.079642
O O17 0.750000 0.000231 0.897439
O O18 0.750000 0.103792 0.707155
O O19 0.994300 0.250000 0.699076
#
# Coordination Sequence:
#
# PCOD9450800 Si02
#       7
#     4   8   8   8   4   8   8
#     4   9  20  37  61  85 109 141 183 225 264 311
#     4  10  20  35  55  79 106 139 176 217 269 322
#     4   8  15  30  50  72 100 133 170 214 263 314
#     4   9  18  32  50  74 105 140 179 222 266 315
#     4  11  23  39  55  83 119 145 173 221 274 319
#     4  11  21  38  60  83 109 144 184 223 263 315
#     4   9  17  30  51  76  98 126 169 218 260 309
#
# _framework density 18.096046000000001
#
# number of rings (size 3 to 8) (size 9 to 14) (size 15 to 20)
#    0.000    2.500    0.833    2.750    0.000    1.667 
#    1.500    5.000    0.000    3.000    0.000    0.000 
#    0.000    0.000    0.000    0.000    0.000    0.000 
#
# Total GULP energy -267801.337056 kJ/mol
# GULP energy per Si atom -5579.194522 kJ/mol
# Density = 1.805486 g / cm^3
# Si number density = 18.096046 Si / 1000 Ang^3
#
#
#
# Elastic Constant Matrix: (Units=GPa)
#
#
# Indices 1 2 3 4 5 6 
#
# 1 18.7894 23.5986 23.4678 0.0000 0.0000 0.0000
# 2 23.5986 160.1904 125.6107 0.0000 0.0000 0.0000
# 3 23.4678 125.6107 170.1786 0.0000 0.0000 0.0000
# 4 0.0000 0.0000 0.0000 1.9430 0.0000 0.0000
# 5 0.0000 0.0000 0.0000 0.0000 23.6923 0.0000
# 6 0.0000 0.0000 0.0000 0.0000 0.0000 16.6996
#
#
#
# Elastic Compliance Matrix: (Units=1/GPa)
#
#
# Indices 1 2 3 4 5 6 
#
# 1 0.066804 -0.006214 -0.004625 0.000000 0.000000 0.000000
# 2 -0.006214 0.015398 -0.010509 0.000000 0.000000 0.000000
# 3 -0.004625 -0.010509 0.014271 0.000000 0.000000 0.000000
# 4 0.000000 0.000000 0.000000 0.514681 0.000000 0.000000
# 5 0.000000 0.000000 0.000000 0.000000 0.042208 0.000000
# 6 0.000000 0.000000 0.000000 0.000000 0.000000 0.059882
#
#
# Mechanical properties :
#
#
# Convention : Reuss Voigt Hill
#
# Bulk Modulus (GPa) = 18.59577 77.16807 47.88192
# Shear Modulus (GPa) = 6.46107 20.23238 13.34673
#
# Velocity S-wave (km/s) = 1.89161 3.34736 2.71873
# Velocity P-wave (km/s) = 3.88193 7.59447 6.03098
#
# Compressibility (1/GPa) = 0.05377566
#
# Stress axis : x y z
#
# Youngs Moduli (GPa) = 14.96925 64.94267 70.07430
#
# Poissons Ratio (x) = 0.40357 0.32413
# Poissons Ratio (y) = 0.09302 0.73638
# Poissons Ratio (z) = 0.06924 0.68246
#
# Static dielectric constant tensor:
#      x y z
#    x 1.648990 0.000000 0.000000 
#    y 0.000000 1.607410 0.000000 
#    z 0.000000 0.000000 1.598610 
# 
# From -- ./inp_files/32956.got.cif
#   From: 2010.05.17/outbox.cif.g08.bks.cpg/sg59_17_cif.got.tgz:32956.got - 2010.06.03 14:40:33.
