data_PCOD9450063
_publ_section_title
;
Structure prediction by ZEFSAII (Michael W. Deem and Ramdas Pophale) SiO2 
 PCOD9450063
Probable space group: P M M N
;
_chemical_formula_sum "Si O2"
_cell_formula_units_Z 56
_cell_length_a 22.226686
_cell_length_b 14.882456
_cell_length_c 8.942337
_cell_angle_alpha 90.000000
_cell_angle_beta 90.000000
_cell_angle_gamma 90.000000
_cell_volume 2958.014878
_symmetry_space_group_name_H-M "P M M N"
_symmetry_group_IT_number 59
_space_group.IT_coordinate_system_code '2'
_symmetry_cell_setting 'orthorhombic'
loop_
_space_group_symop_operation_xyz
x,y,z
1/2-x,1/2-y,z
1/2+x,-y,-z
-x,1/2+y,-z
-x,-y,-z
1/2+x,1/2+y,-z
1/2-x,y,z
x,1/2-y,z
loop_
_atom_site_type_symbol
_atom_site_label
_atom_site_fract_x
_atom_site_fract_y
_atom_site_fract_z
Si Si1 0.392274 0.005155 0.282451
Si Si2 0.134381 0.349970 0.861136
Si Si3 0.318784 0.971255 0.991991
Si Si4 0.523673 0.596749 0.948986
Si Si5 0.039226 0.643132 0.470875
Si Si6 0.605054 0.645901 0.484030
Si Si7 0.593722 0.350223 0.204198
O O1 0.434932 0.074526 0.192825
O O2 0.366485 0.068692 0.412799
O O3 0.346567 0.967531 0.158554
O O4 0.430702 0.923552 0.351739
O O5 0.155599 0.250000 0.896544
O O6 0.130084 0.361080 0.683523
O O7 0.173744 0.426136 0.938040
O O8 0.066616 0.361445 0.926395
O O9 0.250000 0.942463 0.989493
O O10 0.359624 0.915363 0.876319
O O11 0.465791 0.650876 0.898816
O O12 0.500000 0.500000 0.000000
O O13 0.048423 0.750000 0.440035
O O14 0.070107 0.622162 0.631462
O O15 0.967284 0.628923 0.478432
O O16 0.613418 0.750000 0.535129
O O17 0.618942 0.250000 0.216021
#
# Coordination Sequence:
#
# PCOD9450063 Si02
#       7
#     8   8   8   8   8   8   8
#     4  11  21  34  60  82 122 152 187 238 295 346
#     4  10  21  37  61  90 122 155 190 236 293 354
#     4  11  26  44  59  80 110 157 215 254 285 326
#     4  11  19  33  55  93 123 153 183 227 294 358
#     4  10  21  34  55  92 126 153 180 224 295 369
#     4  10  20  33  56  92 126 150 176 221 296 374
#     4  11  22  38  61  87 120 156 193 238 291 348
#
# _framework density 18.931615000000001
#
# number of rings (size 3 to 8) (size 9 to 14) (size 15 to 20)
#    0.000    1.429    4.286    2.571    0.000    3.429 
#    0.000    2.857    0.000    1.714    0.000    0.000 
#    0.000    0.000    0.000    0.000    0.000    0.000 
#
# Total GULP energy -312661.044533 kJ/mol
# GULP energy per Si atom -5583.232938 kJ/mol
# Density = 1.888853 g / cm^3
# Si number density = 18.931615 Si / 1000 Ang^3
#
#
#
# Elastic Constant Matrix: (Units=GPa)
#
#
# Indices 1 2 3 4 5 6 
#
# 1 50.2939 -2.8154 -3.0633 0.0000 0.0000 0.0000
# 2 -2.8154 53.5133 18.5430 0.0000 0.0000 0.0000
# 3 -3.0633 18.5430 53.4441 0.0000 0.0000 0.0000
# 4 0.0000 0.0000 0.0000 15.4066 0.0000 0.0000
# 5 0.0000 0.0000 0.0000 0.0000 9.9593 0.0000
# 6 0.0000 0.0000 0.0000 0.0000 0.0000 2.4432
#
#
#
# Elastic Compliance Matrix: (Units=1/GPa)
#
#
# Indices 1 2 3 4 5 6 
#
# 1 0.019979 0.000744 0.000887 0.000000 0.000000 0.000000
# 2 0.000744 0.021268 -0.007337 0.000000 0.000000 0.000000
# 3 0.000887 -0.007337 0.021307 0.000000 0.000000 0.000000
# 4 0.000000 0.000000 0.000000 0.064907 0.000000 0.000000
# 5 0.000000 0.000000 0.000000 0.000000 0.100409 0.000000
# 6 0.000000 0.000000 0.000000 0.000000 0.000000 0.409306
#
#
# Mechanical properties :
#
#
# Convention : Reuss Voigt Hill
#
# Bulk Modulus (GPa) = 19.55301 20.28664 19.91983
# Shear Modulus (GPa) = 7.51162 15.20096 11.35629
#
# Velocity S-wave (km/s) = 1.99409 2.83669 2.45186
# Velocity P-wave (km/s) = 3.95632 4.63337 4.30817
#
# Compressibility (1/GPa) = 0.05114301
#
# Stress axis : x y z
#
# Youngs Moduli (GPa) = 50.05307 47.01837 46.93187
#
# Poissons Ratio (x) = -0.03497 -0.04163
# Poissons Ratio (y) = -0.03723 0.34432
# Poissons Ratio (z) = -0.04440 0.34496
#
# Static dielectric constant tensor:
#      x y z
#    x 1.656130 0.000000 0.000000 
#    y 0.000000 1.688470 0.000000 
#    z 0.000000 0.000000 1.719930 
# 
# From -- ./inp_files/11432.got.cif
#   From: 2010.05.17/outbox.cif.g08.bks.cpg/sg59_6_cif.got.tgz:11432.got - 2010.06.03 14:40:33.
