data_PCOD9450510
_publ_section_title
;
Structure prediction by ZEFSAII (Michael W. Deem and Ramdas Pophale) SiO2 
 PCOD9450510
Probable space group: P M M N
;
_chemical_formula_sum "Si O2"
_cell_formula_units_Z 64
_cell_length_a 7.821019
_cell_length_b 29.657136
_cell_length_c 12.806131
_cell_angle_alpha 90.000000
_cell_angle_beta 90.000000
_cell_angle_gamma 90.000000
_cell_volume 2970.369588
_symmetry_space_group_name_H-M "P M M N"
_symmetry_group_IT_number 59
_space_group.IT_coordinate_system_code '2'
_symmetry_cell_setting 'orthorhombic'
loop_
_space_group_symop_operation_xyz
x,y,z
1/2-x,1/2-y,z
1/2+x,-y,-z
-x,1/2+y,-z
-x,-y,-z
1/2+x,1/2+y,-z
1/2-x,y,z
x,1/2-y,z
loop_
_atom_site_type_symbol
_atom_site_label
_atom_site_fract_x
_atom_site_fract_y
_atom_site_fract_z
Si Si1 0.544076 0.475032 0.107522
Si Si2 0.543063 0.993647 0.331016
Si Si3 0.040358 0.871178 0.880911
Si Si4 0.443401 0.669453 0.495734
Si Si5 0.551159 0.198682 0.947914
Si Si6 0.452155 0.072149 0.490215
Si Si7 0.041092 0.700759 0.712054
Si Si8 0.051581 0.198734 0.723049
O O1 0.750000 0.473527 0.113311
O O2 0.484144 0.501409 0.211802
O O3 0.482306 0.422970 0.112827
O O4 0.500000 0.500000 0.000000
O O5 0.750000 0.993593 0.331935
O O6 0.483507 0.036518 0.398311
O O7 0.490000 0.950768 0.400626
O O8 0.250000 0.872861 0.880952
O O9 0.986829 0.842102 0.779914
O O10 0.980244 0.839961 0.977264
O O11 0.250000 0.685295 0.479855
O O12 0.448567 0.617739 0.530370
O O13 0.519766 0.696592 0.592791
O O14 0.530615 0.672393 0.383894
O O15 0.750000 0.202775 0.977570
O O16 0.478500 0.250000 0.955040
O O17 0.541785 0.183556 0.827563
O O18 0.250000 0.081835 0.496578
O O19 0.250000 0.699418 0.709585
O O20 0.993342 0.750000 0.756201
O O21 0.250000 0.199208 0.751265
O O22 0.994569 0.250000 0.700934
#
# Coordination Sequence:
#
# PCOD9450510 Si02
#       8
#     8   8   8   8   8   8   8   8
#     4  10  21  37  55  76 106 141 178 222 273 325
#     4   9  19  37  57  77 104 138 177 221 268 319
#     4   9  17  31  53  80 107 134 168 215 268 320
#     4  11  21  33  52  79 111 143 177 216 260 316
#     4   9  17  31  53  79 104 131 168 213 261 319
#     4  10  20  34  55  81 107 138 177 220 266 316
#     4   9  17  30  52  82 111 138 171 215 267 321
#     4  10  21  36  52  71 101 140 177 216 262 308
#
# _framework density 21.546140999999999
#
# number of rings (size 3 to 8) (size 9 to 14) (size 15 to 20)
#    0.000    2.375    0.000    2.625    0.000    6.750 
#    0.000    3.125    0.000    1.500    0.000    1.750 
#    0.000    0.000    0.000    0.000    0.000    0.000 
#
# Total GULP energy -357139.941850 kJ/mol
# GULP energy per Si atom -5580.311591 kJ/mol
# Density = 2.149710 g / cm^3
# Si number density = 21.546141 Si / 1000 Ang^3
#
#
#
# Elastic Constant Matrix: (Units=GPa)
#
#
# Indices 1 2 3 4 5 6 
#
# 1 22.5806 1.3331 1.0252 0.0000 0.0000 0.0000
# 2 1.3331 87.5242 44.6206 0.0000 0.0000 0.0000
# 3 1.0252 44.6206 124.7781 0.0000 0.0000 0.0000
# 4 0.0000 0.0000 0.0000 2.0002 0.0000 0.0000
# 5 0.0000 0.0000 0.0000 0.0000 -2.8184 0.0000
# 6 0.0000 0.0000 0.0000 0.0000 0.0000 15.7140
#
#
#
# Elastic Compliance Matrix: (Units=1/GPa)
#
#
# Indices 1 2 3 4 5 6 
#
# 1 0.044328 -0.000599 -0.000150 0.000000 0.000000 0.000000
# 2 -0.000599 0.013981 -0.004995 0.000000 0.000000 0.000000
# 3 -0.000150 -0.004995 0.009802 0.000000 0.000000 0.000000
# 4 0.000000 0.000000 0.000000 0.499960 0.000000 0.000000
# 5 0.000000 0.000000 0.000000 0.000000 -0.354817 0.000000
# 6 0.000000 0.000000 0.000000 0.000000 0.000000 0.063638
#
#
# Mechanical properties :
#
#
# Convention : Reuss Voigt Hill
#
# Bulk Modulus (GPa) = 17.66051 36.53786 27.09919
# Shear Modulus (GPa) = 16.27329 15.50610 15.88969
#
# Velocity S-wave (km/s) = 2.75121 2.68558 2.71859
# Velocity P-wave (km/s) = 4.27862 5.15860 4.73908
#
# Compressibility (1/GPa) = 0.05662350
#
# Stress axis : x y z
#
# Youngs Moduli (GPa) = 22.55914 71.52658 102.02488
#
# Poissons Ratio (x) = 0.04282 0.01532
# Poissons Ratio (y) = 0.01350 0.50957
# Poissons Ratio (z) = 0.00339 0.35725
#
# Static dielectric constant tensor:
#      x y z
#    x 1.808000 0.000000 0.000000 
#    y 0.000000 1.786910 0.000000 
#    z 0.000000 0.000000 1.787900 
# 
# From -- ./inp_files/14944.got.cif
#   From: 2010.05.17/outbox.cif.g08.bks.cpg/sg59_8_cif.got.tgz:14944.got - 2010.06.03 14:40:33.
