data_PCOD9450997
_publ_section_title
;
Structure prediction by ZEFSAII (Michael W. Deem and Ramdas Pophale) SiO2 
 PCOD9450997
Probable space group: P M M N
;
_chemical_formula_sum "Si O2"
_cell_formula_units_Z 64
_cell_length_a 8.558617
_cell_length_b 14.871482
_cell_length_c 25.127606
_cell_angle_alpha 90.000000
_cell_angle_beta 90.000000
_cell_angle_gamma 90.000000
_cell_volume 3198.224571
_symmetry_space_group_name_H-M "P M M N"
_symmetry_group_IT_number 59
_space_group.IT_coordinate_system_code '2'
_symmetry_cell_setting 'orthorhombic'
loop_
_space_group_symop_operation_xyz
x,y,z
1/2-x,1/2-y,z
1/2+x,-y,-z
-x,1/2+y,-z
-x,-y,-z
1/2+x,1/2+y,-z
1/2-x,y,z
x,1/2-y,z
loop_
_atom_site_type_symbol
_atom_site_label
_atom_site_fract_x
_atom_site_fract_y
_atom_site_fract_z
Si Si1 0.063337 0.549991 0.246194
Si Si2 0.935421 0.653043 0.728226
Si Si3 0.563338 0.646471 0.351879
Si Si4 0.441502 0.962495 0.131481
Si Si5 0.933637 0.143477 0.973100
Si Si6 0.562974 0.850936 0.911097
Si Si7 0.069775 0.649099 0.611958
Si Si8 0.929997 0.482174 0.557987
O O1 0.250000 0.563483 0.250547
O O2 0.034336 0.442436 0.245218
O O3 0.009185 0.580635 0.187607
O O4 0.990459 0.595689 0.298078
O O5 0.750000 0.651997 0.714624
O O6 0.962873 0.750000 0.756175
O O7 0.035899 0.652774 0.674603
O O8 0.750000 0.646993 0.352287
O O9 0.506901 0.750000 0.351864
O O10 0.507608 0.592521 0.404075
O O11 0.250000 0.962350 0.132265
O O12 0.490046 0.909386 0.078730
O O13 0.493442 0.065998 0.124307
O O14 0.750000 0.121925 0.981604
O O15 0.945096 0.250000 0.962816
O O16 0.024538 0.125298 0.027627
O O17 0.750000 0.846874 0.904682
O O18 0.500346 0.750000 0.900693
O O19 0.250000 0.622568 0.602320
O O20 0.046146 0.750000 0.590611
O O21 0.954973 0.576371 0.588055
O O22 0.750000 0.458722 0.552446
O O23 0.000000 0.500000 0.500000
#
# Coordination Sequence:
#
# PCOD9450997 Si02
#       8
#     8   8   8   8   8   8   8   8
#     4  10  20  35  57  84 113 151 195 240 287 344
#     4   9  17  30  51  80 111 144 183 227 278 336
#     4  11  25  45  66  88 119 159 200 243 292 344
#     4   9  18  31  49  76 107 139 182 230 280 337
#     4   9  17  30  48  69  97 136 182 233 285 337
#     4   9  17  30  49  73 103 139 178 225 281 341
#     4  10  20  35  58  87 119 153 187 227 277 334
#     4  12  25  42  66  94 124 157 194 240 289 340
#
# _framework density 20.011104
#
# number of rings (size 3 to 8) (size 9 to 14) (size 15 to 20)
#    0.000    2.125    1.250    2.250    0.000    3.250 
#    0.000    5.000    0.000    1.500    0.000    3.500 
#    0.000    0.000    0.000    0.000    0.000    0.000 
#
# Total GULP energy -356951.361437 kJ/mol
# GULP energy per Si atom -5577.365022 kJ/mol
# Density = 1.996556 g / cm^3
# Si number density = 20.011104 Si / 1000 Ang^3
#
#
#
# Elastic Constant Matrix: (Units=GPa)
#
#
# Indices 1 2 3 4 5 6 
#
# 1 21.2136 25.6767 19.4657 0.0000 0.0000 0.0000
# 2 25.6767 81.1532 52.1885 0.0000 0.0000 0.0000
# 3 19.4657 52.1885 113.5887 0.0000 0.0000 0.0000
# 4 0.0000 0.0000 0.0000 1.0633 0.0000 0.0000
# 5 0.0000 0.0000 0.0000 0.0000 18.9443 0.0000
# 6 0.0000 0.0000 0.0000 0.0000 0.0000 20.1762
#
#
#
# Elastic Compliance Matrix: (Units=1/GPa)
#
#
# Indices 1 2 3 4 5 6 
#
# 1 0.077038 -0.022546 -0.002843 0.000000 0.000000 0.000000
# 2 -0.022546 0.024089 -0.007204 0.000000 0.000000 0.000000
# 3 -0.002843 -0.007204 0.012601 0.000000 0.000000 0.000000
# 4 0.000000 0.000000 0.000000 0.940483 0.000000 0.000000
# 5 0.000000 0.000000 0.000000 0.000000 0.052786 0.000000
# 6 0.000000 0.000000 0.000000 0.000000 0.000000 0.049563
#
#
# Mechanical properties :
#
#
# Convention : Reuss Voigt Hill
#
# Bulk Modulus (GPa) = 20.60112 45.62414 33.11263
# Shear Modulus (GPa) = 4.03901 15.94507 9.99204
#
# Velocity S-wave (km/s) = 1.42224 2.82585 2.23698
# Velocity P-wave (km/s) = 3.60752 5.78758 4.82236
#
# Compressibility (1/GPa) = 0.04854106
#
# Stress axis : x y z
#
# Youngs Moduli (GPa) = 12.98057 41.51336 79.36069
#
# Poissons Ratio (x) = 0.93597 0.22563
# Poissons Ratio (y) = 0.29266 0.57170
# Poissons Ratio (z) = 0.03691 0.29905
#
# Static dielectric constant tensor:
#      x y z
#    x 1.682970 0.000000 0.000000 
#    y 0.000000 1.748620 0.000000 
#    z 0.000000 0.000000 1.716420 
# 
# From -- ./inp_files/31421.got.cif
#   From: 2010.05.17/outbox.cif.g08.bks.cpg/sg59_16_cif.got.tgz:31421.got - 2010.06.03 14:40:33.
