data_PCOD9450622
_publ_section_title
;
Structure prediction by ZEFSAII (Michael W. Deem and Ramdas Pophale) SiO2 
 PCOD9450622
Probable space group: P M M N
;
_chemical_formula_sum "Si O2"
_cell_formula_units_Z 64
_cell_length_a 16.149739
_cell_length_b 7.872531
_cell_length_c 24.531207
_cell_angle_alpha 90.000000
_cell_angle_beta 90.000000
_cell_angle_gamma 90.000000
_cell_volume 3118.880999
_symmetry_space_group_name_H-M "P M M N"
_symmetry_group_IT_number 59
_space_group.IT_coordinate_system_code '2'
_symmetry_cell_setting 'orthorhombic'
loop_
_space_group_symop_operation_xyz
x,y,z
1/2-x,1/2-y,z
1/2+x,-y,-z
-x,1/2+y,-z
-x,-y,-z
1/2+x,1/2+y,-z
1/2-x,y,z
x,1/2-y,z
loop_
_atom_site_type_symbol
_atom_site_label
_atom_site_fract_x
_atom_site_fract_y
_atom_site_fract_z
Si Si1 0.490709 0.047537 0.740913
Si Si2 0.489428 0.047059 0.863221
Si Si3 0.159519 0.044626 0.666803
Si Si4 0.911128 0.452188 0.445793
Si Si5 0.339559 0.043987 0.079702
Si Si6 0.399838 0.552310 0.434484
Si Si7 0.086293 0.045884 0.970745
Si Si8 0.341519 0.447687 0.317926
O O1 0.478224 0.250000 0.744201
O O2 0.483964 0.977410 0.802208
O O3 0.418001 0.979446 0.701944
O O4 0.580807 0.022478 0.714527
O O5 0.476868 0.250000 0.860433
O O6 0.425036 0.980166 0.909115
O O7 0.581744 0.018394 0.886571
O O8 0.250000 0.991032 0.687305
O O9 0.156967 0.250000 0.667365
O O10 0.147509 0.988252 0.604647
O O11 0.925376 0.250000 0.450729
O O12 0.878456 0.511660 0.504772
O O13 0.000191 0.535118 0.432824
O O14 0.250000 0.990092 0.101226
O O15 0.342885 0.250000 0.080418
O O16 0.348612 0.988161 0.016274
O O17 0.376945 0.750000 0.430203
O O18 0.360696 0.463498 0.382377
O O19 0.094227 0.250000 0.967188
O O20 0.000000 0.000000 0.000000
O O21 0.250000 0.521286 0.306722
O O22 0.339460 0.250000 0.303578
#
# Coordination Sequence:
#
# PCOD9450622 Si02
#       8
#     8   8   8   8   8   8   8   8
#     4  10  21  38  57  77 105 143 184 227 274 323
#     4   9  18  32  51  73  98 133 177 216 255 308
#     4  10  21  37  57  80 106 139 180 226 277 329
#     4  10  20  34  56  84 111 139 175 219 271 330
#     4   9  17  29  47  74 106 136 167 207 257 310
#     4  10  20  35  56  82 111 142 175 217 271 329
#     4   8  14  27  46  68  95 126 160 199 243 293
#     4  11  24  39  56  80 109 143 184 227 272 324
#
# _framework density 20.520181000000001
#
# number of rings (size 3 to 8) (size 9 to 14) (size 15 to 20)
#    0.000    2.375    1.250    1.125    0.000    4.500 
#    0.000    5.625    0.000    3.750    0.000    0.000 
#    0.000    5.000    0.000    0.000    0.000    0.000 
#
# Total GULP energy -356850.563107 kJ/mol
# GULP energy per Si atom -5575.790049 kJ/mol
# Density = 2.047348 g / cm^3
# Si number density = 20.520181 Si / 1000 Ang^3
#
#
#
# Elastic Constant Matrix: (Units=GPa)
#
#
# Indices 1 2 3 4 5 6 
#
# 1 64.5960 -1.6928 33.1582 0.0000 0.0000 0.0000
# 2 -1.6928 23.2736 1.7542 0.0000 0.0000 0.0000
# 3 33.1582 1.7542 125.0164 0.0000 0.0000 0.0000
# 4 0.0000 0.0000 0.0000 7.8524 0.0000 0.0000
# 5 0.0000 0.0000 0.0000 0.0000 4.9563 0.0000
# 6 0.0000 0.0000 0.0000 0.0000 0.0000 12.5494
#
#
#
# Elastic Compliance Matrix: (Units=1/GPa)
#
#
# Indices 1 2 3 4 5 6 
#
# 1 0.017985 0.001670 -0.004794 0.000000 0.000000 0.000000
# 2 0.001670 0.043168 -0.001049 0.000000 0.000000 0.000000
# 3 -0.004794 -0.001049 0.009285 0.000000 0.000000 0.000000
# 4 0.000000 0.000000 0.000000 0.127349 0.000000 0.000000
# 5 0.000000 0.000000 0.000000 0.000000 0.201761 0.000000
# 6 0.000000 0.000000 0.000000 0.000000 0.000000 0.079685
#
#
# Mechanical properties :
#
#
# Convention : Reuss Voigt Hill
#
# Bulk Modulus (GPa) = 16.10498 31.03614 23.57056
# Shear Modulus (GPa) = 9.83716 17.04940 13.44328
#
# Velocity S-wave (km/s) = 2.19187 2.88559 2.56232
# Velocity P-wave (km/s) = 3.77772 5.12442 4.50171
#
# Compressibility (1/GPa) = 0.06209260
#
# Stress axis : x y z
#
# Youngs Moduli (GPa) = 55.60109 23.16550 107.69951
#
# Poissons Ratio (x) = -0.03868 0.51628
# Poissons Ratio (y) = -0.09283 0.11293
# Poissons Ratio (z) = 0.26653 0.02429
#
# Static dielectric constant tensor:
#      x y z
#    x 1.737760 0.000000 0.000000 
#    y 0.000000 1.803160 0.000000 
#    z 0.000000 0.000000 1.755500 
# 
# From -- ./inp_files/32334.got.cif
#   From: 2010.05.17/outbox.cif.g08.bks.cpg/sg59_17_cif.got.tgz:32334.got - 2010.06.03 14:40:33.
