data_PCOD9450811
_publ_section_title
;
Structure prediction by ZEFSAII (Michael W. Deem and Ramdas Pophale) SiO2 
 PCOD9450811
Probable space group: P M M N
;
_chemical_formula_sum "Si O2"
_cell_formula_units_Z 58
_cell_length_a 14.844943
_cell_length_b 7.713586
_cell_length_c 25.464749
_cell_angle_alpha 90.000000
_cell_angle_beta 90.000000
_cell_angle_gamma 90.000000
_cell_volume 2915.910972
_symmetry_space_group_name_H-M "P M M N"
_symmetry_group_IT_number 59
_space_group.IT_coordinate_system_code '2'
_symmetry_cell_setting 'orthorhombic'
loop_
_space_group_symop_operation_xyz
x,y,z
1/2-x,1/2-y,z
1/2+x,-y,-z
-x,1/2+y,-z
-x,-y,-z
1/2+x,1/2+y,-z
1/2-x,y,z
x,1/2-y,z
loop_
_atom_site_type_symbol
_atom_site_label
_atom_site_fract_x
_atom_site_fract_y
_atom_site_fract_z
Si Si1 0.152294 0.955712 0.732358
Si Si2 0.647536 0.459885 0.860005
Si Si3 0.043961 0.543961 0.241853
Si Si4 0.973759 0.942382 0.558106
Si Si5 0.401203 0.958892 0.021934
Si Si6 0.150282 0.049945 0.612320
Si Si7 0.647218 0.958584 0.650632
Si Si8 0.750000 0.750000 0.003678
O O1 0.250000 0.004596 0.755864
O O2 0.153207 0.750000 0.723200
O O3 0.146130 0.042647 0.675247
O O4 0.061070 0.997501 0.762174
O O5 0.750000 0.524532 0.862663
O O6 0.651160 0.250000 0.855596
O O7 0.598203 0.526948 0.808075
O O8 0.600857 0.495793 0.915292
O O9 0.050154 0.750000 0.240764
O O10 0.087772 0.491061 0.297408
O O11 0.938046 0.750000 0.550591
O O12 0.902754 0.029949 0.598259
O O13 0.067689 0.945998 0.589354
O O14 0.000000 0.000000 0.500000
O O15 0.380727 0.750000 0.015077
O O16 0.328779 0.094072 0.998421
O O17 0.500000 0.000000 0.000000
O O18 0.250000 0.987347 0.596754
O O19 0.140834 0.250000 0.595487
O O20 0.750000 0.022753 0.656312
O O21 0.651070 0.750000 0.646072
#
# Coordination Sequence:
#
# PCOD9450811 Si02
#       8
#     8   8   8   8   8   8   8   2
#     4  10  20  35  55  79 110 148 188 236 289 347
#     4   9  19  37  60  89 128 167 209 267 318 369
#     4  11  21  35  60  90 120 158 198 243 304 365
#     4  11  23  38  57  79 110 146 184 230 287 342
#     4  11  22  41  67  99 139 183 235 290 348 410
#     4  10  20  35  57  82 104 132 176 228 280 339
#     4  10  22  40  57  80 114 152 187 233 291 352
#     4  12  22  40  68 104 136 188 234 292 356 398
#
# _framework density 19.890867
#
# number of rings (size 3 to 8) (size 9 to 14) (size 15 to 20)
#    0.000    1.655    2.759    2.276    0.000    3.586 
#    2.483    1.379    1.517    0.000    0.000    0.000 
#    0.000    0.000    0.000    0.000    0.000    0.000 
#
# Total GULP energy -322884.894683 kJ/mol
# GULP energy per Si atom -5566.980943 kJ/mol
# Density = 1.984559 g / cm^3
# Si number density = 19.890867 Si / 1000 Ang^3
#
#
#
# Elastic Constant Matrix: (Units=GPa)
#
#
# Indices 1 2 3 4 5 6 
#
# 1 172.0027 22.0601 80.9377 0.0000 0.0000 0.0000
# 2 22.0601 77.4551 10.7661 0.0000 0.0000 0.0000
# 3 80.9377 10.7661 92.6941 0.0000 0.0000 0.0000
# 4 0.0000 0.0000 0.0000 16.4345 0.0000 0.0000
# 5 0.0000 0.0000 0.0000 0.0000 14.3559 0.0000
# 6 0.0000 0.0000 0.0000 0.0000 0.0000 27.6023
#
#
#
# Elastic Compliance Matrix: (Units=1/GPa)
#
#
# Indices 1 2 3 4 5 6 
#
# 1 0.010078 -0.001674 -0.008605 0.000000 0.000000 0.000000
# 2 -0.001674 0.013401 -0.000095 0.000000 0.000000 0.000000
# 3 -0.008605 -0.000095 0.018313 0.000000 0.000000 0.000000
# 4 0.000000 0.000000 0.000000 0.060848 0.000000 0.000000
# 5 0.000000 0.000000 0.000000 0.000000 0.069658 0.000000
# 6 0.000000 0.000000 0.000000 0.000000 0.000000 0.036229
#
#
# Mechanical properties :
#
#
# Convention : Reuss Voigt Hill
#
# Bulk Modulus (GPa) = 47.52060 63.29774 55.40917
# Shear Modulus (GPa) = 21.16058 26.90441 24.03249
#
# Velocity S-wave (km/s) = 3.26519 3.68176 3.47971
# Velocity P-wave (km/s) = 6.17720 7.06862 6.63789
#
# Compressibility (1/GPa) = 0.02104350
#
# Stress axis : x y z
#
# Youngs Moduli (GPa) = 99.22727 74.62308 54.60598
#
# Poissons Ratio (x) = 0.12493 0.46990
# Poissons Ratio (y) = 0.16612 0.00517
# Poissons Ratio (z) = 0.85388 0.00706
#
# Static dielectric constant tensor:
#      x y z
#    x 1.708150 0.000000 0.000000 
#    y 0.000000 1.739150 0.000000 
#    z 0.000000 0.000000 1.692020 
# 
# From -- ./inp_files/32079.got.cif
#   From: 2010.05.17/outbox.cif.g08.bks.cpg/sg59_17_cif.got.tgz:32079.got - 2010.06.03 14:40:33.
