data_PCOD9450726
_publ_section_title
;
Structure prediction by ZEFSAII (Michael W. Deem and Ramdas Pophale) SiO2 
 PCOD9450726
Probable space group: P M M N
;
_chemical_formula_sum "Si O2"
_cell_formula_units_Z 64
_cell_length_a 22.008266
_cell_length_b 7.526543
_cell_length_c 17.098048
_cell_angle_alpha 90.000000
_cell_angle_beta 90.000000
_cell_angle_gamma 90.000000
_cell_volume 2832.226002
_symmetry_space_group_name_H-M "P M M N"
_symmetry_group_IT_number 59
_space_group.IT_coordinate_system_code '2'
_symmetry_cell_setting 'orthorhombic'
loop_
_space_group_symop_operation_xyz
x,y,z
1/2-x,1/2-y,z
1/2+x,-y,-z
-x,1/2+y,-z
-x,-y,-z
1/2+x,1/2+y,-z
1/2-x,y,z
x,1/2-y,z
loop_
_atom_site_type_symbol
_atom_site_label
_atom_site_fract_x
_atom_site_fract_y
_atom_site_fract_z
Si Si1 0.559450 0.546706 0.892263
Si Si2 0.649046 0.967490 0.639317
Si Si3 0.395956 0.036485 0.664303
Si Si4 0.429326 0.537719 0.927691
Si Si5 0.517970 0.957582 0.590168
Si Si6 0.314183 0.034252 0.528194
Si Si7 0.317152 0.467561 0.187527
Si Si8 0.680043 0.536370 0.186517
O O1 0.556472 0.750000 0.863170
O O2 0.490614 0.472483 0.882355
O O3 0.621021 0.469264 0.854951
O O4 0.569362 0.542621 0.985749
O O5 0.650523 0.750000 0.641735
O O6 0.580910 0.033577 0.622287
O O7 0.683113 0.023400 0.560835
O O8 0.675836 0.021687 0.721962
O O9 0.390836 0.250000 0.665877
O O10 0.367123 0.969030 0.583292
O O11 0.356635 0.969435 0.737017
O O12 0.466163 0.994714 0.653805
O O13 0.436103 0.750000 0.936213
O O14 0.366067 0.501896 0.884426
O O15 0.528471 0.750000 0.587297
O O16 0.500000 0.000000 0.500000
O O17 0.250000 0.986888 0.565213
O O18 0.318156 0.250000 0.526588
O O19 0.250000 0.523729 0.158224
O O20 0.317247 0.250000 0.182808
O O21 0.750000 0.471700 0.179921
O O22 0.684053 0.750000 0.192944
#
# Coordination Sequence:
#
# PCOD9450726 Si02
#       8
#     8   8   8   8   8   8   8   8
#     4   9  19  36  58  84 116 149 184 226 277 336
#     4   9  17  28  46  75 107 136 173 221 269 317
#     4  10  20  35  53  79 109 140 183 231 279 331
#     4  10  21  37  59  85 115 149 186 229 278 336
#     4  11  21  34  53  77 107 143 185 232 282 333
#     4   9  15  26  47  72 100 136 177 221 266 313
#     4   9  17  30  51  81 111 138 176 226 274 322
#     4  10  22  39  59  84 115 150 190 237 287 343
#
# _framework density 22.597066000000002
#
# number of rings (size 3 to 8) (size 9 to 14) (size 15 to 20)
#    0.000    2.375    1.250    1.500    1.750    4.750 
#    0.000    1.250    0.000    1.125    0.000    0.000 
#    0.000    0.000    0.000    0.000    0.000    0.000 
#
# Total GULP energy -356951.128998 kJ/mol
# GULP energy per Si atom -5577.361391 kJ/mol
# Density = 2.254563 g / cm^3
# Si number density = 22.597066 Si / 1000 Ang^3
#
#
#
# Elastic Constant Matrix: (Units=GPa)
#
#
# Indices 1 2 3 4 5 6 
#
# 1 169.2515 -3.5790 25.6740 0.0000 0.0000 0.0000
# 2 -3.5790 59.6105 -8.9369 0.0000 0.0000 0.0000
# 3 25.6740 -8.9369 36.1407 0.0000 0.0000 0.0000
# 4 0.0000 0.0000 0.0000 5.1291 0.0000 0.0000
# 5 0.0000 0.0000 0.0000 0.0000 28.0188 0.0000
# 6 0.0000 0.0000 0.0000 0.0000 0.0000 11.4394
#
#
#
# Elastic Compliance Matrix: (Units=1/GPa)
#
#
# Indices 1 2 3 4 5 6 
#
# 1 0.006628 -0.000320 -0.004787 0.000000 0.000000 0.000000
# 2 -0.000320 0.017437 0.004539 0.000000 0.000000 0.000000
# 3 -0.004787 0.004539 0.032193 0.000000 0.000000 0.000000
# 4 0.000000 0.000000 0.000000 0.194965 0.000000 0.000000
# 5 0.000000 0.000000 0.000000 0.000000 0.035690 0.000000
# 6 0.000000 0.000000 0.000000 0.000000 0.000000 0.087417
#
#
# Mechanical properties :
#
#
# Convention : Reuss Voigt Hill
#
# Bulk Modulus (GPa) = 18.14185 32.36877 25.25531
# Shear Modulus (GPa) = 12.69553 25.70712 19.20132
#
# Velocity S-wave (km/s) = 2.37285 3.37654 2.91817
# Velocity P-wave (km/s) = 3.94374 5.43661 4.74920
#
# Compressibility (1/GPa) = 0.05512116
#
# Stress axis : x y z
#
# Youngs Moduli (GPa) = 150.87933 57.34980 31.06269
#
# Poissons Ratio (x) = 0.01834 0.14871
# Poissons Ratio (y) = 0.04825 -0.14099
# Poissons Ratio (z) = 0.72232 -0.26031
#
# Static dielectric constant tensor:
#      x y z
#    x 1.870550 0.000000 0.000000 
#    y 0.000000 1.907800 0.000000 
#    z 0.000000 0.000000 1.790210 
# 
# From -- ./inp_files/28279.got.cif
#   From: 2010.05.17/outbox.cif.g08.bks.cpg/sg59_15_cif.got.tgz:28279.got - 2010.06.03 14:40:33.
