data_PCOD9450226
_publ_section_title
;
Structure prediction by ZEFSAII (Michael W. Deem and Ramdas Pophale) SiO2 
 PCOD9450226
Probable space group: P M M N
;
_chemical_formula_sum "Si O2"
_cell_formula_units_Z 64
_cell_length_a 18.116068
_cell_length_b 9.307835
_cell_length_c 22.268217
_cell_angle_alpha 90.000000
_cell_angle_beta 90.000000
_cell_angle_gamma 90.000000
_cell_volume 3754.897298
_symmetry_space_group_name_H-M "P M M N"
_symmetry_group_IT_number 59
_space_group.IT_coordinate_system_code '2'
_symmetry_cell_setting 'orthorhombic'
loop_
_space_group_symop_operation_xyz
x,y,z
1/2-x,1/2-y,z
1/2+x,-y,-z
-x,1/2+y,-z
-x,-y,-z
1/2+x,1/2+y,-z
1/2-x,y,z
x,1/2-y,z
loop_
_atom_site_type_symbol
_atom_site_label
_atom_site_fract_x
_atom_site_fract_y
_atom_site_fract_z
Si Si1 0.159896 0.914858 0.488440
Si Si2 0.339881 0.415742 0.605665
Si Si3 0.482852 0.576921 0.062462
Si Si4 0.168493 0.921238 0.127447
Si Si5 0.105028 0.419637 0.239831
Si Si6 0.338143 0.420706 0.368360
Si Si7 0.338188 0.420727 0.740867
Si Si8 0.050694 0.580112 0.824657
O O1 0.250000 0.919031 0.489321
O O2 0.136925 0.750000 0.486202
O O3 0.134452 0.989464 0.549961
O O4 0.137363 0.998247 0.428379
O O5 0.250000 0.417792 0.605439
O O6 0.361901 0.250000 0.597067
O O7 0.361559 0.462276 0.672803
O O8 0.491822 0.750000 0.059214
O O9 0.398583 0.544138 0.082847
O O10 0.532853 0.508026 0.114977
O O11 0.500000 0.500000 0.000000
O O12 0.250000 0.959841 0.104771
O O13 0.165935 0.750000 0.136995
O O14 0.153222 0.997934 0.190609
O O15 0.123001 0.250000 0.237123
O O16 0.121290 0.467972 0.307526
O O17 0.020757 0.437564 0.218586
O O18 0.250000 0.444149 0.360276
O O19 0.349109 0.250000 0.376459
O O20 0.250000 0.438979 0.745405
O O21 0.353628 0.250000 0.747934
O O22 0.380570 0.513471 0.789670
O O23 0.059165 0.750000 0.837139
#
# Coordination Sequence:
#
# PCOD9450226 Si02
#       8
#     8   8   8   8   8   8   8   8
#     4   9  16  24  36  59  90 120 153 197 245 290
#     4   8  14  26  44  64  87 118 155 195 242 295
#     4  10  20  36  57  78 104 138 172 205 243 292
#     4   9  18  32  51  76 103 130 163 205 249 288
#     4   9  18  31  47  69  97 130 166 201 239 288
#     4   9  16  26  41  61  88 124 162 198 238 284
#     4   9  18  33  53  76 100 126 160 203 249 298
#     4  10  20  34  53  77 103 130 161 198 242 293
#
# _framework density 17.044407
#
# number of rings (size 3 to 8) (size 9 to 14) (size 15 to 20)
#    0.000    2.875    0.000    2.250    0.000    4.500 
#    0.000    3.125    0.000    3.000    0.000    0.000 
#    0.000    0.000    0.000    0.000    0.000    0.000 
#
# Total GULP energy -356671.475235 kJ/mol
# GULP energy per Si atom -5572.991801 kJ/mol
# Density = 1.700561 g / cm^3
# Si number density = 17.044407 Si / 1000 Ang^3
#
#
#
# Elastic Constant Matrix: (Units=GPa)
#
#
# Indices 1 2 3 4 5 6 
#
# 1 38.1059 37.0300 50.3720 0.0000 0.0000 0.0000
# 2 37.0300 72.9406 80.7800 0.0000 0.0000 0.0000
# 3 50.3720 80.7800 159.9038 0.0000 0.0000 0.0000
# 4 0.0000 0.0000 0.0000 29.3171 0.0000 0.0000
# 5 0.0000 0.0000 0.0000 0.0000 17.1923 0.0000
# 6 0.0000 0.0000 0.0000 0.0000 0.0000 17.5903
#
#
#
# Elastic Compliance Matrix: (Units=1/GPa)
#
#
# Indices 1 2 3 4 5 6 
#
# 1 0.055363 -0.019958 -0.007358 0.000000 0.000000 0.000000
# 2 -0.019958 0.038316 -0.013069 0.000000 0.000000 0.000000
# 3 -0.007358 -0.013069 0.015174 0.000000 0.000000 0.000000
# 4 0.000000 0.000000 0.000000 0.034110 0.000000 0.000000
# 5 0.000000 0.000000 0.000000 0.000000 0.058166 0.000000
# 6 0.000000 0.000000 0.000000 0.000000 0.000000 0.056849
#
#
# Mechanical properties :
#
#
# Convention : Reuss Voigt Hill
#
# Bulk Modulus (GPa) = 35.60869 67.47939 51.54404
# Shear Modulus (GPa) = 14.36331 19.67116 17.01724
#
# Velocity S-wave (km/s) = 2.90608 3.40091 3.16318
# Velocity P-wave (km/s) = 5.67428 7.42279 6.60664
#
# Compressibility (1/GPa) = 0.02808303
#
# Stress axis : x y z
#
# Youngs Moduli (GPa) = 18.06248 26.09894 65.90196
#
# Poissons Ratio (x) = 0.52087 0.48491
# Poissons Ratio (y) = 0.36048 0.86130
# Poissons Ratio (z) = 0.13291 0.34110
#
# Static dielectric constant tensor:
#      x y z
#    x 1.580530 0.000000 0.000000 
#    y 0.000000 1.566090 0.000000 
#    z 0.000000 0.000000 1.558770 
# 
# From -- ./inp_files/30800.got.cif
#   From: 2010.05.17/outbox.cif.g08.bks.cpg/sg59_16_cif.got.tgz:30800.got - 2010.06.03 14:40:33.
