data_PCOD9450650
_publ_section_title
;
Structure prediction by ZEFSAII (Michael W. Deem and Ramdas Pophale) SiO2 
 PCOD9450650
Probable space group: P M M N
;
_chemical_formula_sum "Si O2"
_cell_formula_units_Z 56
_cell_length_a 15.804879
_cell_length_b 14.637714
_cell_length_c 12.162204
_cell_angle_alpha 90.000000
_cell_angle_beta 90.000000
_cell_angle_gamma 90.000000
_cell_volume 2813.693041
_symmetry_space_group_name_H-M "P M M N"
_symmetry_group_IT_number 59
_space_group.IT_coordinate_system_code '2'
_symmetry_cell_setting 'orthorhombic'
loop_
_space_group_symop_operation_xyz
x,y,z
1/2-x,1/2-y,z
1/2+x,-y,-z
-x,1/2+y,-z
-x,-y,-z
1/2+x,1/2+y,-z
1/2-x,y,z
x,1/2-y,z
loop_
_atom_site_type_symbol
_atom_site_label
_atom_site_fract_x
_atom_site_fract_y
_atom_site_fract_z
Si Si1 0.655487 0.641468 0.538126
Si Si2 0.410000 0.050544 0.250158
Si Si3 0.559514 0.353098 0.115042
Si Si4 0.846473 0.004555 0.976131
Si Si5 0.850954 0.855912 0.156002
Si Si6 0.650953 0.351860 0.337325
Si Si7 0.440197 0.461167 0.642960
O O1 0.750000 0.611494 0.501230
O O2 0.652172 0.750000 0.530249
O O3 0.640595 0.610367 0.662770
O O4 0.583405 0.599173 0.461280
O O5 0.479739 0.110291 0.184130
O O6 0.355005 0.007971 0.153577
O O7 0.463605 0.977059 0.320512
O O8 0.545656 0.250000 0.077061
O O9 0.634405 0.353878 0.206037
O O10 0.587172 0.421455 0.020004
O O11 0.750000 0.030700 0.004217
O O12 0.864845 0.910390 0.042175
O O13 0.750000 0.855993 0.176417
O O14 0.878729 0.750000 0.153012
O O15 0.894691 0.913786 0.252449
O O16 0.750000 0.361888 0.360961
O O17 0.622673 0.250000 0.374217
O O18 0.599074 0.438385 0.379919
#
# Coordination Sequence:
#
# PCOD9450650 Si02
#       7
#     8   8   8   8   8   8   8
#     4  11  24  42  65  90 119 160 204 248 303 369
#     4  11  23  40  58  89 124 159 196 253 301 358
#     4  10  20  34  58  86 117 156 198 246 295 350
#     4  11  22  39  60  86 123 164 204 242 295 364
#     4  10  20  34  56  88 123 160 203 252 304 357
#     4   9  16  28  51  83 114 147 192 243 294 347
#     4  11  21  37  60  85 122 153 202 255 308 359
#
# _framework density 19.902667999999998
#
# number of rings (size 3 to 8) (size 9 to 14) (size 15 to 20)
#    0.000    1.571    2.857    3.857    0.000    3.714 
#    0.000    2.143    0.000    0.857    0.000    0.000 
#    0.000    0.000    0.000    0.000    0.000    0.000 
#
# Total GULP energy -312760.435030 kJ/mol
# GULP energy per Si atom -5585.007768 kJ/mol
# Density = 1.985737 g / cm^3
# Si number density = 19.902668 Si / 1000 Ang^3
#
#
#
# Elastic Constant Matrix: (Units=GPa)
#
#
# Indices 1 2 3 4 5 6 
#
# 1 48.6215 25.3171 10.4454 0.0000 0.0000 0.0000
# 2 25.3171 90.1398 20.7079 0.0000 0.0000 0.0000
# 3 10.4454 20.7079 74.3432 0.0000 0.0000 0.0000
# 4 0.0000 0.0000 0.0000 16.8855 0.0000 0.0000
# 5 0.0000 0.0000 0.0000 0.0000 53.7710 0.0000
# 6 0.0000 0.0000 0.0000 0.0000 0.0000 11.3378
#
#
#
# Elastic Compliance Matrix: (Units=1/GPa)
#
#
# Indices 1 2 3 4 5 6 
#
# 1 0.024270 -0.006446 -0.001615 0.000000 0.000000 0.000000
# 2 -0.006446 0.013564 -0.002873 0.000000 0.000000 0.000000
# 3 -0.001615 -0.002873 0.014478 0.000000 0.000000 0.000000
# 4 0.000000 0.000000 0.000000 0.059223 0.000000 0.000000
# 5 0.000000 0.000000 0.000000 0.000000 0.018597 0.000000
# 6 0.000000 0.000000 0.000000 0.000000 0.000000 0.088201
#
#
# Mechanical properties :
#
#
# Convention : Reuss Voigt Hill
#
# Bulk Modulus (GPa) = 32.84435 36.22728 34.53582
# Shear Modulus (GPa) = 19.97221 26.84113 23.40667
#
# Velocity S-wave (km/s) = 3.17123 3.67634 3.43309
# Velocity P-wave (km/s) = 5.47241 6.02182 5.75368
#
# Compressibility (1/GPa) = 0.03044664
#
# Stress axis : x y z
#
# Youngs Moduli (GPa) = 41.20289 73.72365 69.06970
#
# Poissons Ratio (x) = 0.47520 0.11152
# Poissons Ratio (y) = 0.26558 0.19841
# Poissons Ratio (z) = 0.06653 0.21178
#
# Static dielectric constant tensor:
#      x y z
#    x 1.717800 0.000000 0.000000 
#    y 0.000000 1.700290 0.000000 
#    z 0.000000 0.000000 1.700200 
# 
# From -- ./inp_files/16915.got.cif
#   From: 2010.05.17/outbox.cif.g08.bks.cpg/sg59_9_cif.got.tgz:16915.got - 2010.06.03 14:40:33.
