data_PCOD9450415
_publ_section_title
;
Structure prediction by ZEFSAII (Michael W. Deem and Ramdas Pophale) SiO2 
 PCOD9450415
Probable space group: P M M N
;
_chemical_formula_sum "Si O2"
_cell_formula_units_Z 64
_cell_length_a 29.605449
_cell_length_b 7.716980
_cell_length_c 13.126086
_cell_angle_alpha 90.000000
_cell_angle_beta 90.000000
_cell_angle_gamma 90.000000
_cell_volume 2998.846747
_symmetry_space_group_name_H-M "P M M N"
_symmetry_group_IT_number 59
_space_group.IT_coordinate_system_code '2'
_symmetry_cell_setting 'orthorhombic'
loop_
_space_group_symop_operation_xyz
x,y,z
1/2-x,1/2-y,z
1/2+x,-y,-z
-x,1/2+y,-z
-x,-y,-z
1/2+x,1/2+y,-z
1/2-x,y,z
x,1/2-y,z
loop_
_atom_site_type_symbol
_atom_site_label
_atom_site_fract_x
_atom_site_fract_y
_atom_site_fract_z
Si Si1 0.630350 0.547033 0.598201
Si Si2 0.049760 0.539288 0.745600
Si Si3 0.861659 0.045376 0.373039
Si Si4 0.147240 0.462980 0.024019
Si Si5 0.198369 0.459262 0.819737
Si Si6 0.301740 0.462366 0.229180
Si Si7 0.550981 0.947038 0.021949
Si Si8 0.028198 0.041620 0.398371
O O1 0.625673 0.750000 0.623525
O O2 0.647934 0.533452 0.482887
O O3 0.665714 0.475827 0.679886
O O4 0.579323 0.472690 0.600678
O O5 0.050672 0.750000 0.752890
O O6 0.090099 0.483112 0.670848
O O7 0.057760 0.465384 0.857095
O O8 0.002177 0.484361 0.697188
O O9 0.865527 0.250000 0.388638
O O10 0.825380 0.011170 0.285254
O O11 0.146742 0.250000 0.022145
O O12 0.169955 0.519311 0.917848
O O13 0.095538 0.528814 0.028603
O O14 0.176590 0.513754 0.121277
O O15 0.250000 0.519941 0.825097
O O16 0.198754 0.250000 0.823132
O O17 0.250000 0.519855 0.239429
O O18 0.300949 0.250000 0.230973
O O19 0.552529 0.750000 0.988212
O O20 0.500000 0.000000 0.000000
O O21 0.030360 0.250000 0.393672
O O22 0.000000 0.000000 0.500000
#
# Coordination Sequence:
#
# PCOD9450415 Si02
#       8
#     8   8   8   8   8   8   8   8
#     4  10  21  35  57  85 114 150 194 240 284 337
#     4  10  21  37  56  79 113 153 191 233 284 340
#     4  11  22  37  57  82 117 154 189 234 289 349
#     4   9  18  34  58  85 113 146 185 232 285 337
#     4  10  20  36  60  88 114 142 187 242 290 343
#     4   9  18  34  57  84 111 142 186 239 290 334
#     4  11  23  37  57  85 119 153 186 228 282 345
#     4  10  20  34  54  80 111 147 189 233 277 333
#
# _framework density 21.341536999999999
#
# number of rings (size 3 to 8) (size 9 to 14) (size 15 to 20)
#    0.000    2.000    2.500    1.125    1.750    3.250 
#    0.000    1.250    0.000    0.750    0.000    0.000 
#    0.000    0.000    0.000    0.000    0.000    0.000 
#
# Total GULP energy -357444.644825 kJ/mol
# GULP energy per Si atom -5585.072575 kJ/mol
# Density = 2.129296 g / cm^3
# Si number density = 21.341537 Si / 1000 Ang^3
#
#
#
# Elastic Constant Matrix: (Units=GPa)
#
#
# Indices 1 2 3 4 5 6 
#
# 1 200.5232 9.5459 80.0849 0.0000 0.0000 0.0000
# 2 9.5459 27.8953 -15.4590 0.0000 0.0000 0.0000
# 3 80.0849 -15.4590 73.0591 0.0000 0.0000 0.0000
# 4 0.0000 0.0000 0.0000 6.3474 0.0000 0.0000
# 5 0.0000 0.0000 0.0000 0.0000 35.0355 0.0000
# 6 0.0000 0.0000 0.0000 0.0000 0.0000 14.9338
#
#
#
# Elastic Compliance Matrix: (Units=1/GPa)
#
#
# Indices 1 2 3 4 5 6 
#
# 1 0.011871 -0.012772 -0.015715 0.000000 0.000000 0.000000
# 2 -0.012772 0.054350 0.025500 0.000000 0.000000 0.000000
# 3 -0.015715 0.025500 0.036310 0.000000 0.000000 0.000000
# 4 0.000000 0.000000 0.000000 0.157545 0.000000 0.000000
# 5 0.000000 0.000000 0.000000 0.000000 0.028542 0.000000
# 6 0.000000 0.000000 0.000000 0.000000 0.000000 0.066962
#
#
# Mechanical properties :
#
#
# Convention : Reuss Voigt Hill
#
# Bulk Modulus (GPa) = 10.35649 49.98012 30.16831
# Shear Modulus (GPa) = 12.69871 26.41706 19.55788
#
# Velocity S-wave (km/s) = 2.44196 3.52209 3.03053
# Velocity P-wave (km/s) = 3.57968 6.32536 5.13928
#
# Compressibility (1/GPa) = 0.09655778
#
# Stress axis : x y z
#
# Youngs Moduli (GPa) = 84.23652 18.39916 27.54071
#
# Poissons Ratio (x) = 0.23499 0.43281
# Poissons Ratio (y) = 1.07583 -0.70229
# Poissons Ratio (z) = 1.32381 -0.46918
#
# Static dielectric constant tensor:
#      x y z
#    x 1.791380 0.000000 0.000000 
#    y 0.000000 1.808610 0.000000 
#    z 0.000000 0.000000 1.728460 
# 
# From -- ./inp_files/15009.got.cif
#   From: 2010.05.17/outbox.cif.g08.bks.cpg/sg59_8_cif.got.tgz:15009.got - 2010.06.03 14:40:33.
