data_PCOD9450432
_publ_section_title
;
Structure prediction by ZEFSAII (Michael W. Deem and Ramdas Pophale) SiO2 
 PCOD9450432
Probable space group: P M M N
;
_chemical_formula_sum "Si O2"
_cell_formula_units_Z 48
_cell_length_a 8.755759
_cell_length_b 9.240487
_cell_length_c 31.844329
_cell_angle_alpha 90.000000
_cell_angle_beta 90.000000
_cell_angle_gamma 90.000000
_cell_volume 2576.444323
_symmetry_space_group_name_H-M "P M M N"
_symmetry_group_IT_number 59
_space_group.IT_coordinate_system_code '2'
_symmetry_cell_setting 'orthorhombic'
loop_
_space_group_symop_operation_xyz
x,y,z
1/2-x,1/2-y,z
1/2+x,-y,-z
-x,1/2+y,-z
-x,-y,-z
1/2+x,1/2+y,-z
1/2-x,y,z
x,1/2-y,z
loop_
_atom_site_type_symbol
_atom_site_label
_atom_site_fract_x
_atom_site_fract_y
_atom_site_fract_z
Si Si1 0.434831 0.080758 0.878569
Si Si2 0.936132 0.416646 0.206272
Si Si3 0.066745 0.419346 0.040519
Si Si4 0.932624 0.919390 0.629388
Si Si5 0.565417 0.918250 0.290542
Si Si6 0.931077 0.078144 0.459726
O O1 0.250000 0.072589 0.881245
O O2 0.476957 0.250000 0.879046
O O3 0.482614 0.005070 0.835039
O O4 0.504896 0.996905 0.917852
O O5 0.750000 0.416469 0.206522
O O6 0.986653 0.250000 0.204569
O O7 0.985220 0.494636 0.249105
O O8 0.250000 0.427514 0.039474
O O9 0.022466 0.250000 0.040251
O O10 0.000000 0.500000 0.000000
O O11 0.750000 0.927431 0.629189
O O12 0.977444 0.750000 0.634505
O O13 0.995466 0.970011 0.584316
O O14 0.998964 0.010245 0.667719
O O15 0.750000 0.925982 0.292380
O O16 0.522475 0.750000 0.287197
O O17 0.750000 0.054925 0.458055
O O18 0.960379 0.250000 0.463493
O O19 0.000000 0.000000 0.500000
#
# Coordination Sequence:
#
# PCOD9450432 Si02
#       6
#     8   8   8   8   8   8
#     4  10  20  35  57  85 115 146 182 225 273 326
#     4   9  17  31  54  82 111 145 183 223 269 321
#     4  11  24  40  58  82 111 144 184 228 274 326
#     4  10  21  37  56  78 106 142 183 226 272 322
#     4  10  20  34  54  81 111 143 181 225 271 320
#     4  10  21  37  58  83 110 142 180 222 270 324
#
# _framework density 18.630327000000001
#
# number of rings (size 3 to 8) (size 9 to 14) (size 15 to 20)
#    0.000    2.000    0.000    3.500    0.000   10.000 
#    0.000    0.833    0.000    5.000    0.000    0.000 
#    0.000    0.000    0.000    0.000    0.000    0.000 
#
# Total GULP energy -268173.864545 kJ/mol
# GULP energy per Si atom -5586.955511 kJ/mol
# Density = 1.858792 g / cm^3
# Si number density = 18.630327 Si / 1000 Ang^3
#
#
#
# Elastic Constant Matrix: (Units=GPa)
#
#
# Indices 1 2 3 4 5 6 
#
# 1 21.4145 48.8233 49.5320 0.0000 0.0000 0.0000
# 2 48.8233 166.6739 125.2525 0.0000 0.0000 0.0000
# 3 49.5320 125.2525 223.5112 0.0000 0.0000 0.0000
# 4 0.0000 0.0000 0.0000 43.6311 0.0000 0.0000
# 5 0.0000 0.0000 0.0000 0.0000 32.4777 0.0000
# 6 0.0000 0.0000 0.0000 0.0000 0.0000 25.4182
#
#
#
# Elastic Compliance Matrix: (Units=1/GPa)
#
#
# Indices 1 2 3 4 5 6 
#
# 1 0.171286 -0.037398 -0.017001 0.000000 0.000000 0.000000
# 2 -0.037398 0.018530 -0.002096 0.000000 0.000000 0.000000
# 3 -0.017001 -0.002096 0.009416 0.000000 0.000000 0.000000
# 4 0.000000 0.000000 0.000000 0.022919 0.000000 0.000000
# 5 0.000000 0.000000 0.000000 0.000000 0.030790 0.000000
# 6 0.000000 0.000000 0.000000 0.000000 0.000000 0.039342
#
#
# Mechanical properties :
#
#
# Convention : Reuss Voigt Hill
#
# Bulk Modulus (GPa) = 11.59540 95.42393 53.50966
# Shear Modulus (GPa) = 11.52017 32.83819 22.17918
#
# Velocity S-wave (km/s) = 2.48937 4.20291 3.45409
# Velocity P-wave (km/s) = 3.80790 8.65352 6.68519
#
# Compressibility (1/GPa) = 0.08624111
#
# Stress axis : x y z
#
# Youngs Moduli (GPa) = 5.83820 53.96674 106.19977
#
# Poissons Ratio (x) = 2.01827 1.80549
# Poissons Ratio (y) = 0.21834 0.22260
# Poissons Ratio (z) = 0.09925 0.11312
#
# Static dielectric constant tensor:
#      x y z
#    x 1.632630 0.000000 0.000000 
#    y 0.000000 1.629680 0.000000 
#    z 0.000000 0.000000 1.603080 
# 
# From -- ./inp_files/32790.got.cif
#   From: 2010.05.17/outbox.cif.g08.bks.cpg/sg59_17_cif.got.tgz:32790.got - 2010.06.03 14:40:33.
