data_PCOD9450959
_publ_section_title
;
Structure prediction by ZEFSAII (Michael W. Deem and Ramdas Pophale) SiO2 
 PCOD9450959
Probable space group: P M M N
;
_chemical_formula_sum "Si O2"
_cell_formula_units_Z 48
_cell_length_a 7.796158
_cell_length_b 17.430438
_cell_length_c 16.662447
_cell_angle_alpha 90.000000
_cell_angle_beta 90.000000
_cell_angle_gamma 90.000000
_cell_volume 2264.267399
_symmetry_space_group_name_H-M "P M M N"
_symmetry_group_IT_number 59
_space_group.IT_coordinate_system_code '2'
_symmetry_cell_setting 'orthorhombic'
loop_
_space_group_symop_operation_xyz
x,y,z
1/2-x,1/2-y,z
1/2+x,-y,-z
-x,1/2+y,-z
-x,-y,-z
1/2+x,1/2+y,-z
1/2-x,y,z
x,1/2-y,z
loop_
_atom_site_type_symbol
_atom_site_label
_atom_site_fract_x
_atom_site_fract_y
_atom_site_fract_z
Si Si1 0.043590 0.913531 0.024979
Si Si2 0.562764 0.750000 0.316297
Si Si3 0.041558 0.546956 0.726008
Si Si4 0.540441 0.164420 0.136465
Si Si5 0.043586 0.918963 0.544285
Si Si6 0.555433 0.250000 0.511804
Si Si7 0.450048 0.884485 0.204531
O O1 0.250000 0.907840 0.028558
O O2 0.979929 0.892837 0.113816
O O3 0.982211 0.860828 0.951937
O O4 0.000000 0.000000 0.000000
O O5 0.750000 0.750000 0.354256
O O6 0.438638 0.750000 0.391778
O O7 0.541049 0.822400 0.259074
O O8 0.250000 0.542135 0.727267
O O9 0.986310 0.606285 0.794583
O O10 0.989881 0.571625 0.636982
O O11 0.968460 0.465362 0.751445
O O12 0.750000 0.162892 0.135229
O O13 0.485107 0.250000 0.154953
O O14 0.250000 0.915248 0.540209
O O15 0.981112 0.834679 0.512631
O O16 0.000000 0.000000 0.500000
O O17 0.750000 0.250000 0.478189
O O18 0.250000 0.862561 0.199414
#
# Coordination Sequence:
#
# PCOD9450959 Si02
#       7
#     8   4   8   8   8   4   8
#     4  10  20  35  57  82 113 153 196 239 288 343
#     4  12  26  42  62  87 116 152 199 246 293 353
#     4  10  20  36  60  88 117 152 198 243 289 352
#     4   9  18  32  55  84 114 149 192 241 285 336
#     4  10  22  38  60  88 118 153 194 243 299 358
#     4  10  22  42  64  89 122 156 193 246 307 363
#     4  11  23  38  59  87 121 158 196 242 297 351
#
# _framework density 21.198907999999999
#
# number of rings (size 3 to 8) (size 9 to 14) (size 15 to 20)
#    0.000    1.833    1.667    2.250    2.333    4.667 
#    0.000    0.000    0.000    1.500    0.000    0.000 
#    0.000    0.000    0.000    0.000    0.000    0.000 
#
# Total GULP energy -267993.952522 kJ/mol
# GULP energy per Si atom -5583.207344 kJ/mol
# Density = 2.115066 g / cm^3
# Si number density = 21.198908 Si / 1000 Ang^3
#
#
#
# Elastic Constant Matrix: (Units=GPa)
#
#
# Indices 1 2 3 4 5 6 
#
# 1 35.6049 4.7963 8.0601 0.0000 0.0000 0.0000
# 2 4.7963 175.3103 72.5492 0.0000 0.0000 0.0000
# 3 8.0601 72.5492 155.3240 0.0000 0.0000 0.0000
# 4 0.0000 0.0000 0.0000 10.9261 0.0000 0.0000
# 5 0.0000 0.0000 0.0000 0.0000 15.7469 0.0000
# 6 0.0000 0.0000 0.0000 0.0000 0.0000-1167.4842
#
#
#
# Elastic Compliance Matrix: (Units=1/GPa)
#
#
# Indices 1 2 3 4 5 6 
#
# 1 0.028426 -0.000207 -0.001378 0.000000 0.000000 0.000000
# 2 -0.000207 0.007072 -0.003293 0.000000 0.000000 0.000000
# 3 -0.001378 -0.003293 0.008048 0.000000 0.000000 0.000000
# 4 0.000000 0.000000 0.000000 0.091524 0.000000 0.000000
# 5 0.000000 0.000000 0.000000 0.000000 0.063505 0.000000
# 6 0.000000 0.000000 0.000000 0.000000 0.000000 -0.000857
#
#
# Mechanical properties :
#
#
# Convention : Reuss Voigt Hill
#
# Bulk Modulus (GPa) = 29.59498 59.67229 44.63363
# Shear Modulus (GPa) = 22.85844 -209.44000 -93.29078
#
# Velocity S-wave (km/s) = 3.28729 -9.95048 -6.64100
# Velocity P-wave (km/s) = 5.32909 10.18853 6.14031
#
# Compressibility (1/GPa) = 0.03378952
#
# Stress axis : x y z
#
# Youngs Moduli (GPa) = 35.17913 141.39349 124.26027
#
# Poissons Ratio (x) = 0.02932 0.17126
# Poissons Ratio (y) = 0.00729 0.40915
# Poissons Ratio (z) = 0.04849 0.46556
#
# Static dielectric constant tensor:
#      x y z
#    x 1.805040 0.000000 0.000000 
#    y 0.000000 1.697040 0.000000 
#    z 0.000000 0.000000 0.634110 
# 
# From -- ./inp_files/20603.got.cif
#   From: 2010.05.17/outbox.cif.g08.bks.cpg/sg59_11_cif.got.tgz:20603.got - 2010.06.03 14:40:33.
