data_PCOD9450918
_publ_section_title
;
Structure prediction by ZEFSAII (Michael W. Deem and Ramdas Pophale) SiO2 
 PCOD9450918
Probable space group: P M M N
;
_chemical_formula_sum "Si O2"
_cell_formula_units_Z 64
_cell_length_a 7.631155
_cell_length_b 29.997082
_cell_length_c 12.926816
_cell_angle_alpha 90.000000
_cell_angle_beta 90.000000
_cell_angle_gamma 90.000000
_cell_volume 2959.108246
_symmetry_space_group_name_H-M "P M M N"
_symmetry_group_IT_number 59
_space_group.IT_coordinate_system_code '2'
_symmetry_cell_setting 'orthorhombic'
loop_
_space_group_symop_operation_xyz
x,y,z
1/2-x,1/2-y,z
1/2+x,-y,-z
-x,1/2+y,-z
-x,-y,-z
1/2+x,1/2+y,-z
1/2-x,y,z
x,1/2-y,z
loop_
_atom_site_type_symbol
_atom_site_label
_atom_site_fract_x
_atom_site_fract_y
_atom_site_fract_z
Si Si1 0.039851 0.300482 0.434218
Si Si2 0.460540 0.799274 0.996506
Si Si3 0.538276 0.156612 0.212333
Si Si4 0.539471 0.977256 0.109514
Si Si5 0.541576 0.550292 0.529620
Si Si6 0.452784 0.940619 0.763677
Si Si7 0.539444 0.622233 0.156498
Si Si8 0.964284 0.631903 0.390130
O O1 0.250000 0.298332 0.444524
O O2 0.971148 0.250000 0.432855
O O3 0.975455 0.329532 0.531418
O O4 0.005050 0.324566 0.325228
O O5 0.250000 0.796880 0.990975
O O6 0.525763 0.750000 0.026445
O O7 0.524126 0.812820 0.881918
O O8 0.500772 0.838694 0.075961
O O9 0.750000 0.154785 0.207552
O O10 0.469232 0.106120 0.198136
O O11 0.750000 0.973831 0.120650
O O12 0.472312 0.926750 0.122125
O O13 0.471783 0.013041 0.193871
O O14 0.500000 0.000000 0.000000
O O15 0.500000 0.500000 0.500000
O O16 0.750000 0.555480 0.541414
O O17 0.459711 0.560755 0.640257
O O18 0.484135 0.585036 0.442221
O O19 0.250000 0.940584 0.797298
O O20 0.750000 0.619054 0.162650
O O21 0.475521 0.634128 0.271962
O O22 0.750000 0.633190 0.388724
#
# Coordination Sequence:
#
# PCOD9450918 Si02
#       8
#     8   8   8   8   8   8   8   8
#     4  10  20  35  57  84 113 146 187 235 285 340
#     4  10  22  40  60  83 113 150 190 236 295 353
#     4  10  20  36  59  84 114 149 186 233 287 345
#     4  10  21  37  57  83 116 153 196 243 290 343
#     4  11  21  35  56  81 113 150 188 231 279 336
#     4  10  20  35  56  83 114 148 189 236 285 340
#     4  10  21  38  60  84 112 149 193 240 286 339
#     4   9  19  37  57  80 112 148 185 231 285 335
#
# _framework density 21.628138
#
# number of rings (size 3 to 8) (size 9 to 14) (size 15 to 20)
#    0.000    2.000    1.250    2.250    0.000    6.000 
#    0.000    4.375    0.000    0.000    0.000    0.000 
#    0.000    0.000    0.000    0.000    0.000    0.000 
#
# Total GULP energy -357513.770040 kJ/mol
# GULP energy per Si atom -5586.152657 kJ/mol
# Density = 2.157891 g / cm^3
# Si number density = 21.628138 Si / 1000 Ang^3
#
#
#
# Elastic Constant Matrix: (Units=GPa)
#
#
# Indices 1 2 3 4 5 6 
#
# 1 44.3387 10.7945 -2.7253 0.0000 0.0000 0.0000
# 2 10.7945 213.5721 92.5050 0.0000 0.0000 0.0000
# 3 -2.7253 92.5050 151.2315 0.0000 0.0000 0.0000
# 4 0.0000 0.0000 0.0000 37.0095 0.0000 0.0000
# 5 0.0000 0.0000 0.0000 0.0000 21.0730 0.0000
# 6 0.0000 0.0000 0.0000 0.0000 0.0000 19.2665
#
#
#
# Elastic Compliance Matrix: (Units=1/GPa)
#
#
# Indices 1 2 3 4 5 6 
#
# 1 0.023094 -0.001833 0.001538 0.000000 0.000000 0.000000
# 2 -0.001833 0.006515 -0.004018 0.000000 0.000000 0.000000
# 3 0.001538 -0.004018 0.009098 0.000000 0.000000 0.000000
# 4 0.000000 0.000000 0.000000 0.027020 0.000000 0.000000
# 5 0.000000 0.000000 0.000000 0.000000 0.047454 0.000000
# 6 0.000000 0.000000 0.000000 0.000000 0.000000 0.051904
#
#
# Mechanical properties :
#
#
# Convention : Reuss Voigt Hill
#
# Bulk Modulus (GPa) = 33.24492 67.81009 50.52751
# Shear Modulus (GPa) = 27.21231 36.04100 31.62666
#
# Velocity S-wave (km/s) = 3.55095 4.08658 3.82814
# Velocity P-wave (km/s) = 5.67598 7.32718 6.55379
#
# Compressibility (1/GPa) = 0.03007978
#
# Stress axis : x y z
#
# Youngs Moduli (GPa) = 43.30043 153.48251 109.91386
#
# Poissons Ratio (x) = 0.28137 -0.16899
# Poissons Ratio (y) = 0.07938 0.44167
# Poissons Ratio (z) = -0.06658 0.61675
#
# Static dielectric constant tensor:
#      x y z
#    x 1.824800 0.000000 0.000000 
#    y 0.000000 1.807810 0.000000 
#    z 0.000000 0.000000 1.748760 
# 
# From -- ./inp_files/14882.got.cif
#   From: 2010.05.17/outbox.cif.g08.bks.cpg/sg59_8_cif.got.tgz:14882.got - 2010.06.03 14:40:33.
