data_PCOD9450840
_publ_section_title
;
Structure prediction by ZEFSAII (Michael W. Deem and Ramdas Pophale) SiO2 
 PCOD9450840
Probable space group: P M M N
;
_chemical_formula_sum "Si O2"
_cell_formula_units_Z 56
_cell_length_a 8.642032
_cell_length_b 21.543464
_cell_length_c 16.482143
_cell_angle_alpha 90.000000
_cell_angle_beta 90.000000
_cell_angle_gamma 90.000000
_cell_volume 3068.633933
_symmetry_space_group_name_H-M "P M M N"
_symmetry_group_IT_number 59
_space_group.IT_coordinate_system_code '2'
_symmetry_cell_setting 'orthorhombic'
loop_
_space_group_symop_operation_xyz
x,y,z
1/2-x,1/2-y,z
1/2+x,-y,-z
-x,1/2+y,-z
-x,-y,-z
1/2+x,1/2+y,-z
1/2-x,y,z
x,1/2-y,z
loop_
_atom_site_type_symbol
_atom_site_label
_atom_site_fract_x
_atom_site_fract_y
_atom_site_fract_z
Si Si1 0.933646 0.750000 0.607534
Si Si2 0.568086 0.250000 0.213936
Si Si3 0.065057 0.122602 0.187360
Si Si4 0.934983 0.371252 0.480924
Si Si5 0.565158 0.546891 0.652338
Si Si6 0.937429 0.068802 0.763755
Si Si7 0.561513 0.178414 0.654173
Si Si8 0.065209 0.506661 0.909887
O O1 0.750000 0.750000 0.596443
O O2 0.974263 0.750000 0.701972
O O3 0.005883 0.810892 0.567155
O O4 0.750000 0.250000 0.230600
O O5 0.517954 0.312849 0.170076
O O6 0.250000 0.128860 0.182103
O O7 0.028290 0.098605 0.278764
O O8 0.005891 0.068910 0.128781
O O9 0.750000 0.372601 0.480489
O O10 0.987056 0.358745 0.573168
O O11 0.993480 0.431343 0.432243
O O12 0.750000 0.545260 0.642364
O O13 0.518637 0.482081 0.694436
O O14 0.750000 0.065263 0.771387
O O15 0.981927 0.136547 0.731184
O O16 0.010999 0.047469 0.848151
O O17 0.750000 0.180283 0.652424
O O18 0.507920 0.250000 0.653666
O O19 0.250000 0.509718 0.910929
O O20 0.000000 0.500000 0.000000
#
# Coordination Sequence:
#
# PCOD9450840 Si02
#       8
#     4   4   8   8   8   8   8   8
#     4  12  22  32  46  70 107 152 195 236 280 322
#     4  12  22  32  52  82 115 152 191 230 274 332
#     4  10  20  35  55  82 117 152 184 223 278 333
#     4  11  20  31  50  76 106 145 197 242 276 321
#     4   9  18  31  48  74 110 146 183 226 282 336
#     4   9  19  37  59  81 110 145 183 229 287 344
#     4   9  18  34  56  80 106 145 194 240 282 327
#     4  11  22  39  64  90 114 140 181 228 277 342
#
# _framework density 18.249162999999999
#
# number of rings (size 3 to 8) (size 9 to 14) (size 15 to 20)
#    0.000    1.857    2.143    4.286    0.000    2.857 
#    0.000    1.429    1.571    0.000    0.000    0.000 
#    0.000    0.000    0.000    0.000    0.000    0.000 
#
# Total GULP energy -312599.137261 kJ/mol
# GULP energy per Si atom -5582.127451 kJ/mol
# Density = 1.820763 g / cm^3
# Si number density = 18.249163 Si / 1000 Ang^3
#
#
#
# Elastic Constant Matrix: (Units=GPa)
#
#
# Indices 1 2 3 4 5 6 
#
# 1 21.9493 15.7572 9.1676 0.0000 0.0000 0.0000
# 2 15.7572 73.2495 51.7648 0.0000 0.0000 0.0000
# 3 9.1676 51.7648 103.7313 0.0000 0.0000 0.0000
# 4 0.0000 0.0000 0.0000 20.0093 0.0000 0.0000
# 5 0.0000 0.0000 0.0000 0.0000 21.1429 0.0000
# 6 0.0000 0.0000 0.0000 0.0000 0.0000 22.0690
#
#
#
# Elastic Compliance Matrix: (Units=1/GPa)
#
#
# Indices 1 2 3 4 5 6 
#
# 1 0.054048 -0.012746 0.001584 0.000000 0.000000 0.000000
# 2 -0.012746 0.024095 -0.010898 0.000000 0.000000 0.000000
# 3 0.001584 -0.010898 0.014939 0.000000 0.000000 0.000000
# 4 0.000000 0.000000 0.000000 0.049977 0.000000 0.000000
# 5 0.000000 0.000000 0.000000 0.000000 0.047297 0.000000
# 6 0.000000 0.000000 0.000000 0.000000 0.000000 0.045312
#
#
# Mechanical properties :
#
#
# Convention : Reuss Voigt Hill
#
# Bulk Modulus (GPa) = 20.42382 39.14549 29.78465
# Shear Modulus (GPa) = 16.88568 20.79361 18.83965
#
# Velocity S-wave (km/s) = 3.04515 3.37920 3.21652
# Velocity P-wave (km/s) = 4.85591 6.05991 5.49101
#
# Compressibility (1/GPa) = 0.04896243
#
# Stress axis : x y z
#
# Youngs Moduli (GPa) = 18.50195 41.50211 66.94095
#
# Poissons Ratio (x) = 0.52899 -0.10603
# Poissons Ratio (y) = 0.23583 0.72950
# Poissons Ratio (z) = -0.02931 0.45228
#
# Static dielectric constant tensor:
#      x y z
#    x 1.655700 0.000000 0.000000 
#    y 0.000000 1.547600 0.000000 
#    z 0.000000 0.000000 1.625530 
# 
# From -- ./inp_files/21234.got.cif
#   From: 2010.05.17/outbox.cif.g08.bks.cpg/sg59_11_cif.got.tgz:21234.got - 2010.06.03 14:40:33.
