data_PCOD9450691
_publ_section_title
;
Structure prediction by ZEFSAII (Michael W. Deem and Ramdas Pophale) SiO2 
 PCOD9450691
Probable space group: P M M N
;
_chemical_formula_sum "Si O2"
_cell_formula_units_Z 56
_cell_length_a 14.724177
_cell_length_b 9.141199
_cell_length_c 22.844820
_cell_angle_alpha 90.000000
_cell_angle_beta 90.000000
_cell_angle_gamma 90.000000
_cell_volume 3074.835832
_symmetry_space_group_name_H-M "P M M N"
_symmetry_group_IT_number 59
_space_group.IT_coordinate_system_code '2'
_symmetry_cell_setting 'orthorhombic'
loop_
_space_group_symop_operation_xyz
x,y,z
1/2-x,1/2-y,z
1/2+x,-y,-z
-x,1/2+y,-z
-x,-y,-z
1/2+x,1/2+y,-z
1/2-x,y,z
x,1/2-y,z
loop_
_atom_site_type_symbol
_atom_site_label
_atom_site_fract_x
_atom_site_fract_y
_atom_site_fract_z
Si Si1 0.994523 0.925012 0.709202
Si Si2 0.643134 0.575939 0.604720
Si Si3 0.750000 0.425055 0.886859
Si Si4 0.442771 0.574113 0.169543
Si Si5 0.360666 0.916924 0.514039
Si Si6 0.141424 0.422429 0.633770
Si Si7 0.947370 0.925842 0.053583
Si Si8 0.750000 0.574497 0.013519
O O1 0.002138 0.750000 0.712846
O O2 0.916702 0.960360 0.661160
O O3 0.969033 0.992835 0.771381
O O4 0.086306 0.995034 0.683887
O O5 0.750000 0.543049 0.614758
O O6 0.635876 0.750000 0.593861
O O7 0.611644 0.491206 0.546726
O O8 0.750000 0.250000 0.896537
O O9 0.840711 0.462224 0.851210
O O10 0.750000 0.501856 0.949730
O O11 0.448215 0.750000 0.178094
O O12 0.508332 0.533685 0.115454
O O13 0.250000 0.915087 0.513135
O O14 0.392871 0.750000 0.518671
O O15 0.385994 0.008381 0.571321
O O16 0.250000 0.441356 0.640284
O O17 0.121633 0.250000 0.634573
O O18 0.956234 0.750000 0.047913
O O19 0.841737 0.965417 0.047511
O O20 0.000000 0.000000 0.000000
O O21 0.750000 0.750000 0.005947
#
# Coordination Sequence:
#
# PCOD9450691 Si02
#       8
#     8   8   4   8   8   8   8   4
#     4  11  24  39  58  83 113 151 195 240 285 334
#     4   9  19  36  55  79 113 150 187 229 282 342
#     4  10  20  36  60  88 116 152 191 230 279 336
#     4  10  22  39  57  82 117 154 192 233 281 342
#     4   9  17  31  55  86 114 142 182 235 288 337
#     4  10  21  39  62  83 108 147 190 236 291 348
#     4  10  20  36  59  86 119 152 190 237 285 336
#     4  10  20  34  58  92 118 146 187 238 291 338
#
# _framework density 18.212354000000001
#
# number of rings (size 3 to 8) (size 9 to 14) (size 15 to 20)
#    0.000    2.143    1.429    1.286    1.000    5.429 
#    1.286    0.000    0.000    0.000    0.000    0.000 
#    0.000    0.000    0.000    0.000    0.000    0.000 
#
# Total GULP energy -312792.360660 kJ/mol
# GULP energy per Si atom -5585.577869 kJ/mol
# Density = 1.817090 g / cm^3
# Si number density = 18.212354 Si / 1000 Ang^3
#
#
#
# Elastic Constant Matrix: (Units=GPa)
#
#
# Indices 1 2 3 4 5 6 
#
# 1 117.4835 58.6547 89.7055 0.0000 0.0000 0.0000
# 2 58.6547 63.0205 78.2184 0.0000 0.0000 0.0000
# 3 89.7055 78.2184 181.2604 0.0000 0.0000 0.0000
# 4 0.0000 0.0000 0.0000 38.7529 0.0000 0.0000
# 5 0.0000 0.0000 0.0000 0.0000 -229.2812 0.0000
# 6 0.0000 0.0000 0.0000 0.0000 0.0000 19.0700
#
#
#
# Elastic Compliance Matrix: (Units=1/GPa)
#
#
# Indices 1 2 3 4 5 6 
#
# 1 0.016808 -0.011454 -0.003375 0.000000 0.000000 0.000000
# 2 -0.011454 0.041973 -0.012444 0.000000 0.000000 0.000000
# 3 -0.003375 -0.012444 0.012557 0.000000 0.000000 0.000000
# 4 0.000000 0.000000 0.000000 0.025805 0.000000 0.000000
# 5 0.000000 0.000000 0.000000 0.000000 -0.004361 0.000000
# 6 0.000000 0.000000 0.000000 0.000000 0.000000 0.052439
#
#
# Mechanical properties :
#
#
# Convention : Reuss Voigt Hill
#
# Bulk Modulus (GPa) = 59.55351 90.54684 75.05018
# Shear Modulus (GPa) = 24.34709 -25.27929 -0.46610
#
# Velocity S-wave (km/s) = 3.66026 -3.72967 -0.50644
# Velocity P-wave (km/s) = 7.11574 5.59267 6.39968
#
# Compressibility (1/GPa) = 0.01679162
#
# Stress axis : x y z
#
# Youngs Moduli (GPa) = 59.49693 23.82476 79.63446
#
# Poissons Ratio (x) = 0.27288 0.26881
# Poissons Ratio (y) = 0.68146 0.99098
# Poissons Ratio (z) = 0.20083 0.29648
#
# Static dielectric constant tensor:
#      x y z
#    x 1.649180 0.000000 0.000000 
#    y 0.000000 1.614460 0.000000 
#    z 0.000000 0.000000 1.574550 
# 
# From -- ./inp_files/30433.got.cif
#   From: 2010.05.17/outbox.cif.g08.bks.cpg/sg59_16_cif.got.tgz:30433.got - 2010.06.03 14:40:33.
