data_PCOD9450660
_publ_section_title
;
Structure prediction by ZEFSAII (Michael W. Deem and Ramdas Pophale) SiO2 
 PCOD9450660
Probable space group: P M M N
;
_chemical_formula_sum "Si O2"
_cell_formula_units_Z 48
_cell_length_a 8.490619
_cell_length_b 19.566624
_cell_length_c 15.569533
_cell_angle_alpha 90.000000
_cell_angle_beta 90.000000
_cell_angle_gamma 90.000000
_cell_volume 2586.609326
_symmetry_space_group_name_H-M "P M M N"
_symmetry_group_IT_number 59
_space_group.IT_coordinate_system_code '2'
_symmetry_cell_setting 'orthorhombic'
loop_
_space_group_symop_operation_xyz
x,y,z
1/2-x,1/2-y,z
1/2+x,-y,-z
-x,1/2+y,-z
-x,-y,-z
1/2+x,1/2+y,-z
1/2-x,y,z
x,1/2-y,z
loop_
_atom_site_type_symbol
_atom_site_label
_atom_site_fract_x
_atom_site_fract_y
_atom_site_fract_z
Si Si1 0.440565 0.427570 0.721391
Si Si2 0.061350 0.828441 0.624248
Si Si3 0.557685 0.828277 0.125378
Si Si4 0.561132 0.925016 0.474406
Si Si5 0.061157 0.423114 0.224649
Si Si6 0.940403 0.925767 0.971207
O O1 0.250000 0.431387 0.723933
O O2 0.491459 0.371512 0.791116
O O3 0.487330 0.410603 0.623878
O O4 0.505476 0.501667 0.746938
O O5 0.250000 0.829156 0.623171
O O6 0.006217 0.750000 0.623347
O O7 0.001318 0.870033 0.541806
O O8 0.004428 0.868083 0.708845
O O9 0.750000 0.827417 0.125362
O O10 0.504096 0.750000 0.126738
O O11 0.507575 0.869385 0.040350
O O12 0.750000 0.925805 0.478220
O O13 0.500000 0.000000 0.500000
O O14 0.250000 0.421005 0.227561
O O15 0.009022 0.411216 0.126355
O O16 0.750000 0.927254 0.972288
O O17 0.000000 0.000000 0.000000
#
# Coordination Sequence:
#
# PCOD9450660 Si02
#       6
#     8   8   8   8   8   8
#     4  10  20  35  59  86 114 151 192 238 290 350
#     4  11  25  43  61  84 118 159 200 246 301 354
#     4   9  18  34  56  83 115 150 189 234 285 344
#     4  11  22  36  60  91 119 152 196 244 292 352
#     4  11  22  35  58  89 117 152 197 245 294 349
#     4  10  20  34  57  87 115 152 194 238 289 346
#
# _framework density 18.557113000000001
#
# number of rings (size 3 to 8) (size 9 to 14) (size 15 to 20)
#    0.000    1.667    3.333    1.500    0.000    4.000 
#    0.000    3.333    0.000    2.000    0.000    0.000 
#    0.000    0.000    0.000    0.000    0.000    0.000 
#
# Total GULP energy -268138.288287 kJ/mol
# GULP energy per Si atom -5586.214339 kJ/mol
# Density = 1.851488 g / cm^3
# Si number density = 18.557113 Si / 1000 Ang^3
#
#
#
# Elastic Constant Matrix: (Units=GPa)
#
#
# Indices 1 2 3 4 5 6 
#
# 1 19.1960 27.3279 37.6991 0.0000 0.0000 0.0000
# 2 27.3279 200.1243 125.8725 0.0000 0.0000 0.0000
# 3 37.6991 125.8725 228.7470 0.0000 0.0000 0.0000
# 4 0.0000 0.0000 0.0000 33.4828 0.0000 0.0000
# 5 0.0000 0.0000 0.0000 0.0000 21.8101 0.0000
# 6 0.0000 0.0000 0.0000 0.0000 0.0000 21.3424
#
#
#
# Elastic Compliance Matrix: (Units=1/GPa)
#
#
# Indices 1 2 3 4 5 6 
#
# 1 0.079041 -0.003976 -0.010838 0.000000 0.000000 0.000000
# 2 -0.003976 0.007842 -0.003660 0.000000 0.000000 0.000000
# 3 -0.010838 -0.003660 0.008172 0.000000 0.000000 0.000000
# 4 0.000000 0.000000 0.000000 0.029866 0.000000 0.000000
# 5 0.000000 0.000000 0.000000 0.000000 0.045850 0.000000
# 6 0.000000 0.000000 0.000000 0.000000 0.000000 0.046855
#
#
# Mechanical properties :
#
#
# Convention : Reuss Voigt Hill
#
# Bulk Modulus (GPa) = 17.21016 92.20735 54.70876
# Shear Modulus (GPa) = 18.25197 32.47158 25.36178
#
# Velocity S-wave (km/s) = 3.13957 4.18762 3.70088
# Velocity P-wave (km/s) = 4.73676 8.55441 6.91429
#
# Compressibility (1/GPa) = 0.05810522
#
# Stress axis : x y z
#
# Youngs Moduli (GPa) = 12.65172 127.52238 122.37293
#
# Poissons Ratio (x) = 0.50707 1.32633
# Poissons Ratio (y) = 0.05031 0.44786
# Poissons Ratio (z) = 0.13712 0.46670
#
# Static dielectric constant tensor:
#      x y z
#    x 1.639120 0.000000 0.000000 
#    y 0.000000 1.599650 0.000000 
#    z 0.000000 0.000000 1.647920 
# 
# From -- ./inp_files/20340.got.cif
#   From: 2010.05.17/outbox.cif.g08.bks.cpg/sg59_11_cif.got.tgz:20340.got - 2010.06.03 14:40:33.
