data_PCOD9450753
_publ_section_title
;
Structure prediction by ZEFSAII (Michael W. Deem and Ramdas Pophale) SiO2 
 PCOD9450753
Probable space group: P M M N
;
_chemical_formula_sum "Si O2"
_cell_formula_units_Z 64
_cell_length_a 31.781282
_cell_length_b 8.834923
_cell_length_c 12.495196
_cell_angle_alpha 90.000000
_cell_angle_beta 90.000000
_cell_angle_gamma 90.000000
_cell_volume 3508.465849
_symmetry_space_group_name_H-M "P M M N"
_symmetry_group_IT_number 59
_space_group.IT_coordinate_system_code '2'
_symmetry_cell_setting 'orthorhombic'
loop_
_space_group_symop_operation_xyz
x,y,z
1/2-x,1/2-y,z
1/2+x,-y,-z
-x,1/2+y,-z
-x,-y,-z
1/2+x,1/2+y,-z
1/2-x,y,z
x,1/2-y,z
loop_
_atom_site_type_symbol
_atom_site_label
_atom_site_fract_x
_atom_site_fract_y
_atom_site_fract_z
Si Si1 0.953355 0.066736 0.485114
Si Si2 0.367247 0.071911 0.913188
Si Si3 0.891288 0.068880 0.863545
Si Si4 0.981963 0.571217 0.891353
Si Si5 0.435666 0.571372 0.755759
Si Si6 0.374239 0.565514 0.373203
Si Si7 0.201854 0.934532 0.523758
Si Si8 0.199913 0.573210 0.767938
O O1 0.956663 0.250000 0.487531
O O2 0.935353 0.024179 0.367905
O O3 0.918631 0.019092 0.572980
O O4 0.000000 0.000000 0.500000
O O5 0.370693 0.250000 0.925775
O O6 0.404425 0.014009 0.835152
O O7 0.324827 0.023775 0.853494
O O8 0.370895 0.996039 0.029166
O O9 0.890412 0.250000 0.869092
O O10 0.871434 0.019804 0.750554
O O11 0.939234 0.012278 0.862586
O O12 0.974324 0.750000 0.906956
O O13 0.017222 0.552914 0.800623
O O14 0.000000 0.500000 0.000000
O O15 0.425070 0.750000 0.760960
O O16 0.374179 0.750000 0.376277
O O17 0.334214 0.514097 0.442663
O O18 0.250000 0.983425 0.500440
O O19 0.202453 0.750000 0.522180
O O20 0.190667 0.976080 0.645932
O O21 0.250000 0.564891 0.781279
O O22 0.187384 0.750000 0.778464
#
# Coordination Sequence:
#
# PCOD9450753 Si02
#       8
#     8   8   8   8   8   8   8   8
#     4  10  20  35  54  78 109 144 179 223 276 332
#     4  12  24  36  54  79 108 143 183 227 272 322
#     4  11  22  36  53  75 109 150 189 231 273 323
#     4  11  21  34  53  77 105 143 186 231 277 321
#     4  10  21  36  56  79 107 141 179 225 276 328
#     4   9  18  32  52  78 109 145 181 225 279 325
#     4   8  14  29  57  89 113 135 172 221 272 329
#     4   9  18  35  61  88 113 141 172 214 272 334
#
# _framework density 18.241592000000001
#
# number of rings (size 3 to 8) (size 9 to 14) (size 15 to 20)
#    0.000    2.000    1.250    4.125    0.000    3.250 
#    0.000    1.250    0.000    3.750    0.000    0.000 
#    0.000    0.000    0.000    0.000    0.000    0.000 
#
# Total GULP energy -357322.178114 kJ/mol
# GULP energy per Si atom -5583.159033 kJ/mol
# Density = 1.820007 g / cm^3
# Si number density = 18.241592 Si / 1000 Ang^3
#
#
#
# Elastic Constant Matrix: (Units=GPa)
#
#
# Indices 1 2 3 4 5 6 
#
# 1 79.9782 23.3514 66.0542 0.0000 0.0000 0.0000
# 2 23.3514 44.2974 45.1430 0.0000 0.0000 0.0000
# 3 66.0542 45.1430 155.3074 0.0000 0.0000 0.0000
# 4 0.0000 0.0000 0.0000 10.5451 0.0000 0.0000
# 5 0.0000 0.0000 0.0000 0.0000 29.5888 0.0000
# 6 0.0000 0.0000 0.0000 0.0000 0.0000 25.6460
#
#
#
# Elastic Compliance Matrix: (Units=1/GPa)
#
#
# Indices 1 2 3 4 5 6 
#
# 1 0.019481 -0.002594 -0.007532 0.000000 0.000000 0.000000
# 2 -0.002594 0.032422 -0.008321 0.000000 0.000000 0.000000
# 3 -0.007532 -0.008321 0.012061 0.000000 0.000000 0.000000
# 4 0.000000 0.000000 0.000000 0.094830 0.000000 0.000000
# 5 0.000000 0.000000 0.000000 0.000000 0.033797 0.000000
# 6 0.000000 0.000000 0.000000 0.000000 0.000000 0.038992
#
#
# Mechanical properties :
#
#
# Convention : Reuss Voigt Hill
#
# Bulk Modulus (GPa) = 36.94021 60.96446 48.95233
# Shear Modulus (GPa) = 18.01806 22.82493 20.42149
#
# Velocity S-wave (km/s) = 3.14625 3.54115 3.34953
# Velocity P-wave (km/s) = 5.78732 7.08610 6.46938
#
# Compressibility (1/GPa) = 0.02707077
#
# Stress axis : x y z
#
# Youngs Moduli (GPa) = 51.33163 30.84353 82.91442
#
# Poissons Ratio (x) = 0.08002 0.62447
# Poissons Ratio (y) = 0.13317 0.68990
# Poissons Ratio (z) = 0.38661 0.25664
#
# Static dielectric constant tensor:
#      x y z
#    x 1.617500 0.000000 0.000000 
#    y 0.000000 1.621670 0.000000 
#    z 0.000000 0.000000 1.625960 
# 
# From -- ./inp_files/19302.got.cif
#   From: 2010.05.17/outbox.cif.g08.bks.cpg/sg59_10_cif.got.tgz:19302.got - 2010.06.03 14:40:33.
