data_PCOD9450803
_publ_section_title
;
Structure prediction by ZEFSAII (Michael W. Deem and Ramdas Pophale) SiO2 
 PCOD9450803
Probable space group: P M M N
;
_chemical_formula_sum "Si O2"
_cell_formula_units_Z 48
_cell_length_a 8.577666
_cell_length_b 31.240602
_cell_length_c 9.700276
_cell_angle_alpha 90.000000
_cell_angle_beta 90.000000
_cell_angle_gamma 90.000000
_cell_volume 2599.397021
_symmetry_space_group_name_H-M "P M M N"
_symmetry_group_IT_number 59
_space_group.IT_coordinate_system_code '2'
_symmetry_cell_setting 'orthorhombic'
loop_
_space_group_symop_operation_xyz
x,y,z
1/2-x,1/2-y,z
1/2+x,-y,-z
-x,1/2+y,-z
-x,-y,-z
1/2+x,1/2+y,-z
1/2-x,y,z
x,1/2-y,z
loop_
_atom_site_type_symbol
_atom_site_label
_atom_site_fract_x
_atom_site_fract_y
_atom_site_fract_z
Si Si1 0.934114 0.383589 0.301711
Si Si2 0.079086 0.250000 0.696252
Si Si3 0.573745 0.321861 0.539833
Si Si4 0.069701 0.750000 0.013895
Si Si5 0.061131 0.546982 0.465350
Si Si6 0.434282 0.345282 0.029311
Si Si7 0.936983 0.889814 0.263174
O O1 0.750000 0.389952 0.278358
O O2 0.953456 0.339741 0.388518
O O3 0.985371 0.421487 0.406000
O O4 0.015467 0.374637 0.157620
O O5 0.250000 0.250000 0.760122
O O6 0.051356 0.210518 0.597123
O O7 0.958248 0.250000 0.820874
O O8 0.750000 0.304978 0.550087
O O9 0.549611 0.361730 0.640302
O O10 0.250000 0.750000 0.977827
O O11 0.003511 0.703268 0.967965
O O12 0.250000 0.548139 0.454304
O O13 0.000000 0.500000 0.500000
O O14 0.982663 0.563615 0.322465
O O15 0.250000 0.339367 0.031001
O O16 0.471353 0.372021 0.889620
O O17 0.750000 0.883374 0.286291
#
# Coordination Sequence:
#
# PCOD9450803 Si02
#       7
#     8   4   8   4   8   8   8
#     4   9  21  39  58  83 116 150 189 235 289 349
#     4  12  22  33  52  81 112 144 192 246 288 337
#     4  10  20  35  55  79 107 147 193 237 285 339
#     4  12  24  37  58  81 114 160 200 242 288 339
#     4  10  21  39  64  91 117 148 191 240 292 357
#     4  11  23  38  58  86 120 156 198 242 289 345
#     4  10  20  35  57  84 115 149 188 238 287 343
#
# _framework density 18.465819
#
# number of rings (size 3 to 8) (size 9 to 14) (size 15 to 20)
#    0.000    1.667    1.667    4.500    0.000    6.667 
#    0.000    1.667    0.000    0.000    0.000    0.000 
#    0.000    0.000    0.000    0.000    0.000    0.000 
#
# Total GULP energy -267344.082602 kJ/mol
# GULP energy per Si atom -5569.668388 kJ/mol
# Density = 1.842379 g / cm^3
# Si number density = 18.465819 Si / 1000 Ang^3
#
#
#
# Elastic Constant Matrix: (Units=GPa)
#
#
# Indices 1 2 3 4 5 6 
#
# 1 29.0353 17.3171 35.2813 0.0000 0.0000 0.0000
# 2 17.3171 98.9079 36.6279 0.0000 0.0000 0.0000
# 3 35.2813 36.6279 109.5904 0.0000 0.0000 0.0000
# 4 0.0000 0.0000 0.0000 25.2996 0.0000 0.0000
# 5 0.0000 0.0000 0.0000 0.0000 25.2311 0.0000
# 6 0.0000 0.0000 0.0000 0.0000 0.0000 25.9466
#
#
#
# Elastic Compliance Matrix: (Units=1/GPa)
#
#
# Indices 1 2 3 4 5 6 
#
# 1 0.057721 -0.003680 -0.017353 0.000000 0.000000 0.000000
# 2 -0.003680 0.011773 -0.002750 0.000000 0.000000 0.000000
# 3 -0.017353 -0.002750 0.015631 0.000000 0.000000 0.000000
# 4 0.000000 0.000000 0.000000 0.039526 0.000000 0.000000
# 5 0.000000 0.000000 0.000000 0.000000 0.039634 0.000000
# 6 0.000000 0.000000 0.000000 0.000000 0.000000 0.038541
#
#
# Mechanical properties :
#
#
# Convention : Reuss Voigt Hill
#
# Bulk Modulus (GPa) = 26.62457 46.22068 36.42262
# Shear Modulus (GPa) = 19.01786 25.18261 22.10024
#
# Velocity S-wave (km/s) = 3.21268 3.69689 3.46326
# Velocity P-wave (km/s) = 5.31144 6.58084 5.97992
#
# Compressibility (1/GPa) = 0.03755930
#
# Stress axis : x y z
#
# Youngs Moduli (GPa) = 17.32468 84.93890 63.97732
#
# Poissons Ratio (x) = 0.31257 1.11018
# Poissons Ratio (y) = 0.06375 0.17595
# Poissons Ratio (z) = 0.30063 0.23360
#
# Static dielectric constant tensor:
#      x y z
#    x 1.651980 0.000000 0.000000 
#    y 0.000000 1.613180 0.000000 
#    z 0.000000 0.000000 1.631040 
# 
# From -- ./inp_files/6362.got.cif
#   From: 2010.05.17/outbox.cif.g08.bks.cpg/sg59_4_cif.got.tgz:6362.got - 2010.06.03 14:40:33.
