data_PCOD9450039
_publ_section_title
;
Structure prediction by ZEFSAII (Michael W. Deem and Ramdas Pophale) SiO2 
 PCOD9450039
Probable space group: P M M N
;
_chemical_formula_sum "Si O2"
_cell_formula_units_Z 64
_cell_length_a 27.025467
_cell_length_b 21.807614
_cell_length_c 5.628887
_cell_angle_alpha 90.000000
_cell_angle_beta 90.000000
_cell_angle_gamma 90.000000
_cell_volume 3317.446204
_symmetry_space_group_name_H-M "P M M N"
_symmetry_group_IT_number 59
_space_group.IT_coordinate_system_code '2'
_symmetry_cell_setting 'orthorhombic'
loop_
_space_group_symop_operation_xyz
x,y,z
1/2-x,1/2-y,z
1/2+x,-y,-z
-x,1/2+y,-z
-x,-y,-z
1/2+x,1/2+y,-z
1/2-x,y,z
x,1/2-y,z
loop_
_atom_site_type_symbol
_atom_site_label
_atom_site_fract_x
_atom_site_fract_y
_atom_site_fract_z
Si Si1 0.124091 0.402102 0.618975
Si Si2 0.158879 0.519504 0.329497
Si Si3 0.931794 0.434446 0.972361
Si Si4 0.807983 0.350674 0.546054
Si Si5 0.196299 0.181377 0.379478
Si Si6 0.363597 0.679953 0.947880
Si Si7 0.471767 0.039225 0.697209
Si Si8 0.697630 0.573438 0.001311
O O1 0.148294 0.459565 0.482216
O O2 0.149813 0.340009 0.533478
O O3 0.065849 0.410198 0.598543
O O4 0.145493 0.413408 0.878036
O O5 0.184372 0.575722 0.460175
O O6 0.192418 0.492978 0.118398
O O7 0.106666 0.542285 0.226118
O O8 0.906744 0.371755 0.063385
O O9 0.938670 0.488815 0.163299
O O10 0.986578 0.429846 0.861800
O O11 0.750000 0.334717 0.554081
O O12 0.832092 0.326740 0.298337
O O13 0.833580 0.331124 0.800475
O O14 0.250000 0.180976 0.508557
O O15 0.189755 0.250000 0.285265
O O16 0.200608 0.129501 0.181424
O O17 0.381965 0.750000 0.957123
O O18 0.500000 0.000000 0.500000
O O19 0.750000 0.573491 0.140788
#
# Coordination Sequence:
#
# PCOD9450039 Si02
#       8
#     8   8   8   8   8   8   8   8
#     4  11  20  34  59  88 117 153 199 253 309 370
#     4  10  20  36  55  87 126 156 197 251 316 370
#     4  10  22  38  61  89 119 159 202 255 317 375
#     4  11  24  40  64  95 129 171 215 262 314 371
#     4   9  20  37  54  79 118 161 201 240 295 373
#     4  11  25  44  65  90 128 173 217 262 309 375
#     4  11  21  37  64  92 118 151 200 260 319 375
#     4  10  20  33  54  84 120 158 193 243 302 367
#
# _framework density 19.291947
#
# number of rings (size 3 to 8) (size 9 to 14) (size 15 to 20)
#    0.000    1.625    2.500    2.250    3.500    3.500 
#    0.000    1.875    0.000    2.250    0.000    0.000 
#    0.000    0.000    0.000    0.000    0.000    0.000 
#
# Total GULP energy -356436.437608 kJ/mol
# GULP energy per Si atom -5569.319338 kJ/mol
# Density = 1.924804 g / cm^3
# Si number density = 19.291947 Si / 1000 Ang^3
#
#
#
# Elastic Constant Matrix: (Units=GPa)
#
#
# Indices 1 2 3 4 5 6 
#
# 1 114.7015 37.8088 25.6837 0.0000 0.0000 0.0000
# 2 37.8088 100.2694 14.1911 0.0000 0.0000 0.0000
# 3 25.6837 14.1911 58.8523 0.0000 0.0000 0.0000
# 4 0.0000 0.0000 0.0000 14.4685 0.0000 0.0000
# 5 0.0000 0.0000 0.0000 0.0000 3.6997 0.0000
# 6 0.0000 0.0000 0.0000 0.0000 0.0000 44.6718
#
#
#
# Elastic Compliance Matrix: (Units=1/GPa)
#
#
# Indices 1 2 3 4 5 6 
#
# 1 0.010733 -0.003504 -0.003839 0.000000 0.000000 0.000000
# 2 -0.003504 0.011469 -0.001237 0.000000 0.000000 0.000000
# 3 -0.003839 -0.001237 0.018965 0.000000 0.000000 0.000000
# 4 0.000000 0.000000 0.000000 0.069116 0.000000 0.000000
# 5 0.000000 0.000000 0.000000 0.000000 0.270291 0.000000
# 6 0.000000 0.000000 0.000000 0.000000 0.000000 0.022385
#
#
# Mechanical properties :
#
#
# Convention : Reuss Voigt Hill
#
# Bulk Modulus (GPa) = 41.65145 47.68779 44.66962
# Shear Modulus (GPa) = 11.67894 25.64399 18.66146
#
# Velocity S-wave (km/s) = 2.46311 3.64986 3.11355
# Velocity P-wave (km/s) = 5.45217 6.52186 6.01086
#
# Compressibility (1/GPa) = 0.02400877
#
# Stress axis : x y z
#
# Youngs Moduli (GPa) = 93.17199 87.18930 52.72800
#
# Poissons Ratio (x) = 0.30549 0.20243
# Poissons Ratio (y) = 0.32645 0.06520
# Poissons Ratio (z) = 0.35769 0.10781
#
# Static dielectric constant tensor:
#      x y z
#    x 1.684420 0.000000 0.000000 
#    y 0.000000 1.655290 0.000000 
#    z 0.000000 0.000000 1.766260 
# 
# From -- ./inp_files/4324.got.cif
#   From: 2010.05.17/outbox.cif.g08.bks.cpg/sg59_3_cif.got.tgz:4324.got - 2010.06.03 14:40:33.
