data_PCOD9450775
_publ_section_title
;
Structure prediction by ZEFSAII (Michael W. Deem and Ramdas Pophale) SiO2 
 PCOD9450775
Probable space group: P M M N
;
_chemical_formula_sum "Si O2"
_cell_formula_units_Z 64
_cell_length_a 15.371970
_cell_length_b 9.373403
_cell_length_c 24.651901
_cell_angle_alpha 90.000000
_cell_angle_beta 90.000000
_cell_angle_gamma 90.000000
_cell_volume 3552.034969
_symmetry_space_group_name_H-M "P M M N"
_symmetry_group_IT_number 59
_space_group.IT_coordinate_system_code '2'
_symmetry_cell_setting 'orthorhombic'
loop_
_space_group_symop_operation_xyz
x,y,z
1/2-x,1/2-y,z
1/2+x,-y,-z
-x,1/2+y,-z
-x,-y,-z
1/2+x,1/2+y,-z
1/2-x,y,z
x,1/2-y,z
loop_
_atom_site_type_symbol
_atom_site_label
_atom_site_fract_x
_atom_site_fract_y
_atom_site_fract_z
Si Si1 0.150056 0.081330 0.778237
Si Si2 0.496686 0.078906 0.421057
Si Si3 0.647698 0.086863 0.003288
Si Si4 0.988044 0.078307 0.294991
Si Si5 0.853744 0.078300 0.507742
Si Si6 0.154986 0.079982 0.225550
Si Si7 0.091393 0.412459 0.894249
Si Si8 0.613839 0.413833 0.882427
O O1 0.250000 0.067606 0.762074
O O2 0.126694 0.250000 0.778480
O O3 0.139194 0.030656 0.840623
O O4 0.088512 0.996609 0.737965
O O5 0.482367 0.250000 0.424993
O O6 0.509049 0.040268 0.358244
O O7 0.586146 0.047721 0.454364
O O8 0.412557 0.999650 0.446469
O O9 0.750000 0.089679 0.015216
O O10 0.613980 0.250000 0.002410
O O11 0.603523 0.999864 0.051004
O O12 0.636470 0.029365 0.942296
O O13 0.978861 0.250000 0.291405
O O14 0.077491 0.036357 0.265103
O O15 0.750000 0.037987 0.504876
O O16 0.855625 0.250000 0.515770
O O17 0.250000 0.049329 0.249349
O O18 0.147948 0.250000 0.217229
O O19 0.147597 0.003868 0.167682
O O20 0.121380 0.250000 0.903933
O O21 0.990199 0.411191 0.879207
O O22 0.645731 0.250000 0.879334
#
# Coordination Sequence:
#
# PCOD9450775 Si02
#       8
#     8   8   8   8   8   8   8   8
#     4  10  21  37  56  79 109 144 183 228 275 324
#     4   9  19  35  56  83 114 150 188 228 273 320
#     4  10  21  34  49  74 104 131 167 218 272 328
#     4  10  21  37  57  82 112 146 186 228 269 318
#     4   9  18  34  56  83 116 151 187 228 271 318
#     4  10  21  36  54  78 108 141 178 223 273 323
#     4  10  20  35  55  76 100 135 177 219 269 327
#     4  10  20  36  56  76 100 134 175 220 271 327
#
# _framework density 18.01784
#
# number of rings (size 3 to 8) (size 9 to 14) (size 15 to 20)
#    0.000    2.250    1.250    1.125    0.000    5.000 
#    0.000    2.500    0.000    0.000    0.000    0.000 
#    0.000    0.000    0.000    0.000    0.000    0.000 
#
# Total GULP energy -356865.482329 kJ/mol
# GULP energy per Si atom -5576.023161 kJ/mol
# Density = 1.797683 g / cm^3
# Si number density = 18.017840 Si / 1000 Ang^3
#
#
#
# Elastic Constant Matrix: (Units=GPa)
#
#
# Indices 1 2 3 4 5 6 
#
# 1 111.0328 27.5712 44.0163 0.0000 0.0000 0.0000
# 2 27.5712 20.4835 33.4374 0.0000 0.0000 0.0000
# 3 44.0163 33.4374 116.4029 0.0000 0.0000 0.0000
# 4 0.0000 0.0000 0.0000 20.8332 0.0000 0.0000
# 5 0.0000 0.0000 0.0000 0.0000 -106.4673 0.0000
# 6 0.0000 0.0000 0.0000 0.0000 0.0000 28.9294
#
#
#
# Elastic Compliance Matrix: (Units=1/GPa)
#
#
# Indices 1 2 3 4 5 6 
#
# 1 0.013531 -0.018567 0.000217 0.000000 0.000000 0.000000
# 2 -0.018567 0.117403 -0.026704 0.000000 0.000000 0.000000
# 3 0.000217 -0.026704 0.016180 0.000000 0.000000 0.000000
# 4 0.000000 0.000000 0.000000 0.048000 0.000000 0.000000
# 5 0.000000 0.000000 0.000000 0.000000 -0.009393 0.000000
# 6 0.000000 0.000000 0.000000 0.000000 0.000000 0.034567
#
#
# Mechanical properties :
#
#
# Convention : Reuss Voigt Hill
#
# Bulk Modulus (GPa) = 17.54210 50.88544 34.21377
# Shear Modulus (GPa) = 15.17925 -1.81466 6.68230
#
# Velocity S-wave (km/s) = 2.90566 -1.00466 1.92789
# Velocity P-wave (km/s) = 4.58413 5.19204 4.89752
#
# Compressibility (1/GPa) = 0.05700571
#
# Stress axis : x y z
#
# Youngs Moduli (GPa) = 73.90557 8.51770 61.80614
#
# Poissons Ratio (x) = 0.15815 -0.01341
# Poissons Ratio (y) = 1.37219 1.65046
# Poissons Ratio (z) = -0.01603 0.22745
#
# Static dielectric constant tensor:
#      x y z
#    x 1.630100 0.000000 0.000000 
#    y 0.000000 1.620060 0.000000 
#    z 0.000000 0.000000 1.600420 
# 
# From -- ./inp_files/31459.got.cif
#   From: 2010.05.17/outbox.cif.g08.bks.cpg/sg59_16_cif.got.tgz:31459.got - 2010.06.03 14:40:33.
