data_PCOD9450423
_publ_section_title
;
Structure prediction by ZEFSAII (Michael W. Deem and Ramdas Pophale) SiO2 
 PCOD9450423
Probable space group: P M M N
;
_chemical_formula_sum "Si O2"
_cell_formula_units_Z 48
_cell_length_a 14.357834
_cell_length_b 7.823620
_cell_length_c 21.411836
_cell_angle_alpha 90.000000
_cell_angle_beta 90.000000
_cell_angle_gamma 90.000000
_cell_volume 2405.196618
_symmetry_space_group_name_H-M "P M M N"
_symmetry_group_IT_number 59
_space_group.IT_coordinate_system_code '2'
_symmetry_cell_setting 'orthorhombic'
loop_
_space_group_symop_operation_xyz
x,y,z
1/2-x,1/2-y,z
1/2+x,-y,-z
-x,1/2+y,-z
-x,-y,-z
1/2+x,1/2+y,-z
1/2-x,y,z
x,1/2-y,z
loop_
_atom_site_type_symbol
_atom_site_label
_atom_site_fract_x
_atom_site_fract_y
_atom_site_fract_z
Si Si1 0.349179 0.543034 0.882659
Si Si2 0.644946 0.544717 0.472164
Si Si3 0.559315 0.455082 0.848527
Si Si4 0.644535 0.044667 0.719091
Si Si5 0.536537 0.953400 0.594750
Si Si6 0.605160 0.045260 0.982067
O O1 0.250000 0.490516 0.852822
O O2 0.351913 0.750000 0.882864
O O3 0.448278 0.487616 0.854545
O O4 0.345641 0.483345 0.955122
O O5 0.750000 0.480077 0.462739
O O6 0.650163 0.750000 0.476944
O O7 0.569706 0.505421 0.418746
O O8 0.599451 0.478349 0.536982
O O9 0.570415 0.250000 0.849141
O O10 0.601539 0.521617 0.784045
O O11 0.612914 0.519947 0.911019
O O12 0.750000 0.980495 0.709144
O O13 0.649448 0.250000 0.724344
O O14 0.579469 0.006685 0.660302
O O15 0.540246 0.750000 0.591585
O O16 0.620340 0.250000 0.979682
O O17 0.500000 0.000000 0.000000
#
# Coordination Sequence:
#
# PCOD9450423 Si02
#       6
#     8   8   8   8   8   8
#     4   9  17  29  47  71  97 126 160 200 250 303
#     4   9  18  34  56  81 109 139 170 205 246 292
#     4   9  18  32  49  70  96 127 165 206 246 292
#     4  10  21  36  53  73  99 133 171 208 249 300
#     4  10  20  34  54  81 110 137 168 207 249 294
#     4   8  14  26  44  65  90 119 153 197 245 290
#
# _framework density 19.956788
#
# number of rings (size 3 to 8) (size 9 to 14) (size 15 to 20)
#    0.000    2.833    0.000    1.000    0.000    3.667 
#    0.000    4.167    0.000    1.000    0.000    7.000 
#    0.000    0.000    0.000    0.000    0.000    0.000 
#
# Total GULP energy -267319.469440 kJ/mol
# GULP energy per Si atom -5569.155613 kJ/mol
# Density = 1.991137 g / cm^3
# Si number density = 19.956788 Si / 1000 Ang^3
#
#
#
# Elastic Constant Matrix: (Units=GPa)
#
#
# Indices 1 2 3 4 5 6 
#
# 1 142.3088 5.7417 65.3455 0.0000 0.0000 0.0000
# 2 5.7417 26.1725 4.2101 0.0000 0.0000 0.0000
# 3 65.3455 4.2101 129.3768 0.0000 0.0000 0.0000
# 4 0.0000 0.0000 0.0000 17.0269 0.0000 0.0000
# 5 0.0000 0.0000 0.0000 0.0000 19.7928 0.0000
# 6 0.0000 0.0000 0.0000 0.0000 0.0000 9.0571
#
#
#
# Elastic Compliance Matrix: (Units=1/GPa)
#
#
# Indices 1 2 3 4 5 6 
#
# 1 0.009191 -0.001276 -0.004601 0.000000 0.000000 0.000000
# 2 -0.001276 0.038586 -0.000611 0.000000 0.000000 0.000000
# 3 -0.004601 -0.000611 0.010073 0.000000 0.000000 0.000000
# 4 0.000000 0.000000 0.000000 0.058731 0.000000 0.000000
# 5 0.000000 0.000000 0.000000 0.000000 0.050523 0.000000
# 6 0.000000 0.000000 0.000000 0.000000 0.000000 0.110410
#
#
# Mechanical properties :
#
#
# Convention : Reuss Voigt Hill
#
# Bulk Modulus (GPa) = 22.28446 49.82808 36.05627
# Shear Modulus (GPa) = 16.36938 24.01275 20.19107
#
# Velocity S-wave (km/s) = 2.86709 3.47253 3.18424
# Velocity P-wave (km/s) = 4.70647 6.41094 5.62366
#
# Compressibility (1/GPa) = 0.04487433
#
# Stress axis : x y z
#
# Youngs Moduli (GPa) = 108.80218 25.91594 99.27599
#
# Poissons Ratio (x) = 0.03308 0.45673
# Poissons Ratio (y) = 0.13886 0.06066
# Poissons Ratio (z) = 0.50056 0.01584
#
# Static dielectric constant tensor:
#      x y z
#    x 1.730510 0.000000 0.000000 
#    y 0.000000 1.733330 0.000000 
#    z 0.000000 0.000000 1.712850 
# 
# From -- ./inp_files/28833.got.cif
#   From: 2010.05.17/outbox.cif.g08.bks.cpg/sg59_15_cif.got.tgz:28833.got - 2010.06.03 14:40:33.
