data_PCOD9450026
_publ_section_title
;
Structure prediction by ZEFSAII (Michael W. Deem and Ramdas Pophale) SiO2 
 PCOD9450026
Probable space group: P M M N
;
_chemical_formula_sum "Si O2"
_cell_formula_units_Z 64
_cell_length_a 33.765036
_cell_length_b 8.997619
_cell_length_c 11.109986
_cell_angle_alpha 90.000000
_cell_angle_beta 90.000000
_cell_angle_gamma 90.000000
_cell_volume 3375.268513
_symmetry_space_group_name_H-M "P M M N"
_symmetry_group_IT_number 59
_space_group.IT_coordinate_system_code '2'
_symmetry_cell_setting 'orthorhombic'
loop_
_space_group_symop_operation_xyz
x,y,z
1/2-x,1/2-y,z
1/2+x,-y,-z
-x,1/2+y,-z
-x,-y,-z
1/2+x,1/2+y,-z
1/2-x,y,z
x,1/2-y,z
loop_
_atom_site_type_symbol
_atom_site_label
_atom_site_fract_x
_atom_site_fract_y
_atom_site_fract_z
Si Si1 0.869496 0.926676 0.664502
Si Si2 0.979429 0.926285 0.304044
Si Si3 0.296215 0.926920 0.217349
Si Si4 0.591633 0.073539 0.431715
Si Si5 0.704013 0.924114 0.039409
Si Si6 0.944140 0.423380 0.071227
Si Si7 0.938966 0.428055 0.798527
Si Si8 0.860671 0.079311 0.184885
O O1 0.868016 0.750000 0.661014
O O2 0.826585 0.993680 0.693584
O O3 0.888132 0.992066 0.542651
O O4 0.899652 0.983718 0.767010
O O5 0.975327 0.750000 0.321369
O O6 0.025961 0.963063 0.295686
O O7 0.951869 0.012231 0.398150
O O8 0.962947 0.973232 0.172519
O O9 0.250000 0.960815 0.242969
O O10 0.301702 0.750000 0.222910
O O11 0.304406 0.983846 0.081936
O O12 0.589279 0.250000 0.453747
O O13 0.618934 0.048711 0.313378
O O14 0.750000 0.949636 0.071815
O O15 0.698952 0.750000 0.012697
O O16 0.674525 0.974441 0.143829
O O17 0.955356 0.250000 0.094281
O O18 0.896813 0.432017 0.090337
O O19 0.953144 0.462523 0.933963
O O20 0.931650 0.250000 0.794237
O O21 0.846677 0.250000 0.185529
#
# Coordination Sequence:
#
# PCOD9450026 Si02
#       8
#     8   8   8   8   8   8   8   8
#     4  12  25  39  59  85 111 142 185 236 281 323
#     4  10  20  34  55  83 112 145 186 232 280 326
#     4  10  21  39  63  87 114 149 183 217 265 327
#     4  10  22  41  60  76 104 147 190 233 278 329
#     4  10  20  33  53  85 120 147 175 219 273 323
#     4   9  18  33  53  78 109 145 183 225 276 333
#     4  10  21  36  55  81 115 151 186 226 273 332
#     4   9  18  33  55  79 103 141 187 225 270 328
#
# _framework density 18.961454
#
# number of rings (size 3 to 8) (size 9 to 14) (size 15 to 20)
#    0.000    2.000    0.000    4.500    0.000    7.000 
#    0.000    0.625    0.000    0.750    0.000    0.000 
#    0.000    0.000    0.000    0.000    0.000    0.000 
#
# Total GULP energy -357507.951878 kJ/mol
# GULP energy per Si atom -5586.061748 kJ/mol
# Density = 1.891830 g / cm^3
# Si number density = 18.961454 Si / 1000 Ang^3
#
#
#
# Elastic Constant Matrix: (Units=GPa)
#
#
# Indices 1 2 3 4 5 6 
#
# 1 66.0876 41.6111 8.8623 0.0000 0.0000 0.0000
# 2 41.6111 64.7735 15.6234 0.0000 0.0000 0.0000
# 3 8.8623 15.6234 32.0989 0.0000 0.0000 0.0000
# 4 0.0000 0.0000 0.0000 28.9500 0.0000 0.0000
# 5 0.0000 0.0000 0.0000 0.0000 22.7608 0.0000
# 6 0.0000 0.0000 0.0000 0.0000 0.0000 29.2612
#
#
#
# Elastic Compliance Matrix: (Units=1/GPa)
#
#
# Indices 1 2 3 4 5 6 
#
# 1 0.025440 -0.016598 0.001055 0.000000 0.000000 0.000000
# 2 -0.016598 0.028320 -0.009202 0.000000 0.000000 0.000000
# 3 0.001055 -0.009202 0.035341 0.000000 0.000000 0.000000
# 4 0.000000 0.000000 0.000000 0.034542 0.000000 0.000000
# 5 0.000000 0.000000 0.000000 0.000000 0.043935 0.000000
# 6 0.000000 0.000000 0.000000 0.000000 0.000000 0.034175
#
#
# Mechanical properties :
#
#
# Convention : Reuss Voigt Hill
#
# Bulk Modulus (GPa) = 25.24460 32.79487 29.01973
# Shear Modulus (GPa) = 18.90730 22.65195 20.77962
#
# Velocity S-wave (km/s) = 3.16118 3.46009 3.31401
# Velocity P-wave (km/s) = 5.16398 5.77028 5.47552
#
# Compressibility (1/GPa) = 0.03961244
#
# Stress axis : x y z
#
# Youngs Moduli (GPa) = 39.30754 35.31038 28.29550
#
# Poissons Ratio (x) = 0.58606 -0.02984
# Poissons Ratio (y) = 0.65241 0.26037
# Poissons Ratio (z) = -0.04145 0.32492
#
# Static dielectric constant tensor:
#      x y z
#    x 1.659660 0.000000 0.000000 
#    y 0.000000 1.631490 0.000000 
#    z 0.000000 0.000000 1.658580 
# 
# From -- ./inp_files/19350.got.cif
#   From: 2010.05.17/outbox.cif.g08.bks.cpg/sg59_10_cif.got.tgz:19350.got - 2010.06.03 14:40:33.
