data_PCOD9450900
_publ_section_title
;
Structure prediction by ZEFSAII (Michael W. Deem and Ramdas Pophale) SiO2 
 PCOD9450900
Probable space group: P M M N
;
_chemical_formula_sum "Si O2"
_cell_formula_units_Z 56
_cell_length_a 14.661674
_cell_length_b 8.137600
_cell_length_c 22.336766
_cell_angle_alpha 90.000000
_cell_angle_beta 90.000000
_cell_angle_gamma 90.000000
_cell_volume 2665.018277
_symmetry_space_group_name_H-M "P M M N"
_symmetry_group_IT_number 59
_space_group.IT_coordinate_system_code '2'
_symmetry_cell_setting 'orthorhombic'
loop_
_space_group_symop_operation_xyz
x,y,z
1/2-x,1/2-y,z
1/2+x,-y,-z
-x,1/2+y,-z
-x,-y,-z
1/2+x,1/2+y,-z
1/2-x,y,z
x,1/2-y,z
loop_
_atom_site_type_symbol
_atom_site_label
_atom_site_fract_x
_atom_site_fract_y
_atom_site_fract_z
Si Si1 0.146811 0.051430 0.172181
Si Si2 0.654362 0.445720 0.135987
Si Si3 0.950999 0.438175 0.707148
Si Si4 0.646895 0.055929 0.463873
Si Si5 0.350564 0.555947 0.720727
Si Si6 0.550372 0.943193 0.580008
Si Si7 0.019951 0.051139 0.067608
O O1 0.250000 0.991953 0.180463
O O2 0.147503 0.250000 0.171410
O O3 0.105946 0.996638 0.107922
O O4 0.085087 0.002843 0.229104
O O5 0.750000 0.516721 0.113871
O O6 0.654586 0.250000 0.123364
O O7 0.652021 0.458208 0.207284
O O8 0.565883 0.514259 0.105394
O O9 0.924206 0.250000 0.701910
O O10 0.918218 0.532360 0.648053
O O11 0.060401 0.457529 0.703752
O O12 0.750000 0.988924 0.453075
O O13 0.652007 0.250000 0.450548
O O14 0.554962 0.994764 0.429562
O O15 0.617044 0.029654 0.532817
O O16 0.250000 0.506826 0.697902
O O17 0.363425 0.750000 0.705974
O O18 0.549878 0.750000 0.565451
O O19 0.022373 0.250000 0.068183
O O20 0.000000 0.000000 0.000000
#
# Coordination Sequence:
#
# PCOD9450900 Si02
#       7
#     8   8   8   8   8   8   8
#     4  10  22  42  64  83 110 153 203 249 293 349
#     4   8  14  28  52  77 100 132 174 219 269 330
#     4  12  24  37  57  86 123 157 192 245 301 349
#     4   9  19  38  62  87 117 152 193 243 293 338
#     4   9  17  33  58  82 107 144 188 231 280 344
#     4  10  21  37  59  87 118 156 201 239 284 349
#     4  10  20  35  56  82 112 144 186 234 288 350
#
# _framework density 21.012989000000001
#
# number of rings (size 3 to 8) (size 9 to 14) (size 15 to 20)
#    0.000    2.286    1.429    2.571    0.000    3.714 
#    0.000    1.429    0.000    0.000    0.000    0.000 
#    0.000    0.000    0.000    0.000    0.000    0.000 
#
# Total GULP energy -312163.985020 kJ/mol
# GULP energy per Si atom -5574.356875 kJ/mol
# Density = 2.096516 g / cm^3
# Si number density = 21.012989 Si / 1000 Ang^3
#
#
#
# Elastic Constant Matrix: (Units=GPa)
#
#
# Indices 1 2 3 4 5 6 
#
# 1 95.3121 6.9787 36.0711 0.0000 0.0000 0.0000
# 2 6.9787 12.8224 6.8854 0.0000 0.0000 0.0000
# 3 36.0711 6.8854 110.8076 0.0000 0.0000 0.0000
# 4 0.0000 0.0000 0.0000 21.2798 0.0000 0.0000
# 5 0.0000 0.0000 0.0000 0.0000 19.7020 0.0000
# 6 0.0000 0.0000 0.0000 0.0000 0.0000 13.0661
#
#
#
# Elastic Compliance Matrix: (Units=1/GPa)
#
#
# Indices 1 2 3 4 5 6 
#
# 1 0.012231 -0.004675 -0.003691 0.000000 0.000000 0.000000
# 2 -0.004675 0.082467 -0.003603 0.000000 0.000000 0.000000
# 3 -0.003691 -0.003603 0.010450 0.000000 0.000000 0.000000
# 4 0.000000 0.000000 0.000000 0.046993 0.000000 0.000000
# 5 0.000000 0.000000 0.000000 0.000000 0.050756 0.000000
# 6 0.000000 0.000000 0.000000 0.000000 0.000000 0.076534
#
#
# Mechanical properties :
#
#
# Convention : Reuss Voigt Hill
#
# Bulk Modulus (GPa) = 12.31357 35.42362 23.86859
# Shear Modulus (GPa) = 15.13140 22.07670 18.60405
#
# Velocity S-wave (km/s) = 2.68637 3.24485 2.97873
# Velocity P-wave (km/s) = 3.93635 5.56177 4.81810
#
# Compressibility (1/GPa) = 0.08121125
#
# Stress axis : x y z
#
# Youngs Moduli (GPa) = 81.75924 12.12605 95.69326
#
# Poissons Ratio (x) = 0.05669 0.35321
# Poissons Ratio (y) = 0.38221 0.34474
# Poissons Ratio (z) = 0.30178 0.04368
#
# Static dielectric constant tensor:
#      x y z
#    x 1.803740 0.000000 0.000000 
#    y 0.000000 1.748960 0.000000 
#    z 0.000000 0.000000 1.753790 
# 
# From -- ./inp_files/30365.got.cif
#   From: 2010.05.17/outbox.cif.g08.bks.cpg/sg59_16_cif.got.tgz:30365.got - 2010.06.03 14:40:33.
