data_PCOD9450451
_publ_section_title
;
Structure prediction by ZEFSAII (Michael W. Deem and Ramdas Pophale) SiO2 
 PCOD9450451
Probable space group: P M M N
;
_chemical_formula_sum "Si O2"
_cell_formula_units_Z 48
_cell_length_a 10.143647
_cell_length_b 8.814712
_cell_length_c 29.768987
_cell_angle_alpha 90.000000
_cell_angle_beta 90.000000
_cell_angle_gamma 90.000000
_cell_volume 2661.744167
_symmetry_space_group_name_H-M "P M M N"
_symmetry_group_IT_number 59
_space_group.IT_coordinate_system_code '2'
_symmetry_cell_setting 'orthorhombic'
loop_
_space_group_symop_operation_xyz
x,y,z
1/2-x,1/2-y,z
1/2+x,-y,-z
-x,1/2+y,-z
-x,-y,-z
1/2+x,1/2+y,-z
1/2-x,y,z
x,1/2-y,z
loop_
_atom_site_type_symbol
_atom_site_label
_atom_site_fract_x
_atom_site_fract_y
_atom_site_fract_z
Si Si1 0.750000 0.433064 0.962518
Si Si2 0.595237 0.068255 0.462392
Si Si3 0.409781 0.423947 0.632605
Si Si4 0.400732 0.568748 0.199143
Si Si5 0.532241 0.932918 0.897661
Si Si6 0.750000 0.433755 0.066528
Si Si7 0.094898 0.568442 0.727276
O O1 0.750000 0.250000 0.960312
O O2 0.875344 0.498470 0.936197
O O3 0.750000 0.481654 0.014513
O O4 0.750000 0.025330 0.469501
O O5 0.588227 0.250000 0.462967
O O6 0.500000 0.000000 0.500000
O O7 0.553105 0.007257 0.413386
O O8 0.250000 0.422883 0.632858
O O9 0.455746 0.250000 0.632619
O O10 0.448437 0.507835 0.678378
O O11 0.250000 0.535678 0.213269
O O12 0.415074 0.750000 0.195594
O O13 0.423894 0.495125 0.150467
O O14 0.504900 0.503489 0.234397
O O15 0.542024 0.750000 0.898123
O O16 0.382578 0.980117 0.908312
O O17 0.750000 0.250000 0.065935
O O18 0.250000 0.528411 0.733635
O O19 0.085109 0.750000 0.728493
#
# Coordination Sequence:
#
# PCOD9450451 Si02
#       7
#     4   8   8   8   8   4   8
#     4  11  21  39  61  85 117 151 185 227 276 333
#     4  10  20  34  54  81 114 152 194 239 287 339
#     4   9  17  32  55  82 113 149 188 232 284 339
#     4  11  24  41  59  82 114 149 186 231 283 337
#     4  11  22  39  61  85 113 149 188 229 278 334
#     4   9  22  39  59  87 117 145 185 235 278 323
#     4  10  21  37  60  88 115 145 185 233 281 335
#
# _framework density 18.033290000000001
#
# number of rings (size 3 to 8) (size 9 to 14) (size 15 to 20)
#    0.000    1.833    0.833    3.250    1.167    5.000 
#    0.000    4.583    0.000    5.000    0.000    0.000 
#    0.000    0.000    0.000    0.000    0.000    0.000 
#
# Total GULP energy -268053.059482 kJ/mol
# GULP energy per Si atom -5584.438739 kJ/mol
# Density = 1.799225 g / cm^3
# Si number density = 18.033290 Si / 1000 Ang^3
#
#
#
# Elastic Constant Matrix: (Units=GPa)
#
#
# Indices 1 2 3 4 5 6 
#
# 1 98.1323 45.4811 46.9417 0.0000 0.0000 0.0000
# 2 45.4811 80.6125 46.5876 0.0000 0.0000 0.0000
# 3 46.9417 46.5876 111.5944 0.0000 0.0000 0.0000
# 4 0.0000 0.0000 0.0000 33.7380 0.0000 0.0000
# 5 0.0000 0.0000 0.0000 0.0000 35.9089 0.0000
# 6 0.0000 0.0000 0.0000 0.0000 0.0000 25.1828
#
#
#
# Elastic Compliance Matrix: (Units=1/GPa)
#
#
# Indices 1 2 3 4 5 6 
#
# 1 0.014830 -0.006276 -0.003618 0.000000 0.000000 0.000000
# 2 -0.006276 0.019006 -0.005294 0.000000 0.000000 0.000000
# 3 -0.003618 -0.005294 0.012693 0.000000 0.000000 0.000000
# 4 0.000000 0.000000 0.000000 0.029640 0.000000 0.000000
# 5 0.000000 0.000000 0.000000 0.000000 0.027848 0.000000
# 6 0.000000 0.000000 0.000000 0.000000 0.000000 0.039710
#
#
# Mechanical properties :
#
#
# Convention : Reuss Voigt Hill
#
# Bulk Modulus (GPa) = 61.91242 63.15112 62.53177
# Shear Modulus (GPa) = 27.85716 29.05452 28.45584
#
# Velocity S-wave (km/s) = 3.93461 4.01828 3.97667
# Velocity P-wave (km/s) = 7.41946 7.52489 7.47236
#
# Compressibility (1/GPa) = 0.01615185
#
# Stress axis : x y z
#
# Youngs Moduli (GPa) = 67.43236 52.61622 78.78245
#
# Poissons Ratio (x) = 0.33021 0.28504
# Poissons Ratio (y) = 0.42320 0.41710
# Poissons Ratio (z) = 0.24397 0.27857
#
# Static dielectric constant tensor:
#      x y z
#    x 1.624420 0.000000 0.000000 
#    y 0.000000 1.606950 0.000000 
#    z 0.000000 0.000000 1.583870 
# 
# From -- ./inp_files/33089.got.cif
#   From: 2010.05.17/outbox.cif.g08.bks.cpg/sg59_17_cif.got.tgz:33089.got - 2010.06.03 14:40:33.
