data_PCOD9450935
_publ_section_title
;
Structure prediction by ZEFSAII (Michael W. Deem and Ramdas Pophale) SiO2 
 PCOD9450935
Probable space group: P M M N
;
_chemical_formula_sum "Si O2"
_cell_formula_units_Z 64
_cell_length_a 13.979787
_cell_length_b 18.775995
_cell_length_c 11.694892
_cell_angle_alpha 90.000000
_cell_angle_beta 90.000000
_cell_angle_gamma 90.000000
_cell_volume 3069.726836
_symmetry_space_group_name_H-M "P M M N"
_symmetry_group_IT_number 59
_space_group.IT_coordinate_system_code '2'
_symmetry_cell_setting 'orthorhombic'
loop_
_space_group_symop_operation_xyz
x,y,z
1/2-x,1/2-y,z
1/2+x,-y,-z
-x,1/2+y,-z
-x,-y,-z
1/2+x,1/2+y,-z
1/2-x,y,z
x,1/2-y,z
loop_
_atom_site_type_symbol
_atom_site_label
_atom_site_fract_x
_atom_site_fract_y
_atom_site_fract_z
Si Si1 0.365922 0.538758 0.818382
Si Si2 0.865111 0.037103 0.439175
Si Si3 0.635030 0.167914 0.035225
Si Si4 0.635427 0.599875 0.052740
Si Si5 0.364516 0.392302 0.435198
Si Si6 0.464622 0.832808 0.444028
Si Si7 0.633737 0.667471 0.811302
Si Si8 0.476387 0.834437 0.186463
O O1 0.250000 0.537332 0.815614
O O2 0.398185 0.520940 0.690415
O O3 0.394152 0.479880 0.911796
O O4 0.393633 0.616878 0.861113
O O5 0.750000 0.041537 0.438433
O O6 0.906382 0.112542 0.478036
O O7 0.889780 0.972296 0.524278
O O8 0.750000 0.166573 0.025799
O O9 0.605632 0.250000 0.052129
O O10 0.591002 0.139574 0.916515
O O11 0.750000 0.605264 0.059882
O O12 0.583218 0.647888 0.146837
O O13 0.605713 0.627161 0.927628
O O14 0.250000 0.383170 0.447239
O O15 0.425342 0.341103 0.517122
O O16 0.392042 0.373342 0.305088
O O17 0.435737 0.750000 0.453957
O O18 0.453863 0.859194 0.313576
O O19 0.750000 0.669425 0.812711
O O20 0.601278 0.750000 0.810095
O O21 0.463751 0.750000 0.190517
#
# Coordination Sequence:
#
# PCOD9450935 Si02
#       8
#     8   8   8   8   8   8   8   8
#     4   9  19  36  59  87 113 144 192 236 281 348
#     4  10  22  40  61  85 117 157 198 244 294 346
#     4   9  19  37  58  78 107 146 187 242 297 334
#     4  10  20  35  56  84 119 150 177 225 287 341
#     4  10  21  39  62  86 116 155 196 240 292 349
#     4  11  24  39  58  86 118 155 200 248 295 347
#     4   9  18  33  55  85 118 151 189 231 280 344
#     4  10  22  37  54  81 111 145 193 232 275 349
#
# _framework density 20.848761
#
# number of rings (size 3 to 8) (size 9 to 14) (size 15 to 20)
#    0.000    2.250    0.000    1.875    0.000    6.750 
#    0.000    7.500    0.000    0.000    0.000    0.000 
#    0.000    0.000    0.000    0.000    0.000    0.000 
#
# Total GULP energy -357328.409176 kJ/mol
# GULP energy per Si atom -5583.256393 kJ/mol
# Density = 2.080131 g / cm^3
# Si number density = 20.848761 Si / 1000 Ang^3
#
#
#
# Elastic Constant Matrix: (Units=GPa)
#
#
# Indices 1 2 3 4 5 6 
#
# 1 45.4341 17.2500 12.8078 0.0000 0.0000 0.0000
# 2 17.2500 104.5956 88.9960 0.0000 0.0000 0.0000
# 3 12.8078 88.9960 135.1321 0.0000 0.0000 0.0000
# 4 0.0000 0.0000 0.0000 36.5993 0.0000 0.0000
# 5 0.0000 0.0000 0.0000 0.0000 25.3016 0.0000
# 6 0.0000 0.0000 0.0000 0.0000 0.0000 21.3086
#
#
#
# Elastic Compliance Matrix: (Units=1/GPa)
#
#
# Indices 1 2 3 4 5 6 
#
# 1 0.023513 -0.004507 0.000740 0.000000 0.000000 0.000000
# 2 -0.004507 0.022611 -0.014464 0.000000 0.000000 0.000000
# 3 0.000740 -0.014464 0.016856 0.000000 0.000000 0.000000
# 4 0.000000 0.000000 0.000000 0.027323 0.000000 0.000000
# 5 0.000000 0.000000 0.000000 0.000000 0.039523 0.000000
# 6 0.000000 0.000000 0.000000 0.000000 0.000000 0.046929
#
#
# Mechanical properties :
#
#
# Convention : Reuss Voigt Hill
#
# Bulk Modulus (GPa) = 37.71229 58.14105 47.92667
# Shear Modulus (GPa) = 22.51686 27.71576 25.11631
#
# Velocity S-wave (km/s) = 3.28992 3.65001 3.47463
# Velocity P-wave (km/s) = 5.70606 6.76099 6.25581
#
# Compressibility (1/GPa) = 0.02651655
#
# Stress axis : x y z
#
# Youngs Moduli (GPa) = 42.53034 44.22690 59.32704
#
# Poissons Ratio (x) = 0.19934 -0.04390
# Poissons Ratio (y) = 0.19170 0.85810
# Poissons Ratio (z) = -0.03147 0.63969
#
# Static dielectric constant tensor:
#      x y z
#    x 1.761130 0.000000 0.000000 
#    y 0.000000 1.737950 0.000000 
#    z 0.000000 0.000000 1.740500 
# 
# From -- ./inp_files/17267.got.cif
#   From: 2010.05.17/outbox.cif.g08.bks.cpg/sg59_9_cif.got.tgz:17267.got - 2010.06.03 14:40:33.
