data_PCOD9450544
_publ_section_title
;
Structure prediction by ZEFSAII (Michael W. Deem and Ramdas Pophale) SiO2 
 PCOD9450544
Probable space group: P M M N
;
_chemical_formula_sum "Si O2"
_cell_formula_units_Z 48
_cell_length_a 14.277812
_cell_length_b 8.093677
_cell_length_c 21.374856
_cell_angle_alpha 90.000000
_cell_angle_beta 90.000000
_cell_angle_gamma 90.000000
_cell_volume 2470.078329
_symmetry_space_group_name_H-M "P M M N"
_symmetry_group_IT_number 59
_space_group.IT_coordinate_system_code '2'
_symmetry_cell_setting 'orthorhombic'
loop_
_space_group_symop_operation_xyz
x,y,z
1/2-x,1/2-y,z
1/2+x,-y,-z
-x,1/2+y,-z
-x,-y,-z
1/2+x,1/2+y,-z
1/2-x,y,z
x,1/2-y,z
loop_
_atom_site_type_symbol
_atom_site_label
_atom_site_fract_x
_atom_site_fract_y
_atom_site_fract_z
Si Si1 0.540678 0.053902 0.339557
Si Si2 0.357312 0.054342 0.785529
Si Si3 0.640033 0.449998 0.464548
Si Si4 0.450570 0.945696 0.912337
Si Si5 0.141812 0.550148 0.395781
Si Si6 0.853886 0.553612 0.963556
O O1 0.556122 0.250000 0.337395
O O2 0.585091 0.986587 0.404391
O O3 0.590388 0.979231 0.279445
O O4 0.430791 0.017228 0.345662
O O5 0.250000 0.992403 0.782657
O O6 0.354503 0.250000 0.796229
O O7 0.412641 0.976512 0.843379
O O8 0.750000 0.485795 0.456570
O O9 0.630317 0.250000 0.465635
O O10 0.613262 0.509220 0.534070
O O11 0.450881 0.750000 0.924955
O O12 0.556647 0.009768 0.924170
O O13 0.383124 0.025383 0.964339
O O14 0.250000 0.502648 0.385753
O O15 0.138183 0.750000 0.395592
O O16 0.750000 0.484068 0.951171
O O17 0.849000 0.750000 0.952463
#
# Coordination Sequence:
#
# PCOD9450544 Si02
#       6
#     8   8   8   8   8   8
#     4  11  21  33  53  79 106 136 173 220 268 314
#     4  11  24  40  56  75 104 142 179 215 261 319
#     4   8  15  29  50  76 104 134 169 212 264 318
#     4  10  20  34  55  83 111 141 179 220 260 303
#     4   9  18  34  54  74 101 138 176 215 263 319
#     4   9  18  34  56  82 113 145 174 209 257 310
#
# _framework density 19.432583000000001
#
# number of rings (size 3 to 8) (size 9 to 14) (size 15 to 20)
#    0.000    2.333    0.000    4.000    0.000    5.333 
#    0.000    1.667    0.000    5.000    0.000    0.000 
#    0.000    0.000    0.000    0.000    0.000    0.000 
#
# Total GULP energy -267872.379593 kJ/mol
# GULP energy per Si atom -5580.674575 kJ/mol
# Density = 1.938835 g / cm^3
# Si number density = 19.432583 Si / 1000 Ang^3
#
#
#
# Elastic Constant Matrix: (Units=GPa)
#
#
# Indices 1 2 3 4 5 6 
#
# 1 118.7273 -4.4994 64.0671 0.0000 0.0000 0.0000
# 2 -4.4994 12.3769 -8.7925 0.0000 0.0000 0.0000
# 3 64.0671 -8.7925 80.5618 0.0000 0.0000 0.0000
# 4 0.0000 0.0000 0.0000 20.3704 0.0000 0.0000
# 5 0.0000 0.0000 0.0000 0.0000 22.4156 0.0000
# 6 0.0000 0.0000 0.0000 0.0000 0.0000 16.5525
#
#
#
# Elastic Compliance Matrix: (Units=1/GPa)
#
#
# Indices 1 2 3 4 5 6 
#
# 1 0.014874 -0.003248 -0.012183 0.000000 0.000000 0.000000
# 2 -0.003248 0.088296 0.012219 0.000000 0.000000 0.000000
# 3 -0.012183 0.012219 0.023435 0.000000 0.000000 0.000000
# 4 0.000000 0.000000 0.000000 0.049091 0.000000 0.000000
# 5 0.000000 0.000000 0.000000 0.000000 0.044612 0.000000
# 6 0.000000 0.000000 0.000000 0.000000 0.000000 0.060414
#
#
# Mechanical properties :
#
#
# Convention : Reuss Voigt Hill
#
# Bulk Modulus (GPa) = 8.32071 34.80180 21.56126
# Shear Modulus (GPa) = 15.28102 22.59375 18.93739
#
# Velocity S-wave (km/s) = 2.80725 3.41350 3.12511
# Velocity P-wave (km/s) = 3.84691 5.78652 4.91338
#
# Compressibility (1/GPa) = 0.12018202
#
# Stress axis : x y z
#
# Youngs Moduli (GPa) = 67.23342 11.32558 42.67167
#
# Poissons Ratio (x) = 0.03678 0.51986
# Poissons Ratio (y) = 0.21834 -0.52141
# Poissons Ratio (z) = 0.81908 -0.13839
#
# Static dielectric constant tensor:
#      x y z
#    x 1.712200 0.000000 0.000000 
#    y 0.000000 1.696810 0.000000 
#    z 0.000000 0.000000 1.646270 
# 
# From -- ./inp_files/27362.got.cif
#   From: 2010.05.17/outbox.cif.g08.bks.cpg/sg59_14_cif.got.tgz:27362.got - 2010.06.03 14:40:33.
