data_PCOD9450483
_publ_section_title
;
Structure prediction by ZEFSAII (Michael W. Deem and Ramdas Pophale) SiO2 
 PCOD9450483
Probable space group: P M M N
;
_chemical_formula_sum "Si O2"
_cell_formula_units_Z 64
_cell_length_a 9.172936
_cell_length_b 14.438013
_cell_length_c 26.793576
_cell_angle_alpha 90.000000
_cell_angle_beta 90.000000
_cell_angle_gamma 90.000000
_cell_volume 3548.513587
_symmetry_space_group_name_H-M "P M M N"
_symmetry_group_IT_number 59
_space_group.IT_coordinate_system_code '2'
_symmetry_cell_setting 'orthorhombic'
loop_
_space_group_symop_operation_xyz
x,y,z
1/2-x,1/2-y,z
1/2+x,-y,-z
-x,1/2+y,-z
-x,-y,-z
1/2+x,1/2+y,-z
1/2-x,y,z
x,1/2-y,z
loop_
_atom_site_type_symbol
_atom_site_label
_atom_site_fract_x
_atom_site_fract_y
_atom_site_fract_z
Si Si1 0.081467 0.361505 0.104534
Si Si2 0.576394 0.492149 0.446793
Si Si3 0.423933 0.990803 0.819803
Si Si4 0.915757 0.137158 0.003904
Si Si5 0.076370 0.141972 0.637293
Si Si6 0.422395 0.141427 0.903049
Si Si7 0.923675 0.492079 0.713384
Si Si8 0.923754 0.642045 0.629333
O O1 0.250000 0.390753 0.106835
O O2 0.076735 0.250000 0.107178
O O3 0.991069 0.405628 0.149425
O O4 0.009569 0.389859 0.051957
O O5 0.500000 0.500000 0.500000
O O6 0.750000 0.482716 0.452429
O O7 0.547269 0.583182 0.412848
O O8 0.511227 0.406999 0.415097
O O9 0.250000 0.981573 0.814684
O O10 0.454476 0.079765 0.854909
O O11 0.498506 0.000488 0.766366
O O12 0.750000 0.103671 0.008292
O O13 0.913033 0.250000 0.003942
O O14 0.988307 0.110702 0.951628
O O15 0.250000 0.133648 0.647582
O O16 0.041143 0.250000 0.631818
O O17 0.987771 0.093195 0.681537
O O18 0.250000 0.132804 0.914209
O O19 0.452864 0.250000 0.893775
O O20 0.750000 0.483292 0.719367
O O21 0.953066 0.583081 0.679414
O O22 0.750000 0.634185 0.619307
O O23 0.959801 0.750000 0.634762
#
# Coordination Sequence:
#
# PCOD9450483 Si02
#       8
#     8   8   8   8   8   8   8   8
#     4  10  21  37  56  77 104 139 176 216 265 321
#     4  10  20  34  54  84 120 153 186 227 272 317
#     4  11  23  37  55  80 108 140 178 221 270 322
#     4   9  17  31  53  79 105 133 168 213 263 317
#     4   9  19  37  59  80 106 146 191 229 270 322
#     4   9  19  36  55  75 102 137 175 213 258 317
#     4  10  21  37  56  80 109 139 177 228 279 326
#     4   9  19  37  59  80 106 145 188 227 272 325
#
# _framework density 18.035720000000001
#
# number of rings (size 3 to 8) (size 9 to 14) (size 15 to 20)
#    0.000    2.375    0.000    1.875    0.000    6.750 
#    0.000    3.750    0.000    0.000    0.000    0.000 
#    0.000    0.000    0.000    0.000    0.000    0.000 
#
# Total GULP energy -357377.720784 kJ/mol
# GULP energy per Si atom -5584.026887 kJ/mol
# Density = 1.799467 g / cm^3
# Si number density = 18.035720 Si / 1000 Ang^3
#
#
#
# Elastic Constant Matrix: (Units=GPa)
#
#
# Indices 1 2 3 4 5 6 
#
# 1 94.0867 59.2071 98.3972 0.0000 0.0000 0.0000
# 2 59.2071 110.9384 62.6689 0.0000 0.0000 0.0000
# 3 98.3972 62.6689 176.6131 0.0000 0.0000 0.0000
# 4 0.0000 0.0000 0.0000 9.8752 0.0000 0.0000
# 5 0.0000 0.0000 0.0000 0.0000 40.7945 0.0000
# 6 0.0000 0.0000 0.0000 0.0000 0.0000 23.8937
#
#
#
# Elastic Compliance Matrix: (Units=1/GPa)
#
#
# Indices 1 2 3 4 5 6 
#
# 1 0.030662 -0.008397 -0.014103 0.000000 0.000000 0.000000
# 2 -0.008397 0.013574 -0.000138 0.000000 0.000000 0.000000
# 3 -0.014103 -0.000138 0.013568 0.000000 0.000000 0.000000
# 4 0.000000 0.000000 0.000000 0.101263 0.000000 0.000000
# 5 0.000000 0.000000 0.000000 0.000000 0.024513 0.000000
# 6 0.000000 0.000000 0.000000 0.000000 0.000000 0.041852
#
#
# Mechanical properties :
#
#
# Convention : Reuss Voigt Hill
#
# Bulk Modulus (GPa) = 79.82701 91.35383 85.59042
# Shear Modulus (GPa) = 18.18939 25.67035 21.92987
#
# Velocity S-wave (km/s) = 3.17917 3.77677 3.49078
# Velocity P-wave (km/s) = 7.60478 8.35345 7.98789
#
# Compressibility (1/GPa) = 0.01252709
#
# Stress axis : x y z
#
# Youngs Moduli (GPa) = 32.61350 73.67277 73.70035
#
# Poissons Ratio (x) = 0.61865 1.03941
# Poissons Ratio (y) = 0.27387 0.01017
# Poissons Ratio (z) = 0.45996 0.01016
#
# Static dielectric constant tensor:
#      x y z
#    x 1.606720 0.000000 0.000000 
#    y 0.000000 1.628200 0.000000 
#    z 0.000000 0.000000 1.573210 
# 
# From -- ./inp_files/31616.got.cif
#   From: 2010.05.17/outbox.cif.g08.bks.cpg/sg59_16_cif.got.tgz:31616.got - 2010.06.03 14:40:33.
