data_PCOD9450870
_publ_section_title
;
Structure prediction by ZEFSAII (Michael W. Deem and Ramdas Pophale) SiO2 
 PCOD9450870
Probable space group: P M M N
;
_chemical_formula_sum "Si O2"
_cell_formula_units_Z 56
_cell_length_a 19.701194
_cell_length_b 7.596874
_cell_length_c 18.556501
_cell_angle_alpha 90.000000
_cell_angle_beta 90.000000
_cell_angle_gamma 90.000000
_cell_volume 2777.304899
_symmetry_space_group_name_H-M "P M M N"
_symmetry_group_IT_number 59
_space_group.IT_coordinate_system_code '2'
_symmetry_cell_setting 'orthorhombic'
loop_
_space_group_symop_operation_xyz
x,y,z
1/2-x,1/2-y,z
1/2+x,-y,-z
-x,1/2+y,-z
-x,-y,-z
1/2+x,1/2+y,-z
1/2-x,y,z
x,1/2-y,z
loop_
_atom_site_type_symbol
_atom_site_label
_atom_site_fract_x
_atom_site_fract_y
_atom_site_fract_z
Si Si1 0.936479 0.460800 0.694487
Si Si2 0.832584 0.953766 0.972059
Si Si3 0.172685 0.037892 0.184148
Si Si4 0.171314 0.465657 0.870485
Si Si5 0.573993 0.459257 0.532482
Si Si6 0.086970 0.034074 0.731744
Si Si7 0.673805 0.958277 0.404715
O O1 0.942779 0.250000 0.687897
O O2 0.877485 0.496312 0.751291
O O3 0.921710 0.529640 0.614030
O O4 0.009486 0.525154 0.722575
O O5 0.750000 0.953462 0.971542
O O6 0.855242 0.750000 0.972697
O O7 0.852042 0.030476 0.894334
O O8 0.851340 0.029199 0.050073
O O9 0.250000 0.975881 0.197056
O O10 0.175856 0.250000 0.177726
O O11 0.250000 0.516783 0.858187
O O12 0.171156 0.250000 0.872542
O O13 0.123465 0.521420 0.805303
O O14 0.500000 0.500000 0.500000
O O15 0.580570 0.250000 0.535593
O O16 0.631630 0.521959 0.477916
O O17 0.086878 0.250000 0.731840
O O18 0.130230 0.972929 0.662641
O O19 0.750000 0.031422 0.408839
O O20 0.679742 0.750000 0.391598
#
# Coordination Sequence:
#
# PCOD9450870 Si02
#       7
#     8   8   8   8   8   8   8
#     4  10  21  35  51  72 101 133 164 201 249 307
#     4   7  11  22  41  67  97 126 160 205 251 289
#     4   9  18  33  52  73  98 128 167 214 254 292
#     4   8  12  20  41  71  98 128 166 205 245 288
#     4  11  22  38  57  75 101 136 174 213 258 311
#     4   9  16  29  46  70 104 136 166 201 246 297
#     4  10  20  35  56  81 108 136 170 213 257 303
#
# _framework density 20.163433000000001
#
# number of rings (size 3 to 8) (size 9 to 14) (size 15 to 20)
#    0.000    2.857    1.429    2.571    0.000    4.000 
#    0.000    3.571    0.000    0.000    0.000    1.000 
#    0.000    4.571    0.000    0.000    0.000    0.000 
#
# Total GULP energy -312266.375794 kJ/mol
# GULP energy per Si atom -5576.185282 kJ/mol
# Density = 2.011754 g / cm^3
# Si number density = 20.163433 Si / 1000 Ang^3
#
#
#
# Elastic Constant Matrix: (Units=GPa)
#
#
# Indices 1 2 3 4 5 6 
#
# 1 137.3273 -0.5419 110.9690 0.0000 0.0000 0.0000
# 2 -0.5419 40.0546 -1.2178 0.0000 0.0000 0.0000
# 3 110.9690 -1.2178 234.6780 0.0000 0.0000 0.0000
# 4 0.0000 0.0000 0.0000 2.2703 0.0000 0.0000
# 5 0.0000 0.0000 0.0000 0.0000 28.2415 0.0000
# 6 0.0000 0.0000 0.0000 0.0000 0.0000 14.5472
#
#
#
# Elastic Compliance Matrix: (Units=1/GPa)
#
#
# Indices 1 2 3 4 5 6 
#
# 1 0.011785 -0.000010 -0.005573 0.000000 0.000000 0.000000
# 2 -0.000010 0.024970 0.000134 0.000000 0.000000 0.000000
# 3 -0.005573 0.000134 0.006897 0.000000 0.000000 0.000000
# 4 0.000000 0.000000 0.000000 0.440462 0.000000 0.000000
# 5 0.000000 0.000000 0.000000 0.000000 0.035409 0.000000
# 6 0.000000 0.000000 0.000000 0.000000 0.000000 0.068742
#
#
# Mechanical properties :
#
#
# Convention : Reuss Voigt Hill
#
# Bulk Modulus (GPa) = 30.52964 70.05317 50.29140
# Shear Modulus (GPa) = 8.19565 29.20183 18.69874
#
# Velocity S-wave (km/s) = 2.01828 3.80973 3.04856
# Velocity P-wave (km/s) = 4.53930 7.36004 6.11455
#
# Compressibility (1/GPa) = 0.03275506
#
# Stress axis : x y z
#
# Youngs Moduli (GPa) = 84.85485 40.04823 144.99288
#
# Poissons Ratio (x) = 0.00040 0.80799
# Poissons Ratio (y) = 0.00085 -0.01947
# Poissons Ratio (z) = 0.47286 -0.00538
#
# Static dielectric constant tensor:
#      x y z
#    x 1.672410 0.000000 0.000000 
#    y 0.000000 1.794820 0.000000 
#    z 0.000000 0.000000 1.728710 
# 
# From -- ./inp_files/28100.got.cif
#   From: 2010.05.17/outbox.cif.g08.bks.cpg/sg59_15_cif.got.tgz:28100.got - 2010.06.03 14:40:33.
