data_PCOD9450596
_publ_section_title
;
Structure prediction by ZEFSAII (Michael W. Deem and Ramdas Pophale) SiO2 
 PCOD9450596
Probable space group: P M M N
;
_chemical_formula_sum "Si O2"
_cell_formula_units_Z 64
_cell_length_a 13.690737
_cell_length_b 14.204920
_cell_length_c 13.357610
_cell_angle_alpha 90.000000
_cell_angle_beta 90.000000
_cell_angle_gamma 90.000000
_cell_volume 2597.732209
_symmetry_space_group_name_H-M "P M M N"
_symmetry_group_IT_number 59
_space_group.IT_coordinate_system_code '2'
_symmetry_cell_setting 'orthorhombic'
loop_
_space_group_symop_operation_xyz
x,y,z
1/2-x,1/2-y,z
1/2+x,-y,-z
-x,1/2+y,-z
-x,-y,-z
1/2+x,1/2+y,-z
1/2-x,y,z
x,1/2-y,z
loop_
_atom_site_type_symbol
_atom_site_label
_atom_site_fract_x
_atom_site_fract_y
_atom_site_fract_z
Si Si1 0.361576 0.387168 0.975894
Si Si2 0.362107 0.894307 0.917762
Si Si3 0.967431 0.362081 0.492805
Si Si4 0.641830 0.356904 0.864717
Si Si5 0.867467 0.053670 0.296627
Si Si6 0.951471 0.856846 0.235086
Si Si7 0.368615 0.356068 0.201524
Si Si8 0.367192 0.473095 0.399189
O O1 0.250000 0.354903 0.981817
O O2 0.361887 0.496894 0.949304
O O3 0.404127 0.375688 0.087699
O O4 0.406704 0.345554 0.876092
O O5 0.250000 0.860106 0.909993
O O6 0.398017 0.851874 0.021691
O O7 0.402261 0.893540 0.805615
O O8 0.963441 0.250000 0.505545
O O9 0.940420 0.393923 0.792509
O O10 0.076804 0.402722 0.476178
O O11 0.914151 0.424697 0.577830
O O12 0.750000 0.403131 0.863035
O O13 0.653805 0.250000 0.832022
O O14 0.750000 0.057706 0.297945
O O15 0.896609 0.943149 0.288538
O O16 0.910732 0.105428 0.392289
O O17 0.950540 0.750000 0.279741
O O18 0.250000 0.357157 0.195538
O O19 0.398800 0.250000 0.229495
O O20 0.390152 0.427452 0.291144
O O21 0.250000 0.476288 0.412491
#
# Coordination Sequence:
#
# PCOD9450596 Si02
#       8
#     8   8   8   8   8   8   8   8
#     4   9  17  29  50  83 120 161 212 265 316 377
#     4   8  16  31  50  76 117 167 214 265 323 378
#     4  11  25  46  75 107 135 171 221 271 328 403
#     4   9  18  32  48  69 105 159 222 278 322 371
#     4  10  22  39  60  93 133 170 215 270 325 387
#     4  10  20  34  55  85 125 176 226 269 321 384
#     4   9  17  31  55  89 128 169 214 267 328 391
#     4  10  23  45  72 104 141 174 212 272 340 400
#
# _framework density 24.636873999999999
#
# number of rings (size 3 to 8) (size 9 to 14) (size 15 to 20)
#    0.000    2.500    0.000    2.250    0.000    7.750 
#    0.000    7.500    0.000    5.250    0.000    3.500 
#    0.000    0.000    0.000    0.000    0.000    0.000 
#
# Total GULP energy -357578.882303 kJ/mol
# GULP energy per Si atom -5587.170036 kJ/mol
# Density = 2.458080 g / cm^3
# Si number density = 24.636874 Si / 1000 Ang^3
#
#
#
# Elastic Constant Matrix: (Units=GPa)
#
#
# Indices 1 2 3 4 5 6 
#
# 1 114.3356 37.2617 56.5451 0.0000 0.0000 0.0000
# 2 37.2617 180.8326 69.1824 0.0000 0.0000 0.0000
# 3 56.5451 69.1824 176.0579 0.0000 0.0000 0.0000
# 4 0.0000 0.0000 0.0000 35.7284 0.0000 0.0000
# 5 0.0000 0.0000 0.0000 0.0000 26.7538 0.0000
# 6 0.0000 0.0000 0.0000 0.0000 0.0000 14.2132
#
#
#
# Elastic Compliance Matrix: (Units=1/GPa)
#
#
# Indices 1 2 3 4 5 6 
#
# 1 0.010559 -0.001034 -0.002985 0.000000 0.000000 0.000000
# 2 -0.001034 0.006610 -0.002265 0.000000 0.000000 0.000000
# 3 -0.002985 -0.002265 0.007529 0.000000 0.000000 0.000000
# 4 0.000000 0.000000 0.000000 0.027989 0.000000 0.000000
# 5 0.000000 0.000000 0.000000 0.000000 0.037378 0.000000
# 6 0.000000 0.000000 0.000000 0.000000 0.000000 0.070357
#
#
# Mechanical properties :
#
#
# Convention : Reuss Voigt Hill
#
# Bulk Modulus (GPa) = 82.44374 88.57828 85.51101
# Shear Modulus (GPa) = 28.24326 35.88821 32.06574
#
# Velocity S-wave (km/s) = 3.38950 3.82080 3.61159
# Velocity P-wave (km/s) = 6.98960 7.44958 7.22325
#
# Compressibility (1/GPa) = 0.01212948
#
# Stress axis : x y z
#
# Youngs Moduli (GPa) = 94.70216 151.29455 132.82250
#
# Poissons Ratio (x) = 0.15640 0.39650
# Poissons Ratio (y) = 0.09790 0.30088
# Poissons Ratio (z) = 0.28270 0.34272
#
# Static dielectric constant tensor:
#      x y z
#    x 2.036070 0.000000 0.000000 
#    y 0.000000 1.930050 0.000000 
#    z 0.000000 0.000000 1.989040 
# 
# From -- ./inp_files/17983.got.cif
#   From: 2010.05.17/outbox.cif.g08.bks.cpg/sg59_9_cif.got.tgz:17983.got - 2010.06.03 14:40:33.
