data_PCOD9450678
_publ_section_title
;
Structure prediction by ZEFSAII (Michael W. Deem and Ramdas Pophale) SiO2 
 PCOD9450678
Probable space group: P M M N
;
_chemical_formula_sum "Si O2"
_cell_formula_units_Z 48
_cell_length_a 9.949689
_cell_length_b 9.648748
_cell_length_c 27.617496
_cell_angle_alpha 90.000000
_cell_angle_beta 90.000000
_cell_angle_gamma 90.000000
_cell_volume 2651.336006
_symmetry_space_group_name_H-M "P M M N"
_symmetry_group_IT_number 59
_space_group.IT_coordinate_system_code '2'
_symmetry_cell_setting 'orthorhombic'
loop_
_space_group_symop_operation_xyz
x,y,z
1/2-x,1/2-y,z
1/2+x,-y,-z
-x,1/2+y,-z
-x,-y,-z
1/2+x,1/2+y,-z
1/2-x,y,z
x,1/2-y,z
loop_
_atom_site_type_symbol
_atom_site_label
_atom_site_fract_x
_atom_site_fract_y
_atom_site_fract_z
Si Si1 0.403954 0.583193 0.294279
Si Si2 0.403908 0.085770 0.794224
Si Si3 0.398720 0.750000 0.557431
Si Si4 0.459601 0.580788 0.891449
Si Si5 0.408884 0.250000 0.533603
Si Si6 0.250000 0.084162 0.070507
Si Si7 0.095349 0.470900 0.615407
Si Si8 0.750000 0.920339 0.042662
O O1 0.250000 0.530657 0.294895
O O2 0.397521 0.750000 0.293971
O O3 0.488519 0.544606 0.246533
O O4 0.491557 0.544569 0.341100
O O5 0.250000 0.075195 0.775899
O O6 0.424129 0.250000 0.807081
O O7 0.418670 0.985716 0.840257
O O8 0.250000 0.750000 0.534228
O O9 0.506935 0.750000 0.515089
O O10 0.408327 0.621530 0.593019
O O11 0.439981 0.750000 0.893393
O O12 0.614596 0.545334 0.902052
O O13 0.374697 0.496642 0.931469
O O14 0.250000 0.250000 0.522512
O O15 0.439294 0.122961 0.569136
O O16 0.250000 0.250000 0.069200
O O17 0.250000 0.043473 0.014177
O O18 0.250000 0.435985 0.630437
O O19 0.750000 0.750000 0.048706
#
# Coordination Sequence:
#
# PCOD9450678 Si02
#       8
#     8   8   4   8   4   4   8   4
#     4  10  21  37  60  88 112 144 193 245 292 343
#     4  10  21  38  60  84 113 150 192 241 293 352
#     4  10  22  36  54  84 120 154 190 238 283 338
#     4  11  22  39  61  88 122 159 199 244 300 357
#     4  10  20  34  58  84 112 154 198 230 285 346
#     4   9  22  39  59  87 125 163 195 245 302 349
#     4  10  20  37  58  82 115 153 192 237 288 345
#     4  11  21  39  63  89 121 159 207 247 286 349
#
# _framework density 18.104081000000001
#
# number of rings (size 3 to 8) (size 9 to 14) (size 15 to 20)
#    0.000    1.833    1.667    2.250    1.167    2.000 
#    1.500    3.750    0.000    0.000    0.000    0.000 
#    0.000    0.000    0.000    0.000    0.000    0.000 
#
# Total GULP energy -267629.952358 kJ/mol
# GULP energy per Si atom -5575.624007 kJ/mol
# Density = 1.806288 g / cm^3
# Si number density = 18.104081 Si / 1000 Ang^3
#
#
#
# Elastic Constant Matrix: (Units=GPa)
#
#
# Indices 1 2 3 4 5 6 
#
# 1 135.6557 21.3512 58.1148 0.0000 0.0000 0.0000
# 2 21.3512 52.1325 4.4802 0.0000 0.0000 0.0000
# 3 58.1148 4.4802 80.1139 0.0000 0.0000 0.0000
# 4 0.0000 0.0000 0.0000 -29.5588 0.0000 0.0000
# 5 0.0000 0.0000 0.0000 0.0000 36.9241 0.0000
# 6 0.0000 0.0000 0.0000 0.0000 0.0000 38.5116
#
#
#
# Elastic Compliance Matrix: (Units=1/GPa)
#
#
# Indices 1 2 3 4 5 6 
#
# 1 0.011470 -0.004002 -0.008097 0.000000 0.000000 0.000000
# 2 -0.004002 0.020671 0.001747 0.000000 0.000000 0.000000
# 3 -0.008097 0.001747 0.018258 0.000000 0.000000 0.000000
# 4 0.000000 0.000000 0.000000 -0.033831 0.000000 0.000000
# 5 0.000000 0.000000 0.000000 0.000000 0.027083 0.000000
# 6 0.000000 0.000000 0.000000 0.000000 0.000000 0.025966
#
#
# Mechanical properties :
#
#
# Convention : Reuss Voigt Hill
#
# Bulk Modulus (GPa) = 33.67495 48.42161 41.04828
# Shear Modulus (GPa) = 49.89129 21.43911 35.66520
#
# Velocity S-wave (km/s) = 5.25527 3.44497 4.44329
# Velocity P-wave (km/s) = 7.44748 6.52902 7.00332
#
# Compressibility (1/GPa) = 0.02969567
#
# Stress axis : x y z
#
# Youngs Moduli (GPa) = 87.18382 48.37759 54.77113
#
# Poissons Ratio (x) = 0.19360 0.44346
# Poissons Ratio (y) = 0.34889 -0.09568
# Poissons Ratio (z) = 0.70589 -0.08451
#
# Static dielectric constant tensor:
#      x y z
#    x 1.480460 0.000000 0.000000 
#    y 0.000000 2.121690 0.000000 
#    z 0.000000 0.000000 1.586480 
# 
# From -- ./inp_files/33120.got.cif
#   From: 2010.05.17/outbox.cif.g08.bks.cpg/sg59_17_cif.got.tgz:33120.got - 2010.06.03 14:40:33.
