data_PCOD9450552
_publ_section_title
;
Structure prediction by ZEFSAII (Michael W. Deem and Ramdas Pophale) SiO2 
 PCOD9450552
Probable space group: P M M N
;
_chemical_formula_sum "Si O2"
_cell_formula_units_Z 40
_cell_length_a 26.798618
_cell_length_b 8.745195
_cell_length_c 9.312463
_cell_angle_alpha 90.000000
_cell_angle_beta 90.000000
_cell_angle_gamma 90.000000
_cell_volume 2182.460821
_symmetry_space_group_name_H-M "P M M N"
_symmetry_group_IT_number 59
_space_group.IT_coordinate_system_code '2'
_symmetry_cell_setting 'orthorhombic'
loop_
_space_group_symop_operation_xyz
x,y,z
1/2-x,1/2-y,z
1/2+x,-y,-z
-x,1/2+y,-z
-x,-y,-z
1/2+x,1/2+y,-z
1/2-x,y,z
x,1/2-y,z
loop_
_atom_site_type_symbol
_atom_site_label
_atom_site_fract_x
_atom_site_fract_y
_atom_site_fract_z
Si Si1 0.250000 0.925863 0.927422
Si Si2 0.144646 0.067080 0.588628
Si Si3 0.857544 0.435528 0.092267
Si Si4 0.750000 0.425629 0.422325
Si Si5 0.953727 0.933717 0.589410
Si Si6 0.045519 0.933620 0.091579
O O1 0.250000 0.750000 0.977908
O O2 0.196197 0.992900 0.966432
O O3 0.250000 0.926175 0.752793
O O4 0.147008 0.250000 0.598022
O O5 0.098410 0.023630 0.487495
O O6 0.135331 0.000496 0.747956
O O7 0.198249 0.005371 0.535483
O O8 0.854721 0.250000 0.104124
O O9 0.903172 0.474594 0.989732
O O10 0.750000 0.250000 0.469455
O O11 0.957169 0.750000 0.592079
O O12 0.955280 0.998673 0.749500
O O13 0.000000 0.000000 0.500000
O O14 0.041843 0.750000 0.097633
O O15 0.000000 0.000000 0.000000
#
# Coordination Sequence:
#
# PCOD9450552 Si02
#       6
#     4   8   8   4   8   8
#     4   7  12  27  50  75 102 132 170 214 258 307
#     4  10  20  34  55  83 113 145 182 227 276 324
#     4   9  18  33  55  81 108 141 181 224 269 322
#     4   9  17  31  54  81 110 146 184 222 266 323
#     4  11  24  40  58  81 111 147 187 233 283 335
#     4  11  23  38  57  81 110 145 185 229 277 332
#
# _framework density 18.327935
#
# number of rings (size 3 to 8) (size 9 to 14) (size 15 to 20)
#    0.000    2.200    0.000    4.500    0.000    8.000 
#    0.000    1.000    0.000    1.200    0.000    0.000 
#    0.000    0.000    0.000    0.000    0.000    0.000 
#
# Total GULP energy -223220.259330 kJ/mol
# GULP energy per Si atom -5580.506483 kJ/mol
# Density = 1.828622 g / cm^3
# Si number density = 18.327935 Si / 1000 Ang^3
#
#
#
# Elastic Constant Matrix: (Units=GPa)
#
#
# Indices 1 2 3 4 5 6 
#
# 1 225.1866 65.3518 108.1515 0.0000 0.0000 0.0000
# 2 65.3518 48.5749 41.6048 0.0000 0.0000 0.0000
# 3 108.1515 41.6048 121.0660 0.0000 0.0000 0.0000
# 4 0.0000 0.0000 0.0000 28.8879 0.0000 0.0000
# 5 0.0000 0.0000 0.0000 0.0000 29.9707 0.0000
# 6 0.0000 0.0000 0.0000 0.0000 0.0000 31.0623
#
#
#
# Elastic Compliance Matrix: (Units=1/GPa)
#
#
# Indices 1 2 3 4 5 6 
#
# 1 0.009488 -0.007802 -0.005795 0.000000 0.000000 0.000000
# 2 -0.007802 0.035589 -0.005261 0.000000 0.000000 0.000000
# 3 -0.005795 -0.005261 0.015245 0.000000 0.000000 0.000000
# 4 0.000000 0.000000 0.000000 0.034617 0.000000 0.000000
# 5 0.000000 0.000000 0.000000 0.000000 0.033366 0.000000
# 6 0.000000 0.000000 0.000000 0.000000 0.000000 0.032193
#
#
# Mechanical properties :
#
#
# Convention : Reuss Voigt Hill
#
# Bulk Modulus (GPa) = 44.23445 91.67151 67.95298
# Shear Modulus (GPa) = 24.30163 29.96548 27.13356
#
# Velocity S-wave (km/s) = 3.64529 4.04785 3.85183
# Velocity P-wave (km/s) = 6.47340 8.48368 7.54578
#
# Compressibility (1/GPa) = 0.02260681
#
# Stress axis : x y z
#
# Youngs Moduli (GPa) = 105.39632 28.09864 65.59736
#
# Poissons Ratio (x) = 0.21922 0.38012
# Poissons Ratio (y) = 0.82227 0.34510
# Poissons Ratio (z) = 0.61075 0.14782
#
# Static dielectric constant tensor:
#      x y z
#    x 1.656790 0.000000 0.000000 
#    y 0.000000 1.620550 0.000000 
#    z 0.000000 0.000000 1.589420 
# 
# From -- ./inp_files/12409.got.cif
#   From: 2010.05.17/outbox.cif.g08.bks.cpg/sg59_7_cif.got.tgz:12409.got - 2010.06.03 14:40:33.
