data_PCOD9450012
_publ_section_title
;
Structure prediction by ZEFSAII (Michael W. Deem and Ramdas Pophale) SiO2 
 PCOD9450012
Probable space group: P M M N
;
_chemical_formula_sum "Si O2"
_cell_formula_units_Z 48
_cell_length_a 23.189386
_cell_length_b 8.854285
_cell_length_c 13.057318
_cell_angle_alpha 90.000000
_cell_angle_beta 90.000000
_cell_angle_gamma 90.000000
_cell_volume 2680.999467
_symmetry_space_group_name_H-M "P M M N"
_symmetry_group_IT_number 59
_space_group.IT_coordinate_system_code '2'
_symmetry_cell_setting 'orthorhombic'
loop_
_space_group_symop_operation_xyz
x,y,z
1/2-x,1/2-y,z
1/2+x,-y,-z
-x,1/2+y,-z
-x,-y,-z
1/2+x,1/2+y,-z
1/2-x,y,z
x,1/2-y,z
loop_
_atom_site_type_symbol
_atom_site_label
_atom_site_fract_x
_atom_site_fract_y
_atom_site_fract_z
Si Si1 0.433615 0.071531 0.883330
Si Si2 0.509802 0.578191 0.392774
Si Si3 0.681534 0.929069 0.498098
Si Si4 0.618646 0.078601 0.693498
Si Si5 0.061626 0.428209 0.122659
Si Si6 0.119005 0.571913 0.698235
O O1 0.436563 0.250000 0.860217
O O2 0.498284 0.004972 0.865830
O O3 0.384173 0.998481 0.812035
O O4 0.421666 0.049774 0.003769
O O5 0.500000 0.500000 0.500000
O O6 0.532602 0.750000 0.400844
O O7 0.447771 0.586088 0.341897
O O8 0.554608 0.470992 0.337085
O O9 0.750000 0.952940 0.503476
O O10 0.669756 0.750000 0.497157
O O11 0.652351 0.000138 0.599748
O O12 0.657908 0.000098 0.391831
O O13 0.640136 0.250000 0.707322
O O14 0.610394 0.992306 0.800950
O O15 0.054370 0.250000 0.142168
O O16 0.128784 0.750000 0.701790
#
# Coordination Sequence:
#
# PCOD9450012 Si02
#       6
#     8   8   8   8   8   8
#     4  10  20  34  52  80 117 154 189 226 271 328
#     4  11  21  32  50  80 113 147 182 222 275 335
#     4  11  25  43  62  82 107 144 188 235 285 335
#     4  11  22  35  56  83 115 151 184 227 278 331
#     4  10  20  33  53  81 116 154 189 226 271 328
#     4  12  23  35  56  83 113 150 185 227 279 332
#
# _framework density 17.903770999999999
#
# number of rings (size 3 to 8) (size 9 to 14) (size 15 to 20)
#    0.000    1.167    3.333    4.000    0.000    4.667 
#    0.000    0.000    0.000    1.000    0.000    7.000 
#    0.000    0.000    0.000    0.000    0.000    0.000 
#
# Total GULP energy -267703.467232 kJ/mol
# GULP energy per Si atom -5577.155567 kJ/mol
# Density = 1.786302 g / cm^3
# Si number density = 17.903771 Si / 1000 Ang^3
#
#
#
# Elastic Constant Matrix: (Units=GPa)
#
#
# Indices 1 2 3 4 5 6 
#
# 1 67.6310 45.4299 42.8554 0.0000 0.0000 0.0000
# 2 45.4299 143.7961 86.7053 0.0000 0.0000 0.0000
# 3 42.8554 86.7053 140.0175 0.0000 0.0000 0.0000
# 4 0.0000 0.0000 0.0000 28.7987 0.0000 0.0000
# 5 0.0000 0.0000 0.0000 0.0000 9.5262 0.0000
# 6 0.0000 0.0000 0.0000 0.0000 0.0000 20.6415
#
#
#
# Elastic Compliance Matrix: (Units=1/GPa)
#
#
# Indices 1 2 3 4 5 6 
#
# 1 0.019781 -0.004147 -0.003486 0.000000 0.000000 0.000000
# 2 -0.004147 0.011968 -0.006142 0.000000 0.000000 0.000000
# 3 -0.003486 -0.006142 0.012012 0.000000 0.000000 0.000000
# 4 0.000000 0.000000 0.000000 0.034724 0.000000 0.000000
# 5 0.000000 0.000000 0.000000 0.000000 0.104974 0.000000
# 6 0.000000 0.000000 0.000000 0.000000 0.000000 0.048446
#
#
# Mechanical properties :
#
#
# Convention : Reuss Voigt Hill
#
# Bulk Modulus (GPa) = 61.68771 77.93620 69.81196
# Shear Modulus (GPa) = 18.87795 23.55686 21.21740
#
# Velocity S-wave (km/s) = 3.25069 3.63126 3.44623
# Velocity P-wave (km/s) = 6.97275 7.82346 7.41032
#
# Compressibility (1/GPa) = 0.01621068
#
# Stress axis : x y z
#
# Youngs Moduli (GPa) = 50.55317 83.55710 83.24894
#
# Poissons Ratio (x) = 0.34655 0.29022
# Poissons Ratio (y) = 0.20967 0.51128
# Poissons Ratio (z) = 0.17624 0.51318
#
# Static dielectric constant tensor:
#      x y z
#    x 1.593550 0.000000 0.000000 
#    y 0.000000 1.752170 0.000000 
#    z 0.000000 0.000000 1.699440 
# 
# From -- ./inp_files/18620.got.cif
#   From: 2010.05.17/outbox.cif.g08.bks.cpg/sg59_10_cif.got.tgz:18620.got - 2010.06.03 14:40:33.
