data_PCOD9450554
_publ_section_title
;
Structure prediction by ZEFSAII (Michael W. Deem and Ramdas Pophale) SiO2 
 PCOD9450554
Probable space group: P M M N
;
_chemical_formula_sum "Si O2"
_cell_formula_units_Z 48
_cell_length_a 31.903180
_cell_length_b 8.978640
_cell_length_c 9.127988
_cell_angle_alpha 90.000000
_cell_angle_beta 90.000000
_cell_angle_gamma 90.000000
_cell_volume 2614.686313
_symmetry_space_group_name_H-M "P M M N"
_symmetry_group_IT_number 59
_space_group.IT_coordinate_system_code '2'
_symmetry_cell_setting 'orthorhombic'
loop_
_space_group_symop_operation_xyz
x,y,z
1/2-x,1/2-y,z
1/2+x,-y,-z
-x,1/2+y,-z
-x,-y,-z
1/2+x,1/2+y,-z
1/2-x,y,z
x,1/2-y,z
loop_
_atom_site_type_symbol
_atom_site_label
_atom_site_fract_x
_atom_site_fract_y
_atom_site_fract_z
Si Si1 0.591709 0.927366 0.331005
Si Si2 0.750000 0.428917 0.657597
Si Si3 0.086343 0.072872 0.319833
Si Si4 0.001463 0.928174 0.338420
Si Si5 0.170766 0.927307 0.820833
Si Si6 0.250000 0.427616 0.661542
Si Si7 0.165643 0.927964 0.165314
O O1 0.599014 0.750000 0.313539
O O2 0.592364 0.959007 0.505997
O O3 0.544604 0.960925 0.274047
O O4 0.627431 0.018503 0.250260
O O5 0.750000 0.250000 0.632940
O O6 0.750000 0.512160 0.503875
O O7 0.791691 0.466082 0.749115
O O8 0.082352 0.250000 0.304731
O O9 0.043164 0.995788 0.268001
O O10 0.126221 0.012077 0.233780
O O11 0.005146 0.750000 0.350493
O O12 0.000000 0.000000 0.500000
O O13 0.175748 0.750000 0.801799
O O14 0.208994 0.009781 0.742347
O O15 0.170611 0.960633 0.993676
O O16 0.250000 0.250000 0.662981
O O17 0.159035 0.750000 0.180859
#
# Coordination Sequence:
#
# PCOD9450554 Si02
#       7
#     8   4   8   8   8   4   8
#     4   9  19  35  55  83 114 144 183 230 277 326
#     4  10  21  40  64  84 106 140 181 226 272 320
#     4  10  20  34  55  83 113 146 187 231 276 329
#     4   9  17  31  53  80 111 145 185 233 279 324
#     4  11  23  39  59  83 112 147 186 225 271 329
#     4  12  25  40  60  86 114 142 179 226 272 324
#     4  10  22  39  58  82 112 145 183 227 274 326
#
# _framework density 18.357844
#
# number of rings (size 3 to 8) (size 9 to 14) (size 15 to 20)
#    0.000    2.000    0.000    4.750    0.000   10.000 
#    0.000    1.667    0.000    0.000    0.000    0.000 
#    0.000    0.000    0.000    0.000    0.000    0.000 
#
# Total GULP energy -268032.158079 kJ/mol
# GULP energy per Si atom -5584.003293 kJ/mol
# Density = 1.831606 g / cm^3
# Si number density = 18.357844 Si / 1000 Ang^3
#
#
#
# Elastic Constant Matrix: (Units=GPa)
#
#
# Indices 1 2 3 4 5 6 
#
# 1 205.3274 98.1139 89.1268 0.0000 0.0000 0.0000
# 2 98.1139 82.4808 73.7240 0.0000 0.0000 0.0000
# 3 89.1268 73.7240 100.2533 0.0000 0.0000 0.0000
# 4 0.0000 0.0000 0.0000 19.2296 0.0000 0.0000
# 5 0.0000 0.0000 0.0000 0.0000 -38.2411 0.0000
# 6 0.0000 0.0000 0.0000 0.0000 0.0000 35.5803
#
#
#
# Elastic Compliance Matrix: (Units=1/GPa)
#
#
# Indices 1 2 3 4 5 6 
#
# 1 0.011292 -0.013012 -0.000470 0.000000 0.000000 0.000000
# 2 -0.013012 0.050373 -0.025475 0.000000 0.000000 0.000000
# 3 -0.000470 -0.025475 0.029126 0.000000 0.000000 0.000000
# 4 0.000000 0.000000 0.000000 0.052003 0.000000 0.000000
# 5 0.000000 0.000000 0.000000 0.000000 -0.026150 0.000000
# 6 0.000000 0.000000 0.000000 0.000000 0.000000 0.028105
#
#
# Mechanical properties :
#
#
# Convention : Reuss Voigt Hill
#
# Bulk Modulus (GPa) = 77.65848 101.11012 89.38430
# Shear Modulus (GPa) = 22.03056 11.78686 16.90871
#
# Velocity S-wave (km/s) = 3.46795 2.53664 3.03819
# Velocity P-wave (km/s) = 7.64395 7.98601 7.81685
#
# Compressibility (1/GPa) = 0.01287689
#
# Stress axis : x y z
#
# Youngs Moduli (GPa) = 88.55779 19.85180 34.33328
#
# Poissons Ratio (x) = 0.25832 0.01613
# Poissons Ratio (y) = 1.15235 0.87465
# Poissons Ratio (z) = 0.04160 0.50573
#
# Static dielectric constant tensor:
#      x y z
#    x 1.636360 0.000000 0.000000 
#    y 0.000000 1.609020 0.000000 
#    z 0.000000 0.000000 1.604670 
# 
# From -- ./inp_files/13026.got.cif
#   From: 2010.05.17/outbox.cif.g08.bks.cpg/sg59_7_cif.got.tgz:13026.got - 2010.06.03 14:40:33.
