data_PCOD9450992
_publ_section_title
;
Structure prediction by ZEFSAII (Michael W. Deem and Ramdas Pophale) SiO2 
 PCOD9450992
Probable space group: P M M N
;
_chemical_formula_sum "Si O2"
_cell_formula_units_Z 64
_cell_length_a 9.231713
_cell_length_b 30.789080
_cell_length_c 11.877744
_cell_angle_alpha 90.000000
_cell_angle_beta 90.000000
_cell_angle_gamma 90.000000
_cell_volume 3376.081851
_symmetry_space_group_name_H-M "P M M N"
_symmetry_group_IT_number 59
_space_group.IT_coordinate_system_code '2'
_symmetry_cell_setting 'orthorhombic'
loop_
_space_group_symop_operation_xyz
x,y,z
1/2-x,1/2-y,z
1/2+x,-y,-z
-x,1/2+y,-z
-x,-y,-z
1/2+x,1/2+y,-z
1/2-x,y,z
x,1/2-y,z
loop_
_atom_site_type_symbol
_atom_site_label
_atom_site_fract_x
_atom_site_fract_y
_atom_site_fract_z
Si Si1 0.416057 0.302864 0.654427
Si Si2 0.418680 0.031106 0.659174
Si Si3 0.078115 0.372020 0.028901
Si Si4 0.418144 0.564738 0.548946
Si Si5 0.578361 0.632484 0.708579
Si Si6 0.422691 0.801302 0.114964
Si Si7 0.081911 0.697961 0.570814
Si Si8 0.075820 0.035209 0.920167
O O1 0.250000 0.318301 0.654687
O O2 0.412911 0.250000 0.651401
O O3 0.499773 0.314491 0.768199
O O4 0.502124 0.317015 0.543467
O O5 0.250000 0.045020 0.655321
O O6 0.513272 0.059986 0.574786
O O7 0.466455 0.031061 0.789015
O O8 0.426033 0.982388 0.609227
O O9 0.250000 0.363353 0.013310
O O10 0.051752 0.378446 0.161358
O O11 0.042245 0.416450 0.964077
O O12 0.987579 0.331983 0.980654
O O13 0.250000 0.577218 0.542588
O O14 0.507528 0.597412 0.626140
O O15 0.750000 0.634897 0.690342
O O16 0.502384 0.677372 0.674790
O O17 0.250000 0.806169 0.124776
O O18 0.453044 0.750000 0.095319
O O19 0.250000 0.685189 0.570124
O O20 0.075414 0.750000 0.574125
O O21 0.250000 0.029167 0.926854
O O22 0.000000 0.000000 0.000000
#
# Coordination Sequence:
#
# PCOD9450992 Si02
#       8
#     8   8   8   8   8   8   8   8
#     4   9  17  32  56  83 111 144 181 223 276 337
#     4   9  19  36  58  84 114 148 183 224 277 333
#     4  10  23  40  57  81 112 149 194 239 285 342
#     4  10  20  35  57  84 113 145 183 227 277 335
#     4  11  23  38  56  78 109 148 186 230 285 341
#     4  10  21  37  58  84 115 152 193 239 289 337
#     4  10  21  37  57  81 109 141 181 230 280 332
#     4  10  21  38  60  85 114 148 187 231 279 332
#
# _framework density 18.956886999999998
#
# number of rings (size 3 to 8) (size 9 to 14) (size 15 to 20)
#    0.000    2.125    0.000    2.625    0.000    7.000 
#    0.000    6.250    0.000    0.000    0.000    0.000 
#    0.000    0.000    0.000    0.000    0.000    0.000 
#
# Total GULP energy -357477.875651 kJ/mol
# GULP energy per Si atom -5585.591807 kJ/mol
# Density = 1.891374 g / cm^3
# Si number density = 18.956887 Si / 1000 Ang^3
#
#
#
# Elastic Constant Matrix: (Units=GPa)
#
#
# Indices 1 2 3 4 5 6 
#
# 1 102.5539 45.1660 77.3020 0.0000 0.0000 0.0000
# 2 45.1660 55.2707 48.4162 0.0000 0.0000 0.0000
# 3 77.3020 48.4162 147.3690 0.0000 0.0000 0.0000
# 4 0.0000 0.0000 0.0000 26.4809 0.0000 0.0000
# 5 0.0000 0.0000 0.0000 0.0000 26.9455 0.0000
# 6 0.0000 0.0000 0.0000 0.0000 0.0000 30.3391
#
#
#
# Elastic Compliance Matrix: (Units=1/GPa)
#
#
# Indices 1 2 3 4 5 6 
#
# 1 0.019202 -0.009644 -0.006904 0.000000 0.000000 0.000000
# 2 -0.009644 0.030247 -0.004879 0.000000 0.000000 0.000000
# 3 -0.006904 -0.004879 0.012010 0.000000 0.000000 0.000000
# 4 0.000000 0.000000 0.000000 0.037763 0.000000 0.000000
# 5 0.000000 0.000000 0.000000 0.000000 0.037112 0.000000
# 6 0.000000 0.000000 0.000000 0.000000 0.000000 0.032961
#
#
# Mechanical properties :
#
#
# Convention : Reuss Voigt Hill
#
# Bulk Modulus (GPa) = 53.74542 71.88467 62.81505
# Shear Modulus (GPa) = 22.89892 25.70706 24.30299
#
# Velocity S-wave (km/s) = 3.47932 3.68649 3.58441
# Velocity P-wave (km/s) = 6.67487 7.49151 7.09495
#
# Compressibility (1/GPa) = 0.01860624
#
# Stress axis : x y z
#
# Youngs Moduli (GPa) = 52.07687 33.06097 83.26328
#
# Poissons Ratio (x) = 0.31883 0.57487
# Poissons Ratio (y) = 0.50222 0.40622
# Poissons Ratio (z) = 0.35955 0.16129
#
# Static dielectric constant tensor:
#      x y z
#    x 1.634320 0.000000 0.000000 
#    y 0.000000 1.665730 0.000000 
#    z 0.000000 0.000000 1.633340 
# 
# From -- ./inp_files/15047.got.cif
#   From: 2010.05.17/outbox.cif.g08.bks.cpg/sg59_8_cif.got.tgz:15047.got - 2010.06.03 14:40:33.
