data_PCOD9450634
_publ_section_title
;
Structure prediction by ZEFSAII (Michael W. Deem and Ramdas Pophale) SiO2 
 PCOD9450634
Probable space group: P M M N
;
_chemical_formula_sum "Si O2"
_cell_formula_units_Z 64
_cell_length_a 13.096491
_cell_length_b 17.415292
_cell_length_c 15.318014
_cell_angle_alpha 90.000000
_cell_angle_beta 90.000000
_cell_angle_gamma 90.000000
_cell_volume 3493.720608
_symmetry_space_group_name_H-M "P M M N"
_symmetry_group_IT_number 59
_space_group.IT_coordinate_system_code '2'
_symmetry_cell_setting 'orthorhombic'
loop_
_space_group_symop_operation_xyz
x,y,z
1/2-x,1/2-y,z
1/2+x,-y,-z
-x,1/2+y,-z
-x,-y,-z
1/2+x,1/2+y,-z
1/2-x,y,z
x,1/2-y,z
loop_
_atom_site_type_symbol
_atom_site_label
_atom_site_fract_x
_atom_site_fract_y
_atom_site_fract_z
Si Si1 0.129982 0.158956 0.856993
Si Si2 0.633341 0.158573 0.153702
Si Si3 0.472474 0.414248 0.025638
Si Si4 0.638546 0.956037 0.804401
Si Si5 0.022307 0.064969 0.706265
Si Si6 0.060271 0.554449 0.565340
Si Si7 0.365400 0.658436 0.416941
Si Si8 0.464639 0.160398 0.302794
O O1 0.250000 0.143580 0.871177
O O2 0.116016 0.250000 0.845038
O O3 0.091191 0.113917 0.771682
O O4 0.067307 0.131478 0.942009
O O5 0.750000 0.129943 0.161905
O O6 0.637452 0.250000 0.140772
O O7 0.570160 0.122743 0.073917
O O8 0.563988 0.146836 0.240018
O O9 0.387019 0.424812 0.099906
O O10 0.500000 0.500000 0.000000
O O11 0.750000 0.991441 0.800384
O O12 0.628492 0.881390 0.743740
O O13 0.553440 0.013826 0.766815
O O14 0.950218 0.119876 0.646313
O O15 0.085401 0.005197 0.644370
O O16 0.133191 0.607232 0.505926
O O17 0.000000 0.500000 0.500000
O O18 0.985828 0.616702 0.608410
O O19 0.250000 0.652456 0.380119
O O20 0.385160 0.750000 0.431982
O O21 0.450862 0.250000 0.313045
#
# Coordination Sequence:
#
# PCOD9450634 Si02
#       8
#     8   8   8   8   8   8   8   8
#     4  11  24  41  61  84 113 151 195 237 276 329
#     4   9  19  35  55  80 112 148 184 228 280 332
#     4  11  21  38  55  83 115 150 186 233 281 323
#     4  10  20  35  56  82 112 147 190 234 281 336
#     4  10  20  39  57  82 113 151 188 232 284 333
#     4   9  19  34  54  78 110 145 186 230 281 333
#     4  10  20  34  56  85 115 147 183 229 285 343
#     4   9  18  33  53  80 114 149 188 235 287 340
#
# _framework density 18.318580000000001
#
# number of rings (size 3 to 8) (size 9 to 14) (size 15 to 20)
#    0.000    2.125    1.250    1.875    0.000    2.750 
#    0.000    1.250    0.000    3.000    0.000    0.000 
#    0.000    0.000    0.000    0.000    0.000    0.000 
#
# Total GULP energy -356537.233252 kJ/mol
# GULP energy per Si atom -5570.894270 kJ/mol
# Density = 1.827689 g / cm^3
# Si number density = 18.318580 Si / 1000 Ang^3
#
#
#
# Elastic Constant Matrix: (Units=GPa)
#
#
# Indices 1 2 3 4 5 6 
#
# 1 60.0245 25.4072 10.0917 0.0000 0.0000 0.0000
# 2 25.4072 101.3197 28.3828 0.0000 0.0000 0.0000
# 3 10.0917 28.3828 71.6560 0.0000 0.0000 0.0000
# 4 0.0000 0.0000 0.0000 38.4479 0.0000 0.0000
# 5 0.0000 0.0000 0.0000 0.0000 7.2302 0.0000
# 6 0.0000 0.0000 0.0000 0.0000 0.0000 20.6968
#
#
#
# Elastic Compliance Matrix: (Units=1/GPa)
#
#
# Indices 1 2 3 4 5 6 
#
# 1 0.018687 -0.004441 -0.000872 0.000000 0.000000 0.000000
# 2 -0.004441 0.012157 -0.004190 0.000000 0.000000 0.000000
# 3 -0.000872 -0.004190 0.015738 0.000000 0.000000 0.000000
# 4 0.000000 0.000000 0.000000 0.026009 0.000000 0.000000
# 5 0.000000 0.000000 0.000000 0.000000 0.138309 0.000000
# 6 0.000000 0.000000 0.000000 0.000000 0.000000 0.048317
#
#
# Mechanical properties :
#
#
# Convention : Reuss Voigt Hill
#
# Bulk Modulus (GPa) = 36.26595 40.08485 38.17540
# Shear Modulus (GPa) = 17.39639 24.54954 20.97296
#
# Velocity S-wave (km/s) = 3.08500 3.66477 3.38731
# Velocity P-wave (km/s) = 5.70350 6.31165 6.01527
#
# Compressibility (1/GPa) = 0.02757407
#
# Stress axis : x y z
#
# Youngs Moduli (GPa) = 53.51446 82.25553 63.54023
#
# Poissons Ratio (x) = 0.36534 0.05544
# Poissons Ratio (y) = 0.23768 0.26623
# Poissons Ratio (z) = 0.04669 0.34465
#
# Static dielectric constant tensor:
#      x y z
#    x 1.617250 0.000000 0.000000 
#    y 0.000000 1.624640 0.000000 
#    z 0.000000 0.000000 1.708180 
# 
# From -- ./inp_files/22725.got.cif
#   From: 2010.05.17/outbox.cif.g08.bks.cpg/sg59_12_cif.got.tgz:22725.got - 2010.06.03 14:40:33.
