data_PCOD9450124
_publ_section_title
;
Structure prediction by ZEFSAII (Michael W. Deem and Ramdas Pophale) SiO2 
 PCOD9450124
Probable space group: P M M N
;
_chemical_formula_sum "Si O2"
_cell_formula_units_Z 48
_cell_length_a 7.937644
_cell_length_b 14.674850
_cell_length_c 21.915088
_cell_angle_alpha 90.000000
_cell_angle_beta 90.000000
_cell_angle_gamma 90.000000
_cell_volume 2552.751304
_symmetry_space_group_name_H-M "P M M N"
_symmetry_group_IT_number 59
_space_group.IT_coordinate_system_code '2'
_symmetry_cell_setting 'orthorhombic'
loop_
_space_group_symop_operation_xyz
x,y,z
1/2-x,1/2-y,z
1/2+x,-y,-z
-x,1/2+y,-z
-x,-y,-z
1/2+x,1/2+y,-z
1/2-x,y,z
x,1/2-y,z
loop_
_atom_site_type_symbol
_atom_site_label
_atom_site_fract_x
_atom_site_fract_y
_atom_site_fract_z
Si Si1 0.548049 0.352854 0.168433
Si Si2 0.953173 0.146521 0.498671
Si Si3 0.950919 0.505073 0.929744
Si Si4 0.453291 0.497031 0.597733
Si Si5 0.953049 0.146786 0.835573
Si Si6 0.953603 0.995814 0.263438
O O1 0.750000 0.348119 0.175079
O O2 0.481334 0.250000 0.170349
O O3 0.512219 0.404746 0.105252
O O4 0.484318 0.419043 0.222460
O O5 0.750000 0.149343 0.494988
O O6 0.016160 0.250000 0.496544
O O7 0.999234 0.093418 0.560443
O O8 0.014086 0.082682 0.442914
O O9 0.750000 0.504411 0.925807
O O10 0.015394 0.418563 0.890333
O O11 0.000000 0.500000 0.000000
O O12 0.250000 0.501817 0.599410
O O13 0.515187 0.497847 0.667131
O O14 0.750000 0.150156 0.839677
O O15 0.017099 0.250000 0.838479
O O16 0.998011 0.095039 0.773176
O O17 0.750000 0.000327 0.264705
#
# Coordination Sequence:
#
# PCOD9450124 Si02
#       6
#     8   8   8   8   8   8
#     4   9  18  33  52  73  98 128 161 198 241 289
#     4   9  18  32  49  69  94 126 163 199 235 281
#     4  10  20  34  52  74 100 129 162 200 241 285
#     4   9  18  32  49  70  97 126 157 197 243 286
#     4   9  19  35  52  70  95 128 162 195 234 282
#     4   9  18  32  50  73  98 124 157 198 242 286
#
# _framework density 18.803242000000001
#
# number of rings (size 3 to 8) (size 9 to 14) (size 15 to 20)
#    0.000    2.833    0.000    0.500    0.000    4.333 
#    0.000    8.333    0.000    0.000    0.000    9.333 
#    0.000    0.000    0.000    0.000    0.000    0.000 
#
# Total GULP energy -267668.205460 kJ/mol
# GULP energy per Si atom -5576.420947 kJ/mol
# Density = 1.876045 g / cm^3
# Si number density = 18.803242 Si / 1000 Ang^3
#
#
#
# Elastic Constant Matrix: (Units=GPa)
#
#
# Indices 1 2 3 4 5 6 
#
# 1 14.9479 6.0925 -1.0517 0.0000 0.0000 0.0000
# 2 6.0925 180.5307 82.3403 0.0000 0.0000 0.0000
# 3 -1.0517 82.3403 166.5632 0.0000 0.0000 0.0000
# 4 0.0000 0.0000 0.0000 6.5407 0.0000 0.0000
# 5 0.0000 0.0000 0.0000 0.0000 24.3379 0.0000
# 6 0.0000 0.0000 0.0000 0.0000 0.0000 22.5337
#
#
#
# Elastic Compliance Matrix: (Units=1/GPa)
#
#
# Indices 1 2 3 4 5 6 
#
# 1 0.068360 -0.003233 0.002030 0.000000 0.000000 0.000000
# 2 -0.003233 0.007305 -0.003631 0.000000 0.000000 0.000000
# 3 0.002030 -0.003631 0.007812 0.000000 0.000000 0.000000
# 4 0.000000 0.000000 0.000000 0.152890 0.000000 0.000000
# 5 0.000000 0.000000 0.000000 0.000000 0.041088 0.000000
# 6 0.000000 0.000000 0.000000 0.000000 0.000000 0.044378
#
#
# Mechanical properties :
#
#
# Convention : Reuss Voigt Hill
#
# Bulk Modulus (GPa) = 13.54885 59.64490 36.59688
# Shear Modulus (GPa) = 14.04087 28.99316 21.51702
#
# Velocity S-wave (km/s) = 2.73559 3.93099 3.38646
# Velocity P-wave (km/s) = 4.14719 7.23830 5.89882
#
# Compressibility (1/GPa) = 0.07380699
#
# Stress axis : x y z
#
# Youngs Moduli (GPa) = 14.62854 136.89945 128.01233
#
# Poissons Ratio (x) = 0.44256 -0.25983
# Poissons Ratio (y) = 0.04729 0.46487
# Poissons Ratio (z) = -0.02969 0.49714
#
# Static dielectric constant tensor:
#      x y z
#    x 1.683130 0.000000 0.000000 
#    y 0.000000 1.648200 0.000000 
#    z 0.000000 0.000000 1.643940 
# 
# From -- ./inp_files/28817.got.cif
#   From: 2010.05.17/outbox.cif.g08.bks.cpg/sg59_15_cif.got.tgz:28817.got - 2010.06.03 14:40:33.
