data_PCOD9450845
_publ_section_title
;
Structure prediction by ZEFSAII (Michael W. Deem and Ramdas Pophale) SiO2 
 PCOD9450845
Probable space group: P M M N
;
_chemical_formula_sum "Si O2"
_cell_formula_units_Z 64
_cell_length_a 9.198957
_cell_length_b 14.264163
_cell_length_c 26.703868
_cell_angle_alpha 90.000000
_cell_angle_beta 90.000000
_cell_angle_gamma 90.000000
_cell_volume 3503.959311
_symmetry_space_group_name_H-M "P M M N"
_symmetry_group_IT_number 59
_space_group.IT_coordinate_system_code '2'
_symmetry_cell_setting 'orthorhombic'
loop_
_space_group_symop_operation_xyz
x,y,z
1/2-x,1/2-y,z
1/2+x,-y,-z
-x,1/2+y,-z
-x,-y,-z
1/2+x,1/2+y,-z
1/2-x,y,z
x,1/2-y,z
loop_
_atom_site_type_symbol
_atom_site_label
_atom_site_fract_x
_atom_site_fract_y
_atom_site_fract_z
Si Si1 0.425131 0.542088 0.370916
Si Si2 0.074207 0.543686 0.182061
Si Si3 0.581498 0.362423 0.524088
Si Si4 0.924465 0.643106 0.578388
Si Si5 0.921189 0.362066 0.922718
Si Si6 0.583154 0.864526 0.977725
Si Si7 0.426965 0.143557 0.133469
Si Si8 0.576147 0.638877 0.276834
O O1 0.250000 0.550795 0.363903
O O2 0.462931 0.591710 0.423617
O O3 0.462598 0.432874 0.379601
O O4 0.507463 0.590035 0.325486
O O5 0.250000 0.551857 0.187792
O O6 0.032463 0.592829 0.129600
O O7 0.035695 0.434348 0.174188
O O8 0.995176 0.592032 0.228072
O O9 0.750000 0.387987 0.515059
O O10 0.572814 0.250000 0.529763
O O11 0.488909 0.387013 0.475236
O O12 0.750000 0.642742 0.574165
O O13 0.972357 0.750000 0.588623
O O14 0.750000 0.380143 0.927859
O O15 0.943159 0.250000 0.919230
O O16 0.998068 0.396213 0.973239
O O17 0.750000 0.895774 0.981159
O O18 0.583205 0.750000 0.978271
O O19 0.524464 0.887624 0.922352
O O20 0.250000 0.145443 0.130506
O O21 0.475436 0.250000 0.143439
O O22 0.750000 0.627422 0.276247
O O23 0.543683 0.750000 0.277535
#
# Coordination Sequence:
#
# PCOD9450845 Si02
#       8
#     8   8   8   8   8   8   8   8
#     4  10  20  35  56  79 105 142 183 218 255 303
#     4  10  20  35  56  77  98 132 174 212 255 306
#     4   9  17  29  48  77 110 143 180 219 259 304
#     4   9  18  32  51  79 114 147 179 215 253 296
#     4   9  17  28  43  68 101 132 165 206 250 299
#     4   8  14  26  45  69  99 134 166 198 242 296
#     4   8  15  30  52  77 103 131 168 211 250 295
#     4  11  25  42  58  78 103 129 163 213 267 313
#
# _framework density 18.265051
#
# number of rings (size 3 to 8) (size 9 to 14) (size 15 to 20)
#    0.000    2.750    0.000    2.250    0.000    4.000 
#    0.000    3.750    0.000    4.875    0.000    0.000 
#    0.000    0.000    0.000    0.000    0.000    0.000 
#
# Total GULP energy -356986.984179 kJ/mol
# GULP energy per Si atom -5577.921628 kJ/mol
# Density = 1.822348 g / cm^3
# Si number density = 18.265051 Si / 1000 Ang^3
#
#
#
# Elastic Constant Matrix: (Units=GPa)
#
#
# Indices 1 2 3 4 5 6 
#
# 1 27.9510 50.5612 50.3166 0.0000 0.0000 0.0000
# 2 50.5612 110.6425 99.9468 0.0000 0.0000 0.0000
# 3 50.3166 99.9468 132.5519 0.0000 0.0000 0.0000
# 4 0.0000 0.0000 0.0000 35.4621 0.0000 0.0000
# 5 0.0000 0.0000 0.0000 0.0000 19.3419 0.0000
# 6 0.0000 0.0000 0.0000 0.0000 0.0000 15.8658
#
#
#
# Elastic Compliance Matrix: (Units=1/GPa)
#
#
# Indices 1 2 3 4 5 6 
#
# 1 0.230654 -0.082515 -0.025338 0.000000 0.000000 0.000000
# 2 -0.082515 0.057864 -0.012308 0.000000 0.000000 0.000000
# 3 -0.025338 -0.012308 0.026443 0.000000 0.000000 0.000000
# 4 0.000000 0.000000 0.000000 0.028199 0.000000 0.000000
# 5 0.000000 0.000000 0.000000 0.000000 0.051701 0.000000
# 6 0.000000 0.000000 0.000000 0.000000 0.000000 0.063029
#
#
# Mechanical properties :
#
#
# Convention : Reuss Voigt Hill
#
# Bulk Modulus (GPa) = 13.39792 74.75496 44.07644
# Shear Modulus (GPa) = 6.91476 18.82199 12.86838
#
# Velocity S-wave (km/s) = 1.94782 3.21361 2.65719
# Velocity P-wave (km/s) = 3.52277 7.40179 5.79639
#
# Compressibility (1/GPa) = 0.07463845
#
# Stress axis : x y z
#
# Youngs Moduli (GPa) = 4.33550 17.28197 37.81781
#
# Poissons Ratio (x) = 1.42603 0.95822
# Poissons Ratio (y) = 0.35775 0.46545
# Poissons Ratio (z) = 0.10985 0.21270
#
# Static dielectric constant tensor:
#      x y z
#    x 1.613080 0.000000 0.000000 
#    y 0.000000 1.678640 0.000000 
#    z 0.000000 0.000000 1.595300 
# 
# From -- ./inp_files/31629.got.cif
#   From: 2010.05.17/outbox.cif.g08.bks.cpg/sg59_16_cif.got.tgz:31629.got - 2010.06.03 14:40:33.
