data_PCOD9450586
_publ_section_title
;
Structure prediction by ZEFSAII (Michael W. Deem and Ramdas Pophale) SiO2 
 PCOD9450586
Probable space group: P M M N
;
_chemical_formula_sum "Si O2"
_cell_formula_units_Z 64
_cell_length_a 19.523727
_cell_length_b 8.921391
_cell_length_c 20.826240
_cell_angle_alpha 90.000000
_cell_angle_beta 90.000000
_cell_angle_gamma 90.000000
_cell_volume 3627.489541
_symmetry_space_group_name_H-M "P M M N"
_symmetry_group_IT_number 59
_space_group.IT_coordinate_system_code '2'
_symmetry_cell_setting 'orthorhombic'
loop_
_space_group_symop_operation_xyz
x,y,z
1/2-x,1/2-y,z
1/2+x,-y,-z
-x,1/2+y,-z
-x,-y,-z
1/2+x,1/2+y,-z
1/2-x,y,z
x,1/2-y,z
loop_
_atom_site_type_symbol
_atom_site_label
_atom_site_fract_x
_atom_site_fract_y
_atom_site_fract_z
Si Si1 0.329281 0.927796 0.007382
Si Si2 0.960141 0.070863 0.190484
Si Si3 0.670927 0.928978 0.633774
Si Si4 0.041360 0.071311 0.559155
Si Si5 0.170926 0.071023 0.866226
Si Si6 0.460141 0.929137 0.309516
Si Si7 0.541360 0.571311 0.940845
Si Si8 0.829281 0.427796 0.492618
O O1 0.250000 0.951336 0.025534
O O2 0.342014 0.750000 0.002536
O O3 0.382912 0.002573 0.055262
O O4 0.339288 0.000516 0.937039
O O5 0.955176 0.250000 0.197396
O O6 0.002618 0.038186 0.125350
O O7 0.885104 0.000595 0.180310
O O8 1.000000 0.000000 0.250000
O O9 0.750000 0.959350 0.652307
O O10 0.661663 0.750000 0.630109
O O11 0.614895 0.000595 0.680310
O O12 0.660712 0.999484 0.562961
O O13 0.044167 0.250000 0.551040
O O14 0.002618 0.038188 0.625350
O O15 0.117088 0.002572 0.555262
O O16 0.000000 0.000000 0.500000
O O17 0.250000 0.040651 0.847693
O O18 0.161663 0.250000 0.869892
O O19 0.455176 0.750000 0.302604
O O20 0.544167 0.750000 0.948960
O O21 0.500000 0.500000 0.000000
O O22 0.750000 0.451336 0.474466
O O23 0.842014 0.250000 0.497465
#
# Coordination Sequence:
#
# PCOD9450586 Si02
#       8
#     8   8   8   8   8   8   8   8
#     4  10  20  34  55  85 118 151 191 239 289 342
#     4  11  24  40  59  85 117 155 196 240 290 346
#     4  10  20  35  58  86 115 150 192 238 288 344
#     4  11  22  36  58  86 115 149 190 236 289 344
#     4  10  20  35  58  86 115 150 192 238 288 344
#     4  11  24  40  59  85 117 155 196 240 290 346
#     4  11  22  36  58  86 115 149 190 236 289 344
#     4  10  20  34  55  85 118 151 191 239 289 342
#
# _framework density 17.643056000000001
#
# number of rings (size 3 to 8) (size 9 to 14) (size 15 to 20)
#    0.000    1.500    2.500    3.000    0.000    6.000 
#    0.000    1.250    0.000    1.500    0.000    0.000 
#    0.000    0.000    0.000    0.000    0.000    0.000 
#
# Total GULP energy -357590.159263 kJ/mol
# GULP energy per Si atom -5587.346238 kJ/mol
# Density = 1.760290 g / cm^3
# Si number density = 17.643056 Si / 1000 Ang^3
#
#
#
# Elastic Constant Matrix: (Units=GPa)
#
#
# Indices 1 2 3 4 5 6 
#
# 1 145.4092 81.3980 68.5855 0.0000 0.0000 0.0000
# 2 81.3980 94.2517 70.4379 0.0000 0.0000 0.0000
# 3 68.5855 70.4379 92.0229 0.0000 0.0000 0.0000
# 4 0.0000 0.0000 0.0000 28.5873 0.0000 0.0000
# 5 0.0000 0.0000 0.0000 0.0000 32.1534 0.0000
# 6 0.0000 0.0000 0.0000 0.0000 0.0000 37.5653
#
#
#
# Elastic Compliance Matrix: (Units=1/GPa)
#
#
# Indices 1 2 3 4 5 6 
#
# 1 0.013590 -0.009737 -0.002676 0.000000 0.000000 0.000000
# 2 -0.009737 0.031768 -0.017060 0.000000 0.000000 0.000000
# 3 -0.002676 -0.017060 0.025919 0.000000 0.000000 0.000000
# 4 0.000000 0.000000 0.000000 0.034981 0.000000 0.000000
# 5 0.000000 0.000000 0.000000 0.000000 0.031101 0.000000
# 6 0.000000 0.000000 0.000000 0.000000 0.000000 0.026620
#
#
# Mechanical properties :
#
#
# Convention : Reuss Voigt Hill
#
# Bulk Modulus (GPa) = 81.08413 85.83631 83.46022
# Shear Modulus (GPa) = 22.02315 27.07870 24.55092
#
# Velocity S-wave (km/s) = 3.53691 3.92191 3.73437
# Velocity P-wave (km/s) = 7.92070 8.32261 8.12414
#
# Compressibility (1/GPa) = 0.01233287
#
# Stress axis : x y z
#
# Youngs Moduli (GPa) = 73.58527 31.47800 38.58153
#
# Poissons Ratio (x) = 0.30650 0.10323
# Poissons Ratio (y) = 0.71649 0.65819
# Poissons Ratio (z) = 0.19688 0.53701
#
# Static dielectric constant tensor:
#      x y z
#    x 1.625990 0.000000 0.000000 
#    y 0.000000 1.590270 0.000000 
#    z 0.000000 0.000000 1.563470 
# 
# From -- ./inp_files/30657.got.cif
#   From: 2010.05.17/outbox.cif.g08.bks.cpg/sg59_16_cif.got.tgz:30657.got - 2010.06.03 14:40:33.
