data_PCOD9450261
_publ_section_title
;
Structure prediction by ZEFSAII (Michael W. Deem and Ramdas Pophale) SiO2 
 PCOD9450261
Probable space group: P M M N
;
_chemical_formula_sum "Si O2"
_cell_formula_units_Z 64
_cell_length_a 7.710115
_cell_length_b 15.242202
_cell_length_c 24.504916
_cell_angle_alpha 90.000000
_cell_angle_beta 90.000000
_cell_angle_gamma 90.000000
_cell_volume 2879.796416
_symmetry_space_group_name_H-M "P M M N"
_symmetry_group_IT_number 59
_space_group.IT_coordinate_system_code '2'
_symmetry_cell_setting 'orthorhombic'
loop_
_space_group_symop_operation_xyz
x,y,z
1/2-x,1/2-y,z
1/2+x,-y,-z
-x,1/2+y,-z
-x,-y,-z
1/2+x,1/2+y,-z
1/2-x,y,z
x,1/2-y,z
loop_
_atom_site_type_symbol
_atom_site_label
_atom_site_fract_x
_atom_site_fract_y
_atom_site_fract_z
Si Si1 0.451357 0.155778 0.604838
Si Si2 0.542164 0.150736 0.777663
Si Si3 0.541993 0.653037 0.634411
Si Si4 0.949314 0.018378 0.687681
Si Si5 0.454892 0.898901 0.511061
Si Si6 0.959867 0.538109 0.117701
Si Si7 0.547391 0.346744 0.108940
Si Si8 0.040683 0.348927 0.982750
O O1 0.250000 0.148383 0.620075
O O2 0.519749 0.250000 0.624292
O O3 0.548372 0.075311 0.632244
O O4 0.463377 0.151610 0.539745
O O5 0.750000 0.156052 0.769429
O O6 0.473441 0.250000 0.773441
O O7 0.470826 0.082312 0.732897
O O8 0.508412 0.107294 0.836024
O O9 0.750000 0.654220 0.641743
O O10 0.473374 0.750000 0.646173
O O11 0.470383 0.575077 0.672281
O O12 0.512048 0.630380 0.570920
O O13 0.750000 0.002546 0.704223
O O14 0.250000 0.886686 0.507891
O O15 0.500000 0.000000 0.500000
O O16 0.750000 0.533362 0.115193
O O17 0.025982 0.439508 0.130046
O O18 0.019793 0.577561 0.059687
O O19 0.750000 0.343741 0.124433
O O20 0.471672 0.250000 0.122647
O O21 0.535327 0.356046 0.043224
O O22 0.250000 0.354752 0.987688
O O23 0.000575 0.250000 0.962211
#
# Coordination Sequence:
#
# PCOD9450261 Si02
#       8
#     8   8   8   8   8   8   8   8
#     4  11  23  37  56  84 115 146 182 224 271 327
#     4  10  22  39  58  82 110 139 178 228 278 328
#     4  10  21  38  60  85 113 146 184 226 273 327
#     4  10  21  39  61  81 107 144 181 224 276 326
#     4  12  23  36  56  83 116 152 187 225 271 324
#     4  10  20  34  53  77 107 145 184 224 274 329
#     4   9  18  32  50  75 108 145 184 224 268 319
#     4   9  17  29  47  74 107 141 180 225 272 326
#
# _framework density 22.223794999999999
#
# number of rings (size 3 to 8) (size 9 to 14) (size 15 to 20)
#    0.000    1.875    1.250    3.000    0.000    5.500 
#    0.000    1.875    0.000    0.750    0.000    0.000 
#    0.000    0.000    0.000    0.000    0.000    0.000 
#
# Total GULP energy -357444.761005 kJ/mol
# GULP energy per Si atom -5585.074391 kJ/mol
# Density = 2.217321 g / cm^3
# Si number density = 22.223795 Si / 1000 Ang^3
#
#
#
# Elastic Constant Matrix: (Units=GPa)
#
#
# Indices 1 2 3 4 5 6 
#
# 1 46.3004 4.8646 -10.0619 0.0000 0.0000 0.0000
# 2 4.8646 180.3159 28.5587 0.0000 0.0000 0.0000
# 3 -10.0619 28.5587 44.6608 0.0000 0.0000 0.0000
# 4 0.0000 0.0000 0.0000 -190.4455 0.0000 0.0000
# 5 0.0000 0.0000 0.0000 0.0000 17.0066 0.0000
# 6 0.0000 0.0000 0.0000 0.0000 0.0000 10.5140
#
#
#
# Elastic Compliance Matrix: (Units=1/GPa)
#
#
# Indices 1 2 3 4 5 6 
#
# 1 0.023124 -0.001612 0.006241 0.000000 0.000000 0.000000
# 2 -0.001612 0.006283 -0.004381 0.000000 0.000000 0.000000
# 3 0.006241 -0.004381 0.026598 0.000000 0.000000 0.000000
# 4 0.000000 0.000000 0.000000 -0.005251 0.000000 0.000000
# 5 0.000000 0.000000 0.000000 0.000000 0.058801 0.000000
# 6 0.000000 0.000000 0.000000 0.000000 0.000000 0.095111
#
#
# Mechanical properties :
#
#
# Convention : Reuss Voigt Hill
#
# Bulk Modulus (GPa) = 17.69913 35.33332 26.51623
# Shear Modulus (GPa) = 22.42104 -16.05726 3.18189
#
# Velocity S-wave (km/s) = 3.17973 -2.69090 1.19785
# Velocity P-wave (km/s) = 4.63273 2.50575 3.72431
#
# Compressibility (1/GPa) = 0.05649994
#
# Stress axis : x y z
#
# Youngs Moduli (GPa) = 43.24574 159.15467 37.59615
#
# Poissons Ratio (x) = 0.25659 -0.23462
# Poissons Ratio (y) = 0.06972 0.16471
# Poissons Ratio (z) = -0.26988 0.69727
#
# Static dielectric constant tensor:
#      x y z
#    x 1.825970 0.000000 0.000000 
#    y 0.000000 1.874210 0.000000 
#    z 0.000000 0.000000 1.790140 
# 
# From -- ./inp_files/31451.got.cif
#   From: 2010.05.17/outbox.cif.g08.bks.cpg/sg59_16_cif.got.tgz:31451.got - 2010.06.03 14:40:33.
