data_PCOD9450506
_publ_section_title
;
Structure prediction by ZEFSAII (Michael W. Deem and Ramdas Pophale) SiO2 
 PCOD9450506
Probable space group: P M M N
;
_chemical_formula_sum "Si O2"
_cell_formula_units_Z 48
_cell_length_a 9.254358
_cell_length_b 18.484878
_cell_length_c 15.809616
_cell_angle_alpha 90.000000
_cell_angle_beta 90.000000
_cell_angle_gamma 90.000000
_cell_volume 2704.482689
_symmetry_space_group_name_H-M "P M M N"
_symmetry_group_IT_number 59
_space_group.IT_coordinate_system_code '2'
_symmetry_cell_setting 'orthorhombic'
loop_
_space_group_symop_operation_xyz
x,y,z
1/2-x,1/2-y,z
1/2+x,-y,-z
-x,1/2+y,-z
-x,-y,-z
1/2+x,1/2+y,-z
1/2-x,y,z
x,1/2-y,z
loop_
_atom_site_type_symbol
_atom_site_label
_atom_site_fract_x
_atom_site_fract_y
_atom_site_fract_z
Si Si1 0.577980 0.750000 0.066463
Si Si2 0.916177 0.390439 0.972709
Si Si3 0.926160 0.750000 0.262754
Si Si4 0.575621 0.666388 0.572411
Si Si5 0.076704 0.540376 0.675217
Si Si6 0.574631 0.880968 0.382472
Si Si7 0.583573 0.003560 0.132331
O O1 0.750000 0.750000 0.064337
O O2 0.514317 0.679546 0.022821
O O3 0.530314 0.750000 0.165084
O O4 0.750000 0.371334 0.957481
O O5 0.978206 0.440367 0.897727
O O6 0.924344 0.436179 0.059272
O O7 0.750000 0.750000 0.264249
O O8 0.973595 0.677959 0.313027
O O9 0.750000 0.661137 0.578545
O O10 0.535725 0.750000 0.589627
O O11 0.502320 0.608039 0.633237
O O12 0.534871 0.646118 0.475844
O O13 0.250000 0.547165 0.662635
O O14 0.028312 0.463164 0.635820
O O15 0.050069 0.534365 0.775595
O O16 0.750000 0.881604 0.378537
O O17 0.750000 0.975868 0.134883
#
# Coordination Sequence:
#
# PCOD9450506 Si02
#       7
#     4   8   4   8   8   8   8
#     4  11  21  33  53  82 111 142 182 221 261 321
#     4  10  20  35  56  79 110 143 174 220 276 324
#     4   9  16  29  53  80 105 136 174 221 265 311
#     4  10  20  35  53  75 107 142 176 217 268 320
#     4  10  20  34  55  81 105 136 182 225 261 316
#     4   9  16  30  53  79 105 135 173 217 268 319
#     4   9  19  37  57  79 105 139 181 223 268 321
#
# _framework density 17.748311000000001
#
# number of rings (size 3 to 8) (size 9 to 14) (size 15 to 20)
#    0.000    2.333    0.833    2.250    0.000    4.333 
#    1.500    0.000    0.000    2.000    0.000    0.000 
#    0.000    0.000    0.000    0.000    0.000    0.000 
#
# Total GULP energy -267816.996181 kJ/mol
# GULP energy per Si atom -5579.520754 kJ/mol
# Density = 1.770791 g / cm^3
# Si number density = 17.748311 Si / 1000 Ang^3
#
#
#
# Elastic Constant Matrix: (Units=GPa)
#
#
# Indices 1 2 3 4 5 6 
#
# 1 45.2241 39.6896 20.1294 0.0000 0.0000 0.0000
# 2 39.6896 112.5800 22.0807 0.0000 0.0000 0.0000
# 3 20.1294 22.0807 31.9838 0.0000 0.0000 0.0000
# 4 0.0000 0.0000 0.0000 13.0232 0.0000 0.0000
# 5 0.0000 0.0000 0.0000 0.0000 19.8164 0.0000
# 6 0.0000 0.0000 0.0000 0.0000 0.0000 29.7140
#
#
#
# Elastic Compliance Matrix: (Units=1/GPa)
#
#
# Indices 1 2 3 4 5 6 
#
# 1 0.038879 -0.010302 -0.017357 0.000000 0.000000 0.000000
# 2 -0.010302 0.013004 -0.002493 0.000000 0.000000 0.000000
# 3 -0.017357 -0.002493 0.043911 0.000000 0.000000 0.000000
# 4 0.000000 0.000000 0.000000 0.076786 0.000000 0.000000
# 5 0.000000 0.000000 0.000000 0.000000 0.050463 0.000000
# 6 0.000000 0.000000 0.000000 0.000000 0.000000 0.033654
#
#
# Mechanical properties :
#
#
# Convention : Reuss Voigt Hill
#
# Bulk Modulus (GPa) = 28.17791 39.28749 33.73270
# Shear Modulus (GPa) = 15.20536 19.70329 17.45432
#
# Velocity S-wave (km/s) = 2.93016 3.33551 3.13938
# Velocity P-wave (km/s) = 5.23055 6.08425 5.67348
#
# Compressibility (1/GPa) = 0.03548880
#
# Stress axis : x y z
#
# Youngs Moduli (GPa) = 25.72068 76.90114 22.77346
#
# Poissons Ratio (x) = 0.79227 0.39527
# Poissons Ratio (y) = 0.26499 0.05678
# Poissons Ratio (z) = 0.44642 0.19175
#
# Static dielectric constant tensor:
#      x y z
#    x 1.592820 0.000000 0.000000 
#    y 0.000000 1.602200 0.000000 
#    z 0.000000 0.000000 1.590750 
# 
# From -- ./inp_files/20552.got.cif
#   From: 2010.05.17/outbox.cif.g08.bks.cpg/sg59_11_cif.got.tgz:20552.got - 2010.06.03 14:40:33.
