data_PCOD9450363
_publ_section_title
;
Structure prediction by ZEFSAII (Michael W. Deem and Ramdas Pophale) SiO2 
 PCOD9450363
Probable space group: P M M N
;
_chemical_formula_sum "Si O2"
_cell_formula_units_Z 48
_cell_length_a 10.215709
_cell_length_b 7.660066
_cell_length_c 29.084589
_cell_angle_alpha 90.000000
_cell_angle_beta 90.000000
_cell_angle_gamma 90.000000
_cell_volume 2275.956494
_symmetry_space_group_name_H-M "P M M N"
_symmetry_group_IT_number 59
_space_group.IT_coordinate_system_code '2'
_symmetry_cell_setting 'orthorhombic'
loop_
_space_group_symop_operation_xyz
x,y,z
1/2-x,1/2-y,z
1/2+x,-y,-z
-x,1/2+y,-z
-x,-y,-z
1/2+x,1/2+y,-z
1/2-x,y,z
x,1/2-y,z
loop_
_atom_site_type_symbol
_atom_site_label
_atom_site_fract_x
_atom_site_fract_y
_atom_site_fract_z
Si Si1 0.900545 0.464141 0.279630
Si Si2 0.102993 0.957661 0.460592
Si Si3 0.250000 0.455184 0.924170
Si Si4 0.397853 0.044162 0.356291
Si Si5 0.750000 0.461775 0.969166
Si Si6 0.393349 0.458325 0.205275
Si Si7 0.531109 0.460815 0.898170
O O1 0.750000 0.523392 0.280145
O O2 0.895753 0.250000 0.279846
O O3 0.988434 0.523009 0.323024
O O4 0.984234 0.521903 0.235181
O O5 0.250000 0.023447 0.471518
O O6 0.109143 0.750000 0.456872
O O7 0.067543 0.025037 0.409908
O O8 0.000000 0.000000 0.500000
O O9 0.250000 0.250000 0.912387
O O10 0.384563 0.530096 0.904618
O O11 0.250000 0.471671 0.979168
O O12 0.250000 0.970882 0.349656
O O13 0.388448 0.250000 0.346089
O O14 0.750000 0.250000 0.971118
O O15 0.624345 0.519793 0.939648
O O16 0.250000 0.527182 0.219707
O O17 0.389757 0.250000 0.212099
O O18 0.413159 0.492323 0.151471
O O19 0.528962 0.250000 0.900846
#
# Coordination Sequence:
#
# PCOD9450363 Si02
#       7
#     8   8   4   8   4   8   8
#     4   9  18  32  52  79 108 136 172 221 271 317
#     4  10  21  36  55  81 113 149 190 234 278 327
#     4  10  22  36  54  78 106 136 168 210 259 306
#     4   9  17  32  54  77 105 143 183 223 271 325
#     4  10  20  36  56  76 102 136 174 210 251 308
#     4  10  20  34  54  79 104 135 177 219 257 307
#     4  10  21  37  54  76 106 138 169 208 259 312
#
# _framework density 21.090035
#
# number of rings (size 3 to 8) (size 9 to 14) (size 15 to 20)
#    0.000    2.333    0.833    1.500    1.167    5.000 
#    0.000    2.500    0.000    3.000    0.000    0.000 
#    0.000    0.000    0.000    0.000    0.000    0.000 
#
# Total GULP energy -268005.406099 kJ/mol
# GULP energy per Si atom -5583.445960 kJ/mol
# Density = 2.104203 g / cm^3
# Si number density = 21.090035 Si / 1000 Ang^3
#
#
#
# Elastic Constant Matrix: (Units=GPa)
#
#
# Indices 1 2 3 4 5 6 
#
# 1 173.2655 4.0180 66.5914 0.0000 0.0000 0.0000
# 2 4.0180 36.8629 -14.5673 0.0000 0.0000 0.0000
# 3 66.5914 -14.5673 88.2074 0.0000 0.0000 0.0000
# 4 0.0000 0.0000 0.0000 16.1570 0.0000 0.0000
# 5 0.0000 0.0000 0.0000 0.0000 38.8350 0.0000
# 6 0.0000 0.0000 0.0000 0.0000 0.0000 0.0869
#
#
#
# Elastic Compliance Matrix: (Units=1/GPa)
#
#
# Indices 1 2 3 4 5 6 
#
# 1 0.008587 -0.003742 -0.007101 0.000000 0.000000 0.000000
# 2 -0.003742 0.030652 0.007887 0.000000 0.000000 0.000000
# 3 -0.007101 0.007887 0.018000 0.000000 0.000000 0.000000
# 4 0.000000 0.000000 0.000000 0.061893 0.000000 0.000000
# 5 0.000000 0.000000 0.000000 0.000000 0.025750 0.000000
# 6 0.000000 0.000000 0.000000 0.000000 0.000000 11.513631
#
#
# Mechanical properties :
#
#
# Convention : Reuss Voigt Hill
#
# Bulk Modulus (GPa) = 19.48244 45.60224 32.54234
# Shear Modulus (GPa) = 0.42803 27.16870 13.79836
#
# Velocity S-wave (km/s) = 0.45099 3.59308 2.56063
# Velocity P-wave (km/s) = 3.08691 6.23564 4.91997
#
# Compressibility (1/GPa) = 0.05132828
#
# Stress axis : x y z
#
# Youngs Moduli (GPa) = 116.44958 32.62399 55.55456
#
# Poissons Ratio (x) = 0.12208 0.39449
# Poissons Ratio (y) = 0.43577 -0.43817
# Poissons Ratio (z) = 0.82691 -0.25731
#
# Static dielectric constant tensor:
#      x y z
#    x 1.780690 0.000000 0.000000 
#    y 0.000000 1.777580 0.000000 
#    z 0.000000 0.000000 1.716950 
# 
# From -- ./inp_files/33021.got.cif
#   From: 2010.05.17/outbox.cif.g08.bks.cpg/sg59_17_cif.got.tgz:33021.got - 2010.06.03 14:40:33.
