data_PCOD9450698
_publ_section_title
;
Structure prediction by ZEFSAII (Michael W. Deem and Ramdas Pophale) SiO2 
 PCOD9450698
Probable space group: P M M N
;
_chemical_formula_sum "Si O2"
_cell_formula_units_Z 64
_cell_length_a 7.749538
_cell_length_b 24.490500
_cell_length_c 17.297150
_cell_angle_alpha 90.000000
_cell_angle_beta 90.000000
_cell_angle_gamma 90.000000
_cell_volume 3282.827143
_symmetry_space_group_name_H-M "P M M N"
_symmetry_group_IT_number 59
_space_group.IT_coordinate_system_code '2'
_symmetry_cell_setting 'orthorhombic'
loop_
_space_group_symop_operation_xyz
x,y,z
1/2-x,1/2-y,z
1/2+x,-y,-z
-x,1/2+y,-z
-x,-y,-z
1/2+x,1/2+y,-z
1/2-x,y,z
x,1/2-y,z
loop_
_atom_site_type_symbol
_atom_site_label
_atom_site_fract_x
_atom_site_fract_y
_atom_site_fract_z
Si Si1 0.453056 0.630870 0.220301
Si Si2 0.453200 0.082441 0.535142
Si Si3 0.952931 0.971096 0.308481
Si Si4 0.955112 0.582666 0.635990
Si Si5 0.038327 0.686318 0.065592
Si Si6 0.041674 0.811975 0.728585
Si Si7 0.040333 0.812380 0.377795
Si Si8 0.550909 0.183640 0.102533
O O1 0.250000 0.643379 0.217781
O O2 0.473404 0.567397 0.241709
O O3 0.522798 0.650804 0.138164
O O4 0.521120 0.664380 0.294621
O O5 0.250000 0.069338 0.531743
O O6 0.527792 0.049779 0.608668
O O7 0.528124 0.072268 0.450331
O O8 0.474896 0.145789 0.557813
O O9 0.750000 0.959845 0.308775
O O10 0.981058 0.035474 0.306678
O O11 0.750000 0.578175 0.632078
O O12 0.997837 0.642762 0.666007
O O13 0.250000 0.684709 0.062136
O O14 0.992566 0.750000 0.077779
O O15 0.975231 0.667779 0.980664
O O16 0.250000 0.809529 0.734374
O O17 0.982142 0.750000 0.711831
O O18 0.974145 0.829874 0.813724
O O19 0.250000 0.814365 0.378697
O O20 0.987161 0.750000 0.388609
O O21 0.750000 0.164473 0.103305
O O22 0.554555 0.250000 0.101135
#
# Coordination Sequence:
#
# PCOD9450698 Si02
#       8
#     8   8   8   8   8   8   8   8
#     4   9  16  27  45  70  99 127 156 192 230 267
#     4   9  20  35  49  67  90 119 155 196 239 279
#     4  10  20  35  52  68  90 121 157 194 234 280
#     4  11  22  35  52  72  92 116 152 197 240 280
#     4   8  12  20  41  73 102 127 157 191 226 267
#     4   9  18  33  52  74 100 127 154 186 228 278
#     4   9  17  28  43  66  97 130 159 187 223 270
#     4   7  11  22  42  69  98 125 154 188 224 265
#
# _framework density 19.495391999999999
#
# number of rings (size 3 to 8) (size 9 to 14) (size 15 to 20)
#    0.000    3.000    0.000    3.000    0.000    4.000 
#    0.000    2.500    0.000    2.625    0.000    1.750 
#    0.000    0.000    0.000    0.000    0.000    0.000 
#
# Total GULP energy -356612.038446 kJ/mol
# GULP energy per Si atom -5572.063101 kJ/mol
# Density = 1.945102 g / cm^3
# Si number density = 19.495392 Si / 1000 Ang^3
#
#
#
# Elastic Constant Matrix: (Units=GPa)
#
#
# Indices 1 2 3 4 5 6 
#
# 1 27.4547 -7.9117 3.4185 0.0000 0.0000 0.0000
# 2 -7.9117 61.6641 3.6988 0.0000 0.0000 0.0000
# 3 3.4185 3.6988 55.9298 0.0000 0.0000 0.0000
# 4 0.0000 0.0000 0.0000 16.4260 0.0000 0.0000
# 5 0.0000 0.0000 0.0000 0.0000 -2.1641 0.0000
# 6 0.0000 0.0000 0.0000 0.0000 0.0000 18.0050
#
#
#
# Elastic Compliance Matrix: (Units=1/GPa)
#
#
# Indices 1 2 3 4 5 6 
#
# 1 0.038215 0.005063 -0.002671 0.000000 0.000000 0.000000
# 2 0.005063 0.016952 -0.001431 0.000000 0.000000 0.000000
# 3 -0.002671 -0.001431 0.018137 0.000000 0.000000 0.000000
# 4 0.000000 0.000000 0.000000 0.060879 0.000000 0.000000
# 5 0.000000 0.000000 0.000000 0.000000 -0.462089 0.000000
# 6 0.000000 0.000000 0.000000 0.000000 0.000000 0.055540
#
#
# Mechanical properties :
#
#
# Convention : Reuss Voigt Hill
#
# Bulk Modulus (GPa) = 13.29272 15.94001 14.61636
# Shear Modulus (GPa) = -20.06317 16.17627 -1.94345
#
# Velocity S-wave (km/s) = -3.21148 2.88366 -0.99952
# Velocity P-wave (km/s) = 2.63025 4.39106 2.48628
#
# Compressibility (1/GPa) = 0.07522913
#
# Stress axis : x y z
#
# Youngs Moduli (GPa) = 26.16758 58.98893 55.13471
#
# Poissons Ratio (x) = -0.29868 0.14725
# Poissons Ratio (y) = -0.13250 0.07888
# Poissons Ratio (z) = 0.06988 0.08439
#
# Static dielectric constant tensor:
#      x y z
#    x 1.743240 0.000000 0.000000 
#    y 0.000000 1.665190 0.000000 
#    z 0.000000 0.000000 1.730830 
# 
# From -- ./inp_files/26452.got.cif
#   From: 2010.05.17/outbox.cif.g08.bks.cpg/sg59_14_cif.got.tgz:26452.got - 2010.06.03 14:40:33.
