data_PCOD9450746
_publ_section_title
;
Structure prediction by ZEFSAII (Michael W. Deem and Ramdas Pophale) SiO2 
 PCOD9450746
Probable space group: P M M N
;
_chemical_formula_sum "Si O2"
_cell_formula_units_Z 56
_cell_length_a 9.751257
_cell_length_b 16.185345
_cell_length_c 19.057155
_cell_angle_alpha 90.000000
_cell_angle_beta 90.000000
_cell_angle_gamma 90.000000
_cell_volume 3007.742344
_symmetry_space_group_name_H-M "P M M N"
_symmetry_group_IT_number 59
_space_group.IT_coordinate_system_code '2'
_symmetry_cell_setting 'orthorhombic'
loop_
_space_group_symop_operation_xyz
x,y,z
1/2-x,1/2-y,z
1/2+x,-y,-z
-x,1/2+y,-z
-x,-y,-z
1/2+x,1/2+y,-z
1/2-x,y,z
x,1/2-y,z
loop_
_atom_site_type_symbol
_atom_site_label
_atom_site_fract_x
_atom_site_fract_y
_atom_site_fract_z
Si Si1 0.598835 0.845559 0.595291
Si Si2 0.413040 0.656604 0.172926
Si Si3 0.413408 0.996277 0.070740
Si Si4 0.408419 0.095984 0.701377
Si Si5 0.593444 0.096807 0.289363
Si Si6 0.090419 0.066990 0.541946
Si Si7 0.589648 0.657621 0.835104
O O1 0.750000 0.878793 0.615856
O O2 0.592870 0.750000 0.614451
O O3 0.479290 0.891282 0.636066
O O4 0.588569 0.856850 0.512059
O O5 0.250000 0.647966 0.186429
O O6 0.437302 0.750000 0.145838
O O7 0.450398 0.583506 0.118509
O O8 0.496153 0.644505 0.244969
O O9 0.250000 0.990898 0.056253
O O10 0.437537 0.081586 0.112937
O O11 0.500000 0.000000 0.000000
O O12 0.250000 0.125364 0.702860
O O13 0.454904 0.092143 0.619954
O O14 0.409351 0.000575 0.726492
O O15 0.750000 0.124985 0.290917
O O16 0.504926 0.144865 0.232313
O O17 0.250000 0.038581 0.548774
O O18 0.000000 0.000000 0.500000
O O19 0.750000 0.651867 0.814391
O O20 0.567768 0.750000 0.864744
#
# Coordination Sequence:
#
# PCOD9450746 Si02
#       7
#     8   8   8   8   8   8   8
#     4  10  21  35  52  76 107 147 191 233 285 349
#     4  10  22  41  64  89 117 154 198 238 283 340
#     4  10  22  40  62  89 121 153 186 230 277 332
#     4  10  21  36  57  85 114 148 193 243 293 344
#     4  11  21  34  55  84 115 147 188 237 289 339
#     4  10  20  35  54  77 106 145 191 240 292 347
#     4  10  21  38  60  86 116 153 193 228 274 339
#
# _framework density 18.618617
#
# number of rings (size 3 to 8) (size 9 to 14) (size 15 to 20)
#    0.000    1.857    2.857    0.857    0.000    6.000 
#    0.000    1.429    0.000    0.000    0.000    0.000 
#    0.000    0.000    0.000    0.000    0.000    0.000 
#
# Total GULP energy -312357.664620 kJ/mol
# GULP energy per Si atom -5577.815440 kJ/mol
# Density = 1.857624 g / cm^3
# Si number density = 18.618617 Si / 1000 Ang^3
#
#
#
# Elastic Constant Matrix: (Units=GPa)
#
#
# Indices 1 2 3 4 5 6 
#
# 1 64.8363 44.8659 64.4821 0.0000 0.0000 0.0000
# 2 44.8659 100.3047 52.4764 0.0000 0.0000 0.0000
# 3 64.4821 52.4764 126.1673 0.0000 0.0000 0.0000
# 4 0.0000 0.0000 0.0000 12.3621 0.0000 0.0000
# 5 0.0000 0.0000 0.0000 0.0000 36.3192 0.0000
# 6 0.0000 0.0000 0.0000 0.0000 0.0000 14.0908
#
#
#
# Elastic Compliance Matrix: (Units=1/GPa)
#
#
# Indices 1 2 3 4 5 6 
#
# 1 0.036061 -0.008292 -0.014981 0.000000 0.000000 0.000000
# 2 -0.008292 0.014649 -0.001855 0.000000 0.000000 0.000000
# 3 -0.014981 -0.001855 0.016354 0.000000 0.000000 0.000000
# 4 0.000000 0.000000 0.000000 0.080892 0.000000 0.000000
# 5 0.000000 0.000000 0.000000 0.000000 0.027534 0.000000
# 6 0.000000 0.000000 0.000000 0.000000 0.000000 0.070969
#
#
# Mechanical properties :
#
#
# Convention : Reuss Voigt Hill
#
# Bulk Modulus (GPa) = 59.49730 68.32856 63.91293
# Shear Modulus (GPa) = 16.53888 21.18666 18.86277
#
# Velocity S-wave (km/s) = 2.98367 3.37698 3.18640
# Velocity P-wave (km/s) = 6.62532 7.21000 6.92383
#
# Compressibility (1/GPa) = 0.01680749
#
# Stress axis : x y z
#
# Youngs Moduli (GPa) = 27.73089 68.26330 61.14648
#
# Poissons Ratio (x) = 0.56605 0.91605
# Poissons Ratio (y) = 0.22995 0.11343
# Poissons Ratio (z) = 0.41544 0.12663
#
# Static dielectric constant tensor:
#      x y z
#    x 1.642580 0.000000 0.000000 
#    y 0.000000 1.673240 0.000000 
#    z 0.000000 0.000000 1.628960 
# 
# From -- ./inp_files/28965.got.cif
#   From: 2010.05.17/outbox.cif.g08.bks.cpg/sg59_15_cif.got.tgz:28965.got - 2010.06.03 14:40:33.
