data_PCOD9450409
_publ_section_title
;
Structure prediction by ZEFSAII (Michael W. Deem and Ramdas Pophale) SiO2 
 PCOD9450409
Probable space group: P M M N
;
_chemical_formula_sum "Si O2"
_cell_formula_units_Z 64
_cell_length_a 19.377146
_cell_length_b 9.179473
_cell_length_c 18.908188
_cell_angle_alpha 90.000000
_cell_angle_beta 90.000000
_cell_angle_gamma 90.000000
_cell_volume 3363.236999
_symmetry_space_group_name_H-M "P M M N"
_symmetry_group_IT_number 59
_space_group.IT_coordinate_system_code '2'
_symmetry_cell_setting 'orthorhombic'
loop_
_space_group_symop_operation_xyz
x,y,z
1/2-x,1/2-y,z
1/2+x,-y,-z
-x,1/2+y,-z
-x,-y,-z
1/2+x,1/2+y,-z
1/2-x,y,z
x,1/2-y,z
loop_
_atom_site_type_symbol
_atom_site_label
_atom_site_fract_x
_atom_site_fract_y
_atom_site_fract_z
Si Si1 0.459128 0.577996 0.706091
Si Si2 0.668398 0.420349 0.493809
Si Si3 0.458105 0.077632 0.562632
Si Si4 0.170113 0.924614 0.796440
Si Si5 0.833769 0.916617 0.058586
Si Si6 0.405012 0.420616 0.214836
Si Si7 0.331975 0.576518 0.085468
Si Si8 0.667228 0.416417 0.660164
O O1 0.460501 0.750000 0.686940
O O2 0.479959 0.483543 0.638684
O O3 0.383251 0.539630 0.734418
O O4 0.514200 0.557475 0.768873
O O5 0.750000 0.441628 0.482945
O O6 0.652784 0.250000 0.477872
O O7 0.620651 0.526100 0.449197
O O8 0.653376 0.443245 0.577307
O O9 0.466392 0.250000 0.558497
O O10 0.500000 0.000000 0.500000
O O11 0.250000 0.962812 0.780857
O O12 0.167188 0.750000 0.807155
O O13 0.147843 0.003082 0.868750
O O14 0.750000 0.914876 0.057699
O O15 0.858118 0.750000 0.057243
O O16 0.854363 0.002916 0.988189
O O17 0.392440 0.250000 0.202213
O O18 0.374850 0.511941 0.150254
O O19 0.367282 0.472443 0.286448
O O20 0.250000 0.545145 0.096479
O O21 0.339395 0.750000 0.081254
O O22 0.750000 0.422009 0.668770
O O23 0.645152 0.250000 0.676536
#
# Coordination Sequence:
#
# PCOD9450409 Si02
#       8
#     8   8   8   8   8   8   8   8
#     4  10  23  41  58  81 112 144 183 229 278 334
#     4   9  19  37  60  84 111 143 180 226 281 339
#     4  12  25  40  60  84 112 148 190 235 283 338
#     4   9  18  36  62  86 109 142 182 223 272 331
#     4   9  17  31  54  84 115 143 176 223 273 319
#     4  11  22  34  50  75 109 145 181 226 274 320
#     4  10  20  34  54  80 110 146 187 225 262 315
#     4   9  18  33  53  77 105 140 181 220 262 320
#
# _framework density 19.029285000000002
#
# number of rings (size 3 to 8) (size 9 to 14) (size 15 to 20)
#    0.000    2.125    0.000    4.125    0.000    8.750 
#    0.000    3.125    0.000    0.000    0.000    0.000 
#    0.000    0.000    0.000    0.000    0.000    0.000 
#
# Total GULP energy -357446.594180 kJ/mol
# GULP energy per Si atom -5585.103034 kJ/mol
# Density = 1.898597 g / cm^3
# Si number density = 19.029285 Si / 1000 Ang^3
#
#
#
# Elastic Constant Matrix: (Units=GPa)
#
#
# Indices 1 2 3 4 5 6 
#
# 1 50.9782 38.4591 34.0370 0.0000 0.0000 0.0000
# 2 38.4591 86.8884 57.1296 0.0000 0.0000 0.0000
# 3 34.0370 57.1296 82.4406 0.0000 0.0000 0.0000
# 4 0.0000 0.0000 0.0000 33.1355 0.0000 0.0000
# 5 0.0000 0.0000 0.0000 0.0000 25.0802 0.0000
# 6 0.0000 0.0000 0.0000 0.0000 0.0000 20.2799
#
#
#
# Elastic Compliance Matrix: (Units=1/GPa)
#
#
# Indices 1 2 3 4 5 6 
#
# 1 0.031009 -0.009750 -0.006046 0.000000 0.000000 0.000000
# 2 -0.009750 0.024208 -0.012750 0.000000 0.000000 0.000000
# 3 -0.006046 -0.012750 0.023462 0.000000 0.000000 0.000000
# 4 0.000000 0.000000 0.000000 0.030179 0.000000 0.000000
# 5 0.000000 0.000000 0.000000 0.000000 0.039872 0.000000
# 6 0.000000 0.000000 0.000000 0.000000 0.000000 0.049310
#
#
# Mechanical properties :
#
#
# Convention : Reuss Voigt Hill
#
# Bulk Modulus (GPa) = 46.32604 53.28430 49.80517
# Shear Modulus (GPa) = 19.06022 21.74456 20.40239
#
# Velocity S-wave (km/s) = 3.16828 3.38404 3.27793
# Velocity P-wave (km/s) = 6.14666 6.58262 6.36837
#
# Compressibility (1/GPa) = 0.02158613
#
# Stress axis : x y z
#
# Youngs Moduli (GPa) = 32.24919 41.30881 42.62286
#
# Poissons Ratio (x) = 0.40276 0.25769
# Poissons Ratio (y) = 0.31443 0.54345
# Poissons Ratio (z) = 0.19497 0.52669
#
# Static dielectric constant tensor:
#      x y z
#    x 1.683480 0.000000 0.000000 
#    y 0.000000 1.639350 0.000000 
#    z 0.000000 0.000000 1.637630 
# 
# From -- ./inp_files/28300.got.cif
#   From: 2010.05.17/outbox.cif.g08.bks.cpg/sg59_15_cif.got.tgz:28300.got - 2010.06.03 14:40:33.
