data_PCOD9450942
_publ_section_title
;
Structure prediction by ZEFSAII (Michael W. Deem and Ramdas Pophale) SiO2 
 PCOD9450942
Probable space group: P M M N
;
_chemical_formula_sum "Si O2"
_cell_formula_units_Z 64
_cell_length_a 18.137865
_cell_length_b 15.708527
_cell_length_c 12.039301
_cell_angle_alpha 90.000000
_cell_angle_beta 90.000000
_cell_angle_gamma 90.000000
_cell_volume 3430.227312
_symmetry_space_group_name_H-M "P M M N"
_symmetry_group_IT_number 59
_space_group.IT_coordinate_system_code '2'
_symmetry_cell_setting 'orthorhombic'
loop_
_space_group_symop_operation_xyz
x,y,z
1/2-x,1/2-y,z
1/2+x,-y,-z
-x,1/2+y,-z
-x,-y,-z
1/2+x,1/2+y,-z
1/2-x,y,z
x,1/2-y,z
loop_
_atom_site_type_symbol
_atom_site_label
_atom_site_fract_x
_atom_site_fract_y
_atom_site_fract_z
Si Si1 0.111887 0.066112 0.685697
Si Si2 0.916682 0.996526 0.953999
Si Si3 0.919317 0.845978 0.533171
Si Si4 0.666574 0.382078 0.313274
Si Si5 0.441077 0.503150 0.306378
Si Si6 0.588607 0.342530 0.544250
Si Si7 0.338470 0.349485 0.910138
Si Si8 0.838877 0.344538 0.067857
O O1 0.125205 0.115390 0.570768
O O2 0.126503 0.125711 0.790986
O O3 0.028467 0.027156 0.686902
O O4 0.163175 0.983929 0.694461
O O5 0.919127 0.997752 0.821328
O O6 0.875259 0.079786 0.000099
O O7 0.875668 0.913562 0.002414
O O8 0.000000 0.000000 0.000000
O O9 0.896577 0.750000 0.564306
O O10 0.002019 0.840959 0.484020
O O11 0.923910 0.914918 0.631010
O O12 0.750000 0.351645 0.320149
O O13 0.626392 0.355737 0.425364
O O14 0.634810 0.349836 0.196275
O O15 0.400039 0.578984 0.372934
O O16 0.609902 0.250000 0.590751
O O17 0.250000 0.362919 0.906112
O O18 0.352042 0.250000 0.934375
O O19 0.750000 0.355329 0.069199
O O20 0.855669 0.250000 0.024471
#
# Coordination Sequence:
#
# PCOD9450942 Si02
#       8
#     8   8   8   8   8   8   8   8
#     4  11  18  38  62  89 117 151 191 248 303 359
#     4  12  24  40  60  89 123 162 204 252 301 356
#     4  10  20  35  60  87 116 150 185 236 297 357
#     4  11  19  33  60  88 117 152 192 242 296 352
#     4  11  21  38  59  85 121 153 197 239 296 360
#     4  10  20  35  56  86 119 150 184 231 293 353
#     4  11  24  42  65  91 120 158 206 259 311 358
#     4  10  22  40  62  87 117 159 207 255 304 353
#
# _framework density 18.657655999999999
#
# number of rings (size 3 to 8) (size 9 to 14) (size 15 to 20)
#    0.000    1.250    5.000    2.250    0.000    2.750 
#    0.000    1.250    0.000    0.000    0.000    0.000 
#    0.000    0.000    0.000    0.000    0.000    0.000 
#
# Total GULP energy -357284.557050 kJ/mol
# GULP energy per Si atom -5582.571204 kJ/mol
# Density = 1.861519 g / cm^3
# Si number density = 18.657656 Si / 1000 Ang^3
#
#
#
# Elastic Constant Matrix: (Units=GPa)
#
#
# Indices 1 2 3 4 5 6 
#
# 1 33.3519 39.5157 21.9404 0.0000 0.0000 0.0000
# 2 39.5157 194.9195 86.2344 0.0000 0.0000 0.0000
# 3 21.9404 86.2344 142.8774 0.0000 0.0000 0.0000
# 4 0.0000 0.0000 0.0000 5.7500 0.0000 0.0000
# 5 0.0000 0.0000 0.0000 0.0000 19.3145 0.0000
# 6 0.0000 0.0000 0.0000 0.0000 0.0000 4.4836
#
#
#
# Elastic Compliance Matrix: (Units=1/GPa)
#
#
# Indices 1 2 3 4 5 6 
#
# 1 0.039760 -0.007312 -0.001693 0.000000 0.000000 0.000000
# 2 -0.007312 0.008344 -0.003913 0.000000 0.000000 0.000000
# 3 -0.001693 -0.003913 0.009621 0.000000 0.000000 0.000000
# 4 0.000000 0.000000 0.000000 0.173913 0.000000 0.000000
# 5 0.000000 0.000000 0.000000 0.000000 0.051774 0.000000
# 6 0.000000 0.000000 0.000000 0.000000 0.000000 0.223033
#
#
# Mechanical properties :
#
#
# Convention : Reuss Voigt Hill
#
# Bulk Modulus (GPa) = 31.35829 74.05886 52.70857
# Shear Modulus (GPa) = 9.20965 20.80687 15.00826
#
# Velocity S-wave (km/s) = 2.22415 3.34307 2.83928
# Velocity P-wave (km/s) = 4.84143 7.39468 6.24983
#
# Compressibility (1/GPa) = 0.03188950
#
# Stress axis : x y z
#
# Youngs Moduli (GPa) = 25.15114 119.84921 103.94217
#
# Poissons Ratio (x) = 0.87629 0.17593
# Poissons Ratio (y) = 0.18389 0.40674
# Poissons Ratio (z) = 0.04257 0.46899
#
# Static dielectric constant tensor:
#      x y z
#    x 1.642180 0.000000 0.000000 
#    y 0.000000 1.677230 0.000000 
#    z 0.000000 0.000000 1.632650 
# 
# From -- ./inp_files/17845.got.cif
#   From: 2010.05.17/outbox.cif.g08.bks.cpg/sg59_9_cif.got.tgz:17845.got - 2010.06.03 14:40:33.
