data_PCOD9450214
_publ_section_title
;
Structure prediction by ZEFSAII (Michael W. Deem and Ramdas Pophale) SiO2 
 PCOD9450214
Probable space group: P M M N
;
_chemical_formula_sum "Si O2"
_cell_formula_units_Z 56
_cell_length_a 19.041216
_cell_length_b 9.154180
_cell_length_c 18.479450
_cell_angle_alpha 90.000000
_cell_angle_beta 90.000000
_cell_angle_gamma 90.000000
_cell_volume 3221.092293
_symmetry_space_group_name_H-M "P M M N"
_symmetry_group_IT_number 59
_space_group.IT_coordinate_system_code '2'
_symmetry_cell_setting 'orthorhombic'
loop_
_space_group_symop_operation_xyz
x,y,z
1/2-x,1/2-y,z
1/2+x,-y,-z
-x,1/2+y,-z
-x,-y,-z
1/2+x,1/2+y,-z
1/2-x,y,z
x,1/2-y,z
loop_
_atom_site_type_symbol
_atom_site_label
_atom_site_fract_x
_atom_site_fract_y
_atom_site_fract_z
Si Si1 0.833759 0.922666 0.793557
Si Si2 0.832705 0.575343 0.214968
Si Si3 0.417644 0.076278 0.927031
Si Si4 0.168179 0.574515 0.635938
Si Si5 0.167713 0.575055 0.357700
Si Si6 0.424308 0.573646 0.497409
Si Si7 0.584855 0.077154 0.923420
O O1 0.750000 0.943867 0.803617
O O2 0.848012 0.750000 0.792805
O O3 0.852036 0.993570 0.716148
O O4 0.874961 0.999372 0.858339
O O5 0.750000 0.544421 0.204213
O O6 0.840896 0.750000 0.223217
O O7 0.875994 0.529580 0.144475
O O8 0.855163 0.497722 0.288955
O O9 0.405940 0.250000 0.937905
O O10 0.500899 0.054156 0.915740
O O11 0.395286 0.991321 0.999069
O O12 0.250000 0.534271 0.623551
O O13 0.165283 0.750000 0.642698
O O14 0.120949 0.531391 0.567904
O O15 0.250000 0.543691 0.373685
O O16 0.162013 0.750000 0.346805
O O17 0.118993 0.533903 0.425181
O O18 0.500000 0.500000 0.500000
O O19 0.431302 0.750000 0.497795
O O20 0.598384 0.250000 0.922481
#
# Coordination Sequence:
#
# PCOD9450214 Si02
#       7
#     8   8   8   8   8   8   8
#     4  10  21  36  54  77 104 133 168 213 263 311
#     4   9  18  33  53  76 101 131 168 208 251 299
#     4   9  19  35  52  73 104 139 173 210 254 303
#     4   9  18  34  54  74  99 132 169 207 248 296
#     4   9  18  35  57  76  98 133 175 214 253 302
#     4  10  21  35  52  77 106 135 168 208 254 300
#     4  10  20  34  53  76 103 137 175 212 252 303
#
# _framework density 17.385406
#
# number of rings (size 3 to 8) (size 9 to 14) (size 15 to 20)
#    0.000    2.571    0.000    1.286    0.000    6.571 
#    0.000    5.714    0.000    4.286    0.000    0.000 
#    0.000    0.000    0.000    0.000    0.000    0.000 
#
# Total GULP energy -312460.027487 kJ/mol
# GULP energy per Si atom -5579.643348 kJ/mol
# Density = 1.734584 g / cm^3
# Si number density = 17.385406 Si / 1000 Ang^3
#
#
#
# Elastic Constant Matrix: (Units=GPa)
#
#
# Indices 1 2 3 4 5 6 
#
# 1 75.5330 52.2761 106.0618 0.0000 0.0000 0.0000
# 2 52.2761 49.4982 84.7883 0.0000 0.0000 0.0000
# 3 106.0618 84.7883 221.8439 0.0000 0.0000 0.0000
# 4 0.0000 0.0000 0.0000 34.8219 0.0000 0.0000
# 5 0.0000 0.0000 0.0000 0.0000 487.2314 0.0000
# 6 0.0000 0.0000 0.0000 0.0000 0.0000 27.5527
#
#
#
# Elastic Compliance Matrix: (Units=1/GPa)
#
#
# Indices 1 2 3 4 5 6 
#
# 1 0.059656 -0.040974 -0.012861 0.000000 0.000000 0.000000
# 2 -0.040974 0.086648 -0.013527 0.000000 0.000000 0.000000
# 3 -0.012861 -0.013527 0.015827 0.000000 0.000000 0.000000
# 4 0.000000 0.000000 0.000000 0.028718 0.000000 0.000000
# 5 0.000000 0.000000 0.000000 0.000000 0.002052 0.000000
# 6 0.000000 0.000000 0.000000 0.000000 0.000000 0.036294
#
#
# Mechanical properties :
#
#
# Convention : Reuss Voigt Hill
#
# Bulk Modulus (GPa) = 36.48812 92.56973 64.52893
# Shear Modulus (GPa) = 13.40287 116.83779 65.12033
#
# Velocity S-wave (km/s) = 2.77957 8.20673 6.12684
# Velocity P-wave (km/s) = 5.59774 11.96502 9.34068
#
# Compressibility (1/GPa) = 0.02740618
#
# Stress axis : x y z
#
# Youngs Moduli (GPa) = 16.76270 11.54098 63.18484
#
# Poissons Ratio (x) = 0.47288 0.81263
# Poissons Ratio (y) = 0.68683 0.85472
# Poissons Ratio (z) = 0.21559 0.15612
#
# Static dielectric constant tensor:
#      x y z
#    x 1.576750 0.000000 0.000000 
#    y 0.000000 1.580190 0.000000 
#    z 0.000000 0.000000 1.561310 
# 
# From -- ./inp_files/24291.got.cif
#   From: 2010.05.17/outbox.cif.g08.bks.cpg/sg59_13_cif.got.tgz:24291.got - 2010.06.03 14:40:33.
