data_PCOD9450776
_publ_section_title
;
Structure prediction by ZEFSAII (Michael W. Deem and Ramdas Pophale) SiO2 
 PCOD9450776
Probable space group: P M M N
;
_chemical_formula_sum "Si O2"
_cell_formula_units_Z 48
_cell_length_a 7.924432
_cell_length_b 19.069869
_cell_length_c 16.978063
_cell_angle_alpha 90.000000
_cell_angle_beta 90.000000
_cell_angle_gamma 90.000000
_cell_volume 2565.688889
_symmetry_space_group_name_H-M "P M M N"
_symmetry_group_IT_number 59
_space_group.IT_coordinate_system_code '2'
_symmetry_cell_setting 'orthorhombic'
loop_
_space_group_symop_operation_xyz
x,y,z
1/2-x,1/2-y,z
1/2+x,-y,-z
-x,1/2+y,-z
-x,-y,-z
1/2+x,1/2+y,-z
1/2-x,y,z
x,1/2-y,z
loop_
_atom_site_type_symbol
_atom_site_label
_atom_site_fract_x
_atom_site_fract_y
_atom_site_fract_z
Si Si1 0.952934 0.957603 0.255961
Si Si2 0.950744 0.527977 0.585253
Si Si3 0.047171 0.172096 0.339872
Si Si4 0.452193 0.170655 0.843398
Si Si5 0.453819 0.831092 0.981863
Si Si6 0.545625 0.398669 0.179189
O O1 0.750000 0.956536 0.249292
O O2 0.018032 0.885167 0.219710
O O3 0.014432 0.024364 0.205310
O O4 0.994573 0.974836 0.345950
O O5 0.750000 0.532759 0.588004
O O6 0.018014 0.605707 0.609164
O O7 0.000000 0.500000 0.500000
O O8 0.250000 0.173647 0.348466
O O9 0.982467 0.250000 0.359816
O O10 0.007554 0.153650 0.249036
O O11 0.250000 0.174859 0.834340
O O12 0.520576 0.250000 0.835898
O O13 0.487097 0.144981 0.932237
O O14 0.250000 0.832218 0.981897
O O15 0.508054 0.750000 0.972696
O O16 0.513825 0.874733 0.906612
O O17 0.750000 0.399211 0.177936
#
# Coordination Sequence:
#
# PCOD9450776 Si02
#       6
#     8   8   8   8   8   8
#     4   9  18  33  51  70  93 122 157 197 239 282
#     4  10  20  35  55  76  98 124 153 188 232 282
#     4   9  18  32  50  73  99 125 154 189 230 277
#     4   9  18  32  48  66  91 126 166 203 238 276
#     4   9  17  28  42  63  93 127 160 195 236 279
#     4   9  17  29  46  69  96 126 159 194 235 282
#
# _framework density 18.708424999999998
#
# number of rings (size 3 to 8) (size 9 to 14) (size 15 to 20)
#    0.000    2.833    0.000    1.000    0.000    3.667 
#    0.000    2.500    0.000    5.000    0.000    0.000 
#    0.000    0.000    0.000    0.000    0.000    0.000 
#
# Total GULP energy -267587.018989 kJ/mol
# GULP energy per Si atom -5574.729562 kJ/mol
# Density = 1.866584 g / cm^3
# Si number density = 18.708425 Si / 1000 Ang^3
#
#
#
# Elastic Constant Matrix: (Units=GPa)
#
#
# Indices 1 2 3 4 5 6 
#
# 1 11.6324 7.6931 -1.0575 0.0000 0.0000 0.0000
# 2 7.6931 118.3546 104.6203 0.0000 0.0000 0.0000
# 3 -1.0575 104.6203 153.6342 0.0000 0.0000 0.0000
# 4 0.0000 0.0000 0.0000 18.9208 0.0000 0.0000
# 5 0.0000 0.0000 0.0000 0.0000 26.9682 0.0000
# 6 0.0000 0.0000 0.0000 0.0000 0.0000 14.0867
#
#
#
# Elastic Compliance Matrix: (Units=1/GPa)
#
#
# Indices 1 2 3 4 5 6 
#
# 1 0.098789 -0.017642 0.012694 0.000000 0.000000 0.000000
# 2 -0.017642 0.024377 -0.016721 0.000000 0.000000 0.000000
# 3 0.012694 -0.016721 0.017983 0.000000 0.000000 0.000000
# 4 0.000000 0.000000 0.000000 0.052852 0.000000 0.000000
# 5 0.000000 0.000000 0.000000 0.000000 0.037081 0.000000
# 6 0.000000 0.000000 0.000000 0.000000 0.000000 0.070989
#
#
# Mechanical properties :
#
#
# Convention : Reuss Voigt Hill
#
# Bulk Modulus (GPa) = 10.22398 56.23700 33.23049
# Shear Modulus (GPa) = 13.22707 23.48614 18.35660
#
# Velocity S-wave (km/s) = 2.66185 3.54697 3.13580
# Velocity P-wave (km/s) = 3.86317 6.84833 5.55984
#
# Compressibility (1/GPa) = 0.09780927
#
# Stress axis : x y z
#
# Youngs Moduli (GPa) = 10.12262 41.02251 55.60785
#
# Poissons Ratio (x) = 0.72372 -0.70587
# Poissons Ratio (y) = 0.17858 0.92984
# Poissons Ratio (z) = -0.12849 0.68595
#
# Static dielectric constant tensor:
#      x y z
#    x 1.668600 0.000000 0.000000 
#    y 0.000000 1.681770 0.000000 
#    z 0.000000 0.000000 1.558030 
# 
# From -- ./inp_files/20422.got.cif
#   From: 2010.05.17/outbox.cif.g08.bks.cpg/sg59_11_cif.got.tgz:20422.got - 2010.06.03 14:40:33.
