data_PCOD9450290
_publ_section_title
;
Structure prediction by ZEFSAII (Michael W. Deem and Ramdas Pophale) SiO2 
 PCOD9450290
Probable space group: P M M N
;
_chemical_formula_sum "Si O2"
_cell_formula_units_Z 56
_cell_length_a 8.951358
_cell_length_b 24.742841
_cell_length_c 15.099992
_cell_angle_alpha 90.000000
_cell_angle_beta 90.000000
_cell_angle_gamma 90.000000
_cell_volume 3344.376847
_symmetry_space_group_name_H-M "P M M N"
_symmetry_group_IT_number 59
_space_group.IT_coordinate_system_code '2'
_symmetry_cell_setting 'orthorhombic'
loop_
_space_group_symop_operation_xyz
x,y,z
1/2-x,1/2-y,z
1/2+x,-y,-z
-x,1/2+y,-z
-x,-y,-z
1/2+x,1/2+y,-z
1/2-x,y,z
x,1/2-y,z
loop_
_atom_site_type_symbol
_atom_site_label
_atom_site_fract_x
_atom_site_fract_y
_atom_site_fract_z
Si Si1 0.927896 0.533861 0.129314
Si Si2 0.429482 0.636585 0.464581
Si Si3 0.928527 0.063441 0.366643
Si Si4 0.928691 0.048582 0.681902
Si Si5 0.571531 0.750000 0.504559
Si Si6 0.572492 0.922913 0.941165
Si Si7 0.571265 0.750000 0.713253
Si Si8 0.072315 0.643597 0.795651
O O1 0.750000 0.525253 0.138551
O O2 0.996300 0.552260 0.221884
O O3 0.003736 0.477704 0.099900
O O4 0.953598 0.574047 0.046596
O O5 0.250000 0.643756 0.468671
O O6 0.473205 0.602011 0.551870
O O7 0.465482 0.599473 0.380175
O O8 0.505475 0.694916 0.464696
O O9 0.750000 0.053811 0.373363
O O10 0.957097 0.095925 0.275783
O O11 0.012253 0.006541 0.363248
O O12 0.750000 0.045327 0.690787
O O13 0.750000 0.750000 0.496510
O O14 0.531964 0.750000 0.609158
O O15 0.750000 0.922428 0.925979
O O16 0.495350 0.874451 0.889050
O O17 0.750000 0.750000 0.720878
O O18 0.503316 0.802810 0.758505
O O19 0.250000 0.650548 0.801234
#
# Coordination Sequence:
#
# PCOD9450290 Si02
#       8
#     8   8   8   8   4   8   4   8
#     4  10  20  34  53  78 109 144 177 217 270 322
#     4  10  22  39  56  76 108 148 184 224 274 325
#     4  10  20  34  53  78 111 148 181 218 270 327
#     4  11  22  34  54  82 111 146 185 226 272 322
#     4  11  23  37  57  82 103 138 187 233 272 312
#     4  10  20  34  54  79 108 141 178 221 268 320
#     4  11  23  37  55  80 111 144 185 229 270 320
#     4  11  21  34  56  82 110 146 183 221 273 327
#
# _framework density 16.744524999999999
#
# number of rings (size 3 to 8) (size 9 to 14) (size 15 to 20)
#    0.000    1.571    2.857    2.571    0.000    4.571 
#    0.000    0.000    0.000    0.857    0.000    4.000 
#    0.000    0.000    0.000    0.000    0.000    0.000 
#
# Total GULP energy -312788.424820 kJ/mol
# GULP energy per Si atom -5585.507586 kJ/mol
# Density = 1.670641 g / cm^3
# Si number density = 16.744525 Si / 1000 Ang^3
#
#
#
# Elastic Constant Matrix: (Units=GPa)
#
#
# Indices 1 2 3 4 5 6 
#
# 1 57.8063 58.9323 44.9091 0.0000 0.0000 0.0000
# 2 58.9323 127.6033 57.2310 0.0000 0.0000 0.0000
# 3 44.9091 57.2310 96.8777 0.0000 0.0000 0.0000
# 4 0.0000 0.0000 0.0000 19.7449 0.0000 0.0000
# 5 0.0000 0.0000 0.0000 0.0000 26.9222 0.0000
# 6 0.0000 0.0000 0.0000 0.0000 0.0000 30.9699
#
#
#
# Elastic Compliance Matrix: (Units=1/GPa)
#
#
# Indices 1 2 3 4 5 6 
#
# 1 0.038768 -0.013393 -0.010060 0.000000 0.000000 0.000000
# 2 -0.013393 0.015288 -0.002823 0.000000 0.000000 0.000000
# 3 -0.010060 -0.002823 0.016653 0.000000 0.000000 0.000000
# 4 0.000000 0.000000 0.000000 0.050646 0.000000 0.000000
# 5 0.000000 0.000000 0.000000 0.000000 0.037144 0.000000
# 6 0.000000 0.000000 0.000000 0.000000 0.000000 0.032289
#
#
# Mechanical properties :
#
#
# Convention : Reuss Voigt Hill
#
# Bulk Modulus (GPa) = 55.07071 67.15913 61.11492
# Shear Modulus (GPa) = 20.04864 23.60840 21.82852
#
# Velocity S-wave (km/s) = 3.46399 3.75896 3.61449
# Velocity P-wave (km/s) = 6.99708 7.68342 7.34827
#
# Compressibility (1/GPa) = 0.01815847
#
# Stress axis : x y z
#
# Youngs Moduli (GPa) = 25.79444 65.40926 60.04767
#
# Poissons Ratio (x) = 0.87601 0.60406
# Poissons Ratio (y) = 0.34546 0.16953
# Poissons Ratio (z) = 0.25948 0.18467
#
# Static dielectric constant tensor:
#      x y z
#    x 1.554330 0.000000 0.000000 
#    y 0.000000 1.536960 0.000000 
#    z 0.000000 0.000000 1.568190 
# 
# From -- ./inp_files/21235.got.cif
#   From: 2010.05.17/outbox.cif.g08.bks.cpg/sg59_11_cif.got.tgz:21235.got - 2010.06.03 14:40:33.
