data_PCOD9450876
_publ_section_title
;
Structure prediction by ZEFSAII (Michael W. Deem and Ramdas Pophale) SiO2 
 PCOD9450876
Probable space group: P M M N
;
_chemical_formula_sum "Si O2"
_cell_formula_units_Z 64
_cell_length_a 14.494722
_cell_length_b 8.591189
_cell_length_c 26.259300
_cell_angle_alpha 90.000000
_cell_angle_beta 90.000000
_cell_angle_gamma 90.000000
_cell_volume 3269.989126
_symmetry_space_group_name_H-M "P M M N"
_symmetry_group_IT_number 59
_space_group.IT_coordinate_system_code '2'
_symmetry_cell_setting 'orthorhombic'
loop_
_space_group_symop_operation_xyz
x,y,z
1/2-x,1/2-y,z
1/2+x,-y,-z
-x,1/2+y,-z
-x,-y,-z
1/2+x,1/2+y,-z
1/2-x,y,z
x,1/2-y,z
loop_
_atom_site_type_symbol
_atom_site_label
_atom_site_fract_x
_atom_site_fract_y
_atom_site_fract_z
Si Si1 0.356175 0.063790 0.919659
Si Si2 0.467919 0.434239 0.127828
Si Si3 0.900706 0.937142 0.457386
Si Si4 0.400673 0.068800 0.434707
Si Si5 0.349788 0.434926 0.656629
Si Si6 0.946892 0.562939 0.674533
Si Si7 0.856102 0.063567 0.776765
Si Si8 0.639696 0.067091 0.968580
O O1 0.250000 0.016718 0.910134
O O2 0.361231 0.250000 0.919312
O O3 0.428407 0.995215 0.880006
O O4 0.381589 0.003972 0.976205
O O5 0.467791 0.250000 0.132502
O O6 0.417593 0.507278 0.176248
O O7 0.412922 0.484563 0.077093
O O8 0.923122 0.750000 0.461290
O O9 0.856859 0.985082 0.511649
O O10 0.847466 0.953485 0.404704
O O11 0.991661 0.040450 0.448055
O O12 0.376307 0.250000 0.430094
O O13 0.396126 0.002303 0.377480
O O14 0.250000 0.491060 0.676921
O O15 0.356623 0.250000 0.667101
O O16 0.445517 0.511698 0.674227
O O17 0.944362 0.750000 0.673399
O O18 0.896445 0.501281 0.724237
O O19 0.750000 0.012297 0.783728
O O20 0.857713 0.250000 0.775232
O O21 0.750000 0.051563 0.960916
O O22 0.616440 0.250000 0.968536
#
# Coordination Sequence:
#
# PCOD9450876 Si02
#       8
#     8   8   8   8   8   8   8   8
#     4  10  21  38  60  87 122 162 200 236 276 327
#     4  12  24  38  60  88 119 153 190 236 287 338
#     4   8  13  23  41  67  99 136 177 217 259 312
#     4   8  14  25  43  69 100 134 172 215 266 321
#     4   9  17  30  50  77 110 148 188 227 268 321
#     4  10  20  35  56  81 109 142 181 228 282 335
#     4  11  25  45  66  85 107 138 180 231 283 335
#     4  10  20  35  57  87 124 163 202 242 282 328
#
# _framework density 19.571929000000001
#
# number of rings (size 3 to 8) (size 9 to 14) (size 15 to 20)
#    0.000    2.250    0.000    3.375    0.000    4.750 
#    0.000    1.250    0.000    6.000    0.000    0.000 
#    0.000    0.000    0.000    0.000    0.000    0.000 
#
# Total GULP energy -356868.084671 kJ/mol
# GULP energy per Si atom -5576.063823 kJ/mol
# Density = 1.952738 g / cm^3
# Si number density = 19.571929 Si / 1000 Ang^3
#
#
#
# Elastic Constant Matrix: (Units=GPa)
#
#
# Indices 1 2 3 4 5 6 
#
# 1 77.6204 25.3015 67.7355 0.0000 0.0000 0.0000
# 2 25.3015 45.2686 25.5383 0.0000 0.0000 0.0000
# 3 67.7355 25.5383 125.4275 0.0000 0.0000 0.0000
# 4 0.0000 0.0000 0.0000 27.2490 0.0000 0.0000
# 5 0.0000 0.0000 0.0000 0.0000 -25.9560 0.0000
# 6 0.0000 0.0000 0.0000 0.0000 0.0000 12.8709
#
#
#
# Elastic Compliance Matrix: (Units=1/GPa)
#
#
# Indices 1 2 3 4 5 6 
#
# 1 0.026501 -0.007612 -0.012762 0.000000 0.000000 0.000000
# 2 -0.007612 0.027144 -0.001416 0.000000 0.000000 0.000000
# 3 -0.012762 -0.001416 0.015153 0.000000 0.000000 0.000000
# 4 0.000000 0.000000 0.000000 0.036699 0.000000 0.000000
# 5 0.000000 0.000000 0.000000 0.000000 -0.038527 0.000000
# 6 0.000000 0.000000 0.000000 0.000000 0.000000 0.077694
#
#
# Mechanical properties :
#
#
# Convention : Reuss Voigt Hill
#
# Bulk Modulus (GPa) = 39.65423 53.94080 46.79751
# Shear Modulus (GPa) = 25.42597 11.48220 18.45408
#
# Velocity S-wave (km/s) = 3.60822 2.42475 3.07397
# Velocity P-wave (km/s) = 6.13708 5.95477 6.04661
#
# Compressibility (1/GPa) = 0.02521799
#
# Stress axis : x y z
#
# Youngs Moduli (GPa) = 37.73445 36.84081 65.99487
#
# Poissons Ratio (x) = 0.28045 0.84220
# Poissons Ratio (y) = 0.28725 0.09343
# Poissons Ratio (z) = 0.48155 0.05216
#
# Static dielectric constant tensor:
#      x y z
#    x 1.715700 0.000000 0.000000 
#    y 0.000000 1.667800 0.000000 
#    z 0.000000 0.000000 1.691090 
# 
# From -- ./inp_files/32104.got.cif
#   From: 2010.05.17/outbox.cif.g08.bks.cpg/sg59_17_cif.got.tgz:32104.got - 2010.06.03 14:40:33.
