data_PCOD9450064
_publ_section_title
;
Structure prediction by ZEFSAII (Michael W. Deem and Ramdas Pophale) SiO2 
 PCOD9450064
Probable space group: P M M N
;
_chemical_formula_sum "Si O2"
_cell_formula_units_Z 56
_cell_length_a 17.870695
_cell_length_b 15.696490
_cell_length_c 9.576977
_cell_angle_alpha 90.000000
_cell_angle_beta 90.000000
_cell_angle_gamma 90.000000
_cell_volume 2686.410863
_symmetry_space_group_name_H-M "P M M N"
_symmetry_group_IT_number 59
_space_group.IT_coordinate_system_code '2'
_symmetry_cell_setting 'orthorhombic'
loop_
_space_group_symop_operation_xyz
x,y,z
1/2-x,1/2-y,z
1/2+x,-y,-z
-x,1/2+y,-z
-x,-y,-z
1/2+x,1/2+y,-z
1/2-x,y,z
x,1/2-y,z
loop_
_atom_site_type_symbol
_atom_site_label
_atom_site_fract_x
_atom_site_fract_y
_atom_site_fract_z
Si Si1 0.948973 0.954041 0.714623
Si Si2 0.336571 0.036112 0.852762
Si Si3 0.339154 0.842567 0.464174
Si Si4 0.453765 0.348596 0.015536
Si Si5 0.834529 0.342614 0.111593
Si Si6 0.396475 0.879415 0.165660
Si Si7 0.400016 0.480040 0.579604
O O1 0.020681 0.007510 0.658799
O O2 0.897689 0.020377 0.800135
O O3 0.910452 0.931198 0.567121
O O4 0.968618 0.882226 0.826996
O O5 0.250000 0.037431 0.896116
O O6 0.389132 0.094245 0.946600
O O7 0.363890 0.936894 0.852565
O O8 0.345954 0.062820 0.691457
O O9 0.250000 0.853125 0.443034
O O10 0.350768 0.750000 0.533454
O O11 0.381538 0.840600 0.316300
O O12 0.370320 0.925054 0.542849
O O13 0.432970 0.250000 0.018847
O O14 0.526623 0.359011 0.916288
O O15 0.750000 0.340916 0.168261
O O16 0.869918 0.250000 0.145719
O O17 0.835046 0.348755 0.943634
#
# Coordination Sequence:
#
# PCOD9450064 Si02
#       7
#     8   8   8   8   8   8   8
#     4  10  21  39  62  90 124 156 205 262 311 364
#     4  11  23  41  62  88 124 164 207 263 320 371
#     4  10  21  35  55  90 131 165 199 240 297 377
#     4  12  24  40  64  91 119 161 215 267 317 365
#     4  10  20  33  56  92 128 160 195 240 306 382
#     4  11  19  36  60  87 125 158 197 252 307 365
#     4  10  21  38  62  86 123 168 202 248 312 374
#
# _framework density 20.845656999999999
#
# number of rings (size 3 to 8) (size 9 to 14) (size 15 to 20)
#    0.000    1.429    2.857    3.429    0.000    2.571 
#    0.000    2.857    0.000    0.000    0.000    0.000 
#    0.000    0.000    0.000    0.000    0.000    0.000 
#
# Total GULP energy -312325.682247 kJ/mol
# GULP energy per Si atom -5577.244326 kJ/mol
# Density = 2.079821 g / cm^3
# Si number density = 20.845657 Si / 1000 Ang^3
#
#
#
# Elastic Constant Matrix: (Units=GPa)
#
#
# Indices 1 2 3 4 5 6 
#
# 1 83.5754 28.8275 28.7038 0.0000 0.0000 0.0000
# 2 28.8275 79.9686 49.1956 0.0000 0.0000 0.0000
# 3 28.7038 49.1956 142.1286 0.0000 0.0000 0.0000
# 4 0.0000 0.0000 0.0000 -9.3360 0.0000 0.0000
# 5 0.0000 0.0000 0.0000 0.0000 23.1435 0.0000
# 6 0.0000 0.0000 0.0000 0.0000 0.0000 23.5752
#
#
#
# Elastic Compliance Matrix: (Units=1/GPa)
#
#
# Indices 1 2 3 4 5 6 
#
# 1 0.013868 -0.004163 -0.001360 0.000000 0.000000 0.000000
# 2 -0.004163 0.017138 -0.005091 0.000000 0.000000 0.000000
# 3 -0.001360 -0.005091 0.009073 0.000000 0.000000 0.000000
# 4 0.000000 0.000000 0.000000 -0.107112 0.000000 0.000000
# 5 0.000000 0.000000 0.000000 0.000000 0.043209 0.000000
# 6 0.000000 0.000000 0.000000 0.000000 0.000000 0.042417
#
#
# Mechanical properties :
#
#
# Convention : Reuss Voigt Hill
#
# Bulk Modulus (GPa) = 53.04802 57.68073 55.36437
# Shear Modulus (GPa) = 108.45187 20.73958 64.59572
#
# Velocity S-wave (km/s) = 7.22074 3.15764 5.57269
# Velocity P-wave (km/s) = 9.74792 6.40506 8.24763
#
# Compressibility (1/GPa) = 0.01885085
#
# Stress axis : x y z
#
# Youngs Moduli (GPa) = 72.10777 58.35145 110.21981
#
# Poissons Ratio (x) = 0.24290 0.14989
# Poissons Ratio (y) = 0.30016 0.56115
# Poissons Ratio (z) = 0.09806 0.29708
#
# Static dielectric constant tensor:
#      x y z
#    x 1.770280 0.000000 0.000000 
#    y 0.000000 1.782420 0.000000 
#    z 0.000000 0.000000 1.791200 
# 
# From -- ./inp_files/11397.got.cif
#   From: 2010.05.17/outbox.cif.g08.bks.cpg/sg59_6_cif.got.tgz:11397.got - 2010.06.03 14:40:33.
