data_PCOD9450237
_publ_section_title
;
Structure prediction by ZEFSAII (Michael W. Deem and Ramdas Pophale) SiO2 
 PCOD9450237
Probable space group: P M M N
;
_chemical_formula_sum "Si O2"
_cell_formula_units_Z 56
_cell_length_a 8.503584
_cell_length_b 19.800131
_cell_length_c 18.269888
_cell_angle_alpha 90.000000
_cell_angle_beta 90.000000
_cell_angle_gamma 90.000000
_cell_volume 3076.138992
_symmetry_space_group_name_H-M "P M M N"
_symmetry_group_IT_number 59
_space_group.IT_coordinate_system_code '2'
_symmetry_cell_setting 'orthorhombic'
loop_
_space_group_symop_operation_xyz
x,y,z
1/2-x,1/2-y,z
1/2+x,-y,-z
-x,1/2+y,-z
-x,-y,-z
1/2+x,1/2+y,-z
1/2-x,y,z
x,1/2-y,z
loop_
_atom_site_type_symbol
_atom_site_label
_atom_site_fract_x
_atom_site_fract_y
_atom_site_fract_z
Si Si1 0.561897 0.583486 0.369136
Si Si2 0.061886 0.929138 0.792492
Si Si3 0.061998 0.921818 0.206964
Si Si4 0.437970 0.328468 0.085936
Si Si5 0.058924 0.929155 0.625536
Si Si6 0.439978 0.827437 0.499779
Si Si7 0.939786 0.328390 0.927320
O O1 0.750000 0.585118 0.374378
O O2 0.512568 0.595818 0.285354
O O3 0.508272 0.506666 0.388594
O O4 0.490486 0.637235 0.424611
O O5 0.250000 0.937148 0.793012
O O6 0.014280 0.911464 0.708937
O O7 0.011362 0.873747 0.850811
O O8 0.985242 0.001276 0.810045
O O9 0.250000 0.916664 0.213555
O O10 0.009164 0.873463 0.141136
O O11 0.250000 0.331756 0.090504
O O12 0.487230 0.250000 0.093730
O O13 0.491587 0.351142 0.005143
O O14 0.250000 0.929296 0.622826
O O15 0.002605 0.875446 0.565963
O O16 0.250000 0.826390 0.502771
O O17 0.495067 0.750000 0.505408
O O18 0.750000 0.331552 0.931816
O O19 0.984911 0.250000 0.916431
#
# Coordination Sequence:
#
# PCOD9450237 Si02
#       7
#     8   8   8   8   8   8   8
#     4  10  20  35  54  76 105 139 175 214 259 315
#     4  10  20  35  56  81 108 139 178 221 265 315
#     4  10  20  35  56  81 108 138 175 220 267 314
#     4  10  21  36  54  78 108 141 177 217 264 317
#     4   8  17  34  54  76 101 134 176 216 256 306
#     4  10  20  34  53  77 104 134 172 217 262 309
#     4   9  19  36  56  77 102 136 178 219 261 313
#
# _framework density 18.204637999999999
#
# number of rings (size 3 to 8) (size 9 to 14) (size 15 to 20)
#    0.000    2.429    0.000    3.000    0.000    4.000 
#    0.000    6.429    0.000    0.000    0.000    0.000 
#    0.000    0.000    0.000    0.000    0.000    0.000 
#
# Total GULP energy -312512.554399 kJ/mol
# GULP energy per Si atom -5580.581329 kJ/mol
# Density = 1.816320 g / cm^3
# Si number density = 18.204638 Si / 1000 Ang^3
#
#
#
# Elastic Constant Matrix: (Units=GPa)
#
#
# Indices 1 2 3 4 5 6 
#
# 1 13.5194 11.4625 3.4112 0.0000 0.0000 0.0000
# 2 11.4625 82.3933 65.3858 0.0000 0.0000 0.0000
# 3 3.4112 65.3858 85.1150 0.0000 0.0000 0.0000
# 4 0.0000 0.0000 0.0000 300.6870 0.0000 0.0000
# 5 0.0000 0.0000 0.0000 0.0000 24.9366 0.0000
# 6 0.0000 0.0000 0.0000 0.0000 0.0000 14.5338
#
#
#
# Elastic Compliance Matrix: (Units=1/GPa)
#
#
# Indices 1 2 3 4 5 6 
#
# 1 0.091307 -0.025101 0.015623 0.000000 0.000000 0.000000
# 2 -0.025101 0.037991 -0.028179 0.000000 0.000000 0.000000
# 3 0.015623 -0.028179 0.032770 0.000000 0.000000 0.000000
# 4 0.000000 0.000000 0.000000 0.003326 0.000000 0.000000
# 5 0.000000 0.000000 0.000000 0.000000 0.040102 0.000000
# 6 0.000000 0.000000 0.000000 0.000000 0.000000 0.068805
#
#
# Mechanical properties :
#
#
# Convention : Reuss Voigt Hill
#
# Bulk Modulus (GPa) = 11.52669 37.94964 24.73816
# Shear Modulus (GPa) = 13.20888 74.74938 43.97913
#
# Velocity S-wave (km/s) = 2.69658 6.41481 4.92043
# Velocity P-wave (km/s) = 4.00510 8.70389 6.77490
#
# Compressibility (1/GPa) = 0.08675517
#
# Stress axis : x y z
#
# Youngs Moduli (GPa) = 10.95200 26.32177 30.51571
#
# Poissons Ratio (x) = 0.66070 -0.47675
# Poissons Ratio (y) = 0.27491 0.85991
# Poissons Ratio (z) = -0.17111 0.74172
#
# Static dielectric constant tensor:
#      x y z
#    x 1.620340 0.000000 0.000000 
#    y 0.000000 1.612870 0.000000 
#    z 0.000000 0.000000 1.604200 
# 
# From -- ./inp_files/20955.got.cif
#   From: 2010.05.17/outbox.cif.g08.bks.cpg/sg59_11_cif.got.tgz:20955.got - 2010.06.03 14:40:33.
