data_PCOD9450542
_publ_section_title
;
Structure prediction by ZEFSAII (Michael W. Deem and Ramdas Pophale) SiO2 
 PCOD9450542
Probable space group: P M M N
;
_chemical_formula_sum "Si O2"
_cell_formula_units_Z 48
_cell_length_a 8.336538
_cell_length_b 14.245840
_cell_length_c 21.366645
_cell_angle_alpha 90.000000
_cell_angle_beta 90.000000
_cell_angle_gamma 90.000000
_cell_volume 2537.523838
_symmetry_space_group_name_H-M "P M M N"
_symmetry_group_IT_number 59
_space_group.IT_coordinate_system_code '2'
_symmetry_cell_setting 'orthorhombic'
loop_
_space_group_symop_operation_xyz
x,y,z
1/2-x,1/2-y,z
1/2+x,-y,-z
-x,1/2+y,-z
-x,-y,-z
1/2+x,1/2+y,-z
1/2-x,y,z
x,1/2-y,z
loop_
_atom_site_type_symbol
_atom_site_label
_atom_site_fract_x
_atom_site_fract_y
_atom_site_fract_z
Si Si1 0.941201 0.952749 0.590856
Si Si2 0.057395 0.645445 0.467373
Si Si3 0.939955 0.357639 0.284638
Si Si4 0.946012 0.356811 0.899957
Si Si5 0.062384 0.863048 0.959434
Si Si6 0.438349 0.040387 0.162916
O O1 0.750000 0.951294 0.582385
O O2 0.015560 0.885196 0.538042
O O3 0.982928 0.916376 0.659297
O O4 0.999467 0.058889 0.575870
O O5 0.250000 0.648910 0.461738
O O6 0.994476 0.750000 0.453665
O O7 0.750000 0.355471 0.295217
O O8 0.999924 0.250000 0.284569
O O9 0.974213 0.405493 0.218184
O O10 0.750000 0.356486 0.901455
O O11 0.997781 0.250000 0.887898
O O12 0.996333 0.434118 0.849876
O O13 0.995952 0.385969 0.970354
O O14 0.250000 0.890646 0.953529
O O15 0.056483 0.750000 0.954890
O O16 0.964931 0.907678 0.903116
O O17 0.250000 0.038334 0.177941
#
# Coordination Sequence:
#
# PCOD9450542 Si02
#       6
#     8   8   8   8   8   8
#     4  10  20  34  55  83 110 137 174 217 252 285
#     4   9  18  34  56  82 113 145 172 201 247 305
#     4  11  24  40  55  71  99 140 175 204 251 313
#     4   8  16  32  52  73  98 130 167 205 251 309
#     4   9  17  31  51  73 100 134 166 199 249 311
#     4  11  21  32  51  77 101 128 167 215 257 294
#
# _framework density 18.916079
#
# number of rings (size 3 to 8) (size 9 to 14) (size 15 to 20)
#    0.000    2.333    0.000    4.000    0.000    6.667 
#    0.000    1.667    0.000    9.000    0.000    0.000 
#    0.000    0.000    0.000    0.000    0.000    0.000 
#
# Total GULP energy -267876.303559 kJ/mol
# GULP energy per Si atom -5580.756324 kJ/mol
# Density = 1.887302 g / cm^3
# Si number density = 18.916079 Si / 1000 Ang^3
#
#
#
# Elastic Constant Matrix: (Units=GPa)
#
#
# Indices 1 2 3 4 5 6 
#
# 1 4.3735 3.7602 -6.3614 0.0000 0.0000 0.0000
# 2 3.7602 123.0109 57.5740 0.0000 0.0000 0.0000
# 3 -6.3614 57.5740 70.2465 0.0000 0.0000 0.0000
# 4 0.0000 0.0000 0.0000 20.5879 0.0000 0.0000
# 5 0.0000 0.0000 0.0000 0.0000 19.0181 0.0000
# 6 0.0000 0.0000 0.0000 0.0000 0.0000 17.9823
#
#
#
# Elastic Compliance Matrix: (Units=1/GPa)
#
#
# Indices 1 2 3 4 5 6 
#
# 1 0.365586 -0.043269 0.068570 0.000000 0.000000 0.000000
# 2 -0.043269 0.018310 -0.018925 0.000000 0.000000 0.000000
# 3 0.068570 -0.018925 0.035956 0.000000 0.000000 0.000000
# 4 0.000000 0.000000 0.000000 0.048572 0.000000 0.000000
# 5 0.000000 0.000000 0.000000 0.000000 0.052582 0.000000
# 6 0.000000 0.000000 0.000000 0.000000 0.000000 0.055610
#
#
# Mechanical properties :
#
#
# Convention : Reuss Voigt Hill
#
# Bulk Modulus (GPa) = 2.31158 34.17517 18.24338
# Shear Modulus (GPa) = 7.06150 21.02820 14.04485
#
# Velocity S-wave (km/s) = 1.93421 3.33777 2.72781
# Velocity P-wave (km/s) = 2.49257 5.74110 4.42567
#
# Compressibility (1/GPa) = 0.43260422
#
# Stress axis : x y z
#
# Youngs Moduli (GPa) = 2.73534 54.61603 27.81170
#
# Poissons Ratio (x) = 2.36317 -1.90705
# Poissons Ratio (y) = 0.11835 0.52633
# Poissons Ratio (z) = -0.18756 1.03361
#
# Static dielectric constant tensor:
#      x y z
#    x 1.665990 0.000000 0.000000 
#    y 0.000000 1.694930 0.000000 
#    z 0.000000 0.000000 1.613940 
# 
# From -- ./inp_files/25470.got.cif
#   From: 2010.05.17/outbox.cif.g08.bks.cpg/sg59_13_cif.got.tgz:25470.got - 2010.06.03 14:40:33.
