data_PCOD9450050
_publ_section_title
;
Structure prediction by ZEFSAII (Michael W. Deem and Ramdas Pophale) SiO2 
 PCOD9450050
Probable space group: P M M N
;
_chemical_formula_sum "Si O2"
_cell_formula_units_Z 64
_cell_length_a 30.060778
_cell_length_b 9.456552
_cell_length_c 12.149695
_cell_angle_alpha 90.000000
_cell_angle_beta 90.000000
_cell_angle_gamma 90.000000
_cell_volume 3453.809718
_symmetry_space_group_name_H-M "P M M N"
_symmetry_group_IT_number 59
_space_group.IT_coordinate_system_code '2'
_symmetry_cell_setting 'orthorhombic'
loop_
_space_group_symop_operation_xyz
x,y,z
1/2-x,1/2-y,z
1/2+x,-y,-z
-x,1/2+y,-z
-x,-y,-z
1/2+x,1/2+y,-z
1/2-x,y,z
x,1/2-y,z
loop_
_atom_site_type_symbol
_atom_site_label
_atom_site_fract_x
_atom_site_fract_y
_atom_site_fract_z
Si Si1 0.300813 0.917639 0.711595
Si Si2 0.436168 0.912945 0.043850
Si Si3 0.534284 0.919965 0.419426
Si Si4 0.699420 0.578485 0.657612
Si Si5 0.532845 0.586421 0.159609
Si Si6 0.862581 0.919164 0.452782
Si Si7 0.859040 0.586938 0.861604
Si Si8 0.699644 0.594188 0.076570
O O1 0.250000 0.956808 0.676305
O O2 0.305270 0.750000 0.702218
O O3 0.338063 0.998392 0.643817
O O4 0.305385 0.971036 0.836079
O O5 0.423890 0.750000 0.027056
O O6 0.483834 0.917137 0.105119
O O7 0.401941 0.991674 0.123362
O O8 0.439012 0.991435 0.925477
O O9 0.526893 0.750000 0.426927
O O10 0.531141 0.957113 0.288332
O O11 0.584999 0.950477 0.456803
O O12 0.500000 0.000000 0.500000
O O13 0.750000 0.525730 0.644040
O O14 0.702070 0.750000 0.658826
O O15 0.665481 0.540593 0.560788
O O16 0.675955 0.535822 0.770851
O O17 0.548906 0.750000 0.156697
O O18 0.858428 0.750000 0.436683
O O19 0.871421 0.750000 0.835177
O O20 0.834366 0.585914 0.978054
O O21 0.750000 0.588789 0.031791
O O22 0.694783 0.750000 0.131183
#
# Coordination Sequence:
#
# PCOD9450050 Si02
#       8
#     8   8   8   8   8   8   8   8
#     4  10  21  36  55  82 116 150 185 230 282 335
#     4  10  21  36  57  84 111 146 187 230 283 340
#     4  10  23  40  60  86 117 151 191 237 289 343
#     4   9  18  34  57  84 113 146 188 237 282 330
#     4   9  20  40  59  79 113 151 188 233 284 338
#     4  10  21  37  59  86 112 147 194 238 281 338
#     4  10  20  33  55  83 112 143 181 229 279 333
#     4   9  18  33  53  77 107 144 181 217 266 328
#
# _framework density 18.530260999999999
#
# number of rings (size 3 to 8) (size 9 to 14) (size 15 to 20)
#    0.000    2.375    0.000    1.500    3.500    4.750 
#    0.000    0.625    0.000    1.875    0.000    0.000 
#    0.000    0.000    0.000    0.000    0.000    0.000 
#
# Total GULP energy -356914.495336 kJ/mol
# GULP energy per Si atom -5576.788990 kJ/mol
# Density = 1.848809 g / cm^3
# Si number density = 18.530261 Si / 1000 Ang^3
#
#
#
# Elastic Constant Matrix: (Units=GPa)
#
#
# Indices 1 2 3 4 5 6 
#
# 1 70.3685 41.1064 35.9839 0.0000 0.0000 0.0000
# 2 41.1064 49.2092 26.4917 0.0000 0.0000 0.0000
# 3 35.9839 26.4917 73.6042 0.0000 0.0000 0.0000
# 4 0.0000 0.0000 0.0000 9.5493 0.0000 0.0000
# 5 0.0000 0.0000 0.0000 0.0000 47.1065 0.0000
# 6 0.0000 0.0000 0.0000 0.0000 0.0000 14.0871
#
#
#
# Elastic Compliance Matrix: (Units=1/GPa)
#
#
# Indices 1 2 3 4 5 6 
#
# 1 0.030491 -0.021638 -0.007119 0.000000 0.000000 0.000000
# 2 -0.021638 0.040561 -0.004020 0.000000 0.000000 0.000000
# 3 -0.007119 -0.004020 0.018513 0.000000 0.000000 0.000000
# 4 0.000000 0.000000 0.000000 0.104719 0.000000 0.000000
# 5 0.000000 0.000000 0.000000 0.000000 0.021228 0.000000
# 6 0.000000 0.000000 0.000000 0.000000 0.000000 0.070987
#
#
# Mechanical properties :
#
#
# Convention : Reuss Voigt Hill
#
# Bulk Modulus (GPa) = 41.64676 44.48288 43.06482
# Shear Modulus (GPa) = 13.88664 20.12193 17.00428
#
# Velocity S-wave (km/s) = 2.74049 3.29887 3.03256
# Velocity P-wave (km/s) = 5.70417 6.21029 5.96260
#
# Compressibility (1/GPa) = 0.02401147
#
# Stress axis : x y z
#
# Youngs Moduli (GPa) = 32.79619 24.65422 54.01525
#
# Poissons Ratio (x) = 0.53348 0.38452
# Poissons Ratio (y) = 0.70966 0.21715
# Poissons Ratio (z) = 0.23346 0.09911
#
# Static dielectric constant tensor:
#      x y z
#    x 1.652350 0.000000 0.000000 
#    y 0.000000 1.635570 0.000000 
#    z 0.000000 0.000000 1.638720 
# 
# From -- ./inp_files/19312.got.cif
#   From: 2010.05.17/outbox.cif.g08.bks.cpg/sg59_10_cif.got.tgz:19312.got - 2010.06.03 14:40:33.
