data_PCOD9450669
_publ_section_title
;
Structure prediction by ZEFSAII (Michael W. Deem and Ramdas Pophale) SiO2 
 PCOD9450669
Probable space group: P M M N
;
_chemical_formula_sum "Si O2"
_cell_formula_units_Z 48
_cell_length_a 28.431153
_cell_length_b 8.964315
_cell_length_c 10.360018
_cell_angle_alpha 90.000000
_cell_angle_beta 90.000000
_cell_angle_gamma 90.000000
_cell_volume 2640.414393
_symmetry_space_group_name_H-M "P M M N"
_symmetry_group_IT_number 59
_space_group.IT_coordinate_system_code '2'
_symmetry_cell_setting 'orthorhombic'
loop_
_space_group_symop_operation_xyz
x,y,z
1/2-x,1/2-y,z
1/2+x,-y,-z
-x,1/2+y,-z
-x,-y,-z
1/2+x,1/2+y,-z
1/2-x,y,z
x,1/2-y,z
loop_
_atom_site_type_symbol
_atom_site_label
_atom_site_fract_x
_atom_site_fract_y
_atom_site_fract_z
Si Si1 0.365361 0.427145 0.217246
Si Si2 0.941347 0.572691 0.378504
Si Si3 0.849923 0.072053 0.280597
Si Si4 0.694634 0.426970 0.557467
Si Si5 0.695644 0.429595 0.007389
Si Si6 0.048766 0.927503 0.340935
O O1 0.367851 0.250000 0.210838
O O2 0.335320 0.479270 0.341572
O O3 0.338666 0.493133 0.093941
O O4 0.417005 0.495886 0.238823
O O5 0.937242 0.750000 0.399013
O O6 0.899177 0.513198 0.291202
O O7 0.938754 0.490967 0.517051
O O8 0.993333 0.542291 0.322429
O O9 0.858886 0.250000 0.278867
O O10 0.821060 0.039831 0.411300
O O11 0.820731 0.034984 0.152747
O O12 0.750000 0.453810 0.573757
O O13 0.685983 0.250000 0.580604
O O14 0.750000 0.473264 0.986556
O O15 0.692899 0.250000 0.991062
O O16 0.056229 0.750000 0.340759
#
# Coordination Sequence:
#
# PCOD9450669 Si02
#       6
#     8   8   8   8   8   8
#     4  12  24  37  56  85 117 151 194 242 293 341
#     4  10  20  34  57  89 120 149 185 235 293 346
#     4  10  20  36  60  87 115 151 194 237 284 344
#     4  10  20  35  57  84 113 147 189 237 287 344
#     4  10  22  41  62  83 113 157 201 237 282 345
#     4  10  20  36  58  84 116 154 193 233 284 346
#
# _framework density 18.178964000000001
#
# number of rings (size 3 to 8) (size 9 to 14) (size 15 to 20)
#    0.000    1.667    1.667    3.500    0.000    7.333 
#    0.000    0.833    0.000    3.000    0.000    0.000 
#    0.000    0.000    0.000    0.000    0.000    0.000 
#
# Total GULP energy -268204.514217 kJ/mol
# GULP energy per Si atom -5587.594046 kJ/mol
# Density = 1.813759 g / cm^3
# Si number density = 18.178964 Si / 1000 Ang^3
#
#
#
# Elastic Constant Matrix: (Units=GPa)
#
#
# Indices 1 2 3 4 5 6 
#
# 1 56.2488 14.9756 -20.5220 0.0000 0.0000 0.0000
# 2 14.9756 36.9100 6.7487 0.0000 0.0000 0.0000
# 3 -20.5220 6.7487 25.4518 0.0000 0.0000 0.0000
# 4 0.0000 0.0000 0.0000 -7.8496 0.0000 0.0000
# 5 0.0000 0.0000 0.0000 0.0000 31.6296 0.0000
# 6 0.0000 0.0000 0.0000 0.0000 0.0000 29.8727
#
#
#
# Elastic Compliance Matrix: (Units=1/GPa)
#
#
# Indices 1 2 3 4 5 6 
#
# 1 0.035929 -0.020887 0.034508 0.000000 0.000000 0.000000
# 2 -0.020887 0.040616 -0.027611 0.000000 0.000000 0.000000
# 3 0.034508 -0.027611 0.074436 0.000000 0.000000 0.000000
# 4 0.000000 0.000000 0.000000 -0.127395 0.000000 0.000000
# 5 0.000000 0.000000 0.000000 0.000000 0.031616 0.000000
# 6 0.000000 0.000000 0.000000 0.000000 0.000000 0.033475
#
#
# Mechanical properties :
#
#
# Convention : Reuss Voigt Hill
#
# Bulk Modulus (GPa) = 8.13000 13.44612 10.78806
# Shear Modulus (GPa) = 31.71423 18.55775 25.13599
#
# Velocity S-wave (km/s) = 4.18132 3.19852 3.72250
# Velocity P-wave (km/s) = 5.27192 4.58839 4.94199
#
# Compressibility (1/GPa) = 0.12300128
#
# Stress axis : x y z
#
# Youngs Moduli (GPa) = 27.83244 24.62086 13.43441
#
# Poissons Ratio (x) = 0.51426 -0.46360
# Poissons Ratio (y) = 0.58134 0.37094
# Poissons Ratio (z) = -0.96045 0.67981
#
# Static dielectric constant tensor:
#      x y z
#    x 1.629840 0.000000 0.000000 
#    y 0.000000 1.607200 0.000000 
#    z 0.000000 0.000000 1.599150 
# 
# From -- ./inp_files/12927.got.cif
#   From: 2010.05.17/outbox.cif.g08.bks.cpg/sg59_7_cif.got.tgz:12927.got - 2010.06.03 14:40:33.
