data_PCOD9450134
_publ_section_title
;
Structure prediction by ZEFSAII (Michael W. Deem and Ramdas Pophale) SiO2 
 PCOD9450134
Probable space group: P M M N
;
_chemical_formula_sum "Si O2"
_cell_formula_units_Z 48
_cell_length_a 15.466281
_cell_length_b 9.236474
_cell_length_c 16.125134
_cell_angle_alpha 90.000000
_cell_angle_beta 90.000000
_cell_angle_gamma 90.000000
_cell_volume 2303.538318
_symmetry_space_group_name_H-M "P M M N"
_symmetry_group_IT_number 59
_space_group.IT_coordinate_system_code '2'
_symmetry_cell_setting 'orthorhombic'
loop_
_space_group_symop_operation_xyz
x,y,z
1/2-x,1/2-y,z
1/2+x,-y,-z
-x,1/2+y,-z
-x,-y,-z
1/2+x,1/2+y,-z
1/2-x,y,z
x,1/2-y,z
loop_
_atom_site_type_symbol
_atom_site_label
_atom_site_fract_x
_atom_site_fract_y
_atom_site_fract_z
Si Si1 0.086887 0.424076 0.470740
Si Si2 0.350110 0.425831 0.290290
Si Si3 0.855744 0.415983 0.054387
Si Si4 0.143789 0.416415 0.779906
Si Si5 0.849766 0.411444 0.378793
Si Si6 0.355963 0.418189 0.109912
O O1 0.087339 0.250000 0.476970
O O2 0.104878 0.466319 0.375840
O O3 0.150225 0.493873 0.538182
O O4 0.000000 0.500000 0.500000
O O5 0.250000 0.471781 0.296937
O O6 0.350425 0.250000 0.286766
O O7 0.385166 0.473041 0.200573
O O8 0.750000 0.417356 0.053638
O O9 0.883592 0.250000 0.060501
O O10 0.882716 0.505215 0.135326
O O11 0.884325 0.489149 0.968658
O O12 0.250000 0.415339 0.779108
O O13 0.116163 0.250000 0.777202
O O14 0.111204 0.503268 0.699243
O O15 0.750000 0.392135 0.356083
O O16 0.888358 0.250000 0.390436
O O17 0.250000 0.420787 0.112388
O O18 0.380570 0.250000 0.099007
#
# Coordination Sequence:
#
# PCOD9450134 Si02
#       6
#     8   8   8   8   8   8
#     4  11  22  36  53  73  99 131 168 208 252 301
#     4   8  15  29  50  73  95 124 164 206 245 288
#     4   9  15  22  34  58  94 129 156 188 234 282
#     4   9  16  26  42  65  93 127 164 198 235 282
#     4  10  20  34  52  75 102 130 163 206 253 298
#     4   8  13  23  40  62  88 119 156 195 234 279
#
# _framework density 20.837508
#
# number of rings (size 3 to 8) (size 9 to 14) (size 15 to 20)
#    0.000    2.833    0.000    3.500    0.000    5.667 
#    0.000    1.667    0.000    4.000    0.000    1.167 
#    0.000    0.000    0.000    0.000    0.000    0.000 
#
# Total GULP energy -267693.395704 kJ/mol
# GULP energy per Si atom -5576.945744 kJ/mol
# Density = 2.079008 g / cm^3
# Si number density = 20.837508 Si / 1000 Ang^3
#
#
#
# Elastic Constant Matrix: (Units=GPa)
#
#
# Indices 1 2 3 4 5 6 
#
# 1 20.4889 10.9718 18.9009 0.0000 0.0000 0.0000
# 2 10.9718 134.1254 88.6981 0.0000 0.0000 0.0000
# 3 18.9009 88.6981 177.8354 0.0000 0.0000 0.0000
# 4 0.0000 0.0000 0.0000 24.4310 0.0000 0.0000
# 5 0.0000 0.0000 0.0000 0.0000 3.8871 0.0000
# 6 0.0000 0.0000 0.0000 0.0000 0.0000 7.6843
#
#
#
# Elastic Compliance Matrix: (Units=1/GPa)
#
#
# Indices 1 2 3 4 5 6 
#
# 1 0.054190 -0.000931 -0.005295 0.000000 0.000000 0.000000
# 2 -0.000931 0.011141 -0.005458 0.000000 0.000000 0.000000
# 3 -0.005295 -0.005458 0.008908 0.000000 0.000000 0.000000
# 4 0.000000 0.000000 0.000000 0.040932 0.000000 0.000000
# 5 0.000000 0.000000 0.000000 0.000000 0.257264 0.000000
# 6 0.000000 0.000000 0.000000 0.000000 0.000000 0.130135
#
#
# Mechanical properties :
#
#
# Convention : Reuss Voigt Hill
#
# Bulk Modulus (GPa) = 19.65747 63.28791 41.47269
# Shear Modulus (GPa) = 9.20988 21.45909 15.33448
#
# Velocity S-wave (km/s) = 2.10463 3.21258 2.71570
# Velocity P-wave (km/s) = 3.91920 6.64823 5.45706
#
# Compressibility (1/GPa) = 0.05087124
#
# Stress axis : x y z
#
# Youngs Moduli (GPa) = 18.45353 89.75686 112.25691
#
# Poissons Ratio (x) = 0.08359 0.59440
# Poissons Ratio (y) = 0.01719 0.61268
# Poissons Ratio (z) = 0.09771 0.48988
#
# Static dielectric constant tensor:
#      x y z
#    x 1.868900 0.000000 0.000000 
#    y 0.000000 1.717380 0.000000 
#    z 0.000000 0.000000 1.754250 
# 
# From -- ./inp_files/20467.got.cif
#   From: 2010.05.17/outbox.cif.g08.bks.cpg/sg59_11_cif.got.tgz:20467.got - 2010.06.03 14:40:33.
