data_PCOD9450246
_publ_section_title
;
Structure prediction by ZEFSAII (Michael W. Deem and Ramdas Pophale) SiO2 
 PCOD9450246
Probable space group: P M M N
;
_chemical_formula_sum "Si O2"
_cell_formula_units_Z 48
_cell_length_a 9.346053
_cell_length_b 7.833802
_cell_length_c 32.034432
_cell_angle_alpha 90.000000
_cell_angle_beta 90.000000
_cell_angle_gamma 90.000000
_cell_volume 2345.405061
_symmetry_space_group_name_H-M "P M M N"
_symmetry_group_IT_number 59
_space_group.IT_coordinate_system_code '2'
_symmetry_cell_setting 'orthorhombic'
loop_
_space_group_symop_operation_xyz
x,y,z
1/2-x,1/2-y,z
1/2+x,-y,-z
-x,1/2+y,-z
-x,-y,-z
1/2+x,1/2+y,-z
1/2-x,y,z
x,1/2-y,z
loop_
_atom_site_type_symbol
_atom_site_label
_atom_site_fract_x
_atom_site_fract_y
_atom_site_fract_z
Si Si1 0.411803 0.952980 0.959249
Si Si2 0.912549 0.455932 0.788342
Si Si3 0.415275 0.040939 0.376403
Si Si4 0.413566 0.454147 0.868135
Si Si5 0.413593 0.955647 0.541612
Si Si6 0.913406 0.044307 0.294519
O O1 0.250000 0.023808 0.962451
O O2 0.403852 0.750000 0.957601
O O3 0.471680 0.011349 0.914525
O O4 0.500000 0.000000 0.000000
O O5 0.750000 0.519855 0.784459
O O6 0.906164 0.250000 0.791022
O O7 0.989881 0.520176 0.830368
O O8 0.005753 0.499474 0.747969
O O9 0.250000 0.986256 0.376998
O O10 0.414951 0.250000 0.376432
O O11 0.500911 0.984240 0.417489
O O12 0.497066 0.984215 0.334664
O O13 0.250000 0.521692 0.865935
O O14 0.405327 0.250000 0.863431
O O15 0.250000 0.019395 0.540317
O O16 0.407278 0.750000 0.544320
O O17 0.500000 0.000000 0.500000
O O18 0.750000 0.980561 0.294694
O O19 0.907643 0.250000 0.297257
#
# Coordination Sequence:
#
# PCOD9450246 Si02
#       6
#     8   8   8   8   8   8
#     4  10  21  36  55  80 109 140 175 216 261 309
#     4  10  21  36  54  78 108 140 173 212 260 311
#     4   9  17  31  52  76 103 136 172 212 260 312
#     4   9  18  34  54  74 101 139 178 214 255 306
#     4  10  20  34  53  77 105 137 174 216 262 313
#     4  10  20  34  54  79 105 135 173 215 257 305
#
# _framework density 20.465547000000001
#
# number of rings (size 3 to 8) (size 9 to 14) (size 15 to 20)
#    0.000    2.333    0.000    2.500    0.000    7.333 
#    0.000    4.167    0.000    5.000    0.000    0.000 
#    0.000    0.000    0.000    0.000    0.000    0.000 
#
# Total GULP energy -268067.683618 kJ/mol
# GULP energy per Si atom -5584.743409 kJ/mol
# Density = 2.041897 g / cm^3
# Si number density = 20.465547 Si / 1000 Ang^3
#
#
#
# Elastic Constant Matrix: (Units=GPa)
#
#
# Indices 1 2 3 4 5 6 
#
# 1 192.4837 8.1181 136.4475 0.0000 0.0000 0.0000
# 2 8.1181 23.1854 1.4380 0.0000 0.0000 0.0000
# 3 136.4475 1.4380 236.5872 0.0000 0.0000 0.0000
# 4 0.0000 0.0000 0.0000 29.8886 0.0000 0.0000
# 5 0.0000 0.0000 0.0000 0.0000 42.2815 0.0000
# 6 0.0000 0.0000 0.0000 0.0000 0.0000 17.5163
#
#
#
# Elastic Compliance Matrix: (Units=1/GPa)
#
#
# Indices 1 2 3 4 5 6 
#
# 1 0.008969 -0.002821 -0.005155 0.000000 0.000000 0.000000
# 2 -0.002821 0.044034 0.001359 0.000000 0.000000 0.000000
# 3 -0.005155 0.001359 0.007192 0.000000 0.000000 0.000000
# 4 0.000000 0.000000 0.000000 0.033458 0.000000 0.000000
# 5 0.000000 0.000000 0.000000 0.000000 0.023651 0.000000
# 6 0.000000 0.000000 0.000000 0.000000 0.000000 0.057090
#
#
# Mechanical properties :
#
#
# Convention : Reuss Voigt Hill
#
# Bulk Modulus (GPa) = 21.29440 82.69593 51.99517
# Shear Modulus (GPa) = 24.59659 38.35414 31.47536
#
# Velocity S-wave (km/s) = 3.47054 4.33376 3.92595
# Velocity P-wave (km/s) = 5.14656 8.09550 6.78322
#
# Compressibility (1/GPa) = 0.04696070
#
# Stress axis : x y z
#
# Youngs Moduli (GPa) = 111.49777 22.70973 139.04684
#
# Poissons Ratio (x) = 0.06405 0.71685
# Poissons Ratio (y) = 0.31449 -0.18898
# Poissons Ratio (z) = 0.57482 -0.03086
#
# Static dielectric constant tensor:
#      x y z
#    x 1.720930 0.000000 0.000000 
#    y 0.000000 1.757680 0.000000 
#    z 0.000000 0.000000 1.692230 
# 
# From -- ./inp_files/32805.got.cif
#   From: 2010.05.17/outbox.cif.g08.bks.cpg/sg59_17_cif.got.tgz:32805.got - 2010.06.03 14:40:33.
