data_PCOD9450995
_publ_section_title
;
Structure prediction by ZEFSAII (Michael W. Deem and Ramdas Pophale) SiO2 
 PCOD9450995
Probable space group: P M M N
;
_chemical_formula_sum "Si O2"
_cell_formula_units_Z 48
_cell_length_a 8.673667
_cell_length_b 25.964925
_cell_length_c 12.063164
_cell_angle_alpha 90.000000
_cell_angle_beta 90.000000
_cell_angle_gamma 90.000000
_cell_volume 2716.758592
_symmetry_space_group_name_H-M "P M M N"
_symmetry_group_IT_number 59
_space_group.IT_coordinate_system_code '2'
_symmetry_cell_setting 'orthorhombic'
loop_
_space_group_symop_operation_xyz
x,y,z
1/2-x,1/2-y,z
1/2+x,-y,-z
-x,1/2+y,-z
-x,-y,-z
1/2+x,1/2+y,-z
1/2-x,y,z
x,1/2-y,z
loop_
_atom_site_type_symbol
_atom_site_label
_atom_site_fract_x
_atom_site_fract_y
_atom_site_fract_z
Si Si1 0.434920 0.441990 0.504753
Si Si2 0.934988 0.810324 0.132983
Si Si3 0.566898 0.096612 0.734112
Si Si4 0.936438 0.906401 0.739447
Si Si5 0.062418 0.308294 0.121855
Si Si6 0.066073 0.002587 0.876389
O O1 0.500000 0.500000 0.500000
O O2 0.250000 0.444563 0.513824
O O3 0.502105 0.413526 0.611575
O O4 0.474887 0.413763 0.389579
O O5 0.750000 0.817903 0.140756
O O6 0.966114 0.750000 0.153778
O O7 0.017816 0.848538 0.216426
O O8 0.981243 0.821264 0.005069
O O9 0.750000 0.091045 0.733081
O O10 0.495700 0.052975 0.813738
O O11 0.750000 0.910017 0.749520
O O12 0.986696 0.852322 0.793132
O O13 0.009410 0.953035 0.808099
O O14 0.250000 0.307239 0.122985
O O15 0.010153 0.250000 0.147141
O O16 0.250000 0.004139 0.879938
O O17 0.000000 0.000000 0.000000
#
# Coordination Sequence:
#
# PCOD9450995 Si02
#       6
#     8   8   8   8   8   8
#     4  11  22  37  57  81 113 155 197 240 288 343
#     4   9  18  35  60  87 115 149 188 232 290 353
#     4  12  24  38  57  82 114 152 196 240 290 346
#     4  10  20  35  57  84 113 145 190 234 281 344
#     4   8  15  31  57  86 113 142 177 225 283 341
#     4  12  24  37  56  82 115 147 183 234 292 350
#
# _framework density 17.668115
#
# number of rings (size 3 to 8) (size 9 to 14) (size 15 to 20)
#    0.000    1.667    1.667    5.500    0.000    2.333 
#    0.000    0.833    0.000    4.500    0.000    0.000 
#    0.000    0.000    0.000    0.000    0.000    0.000 
#
# Total GULP energy -268155.917186 kJ/mol
# GULP energy per Si atom -5586.581608 kJ/mol
# Density = 1.762790 g / cm^3
# Si number density = 17.668115 Si / 1000 Ang^3
#
#
#
# Elastic Constant Matrix: (Units=GPa)
#
#
# Indices 1 2 3 4 5 6 
#
# 1 67.2668 48.1581 69.5263 0.0000 0.0000 0.0000
# 2 48.1581 109.2001 94.6297 0.0000 0.0000 0.0000
# 3 69.5263 94.6297 180.2783 0.0000 0.0000 0.0000
# 4 0.0000 0.0000 0.0000 9.5666 0.0000 0.0000
# 5 0.0000 0.0000 0.0000 0.0000 24.8595 0.0000
# 6 0.0000 0.0000 0.0000 0.0000 0.0000 26.1451
#
#
#
# Elastic Compliance Matrix: (Units=1/GPa)
#
#
# Indices 1 2 3 4 5 6 
#
# 1 0.026200 -0.005133 -0.007410 0.000000 0.000000 0.000000
# 2 -0.005133 0.017804 -0.007366 0.000000 0.000000 0.000000
# 3 -0.007410 -0.007366 0.012271 0.000000 0.000000 0.000000
# 4 0.000000 0.000000 0.000000 0.104530 0.000000 0.000000
# 5 0.000000 0.000000 0.000000 0.000000 0.040226 0.000000
# 6 0.000000 0.000000 0.000000 0.000000 0.000000 0.038248
#
#
# Mechanical properties :
#
#
# Convention : Reuss Voigt Hill
#
# Bulk Modulus (GPa) = 60.76302 86.81925 73.79113
# Shear Modulus (GPa) = 17.56953 21.74300 19.65626
#
# Velocity S-wave (km/s) = 3.15686 3.51185 3.33908
# Velocity P-wave (km/s) = 6.91041 8.10492 7.53138
#
# Compressibility (1/GPa) = 0.01645738
#
# Stress axis : x y z
#
# Youngs Moduli (GPa) = 38.16816 56.16558 81.49198
#
# Poissons Ratio (x) = 0.28831 0.60384
# Poissons Ratio (y) = 0.19593 0.60027
# Poissons Ratio (z) = 0.28282 0.41372
#
# Static dielectric constant tensor:
#      x y z
#    x 1.599260 0.000000 0.000000 
#    y 0.000000 1.586070 0.000000 
#    z 0.000000 0.000000 1.578920 
# 
# From -- ./inp_files/14356.got.cif
#   From: 2010.05.17/outbox.cif.g08.bks.cpg/sg59_8_cif.got.tgz:14356.got - 2010.06.03 14:40:33.
