data_PCOD9450666
_publ_section_title
;
Structure prediction by ZEFSAII (Michael W. Deem and Ramdas Pophale) SiO2 
 PCOD9450666
Probable space group: P M M N
;
_chemical_formula_sum "Si O2"
_cell_formula_units_Z 56
_cell_length_a 14.847077
_cell_length_b 17.457203
_cell_length_c 11.614112
_cell_angle_alpha 90.000000
_cell_angle_beta 90.000000
_cell_angle_gamma 90.000000
_cell_volume 3010.243538
_symmetry_space_group_name_H-M "P M M N"
_symmetry_group_IT_number 59
_space_group.IT_coordinate_system_code '2'
_symmetry_cell_setting 'orthorhombic'
loop_
_space_group_symop_operation_xyz
x,y,z
1/2-x,1/2-y,z
1/2+x,-y,-z
-x,1/2+y,-z
-x,-y,-z
1/2+x,1/2+y,-z
1/2-x,y,z
x,1/2-y,z
loop_
_atom_site_type_symbol
_atom_site_label
_atom_site_fract_x
_atom_site_fract_y
_atom_site_fract_z
Si Si1 0.356922 0.987622 0.708893
Si Si2 0.645692 0.532802 0.029777
Si Si3 0.470557 0.165652 0.079074
Si Si4 0.025846 0.661458 0.663265
Si Si5 0.019584 0.417887 0.555511
Si Si6 0.852812 0.161831 0.677732
Si Si7 0.648003 0.367560 0.946173
O O1 0.250000 0.985189 0.694562
O O2 0.378542 0.001844 0.843405
O O3 0.399771 0.059760 0.640985
O O4 0.398746 0.905713 0.670188
O O5 0.750000 0.557351 0.033112
O O6 0.583061 0.600038 0.986151
O O7 0.638612 0.459466 0.946959
O O8 0.432804 0.250000 0.054595
O O9 0.472894 0.153995 0.216286
O O10 0.572582 0.163606 0.031176
O O11 0.058015 0.750000 0.656499
O O12 0.967412 0.640583 0.550371
O O13 0.931406 0.388182 0.622589
O O14 0.000000 0.500000 0.500000
O O15 0.750000 0.136036 0.651486
O O16 0.861636 0.250000 0.638673
O O17 0.862697 0.160566 0.816061
O O18 0.750000 0.349698 0.985310
#
# Coordination Sequence:
#
# PCOD9450666 Si02
#       7
#     8   8   8   8   8   8   8
#     4  10  21  39  61  88 115 152 199 239 285 342
#     4  10  21  37  59  84 118 155 193 239 282 341
#     4  11  22  35  58  86 118 158 192 233 292 349
#     4  10  22  38  58  85 117 152 191 239 298 349
#     4  10  22  37  57  81 113 153 193 242 283 335
#     4  10  21  37  59  87 116 148 190 240 295 347
#     4  10  20  34  57  88 118 148 183 231 290 351
#
# _framework density 18.603145000000001
#
# number of rings (size 3 to 8) (size 9 to 14) (size 15 to 20)
#    0.000    1.857    1.429    2.143    4.000    3.714 
#    0.000    2.857    0.000    4.286    0.000    0.000 
#    0.000    0.000    0.000    0.000    0.000    0.000 
#
# Total GULP energy -312377.097596 kJ/mol
# GULP energy per Si atom -5578.162457 kJ/mol
# Density = 1.856080 g / cm^3
# Si number density = 18.603145 Si / 1000 Ang^3
#
#
#
# Elastic Constant Matrix: (Units=GPa)
#
#
# Indices 1 2 3 4 5 6 
#
# 1 57.2014 63.8139 36.1385 0.0000 0.0000 0.0000
# 2 63.8139 121.4964 49.3102 0.0000 0.0000 0.0000
# 3 36.1385 49.3102 67.4339 0.0000 0.0000 0.0000
# 4 0.0000 0.0000 0.0000 -15.3775 0.0000 0.0000
# 5 0.0000 0.0000 0.0000 0.0000 18.6830 0.0000
# 6 0.0000 0.0000 0.0000 0.0000 0.0000 1.9152
#
#
#
# Elastic Compliance Matrix: (Units=1/GPa)
#
#
# Indices 1 2 3 4 5 6 
#
# 1 0.046569 -0.020379 -0.010055 0.000000 0.000000 0.000000
# 2 -0.020379 0.020622 -0.004158 0.000000 0.000000 0.000000
# 3 -0.010055 -0.004158 0.023259 0.000000 0.000000 0.000000
# 4 0.000000 0.000000 0.000000 -0.065030 0.000000 0.000000
# 5 0.000000 0.000000 0.000000 0.000000 0.053524 0.000000
# 6 0.000000 0.000000 0.000000 0.000000 0.000000 0.522152
#
#
# Mechanical properties :
#
#
# Convention : Reuss Voigt Hill
#
# Bulk Modulus (GPa) = 47.02494 60.51743 53.77119
# Shear Modulus (GPa) = 7.38150 7.50208 7.44179
#
# Velocity S-wave (km/s) = 1.99411 2.01034 2.00224
# Velocity P-wave (km/s) = 5.53487 6.16360 5.85768
#
# Compressibility (1/GPa) = 0.02126531
#
# Stress axis : x y z
#
# Youngs Moduli (GPa) = 21.47338 48.49192 42.99435
#
# Poissons Ratio (x) = 0.98820 0.43232
# Poissons Ratio (y) = 0.43760 0.17879
# Poissons Ratio (z) = 0.21592 0.20165
#
# Static dielectric constant tensor:
#      x y z
#    x 1.636490 0.000000 0.000000 
#    y 0.000000 1.651220 0.000000 
#    z 0.000000 0.000000 1.665400 
# 
# From -- ./inp_files/16973.got.cif
#   From: 2010.05.17/outbox.cif.g08.bks.cpg/sg59_9_cif.got.tgz:16973.got - 2010.06.03 14:40:33.
