data_PCOD9450041
_publ_section_title
;
Structure prediction by ZEFSAII (Michael W. Deem and Ramdas Pophale) SiO2 
 PCOD9450041
Probable space group: P M M N
;
_chemical_formula_sum "Si O2"
_cell_formula_units_Z 56
_cell_length_a 13.979823
_cell_length_b 9.061878
_cell_length_c 24.192067
_cell_angle_alpha 90.000000
_cell_angle_beta 90.000000
_cell_angle_gamma 90.000000
_cell_volume 3064.734522
_symmetry_space_group_name_H-M "P M M N"
_symmetry_group_IT_number 59
_space_group.IT_coordinate_system_code '2'
_symmetry_cell_setting 'orthorhombic'
loop_
_space_group_symop_operation_xyz
x,y,z
1/2-x,1/2-y,z
1/2+x,-y,-z
-x,1/2+y,-z
-x,-y,-z
1/2+x,1/2+y,-z
1/2-x,y,z
x,1/2-y,z
loop_
_atom_site_type_symbol
_atom_site_label
_atom_site_fract_x
_atom_site_fract_y
_atom_site_fract_z
Si Si1 0.141504 0.926621 0.023000
Si Si2 0.534562 0.073868 0.305750
Si Si3 0.861912 0.425141 0.645663
Si Si4 0.133463 0.079867 0.467984
Si Si5 0.550675 0.926317 0.083765
Si Si6 0.138042 0.572209 0.808303
Si Si7 0.635121 0.575444 0.409279
O O1 0.250000 0.962501 0.039645
O O2 0.136367 0.750000 0.012899
O O3 0.059387 0.962027 0.067600
O O4 0.113465 0.009270 0.966638
O O5 0.529500 0.250000 0.308255
O O6 0.589193 0.031139 0.249764
O O7 0.429388 0.004760 0.310526
O O8 0.590299 0.012971 0.359090
O O9 0.750000 0.461179 0.653077
O O10 0.873386 0.250000 0.648610
O O11 0.891728 0.481480 0.584558
O O12 0.250000 0.082704 0.469615
O O13 0.102204 0.250000 0.459868
O O14 0.103651 0.027122 0.529017
O O15 0.560760 0.750000 0.086052
O O16 0.584770 0.997906 0.140502
O O17 0.250000 0.531049 0.808267
O O18 0.132625 0.750000 0.813783
O O19 0.750000 0.561191 0.406645
O O20 0.612568 0.750000 0.404347
#
# Coordination Sequence:
#
# PCOD9450041 Si02
#       7
#     8   8   8   8   8   8   8
#     4   9  18  34  55  80 115 154 183 214 262 314
#     4  11  23  37  55  77 102 137 180 222 264 316
#     4  10  21  37  56  77 101 131 170 218 270 323
#     4   8  15  30  52  76 102 133 168 208 260 322
#     4  10  20  33  54  85 114 143 185 228 263 305
#     4  10  22  40  58  77 106 143 179 215 260 315
#     4   9  18  33  53  78 108 138 169 213 268 320
#
# _framework density 18.272383000000001
#
# number of rings (size 3 to 8) (size 9 to 14) (size 15 to 20)
#    0.000    2.429    0.000    3.000    0.000    6.857 
#    0.000    2.143    0.000    2.571    0.000    0.000 
#    0.000    0.000    0.000    0.000    0.000    0.000 
#
# Total GULP energy -312652.999171 kJ/mol
# GULP energy per Si atom -5583.089271 kJ/mol
# Density = 1.823079 g / cm^3
# Si number density = 18.272383 Si / 1000 Ang^3
#
#
#
# Elastic Constant Matrix: (Units=GPa)
#
#
# Indices 1 2 3 4 5 6 
#
# 1 129.0807 47.8691 84.5790 0.0000 0.0000 0.0000
# 2 47.8691 44.4361 57.3111 0.0000 0.0000 0.0000
# 3 84.5790 57.3111 141.1195 0.0000 0.0000 0.0000
# 4 0.0000 0.0000 0.0000 33.7263 0.0000 0.0000
# 5 0.0000 0.0000 0.0000 0.0000 24.4128 0.0000
# 6 0.0000 0.0000 0.0000 0.0000 0.0000 27.3069
#
#
#
# Elastic Compliance Matrix: (Units=1/GPa)
#
#
# Indices 1 2 3 4 5 6 
#
# 1 0.014337 -0.009160 -0.004873 0.000000 0.000000 0.000000
# 2 -0.009160 0.053109 -0.016079 0.000000 0.000000 0.000000
# 3 -0.004873 -0.016079 0.016536 0.000000 0.000000 0.000000
# 4 0.000000 0.000000 0.000000 0.029650 0.000000 0.000000
# 5 0.000000 0.000000 0.000000 0.000000 0.040962 0.000000
# 6 0.000000 0.000000 0.000000 0.000000 0.000000 0.036621
#
#
# Mechanical properties :
#
#
# Convention : Reuss Voigt Hill
#
# Bulk Modulus (GPa) = 42.08771 77.12830 59.60800
# Shear Modulus (GPa) = 19.27839 25.41436 22.34637
#
# Velocity S-wave (km/s) = 3.25169 3.73347 3.50088
# Velocity P-wave (km/s) = 6.09766 7.80301 7.00245
#
# Compressibility (1/GPa) = 0.02375990
#
# Stress axis : x y z
#
# Youngs Moduli (GPa) = 69.75064 18.82916 60.47283
#
# Poissons Ratio (x) = 0.17247 0.29466
# Poissons Ratio (y) = 0.63892 0.97232
# Poissons Ratio (z) = 0.33987 0.30275
#
# Static dielectric constant tensor:
#      x y z
#    x 1.668170 0.000000 0.000000 
#    y 0.000000 1.607480 0.000000 
#    z 0.000000 0.000000 1.593380 
# 
# From -- ./inp_files/30386.got.cif
#   From: 2010.05.17/outbox.cif.g08.bks.cpg/sg59_16_cif.got.tgz:30386.got - 2010.06.03 14:40:33.
