data_PCOD9450564
_publ_section_title
;
Structure prediction by ZEFSAII (Michael W. Deem and Ramdas Pophale) SiO2 
 PCOD9450564
Probable space group: P M M N
;
_chemical_formula_sum "Si O2"
_cell_formula_units_Z 48
_cell_length_a 9.326510
_cell_length_b 8.610884
_cell_length_c 31.677399
_cell_angle_alpha 90.000000
_cell_angle_beta 90.000000
_cell_angle_gamma 90.000000
_cell_volume 2543.995940
_symmetry_space_group_name_H-M "P M M N"
_symmetry_group_IT_number 59
_space_group.IT_coordinate_system_code '2'
_symmetry_cell_setting 'orthorhombic'
loop_
_space_group_symop_operation_xyz
x,y,z
1/2-x,1/2-y,z
1/2+x,-y,-z
-x,1/2+y,-z
-x,-y,-z
1/2+x,1/2+y,-z
1/2-x,y,z
x,1/2-y,z
loop_
_atom_site_type_symbol
_atom_site_label
_atom_site_fract_x
_atom_site_fract_y
_atom_site_fract_z
Si Si1 0.916440 0.436322 0.459444
Si Si2 0.080744 0.436912 0.799222
Si Si3 0.915987 0.935646 0.879145
Si Si4 0.084194 0.561795 0.378669
Si Si5 0.584121 0.563849 0.040395
Si Si6 0.085113 0.439045 0.703916
O O1 0.750000 0.485573 0.460566
O O2 0.921047 0.250000 0.460136
O O3 0.000000 0.500000 0.500000
O O4 0.992261 0.497180 0.417256
O O5 0.250000 0.470847 0.805625
O O6 0.064773 0.250000 0.801948
O O7 0.043086 0.486476 0.751357
O O8 0.985877 0.514459 0.834975
O O9 0.750000 0.985886 0.881456
O O10 0.920448 0.750000 0.883119
O O11 0.006379 0.008277 0.917212
O O12 0.250000 0.514993 0.382326
O O13 0.078595 0.750000 0.380056
O O14 0.016500 0.510584 0.334047
O O15 0.750000 0.511879 0.039825
O O16 0.582566 0.750000 0.039011
O O17 0.500000 0.500000 0.000000
O O18 0.250000 0.487277 0.696244
O O19 0.084805 0.250000 0.704214
#
# Coordination Sequence:
#
# PCOD9450564 Si02
#       6
#     8   8   8   8   8   8
#     4  11  24  40  58  81 108 140 180 223 269 324
#     4   9  18  34  57  84 111 142 185 232 276 326
#     4  11  24  39  55  80 114 150 189 230 273 325
#     4  10  20  34  55  84 114 144 181 223 269 324
#     4  11  24  41  62  88 115 144 182 226 272 326
#     4   8  15  30  53  80 110 144 182 225 272 322
#
# _framework density 18.867954999999998
#
# number of rings (size 3 to 8) (size 9 to 14) (size 15 to 20)
#    0.000    2.000    0.000    4.500    0.000   12.000 
#    0.000    2.500    0.000    1.000    0.000    0.000 
#    0.000    0.000    0.000    0.000    0.000    0.000 
#
# Total GULP energy -268165.431879 kJ/mol
# GULP energy per Si atom -5586.779831 kJ/mol
# Density = 1.882501 g / cm^3
# Si number density = 18.867955 Si / 1000 Ang^3
#
#
#
# Elastic Constant Matrix: (Units=GPa)
#
#
# Indices 1 2 3 4 5 6 
#
# 1 181.7283 45.3550 125.7431 0.0000 0.0000 0.0000
# 2 45.3550 25.4580 34.2236 0.0000 0.0000 0.0000
# 3 125.7431 34.2236 181.0692 0.0000 0.0000 0.0000
# 4 0.0000 0.0000 0.0000 31.2476 0.0000 0.0000
# 5 0.0000 0.0000 0.0000 0.0000 42.2709 0.0000
# 6 0.0000 0.0000 0.0000 0.0000 0.0000 27.2176
#
#
#
# Elastic Compliance Matrix: (Units=1/GPa)
#
#
# Indices 1 2 3 4 5 6 
#
# 1 0.014314 -0.016273 -0.006864 0.000000 0.000000 0.000000
# 2 -0.016273 0.071161 -0.002149 0.000000 0.000000 0.000000
# 3 -0.006864 -0.002149 0.010696 0.000000 0.000000 0.000000
# 4 0.000000 0.000000 0.000000 0.032003 0.000000 0.000000
# 5 0.000000 0.000000 0.000000 0.000000 0.023657 0.000000
# 6 0.000000 0.000000 0.000000 0.000000 0.000000 0.036741
#
#
# Mechanical properties :
#
#
# Convention : Reuss Voigt Hill
#
# Bulk Modulus (GPa) = 21.93105 88.76655 55.34880
# Shear Modulus (GPa) = 19.65843 32.34279 26.00061
#
# Velocity S-wave (km/s) = 3.23134 4.14474 3.71621
# Velocity P-wave (km/s) = 5.05675 8.36980 6.91463
#
# Compressibility (1/GPa) = 0.04559745
#
# Stress axis : x y z
#
# Youngs Moduli (GPa) = 69.86290 14.05261 93.49299
#
# Poissons Ratio (x) = 0.22868 0.64178
# Poissons Ratio (y) = 1.13687 0.20095
# Poissons Ratio (z) = 0.47957 0.03020
#
# Static dielectric constant tensor:
#      x y z
#    x 1.637630 0.000000 0.000000 
#    y 0.000000 1.647560 0.000000 
#    z 0.000000 0.000000 1.623890 
# 
# From -- ./inp_files/32794.got.cif
#   From: 2010.05.17/outbox.cif.g08.bks.cpg/sg59_17_cif.got.tgz:32794.got - 2010.06.03 14:40:33.
