data_PCOD9450810
_publ_section_title
;
Structure prediction by ZEFSAII (Michael W. Deem and Ramdas Pophale) SiO2 
 PCOD9450810
Probable space group: P M M N
;
_chemical_formula_sum "Si O2"
_cell_formula_units_Z 56
_cell_length_a 8.004465
_cell_length_b 14.802270
_cell_length_c 22.824108
_cell_angle_alpha 90.000000
_cell_angle_beta 90.000000
_cell_angle_gamma 90.000000
_cell_volume 2704.297367
_symmetry_space_group_name_H-M "P M M N"
_symmetry_group_IT_number 59
_space_group.IT_coordinate_system_code '2'
_symmetry_cell_setting 'orthorhombic'
loop_
_space_group_symop_operation_xyz
x,y,z
1/2-x,1/2-y,z
1/2+x,-y,-z
-x,1/2+y,-z
-x,-y,-z
1/2+x,1/2+y,-z
1/2-x,y,z
x,1/2-y,z
loop_
_atom_site_type_symbol
_atom_site_label
_atom_site_fract_x
_atom_site_fract_y
_atom_site_fract_z
Si Si1 0.051411 0.413680 0.328388
Si Si2 0.454056 0.750000 0.457311
Si Si3 0.952403 0.111672 0.639894
Si Si4 0.448863 0.154809 0.769459
Si Si5 0.553239 0.352819 0.961955
Si Si6 0.949162 0.250000 0.409823
Si Si7 0.553427 0.548770 0.923541
Si Si8 0.948296 0.043471 0.201194
O O1 0.250000 0.417384 0.322187
O O2 0.993743 0.508095 0.356546
O O3 0.004134 0.335347 0.372199
O O4 0.981213 0.407054 0.262589
O O5 0.250000 0.750000 0.459072
O O6 0.505700 0.835855 0.418156
O O7 0.515775 0.750000 0.523684
O O8 0.750000 0.116808 0.642617
O O9 0.020606 0.153814 0.699786
O O10 0.250000 0.153670 0.779863
O O11 0.516890 0.250000 0.793702
O O12 0.517739 0.059322 0.791403
O O13 0.750000 0.347709 0.948302
O O14 0.484676 0.250000 0.952629
O O15 0.487174 0.444097 0.929037
O O16 0.530390 0.385153 0.029295
O O17 0.750000 0.250000 0.413571
O O18 0.750000 0.546186 0.937661
O O19 0.526954 0.581776 0.857597
O O20 0.750000 0.039388 0.192751
#
# Coordination Sequence:
#
# PCOD9450810 Si02
#       8
#     8   4   8   8   8   4   8   8
#     4  10  21  38  58  80 108 141 183 235 279 319
#     4   9  18  33  55  83 111 141 180 219 268 339
#     4   9  17  32  55  79 105 139 176 218 270 328
#     4   9  17  29  47  75 109 141 175 220 272 325
#     4   9  19  37  59  82 113 151 186 224 271 323
#     4  11  23  39  57  77 107 147 184 225 280 335
#     4  10  20  35  56  84 115 145 184 231 273 318
#     4  10  20  35  55  79 110 148 186 223 272 333
#
# _framework density 20.707782000000002
#
# number of rings (size 3 to 8) (size 9 to 14) (size 15 to 20)
#    0.000    2.429    0.714    1.500    0.000    3.143 
#    1.286    1.429    0.000    0.000    0.000    0.000 
#    0.000    0.000    0.000    0.000    0.000    0.000 
#
# Total GULP energy -312305.088213 kJ/mol
# GULP energy per Si atom -5576.876575 kJ/mol
# Density = 2.066065 g / cm^3
# Si number density = 20.707782 Si / 1000 Ang^3
#
#
#
# Elastic Constant Matrix: (Units=GPa)
#
#
# Indices 1 2 3 4 5 6 
#
# 1 21.6233 -0.3524 -7.8906 0.0000 0.0000 0.0000
# 2 -0.3524 61.6015 13.1455 0.0000 0.0000 0.0000
# 3 -7.8906 13.1455 113.8365 0.0000 0.0000 0.0000
# 4 0.0000 0.0000 0.0000 8.7769 0.0000 0.0000
# 5 0.0000 0.0000 0.0000 0.0000 21.1106 0.0000
# 6 0.0000 0.0000 0.0000 0.0000 0.0000 13.7600
#
#
#
# Elastic Compliance Matrix: (Units=1/GPa)
#
#
# Indices 1 2 3 4 5 6 
#
# 1 0.047458 -0.000441 0.003341 0.000000 0.000000 0.000000
# 2 -0.000441 0.016648 -0.001953 0.000000 0.000000 0.000000
# 3 0.003341 -0.001953 0.009242 0.000000 0.000000 0.000000
# 4 0.000000 0.000000 0.000000 0.113936 0.000000 0.000000
# 5 0.000000 0.000000 0.000000 0.000000 0.047370 0.000000
# 6 0.000000 0.000000 0.000000 0.000000 0.000000 0.072675
#
#
# Mechanical properties :
#
#
# Convention : Reuss Voigt Hill
#
# Bulk Modulus (GPa) = 13.29084 22.98515 18.13800
# Shear Modulus (GPa) = 15.12791 21.54008 18.33399
#
# Velocity S-wave (km/s) = 2.70579 3.22870 2.97874
# Velocity P-wave (km/s) = 4.02417 5.00232 4.53967
#
# Compressibility (1/GPa) = 0.07523978
#
# Stress axis : x y z
#
# Youngs Moduli (GPa) = 21.07114 60.06868 108.20628
#
# Poissons Ratio (x) = 0.02651 -0.36147
# Poissons Ratio (y) = 0.00930 0.21133
# Poissons Ratio (z) = -0.07039 0.11731
#
# Static dielectric constant tensor:
#      x y z
#    x 1.734530 0.000000 0.000000 
#    y 0.000000 1.798790 0.000000 
#    z 0.000000 0.000000 1.721070 
# 
# From -- ./inp_files/29241.got.cif
#   From: 2010.05.17/outbox.cif.g08.bks.cpg/sg59_15_cif.got.tgz:29241.got - 2010.06.03 14:40:33.
