data_PCOD9450019
_publ_section_title
;
Structure prediction by ZEFSAII (Michael W. Deem and Ramdas Pophale) SiO2 
 PCOD9450019
Probable space group: P M M N
;
_chemical_formula_sum "Si O2"
_cell_formula_units_Z 48
_cell_length_a 16.913230
_cell_length_b 9.698913
_cell_length_c 15.506658
_cell_angle_alpha 90.000000
_cell_angle_beta 90.000000
_cell_angle_gamma 90.000000
_cell_volume 2543.711346
_symmetry_space_group_name_H-M "P M M N"
_symmetry_group_IT_number 59
_space_group.IT_coordinate_system_code '2'
_symmetry_cell_setting 'orthorhombic'
loop_
_space_group_symop_operation_xyz
x,y,z
1/2-x,1/2-y,z
1/2+x,-y,-z
-x,1/2+y,-z
-x,-y,-z
1/2+x,1/2+y,-z
1/2-x,y,z
x,1/2-y,z
loop_
_atom_site_type_symbol
_atom_site_label
_atom_site_fract_x
_atom_site_fract_y
_atom_site_fract_z
Si Si1 0.154843 0.411015 0.801189
Si Si2 0.922665 0.090417 0.347778
Si Si3 0.389894 0.408023 0.318778
Si Si4 0.841116 0.588753 0.489679
Si Si5 0.846336 0.592513 0.001905
Si Si6 0.654345 0.407245 0.843407
O O1 0.250000 0.423842 0.795802
O O2 0.135859 0.250000 0.783367
O O3 0.115002 0.511010 0.733090
O O4 0.130487 0.441685 0.899968
O O5 0.897281 0.250000 0.350685
O O6 0.016928 0.087281 0.338101
O O7 0.894887 0.009791 0.432738
O O8 0.368094 0.250000 0.295357
O O9 0.347668 0.442704 0.408878
O O10 0.369488 0.509379 0.241475
O O11 0.750000 0.574811 0.461443
O O12 0.864100 0.750000 0.478951
O O13 0.750000 0.591626 0.001345
O O14 0.870661 0.750000 0.982755
O O15 0.873891 0.487875 0.928715
O O16 0.750000 0.404740 0.846584
O O17 0.625706 0.250000 0.841422
#
# Coordination Sequence:
#
# PCOD9450019 Si02
#       6
#     8   8   8   8   8   8
#     4   9  18  34  56  80 106 141 184 222 260 314
#     4  11  23  36  53  80 111 141 174 217 268 315
#     4  10  22  39  56  76 106 145 183 214 254 315
#     4  10  21  38  60  81 101 134 179 220 261 315
#     4   8  15  30  53  78 104 138 179 220 261 309
#     4  10  20  33  53  83 112 137 172 221 272 315
#
# _framework density 18.870066000000001
#
# number of rings (size 3 to 8) (size 9 to 14) (size 15 to 20)
#    0.000    2.333    0.000    3.500    0.000    7.000 
#    0.000    2.500    0.000    0.000    0.000    0.000 
#    0.000    0.000    0.000    0.000    0.000    0.000 
#
# Total GULP energy -268018.306774 kJ/mol
# GULP energy per Si atom -5583.714724 kJ/mol
# Density = 1.882712 g / cm^3
# Si number density = 18.870066 Si / 1000 Ang^3
#
#
#
# Elastic Constant Matrix: (Units=GPa)
#
#
# Indices 1 2 3 4 5 6 
#
# 1 20.9079 22.6099 13.3175 0.0000 0.0000 0.0000
# 2 22.6099 109.5882 79.2519 0.0000 0.0000 0.0000
# 3 13.3175 79.2519 100.5739 0.0000 0.0000 0.0000
# 4 0.0000 0.0000 0.0000 8.9351 0.0000 0.0000
# 5 0.0000 0.0000 0.0000 0.0000 -81.9149 0.0000
# 6 0.0000 0.0000 0.0000 0.0000 0.0000 22.4889
#
#
#
# Elastic Compliance Matrix: (Units=1/GPa)
#
#
# Indices 1 2 3 4 5 6 
#
# 1 0.062382 -0.016034 0.004374 0.000000 0.000000 0.000000
# 2 -0.016034 0.025335 -0.017841 0.000000 0.000000 0.000000
# 3 0.004374 -0.017841 0.023422 0.000000 0.000000 0.000000
# 4 0.000000 0.000000 0.000000 0.111918 0.000000 0.000000
# 5 0.000000 0.000000 0.000000 0.000000 -0.012208 0.000000
# 6 0.000000 0.000000 0.000000 0.000000 0.000000 0.044466
#
#
# Mechanical properties :
#
#
# Convention : Reuss Voigt Hill
#
# Bulk Modulus (GPa) = 19.17975 51.26982 35.22479
# Shear Modulus (GPa) = 15.07399 -2.37214 6.35092
#
# Velocity S-wave (km/s) = 2.82943 -1.12242 1.83655
# Velocity P-wave (km/s) = 4.56732 5.05462 4.81713
#
# Compressibility (1/GPa) = 0.05213833
#
# Stress axis : x y z
#
# Youngs Moduli (GPa) = 16.03036 39.47046 42.69412
#
# Poissons Ratio (x) = 0.63286 -0.18676
# Poissons Ratio (y) = 0.25703 0.76171
# Poissons Ratio (z) = -0.07012 0.70420
#
# Static dielectric constant tensor:
#      x y z
#    x 1.667610 0.000000 0.000000 
#    y 0.000000 1.634880 0.000000 
#    z 0.000000 0.000000 1.636680 
# 
# From -- ./inp_files/20302.got.cif
#   From: 2010.05.17/outbox.cif.g08.bks.cpg/sg59_11_cif.got.tgz:20302.got - 2010.06.03 14:40:33.
