data_PCOD9450129
_publ_section_title
;
Structure prediction by ZEFSAII (Michael W. Deem and Ramdas Pophale) SiO2 
 PCOD9450129
Probable space group: P M M N
;
_chemical_formula_sum "Si O2"
_cell_formula_units_Z 64
_cell_length_a 8.861259
_cell_length_b 23.244213
_cell_length_c 16.603049
_cell_angle_alpha 90.000000
_cell_angle_beta 90.000000
_cell_angle_gamma 90.000000
_cell_volume 3419.779673
_symmetry_space_group_name_H-M "P M M N"
_symmetry_group_IT_number 59
_space_group.IT_coordinate_system_code '2'
_symmetry_cell_setting 'orthorhombic'
loop_
_space_group_symop_operation_xyz
x,y,z
1/2-x,1/2-y,z
1/2+x,-y,-z
-x,1/2+y,-z
-x,-y,-z
1/2+x,1/2+y,-z
1/2-x,y,z
x,1/2-y,z
loop_
_atom_site_type_symbol
_atom_site_label
_atom_site_fract_x
_atom_site_fract_y
_atom_site_fract_z
Si Si1 0.068770 0.817863 0.835113
Si Si2 0.424322 0.318503 0.628622
Si Si3 0.569469 0.410540 0.720171
Si Si4 0.581258 0.318722 0.464511
Si Si5 0.931763 0.995164 0.589206
Si Si6 0.568777 0.463983 0.891327
Si Si7 0.930587 0.910018 0.951294
Si Si8 0.572179 0.622285 0.678218
O O1 0.250000 0.819188 0.836177
O O2 0.022698 0.750000 0.834142
O O3 0.004775 0.854409 0.910287
O O4 0.010359 0.851482 0.755729
O O5 0.250000 0.332479 0.613007
O O6 0.437560 0.250000 0.636834
O O7 0.485062 0.351023 0.706337
O O8 0.524007 0.337063 0.551998
O O9 0.750000 0.402131 0.719245
O O10 0.528335 0.450848 0.644871
O O11 0.529947 0.441661 0.803073
O O12 0.750000 0.341517 0.447694
O O13 0.589423 0.250000 0.465643
O O14 0.464294 0.336320 0.396447
O O15 0.750000 0.992353 0.581161
O O16 0.977866 0.939316 0.641982
O O17 0.000000 0.000000 0.500000
O O18 0.750000 0.459644 0.902414
O O19 0.529956 0.531416 0.901873
O O20 0.489172 0.425922 0.959731
O O21 0.750000 0.903635 0.950733
O O22 0.750000 0.618714 0.696568
#
# Coordination Sequence:
#
# PCOD9450129 Si02
#       8
#     8   8   8   8   8   8   8   8
#     4  11  24  40  58  83 117 156 196 237 285 345
#     4  10  21  36  53  75 104 136 174 223 272 315
#     4  10  20  36  57  79 107 142 180 220 265 323
#     4  10  20  34  52  74 102 139 184 228 269 318
#     4  10  22  37  53  79 114 150 187 231 281 330
#     4   9  19  37  61  88 116 146 181 226 280 337
#     4  10  20  37  62  89 115 144 182 228 279 335
#     4  11  22  36  55  80 111 146 187 233 282 335
#
# _framework density 18.714656000000002
#
# number of rings (size 3 to 8) (size 9 to 14) (size 15 to 20)
#    0.000    1.875    0.000    3.750    0.000   10.500 
#    0.000    1.875    0.000    0.750    0.000    0.000 
#    0.000    0.000    0.000    0.000    0.000    0.000 
#
# Total GULP energy -357287.155417 kJ/mol
# GULP energy per Si atom -5582.611803 kJ/mol
# Density = 1.867206 g / cm^3
# Si number density = 18.714656 Si / 1000 Ang^3
#
#
#
# Elastic Constant Matrix: (Units=GPa)
#
#
# Indices 1 2 3 4 5 6 
#
# 1 34.0229 34.9913 25.0864 0.0000 0.0000 0.0000
# 2 34.9913 84.5256 49.1334 0.0000 0.0000 0.0000
# 3 25.0864 49.1334 84.1331 0.0000 0.0000 0.0000
# 4 0.0000 0.0000 0.0000 27.7783 0.0000 0.0000
# 5 0.0000 0.0000 0.0000 0.0000 29.7323 0.0000
# 6 0.0000 0.0000 0.0000 0.0000 0.0000 23.8711
#
#
#
# Elastic Compliance Matrix: (Units=1/GPa)
#
#
# Indices 1 2 3 4 5 6 
#
# 1 0.052268 -0.019043 -0.004464 0.000000 0.000000 0.000000
# 2 -0.019043 0.024849 -0.008833 0.000000 0.000000 0.000000
# 3 -0.004464 -0.008833 0.018376 0.000000 0.000000 0.000000
# 4 0.000000 0.000000 0.000000 0.035999 0.000000 0.000000
# 5 0.000000 0.000000 0.000000 0.000000 0.033633 0.000000
# 6 0.000000 0.000000 0.000000 0.000000 0.000000 0.041892
#
#
# Mechanical properties :
#
#
# Convention : Reuss Voigt Hill
#
# Bulk Modulus (GPa) = 32.45491 46.78931 39.62211
# Shear Modulus (GPa) = 17.73246 22.50770 20.12008
#
# Velocity S-wave (km/s) = 3.08152 3.47173 3.28243
# Velocity P-wave (km/s) = 5.48093 6.41297 5.96518
#
# Compressibility (1/GPa) = 0.03081198
#
# Stress axis : x y z
#
# Youngs Moduli (GPa) = 19.13200 40.24371 54.41950
#
# Poissons Ratio (x) = 0.76635 0.24295
# Poissons Ratio (y) = 0.36432 0.48071
# Poissons Ratio (z) = 0.08541 0.35549
#
# Static dielectric constant tensor:
#      x y z
#    x 1.661300 0.000000 0.000000 
#    y 0.000000 1.711100 0.000000 
#    z 0.000000 0.000000 1.621500 
# 
# From -- ./inp_files/21556.got.cif
#   From: 2010.05.17/outbox.cif.g08.bks.cpg/sg59_11_cif.got.tgz:21556.got - 2010.06.03 14:40:33.
