data_PCOD9450354
_publ_section_title
;
Structure prediction by ZEFSAII (Michael W. Deem and Ramdas Pophale) SiO2 
 PCOD9450354
Probable space group: P M M N
;
_chemical_formula_sum "Si O2"
_cell_formula_units_Z 56
_cell_length_a 19.339386
_cell_length_b 8.916845
_cell_length_c 18.373118
_cell_angle_alpha 90.000000
_cell_angle_beta 90.000000
_cell_angle_gamma 90.000000
_cell_volume 3168.376354
_symmetry_space_group_name_H-M "P M M N"
_symmetry_group_IT_number 59
_space_group.IT_coordinate_system_code '2'
_symmetry_cell_setting 'orthorhombic'
loop_
_space_group_symop_operation_xyz
x,y,z
1/2-x,1/2-y,z
1/2+x,-y,-z
-x,1/2+y,-z
-x,-y,-z
1/2+x,1/2+y,-z
1/2-x,y,z
x,1/2-y,z
loop_
_atom_site_type_symbol
_atom_site_label
_atom_site_fract_x
_atom_site_fract_y
_atom_site_fract_z
Si Si1 0.831607 0.071982 0.790826
Si Si2 0.830861 0.571125 0.216698
Si Si3 0.427971 0.069643 0.917689
Si Si4 0.168746 0.570822 0.628211
Si Si5 0.169775 0.430330 0.363345
Si Si6 0.423639 0.430435 0.501740
Si Si7 0.579128 0.928835 0.918034
O O1 0.750000 0.040708 0.799942
O O2 0.841801 0.250000 0.788643
O O3 0.852068 0.002029 0.713130
O O4 0.873198 0.002666 0.857450
O O5 0.750000 0.543659 0.201118
O O6 0.839214 0.750000 0.229272
O O7 0.876934 0.528520 0.147589
O O8 0.848890 0.484308 0.290473
O O9 0.438668 0.250000 0.915441
O O10 0.501219 0.988751 0.909061
O O11 0.400040 0.033767 0.998574
O O12 0.250000 0.532234 0.615455
O O13 0.161711 0.750000 0.622978
O O14 0.119859 0.491287 0.570029
O O15 0.250000 0.474308 0.378184
O O16 0.168398 0.250000 0.356436
O O17 0.119644 0.472686 0.429309
O O18 0.500000 0.500000 0.500000
O O19 0.427986 0.250000 0.504839
O O20 0.580699 0.750000 0.910060
#
# Coordination Sequence:
#
# PCOD9450354 Si02
#       7
#     8   8   8   8   8   8   8
#     4  10  21  36  55  80 108 138 174 217 265 316
#     4   9  18  34  56  80 105 136 177 222 266 313
#     4   9  19  35  54  77 106 141 180 221 265 314
#     4  10  21  37  57  81 109 141 177 217 264 319
#     4   9  19  37  59  80 103 135 176 219 263 313
#     4  11  23  38  57  82 111 142 178 220 266 315
#     4  10  20  34  54  78 106 142 180 219 265 317
#
# _framework density 17.674666999999999
#
# number of rings (size 3 to 8) (size 9 to 14) (size 15 to 20)
#    0.000    2.286    0.000    2.143    0.000    6.286 
#    0.000    2.857    0.000    1.714    0.000    0.000 
#    0.000    0.000    0.000    0.000    0.000    0.000 
#
# Total GULP energy -312595.944233 kJ/mol
# GULP energy per Si atom -5582.070433 kJ/mol
# Density = 1.763444 g / cm^3
# Si number density = 17.674667 Si / 1000 Ang^3
#
#
#
# Elastic Constant Matrix: (Units=GPa)
#
#
# Indices 1 2 3 4 5 6 
#
# 1 94.1885 52.1168 110.3814 0.0000 0.0000 0.0000
# 2 52.1168 39.3811 68.3863 0.0000 0.0000 0.0000
# 3 110.3814 68.3863 187.2436 0.0000 0.0000 0.0000
# 4 0.0000 0.0000 0.0000 23.8298 0.0000 0.0000
# 5 0.0000 0.0000 0.0000 0.0000 185.7976 0.0000
# 6 0.0000 0.0000 0.0000 0.0000 0.0000 15.1479
#
#
#
# Elastic Compliance Matrix: (Units=1/GPa)
#
#
# Indices 1 2 3 4 5 6 
#
# 1 0.051421 -0.042132 -0.014925 0.000000 0.000000 0.000000
# 2 -0.042132 0.103943 -0.013126 0.000000 0.000000 0.000000
# 3 -0.014925 -0.013126 0.018933 0.000000 0.000000 0.000000
# 4 0.000000 0.000000 0.000000 0.041964 0.000000 0.000000
# 5 0.000000 0.000000 0.000000 0.000000 0.005382 0.000000
# 6 0.000000 0.000000 0.000000 0.000000 0.000000 0.066016
#
#
# Mechanical properties :
#
#
# Convention : Reuss Voigt Hill
#
# Bulk Modulus (GPa) = 29.47141 86.95358 58.21249
# Shear Modulus (GPa) = 11.38083 50.95030 31.16557
#
# Velocity S-wave (km/s) = 2.54028 5.37488 4.20371
# Velocity P-wave (km/s) = 5.03137 9.37137 7.52121
#
# Compressibility (1/GPa) = 0.03393119
#
# Stress axis : x y z
#
# Youngs Moduli (GPa) = 19.44743 9.62065 52.81794
#
# Poissons Ratio (x) = 0.40534 0.78832
# Poissons Ratio (y) = 0.81936 0.69327
# Poissons Ratio (z) = 0.29026 0.12628
#
# Static dielectric constant tensor:
#      x y z
#    x 1.578270 0.000000 0.000000 
#    y 0.000000 1.589930 0.000000 
#    z 0.000000 0.000000 1.582800 
# 
# From -- ./inp_files/24289.got.cif
#   From: 2010.05.17/outbox.cif.g08.bks.cpg/sg59_13_cif.got.tgz:24289.got - 2010.06.03 14:40:33.
