data_PCOD9450422
_publ_section_title
;
Structure prediction by ZEFSAII (Michael W. Deem and Ramdas Pophale) SiO2 
 PCOD9450422
Probable space group: P M M N
;
_chemical_formula_sum "Si O2"
_cell_formula_units_Z 32
_cell_length_a 7.499561
_cell_length_b 25.816427
_cell_length_c 6.984443
_cell_angle_alpha 90.000000
_cell_angle_beta 90.000000
_cell_angle_gamma 90.000000
_cell_volume 1352.271064
_symmetry_space_group_name_H-M "P M M N"
_symmetry_group_IT_number 59
_space_group.IT_coordinate_system_code '2'
_symmetry_cell_setting 'orthorhombic'
loop_
_space_group_symop_operation_xyz
x,y,z
1/2-x,1/2-y,z
1/2+x,-y,-z
-x,1/2+y,-z
-x,-y,-z
1/2+x,1/2+y,-z
1/2-x,y,z
x,1/2-y,z
loop_
_atom_site_type_symbol
_atom_site_label
_atom_site_fract_x
_atom_site_fract_y
_atom_site_fract_z
Si Si1 0.963994 0.620004 0.381957
Si Si2 0.458798 0.902330 0.821312
Si Si3 0.460066 0.692529 0.062507
Si Si4 0.963048 0.511282 0.275121
O O1 0.750000 0.618109 0.386993
O O2 0.028836 0.570223 0.256427
O O3 0.029494 0.612831 0.597308
O O4 0.021935 0.672352 0.279271
O O5 0.250000 0.906195 0.870238
O O6 0.536288 0.960898 0.835909
O O7 0.539632 0.854446 0.937707
O O8 0.250000 0.695231 0.015886
O O9 0.534724 0.750000 0.034866
O O10 0.750000 0.511478 0.249360
O O11 0.000000 0.500000 0.500000
#
# Coordination Sequence:
#
# PCOD9450422 Si02
#       4
#     8   8   8   8
#     4  10  20  34  54  81 110 137 167 211 267 319
#     4   9  18  35  57  78 104 140 178 216 257 304
#     4  10  22  38  54  74 101 137 182 222 255 302
#     4   8  15  29  50  77 106 134 167 207 256 313
#
# _framework density 23.663893000000002
#
# number of rings (size 3 to 8) (size 9 to 14) (size 15 to 20)
#    0.000    2.750    0.000    0.750    0.000    4.500 
#    0.000    2.500    0.000    0.000    0.000    0.000 
#    0.000    0.000    0.000    0.000    0.000    0.000 
#
# Total GULP energy -178673.635077 kJ/mol
# GULP energy per Si atom -5583.551096 kJ/mol
# Density = 2.361003 g / cm^3
# Si number density = 23.663893 Si / 1000 Ang^3
#
#
#
# Elastic Constant Matrix: (Units=GPa)
#
#
# Indices 1 2 3 4 5 6 
#
# 1 92.6745 8.5825 0.1724 0.0000 0.0000 0.0000
# 2 8.5825 195.7581 44.9054 0.0000 0.0000 0.0000
# 3 0.1724 44.9054 70.2047 0.0000 0.0000 0.0000
# 4 0.0000 0.0000 0.0000 28.4565 0.0000 0.0000
# 5 0.0000 0.0000 0.0000 0.0000 15.6776 0.0000
# 6 0.0000 0.0000 0.0000 0.0000 0.0000 2.7298
#
#
#
# Elastic Compliance Matrix: (Units=1/GPa)
#
#
# Indices 1 2 3 4 5 6 
#
# 1 0.010841 -0.000550 0.000325 0.000000 0.000000 0.000000
# 2 -0.000550 0.006015 -0.003846 0.000000 0.000000 0.000000
# 3 0.000325 -0.003846 0.016703 0.000000 0.000000 0.000000
# 4 0.000000 0.000000 0.000000 0.035141 0.000000 0.000000
# 5 0.000000 0.000000 0.000000 0.000000 0.063785 0.000000
# 6 0.000000 0.000000 0.000000 0.000000 0.000000 0.366332
#
#
# Mechanical properties :
#
#
# Convention : Reuss Voigt Hill
#
# Bulk Modulus (GPa) = 39.34315 51.77312 45.55814
# Shear Modulus (GPa) = 9.70062 29.70457 19.70259
#
# Velocity S-wave (km/s) = 2.02688 3.54682 2.88861
# Velocity P-wave (km/s) = 4.70527 6.22088 5.51538
#
# Compressibility (1/GPa) = 0.02541739
#
# Stress axis : x y z
#
# Youngs Moduli (GPa) = 92.24439 166.26047 59.86882
#
# Poissons Ratio (x) = 0.09142 -0.01946
# Poissons Ratio (y) = 0.05072 0.23025
# Poissons Ratio (z) = -0.02999 0.63941
#
# Static dielectric constant tensor:
#      x y z
#    x 1.855880 0.000000 0.000000 
#    y 0.000000 1.956230 0.000000 
#    z 0.000000 0.000000 1.950290 
# 
# From -- ./inp_files/1370.got.cif
#   From: 2010.05.17/outbox.cif.g08.bks.cpg/sg59_1_cif.got.tgz:1370.got - 2010.06.03 14:40:33.
