data_PCOD9450280
_publ_section_title
;
Structure prediction by ZEFSAII (Michael W. Deem and Ramdas Pophale) SiO2 
 PCOD9450280
Probable space group: P M M N
;
_chemical_formula_sum "Si O2"
_cell_formula_units_Z 40
_cell_length_a 8.404535
_cell_length_b 9.336374
_cell_length_c 26.647095
_cell_angle_alpha 90.000000
_cell_angle_beta 90.000000
_cell_angle_gamma 90.000000
_cell_volume 2090.941108
_symmetry_space_group_name_H-M "P M M N"
_symmetry_group_IT_number 59
_space_group.IT_coordinate_system_code '2'
_symmetry_cell_setting 'orthorhombic'
loop_
_space_group_symop_operation_xyz
x,y,z
1/2-x,1/2-y,z
1/2+x,-y,-z
-x,1/2+y,-z
-x,-y,-z
1/2+x,1/2+y,-z
1/2-x,y,z
x,1/2-y,z
loop_
_atom_site_type_symbol
_atom_site_label
_atom_site_fract_x
_atom_site_fract_y
_atom_site_fract_z
Si Si1 0.440195 0.915796 0.843822
Si Si2 0.057516 0.584632 0.451232
Si Si3 0.944391 0.915257 0.648392
Si Si4 0.559776 0.584467 0.951811
Si Si5 0.057778 0.585485 0.252612
O O1 0.250000 0.915666 0.842483
O O2 0.496372 0.750000 0.838555
O O3 0.495628 0.969823 0.898359
O O4 0.504400 0.009779 0.798368
O O5 0.250000 0.585105 0.451166
O O6 0.003869 0.750000 0.451715
O O7 0.004919 0.502505 0.400866
O O8 0.000000 0.500000 0.500000
O O9 0.750000 0.914946 0.648518
O O10 0.996249 0.750000 0.646940
O O11 0.996689 0.994943 0.699047
O O12 0.750000 0.580451 0.950488
O O13 0.506964 0.750000 0.956051
O O14 0.500000 0.500000 0.000000
O O15 0.250000 0.586622 0.253716
O O16 0.002958 0.750000 0.255295
#
# Coordination Sequence:
#
# PCOD9450280 Si02
#       5
#     8   8   8   8   8
#     4  10  21  37  56  78 106 141 179 219 264 314
#     4  10  20  34  53  78 108 141 178 221 268 319
#     4   9  17  31  53  78 104 137 176 218 265 317
#     4  10  21  37  58  83 110 142 180 221 266 316
#     4  10  20  34  54  80 107 136 173 217 264 315
#
# _framework density 19.130141999999999
#
# number of rings (size 3 to 8) (size 9 to 14) (size 15 to 20)
#    0.000    2.200    0.000    3.000    0.000    8.000 
#    0.000    1.000    0.000    6.000    0.000    0.000 
#    0.000    0.000    0.000    0.000    0.000    0.000 
#
# Total GULP energy -223395.017552 kJ/mol
# GULP energy per Si atom -5584.875439 kJ/mol
# Density = 1.908660 g / cm^3
# Si number density = 19.130142 Si / 1000 Ang^3
#
#
#
# Elastic Constant Matrix: (Units=GPa)
#
#
# Indices 1 2 3 4 5 6 
#
# 1 9.3415 20.2328 21.0155 0.0000 0.0000 0.0000
# 2 20.2328 166.7344 127.6929 0.0000 0.0000 0.0000
# 3 21.0155 127.6929 226.8725 0.0000 0.0000 0.0000
# 4 0.0000 0.0000 0.0000 42.6563 0.0000 0.0000
# 5 0.0000 0.0000 0.0000 0.0000 32.4700 0.0000
# 6 0.0000 0.0000 0.0000 0.0000 0.0000 21.8595
#
#
#
# Elastic Compliance Matrix: (Units=1/GPa)
#
#
# Indices 1 2 3 4 5 6 
#
# 1 0.150372 -0.013322 -0.006431 0.000000 0.000000 0.000000
# 2 -0.013322 0.011722 -0.005363 0.000000 0.000000 0.000000
# 3 -0.006431 -0.005363 0.008022 0.000000 0.000000 0.000000
# 4 0.000000 0.000000 0.000000 0.023443 0.000000 0.000000
# 5 0.000000 0.000000 0.000000 0.000000 0.030798 0.000000
# 6 0.000000 0.000000 0.000000 0.000000 0.000000 0.045747
#
#
# Mechanical properties :
#
#
# Convention : Reuss Voigt Hill
#
# Bulk Modulus (GPa) = 8.34148 82.31453 45.32801
# Shear Modulus (GPa) = 13.87743 34.99763 24.43753
#
# Velocity S-wave (km/s) = 2.69629 4.28185 3.57800
# Velocity P-wave (km/s) = 3.75009 8.21996 6.38870
#
# Compressibility (1/GPa) = 0.11988276
#
# Stress axis : x y z
#
# Youngs Moduli (GPa) = 6.65018 85.31181 124.65416
#
# Poissons Ratio (x) = 1.13654 0.80164
# Poissons Ratio (y) = 0.08859 0.66857
# Poissons Ratio (z) = 0.04277 0.45756
#
# Static dielectric constant tensor:
#      x y z
#    x 1.666480 0.000000 0.000000 
#    y 0.000000 1.658590 0.000000 
#    z 0.000000 0.000000 1.627090 
# 
# From -- ./inp_files/31131.got.cif
#   From: 2010.05.17/outbox.cif.g08.bks.cpg/sg59_16_cif.got.tgz:31131.got - 2010.06.03 14:40:33.
