data_PCOD9450249
_publ_section_title
;
Structure prediction by ZEFSAII (Michael W. Deem and Ramdas Pophale) SiO2 
 PCOD9450249
Probable space group: P M M N
;
_chemical_formula_sum "Si O2"
_cell_formula_units_Z 48
_cell_length_a 9.061335
_cell_length_b 9.285756
_cell_length_c 31.826560
_cell_angle_alpha 90.000000
_cell_angle_beta 90.000000
_cell_angle_gamma 90.000000
_cell_volume 2677.929592
_symmetry_space_group_name_H-M "P M M N"
_symmetry_group_IT_number 59
_space_group.IT_coordinate_system_code '2'
_symmetry_cell_setting 'orthorhombic'
loop_
_space_group_symop_operation_xyz
x,y,z
1/2-x,1/2-y,z
1/2+x,-y,-z
-x,1/2+y,-z
-x,-y,-z
1/2+x,1/2+y,-z
1/2-x,y,z
x,1/2-y,z
loop_
_atom_site_type_symbol
_atom_site_label
_atom_site_fract_x
_atom_site_fract_y
_atom_site_fract_z
Si Si1 0.923823 0.422652 0.039064
Si Si2 0.426612 0.920399 0.292329
Si Si3 0.429747 0.415632 0.376448
Si Si4 0.571745 0.418645 0.539128
Si Si5 0.423651 0.077391 0.126626
Si Si6 0.076206 0.077481 0.795374
O O1 0.750000 0.454916 0.040017
O O2 0.941832 0.250000 0.034826
O O3 0.998182 0.465996 0.083122
O O4 0.000000 0.500000 0.000000
O O5 0.250000 0.939007 0.287138
O O6 0.453288 0.750000 0.299446
O O7 0.506624 0.964481 0.249459
O O8 0.475821 0.009350 0.333048
O O9 0.250000 0.416412 0.376190
O O10 0.478094 0.250000 0.379100
O O11 0.475009 0.505809 0.417339
O O12 0.500000 0.500000 0.500000
O O13 0.750000 0.429124 0.536317
O O14 0.532639 0.250000 0.539123
O O15 0.250000 0.045046 0.124433
O O16 0.441060 0.250000 0.130988
O O17 0.496186 0.000435 0.166307
O O18 0.250000 0.045860 0.796032
O O19 0.056632 0.250000 0.799487
#
# Coordination Sequence:
#
# PCOD9450249 Si02
#       6
#     8   8   8   8   8   8
#     4  10  21  37  57  81 109 142 179 219 265 316
#     4   9  17  31  51  73  98 130 169 213 259 307
#     4   9  17  30  50  75 101 131 171 217 262 310
#     4  10  20  34  53  77 105 138 176 217 262 313
#     4  10  21  37  57  80 106 138 177 220 265 313
#     4  10  21  36  54  78 108 141 176 214 259 312
#
# _framework density 17.924295000000001
#
# number of rings (size 3 to 8) (size 9 to 14) (size 15 to 20)
#    0.000    2.333    0.000    2.500    0.000    7.333 
#    0.000    2.500    0.000    3.000    0.000    0.000 
#    0.000    0.000    0.000    0.000    0.000    0.000 
#
# Total GULP energy -267967.600164 kJ/mol
# GULP energy per Si atom -5582.658337 kJ/mol
# Density = 1.788350 g / cm^3
# Si number density = 17.924295 Si / 1000 Ang^3
#
#
#
# Elastic Constant Matrix: (Units=GPa)
#
#
# Indices 1 2 3 4 5 6 
#
# 1 71.3199 60.0077 89.7069 0.0000 0.0000 0.0000
# 2 60.0077 89.5904 103.4662 0.0000 0.0000 0.0000
# 3 89.7069 103.4662 229.9827 0.0000 0.0000 0.0000
# 4 0.0000 0.0000 0.0000 42.3926 0.0000 0.0000
# 5 0.0000 0.0000 0.0000 0.0000 35.1691 0.0000
# 6 0.0000 0.0000 0.0000 0.0000 0.0000 23.6630
#
#
#
# Elastic Compliance Matrix: (Units=1/GPa)
#
#
# Indices 1 2 3 4 5 6 
#
# 1 0.036552 -0.016687 -0.006750 0.000000 0.000000 0.000000
# 2 -0.016687 0.030851 -0.007371 0.000000 0.000000 0.000000
# 3 -0.006750 -0.007371 0.010297 0.000000 0.000000 0.000000
# 4 0.000000 0.000000 0.000000 0.023589 0.000000 0.000000
# 5 0.000000 0.000000 0.000000 0.000000 0.028434 0.000000
# 6 0.000000 0.000000 0.000000 0.000000 0.000000 0.042260
#
#
# Mechanical properties :
#
#
# Convention : Reuss Voigt Hill
#
# Bulk Modulus (GPa) = 62.17103 99.69496 80.93299
# Shear Modulus (GPa) = 20.92403 29.42574 25.17489
#
# Velocity S-wave (km/s) = 3.42037 4.05615 3.75175
# Velocity P-wave (km/s) = 7.09642 8.81347 8.00114
#
# Compressibility (1/GPa) = 0.01608466
#
# Stress axis : x y z
#
# Youngs Moduli (GPa) = 27.35838 32.41401 97.11496
#
# Poissons Ratio (x) = 0.54088 0.65555
# Poissons Ratio (y) = 0.45652 0.71579
# Poissons Ratio (z) = 0.18468 0.23891
#
# Static dielectric constant tensor:
#      x y z
#    x 1.600720 0.000000 0.000000 
#    y 0.000000 1.601820 0.000000 
#    z 0.000000 0.000000 1.576760 
# 
# From -- ./inp_files/32813.got.cif
#   From: 2010.05.17/outbox.cif.g08.bks.cpg/sg59_17_cif.got.tgz:32813.got - 2010.06.03 14:40:33.
