data_PCOD9450450
_publ_section_title
;
Structure prediction by ZEFSAII (Michael W. Deem and Ramdas Pophale) SiO2 
 PCOD9450450
Probable space group: P M M N
;
_chemical_formula_sum "Si O2"
_cell_formula_units_Z 56
_cell_length_a 21.455582
_cell_length_b 8.809327
_cell_length_c 16.329572
_cell_angle_alpha 90.000000
_cell_angle_beta 90.000000
_cell_angle_gamma 90.000000
_cell_volume 3086.439958
_symmetry_space_group_name_H-M "P M M N"
_symmetry_group_IT_number 59
_space_group.IT_coordinate_system_code '2'
_symmetry_cell_setting 'orthorhombic'
loop_
_space_group_symop_operation_xyz
x,y,z
1/2-x,1/2-y,z
1/2+x,-y,-z
-x,1/2+y,-z
-x,-y,-z
1/2+x,1/2+y,-z
1/2-x,y,z
x,1/2-y,z
loop_
_atom_site_type_symbol
_atom_site_label
_atom_site_fract_x
_atom_site_fract_y
_atom_site_fract_z
Si Si1 0.994338 0.068994 0.910368
Si Si2 0.632739 0.431096 0.523474
Si Si3 0.380638 0.070352 0.186413
Si Si4 0.250000 0.070128 0.384358
Si Si5 0.677217 0.431282 0.341166
Si Si6 0.250000 0.929680 0.206017
Si Si7 0.455730 0.070098 0.351915
Si Si8 0.931702 0.931500 0.248524
O O1 0.995288 0.250000 0.916262
O O2 0.046674 0.023246 0.843121
O O3 0.930400 0.012790 0.870014
O O4 0.000000 0.000000 0.000000
O O5 0.639852 0.250000 0.536960
O O6 0.689107 0.522014 0.565571
O O7 0.641874 0.459724 0.427211
O O8 0.569752 0.488062 0.567005
O O9 0.381790 0.250000 0.171794
O O10 0.403562 0.046952 0.280433
O O11 0.312762 0.003307 0.172041
O O12 0.250000 0.250000 0.366523
O O13 0.250000 0.974943 0.301385
O O14 0.750000 0.477420 0.346625
O O15 0.676088 0.250000 0.327830
O O16 0.636871 0.513212 0.272131
O O17 0.250000 0.750000 0.195707
O O18 0.462590 0.250000 0.366103
O O19 0.518654 0.004550 0.312035
O O20 0.936345 0.750000 0.254984
#
# Coordination Sequence:
#
# PCOD9450450 Si02
#       8
#     8   8   8   4   8   4   8   8
#     4  10  21  39  64  91 116 143 183 229 283 348
#     4  11  21  35  54  78 111 152 198 246 285 327
#     4  10  20  34  54  83 117 151 189 230 278 337
#     4  12  22  32  48  76 111 152 199 240 280 332
#     4  10  22  40  59  81 110 150 197 242 288 337
#     4  12  22  32  52  80 117 158 191 232 282 336
#     4  10  20  34  54  81 114 151 192 236 284 339
#     4  10  22  39  60  87 115 146 185 233 289 345
#
# _framework density 18.143882000000001
#
# number of rings (size 3 to 8) (size 9 to 14) (size 15 to 20)
#    0.000    1.571    2.143    3.429    0.000    4.857 
#    0.000    0.000    1.571    0.000    0.000    0.000 
#    0.000    0.000    0.000    0.000    0.000    0.000 
#
# Total GULP energy -312809.865194 kJ/mol
# GULP energy per Si atom -5585.890450 kJ/mol
# Density = 1.810259 g / cm^3
# Si number density = 18.143882 Si / 1000 Ang^3
#
#
#
# Elastic Constant Matrix: (Units=GPa)
#
#
# Indices 1 2 3 4 5 6 
#
# 1 81.1113 34.3061 59.0007 0.0000 0.0000 0.0000
# 2 34.3061 47.3975 34.1532 0.0000 0.0000 0.0000
# 3 59.0007 34.1532 90.6156 0.0000 0.0000 0.0000
# 4 0.0000 0.0000 0.0000 27.1210 0.0000 0.0000
# 5 0.0000 0.0000 0.0000 0.0000 54.1186 0.0000
# 6 0.0000 0.0000 0.0000 0.0000 0.0000 34.1838
#
#
#
# Elastic Compliance Matrix: (Units=1/GPa)
#
#
# Indices 1 2 3 4 5 6 
#
# 1 0.025990 -0.009085 -0.013498 0.000000 0.000000 0.000000
# 2 -0.009085 0.032140 -0.006198 0.000000 0.000000 0.000000
# 3 -0.013498 -0.006198 0.022160 0.000000 0.000000 0.000000
# 4 0.000000 0.000000 0.000000 0.036872 0.000000 0.000000
# 5 0.000000 0.000000 0.000000 0.000000 0.018478 0.000000
# 6 0.000000 0.000000 0.000000 0.000000 0.000000 0.029254
#
#
# Mechanical properties :
#
#
# Convention : Reuss Voigt Hill
#
# Bulk Modulus (GPa) = 43.99923 52.67158 48.33540
# Shear Modulus (GPa) = 21.73607 29.19566 25.46586
#
# Velocity S-wave (km/s) = 3.46494 4.01573 3.75046
# Velocity P-wave (km/s) = 6.34906 7.11298 6.74185
#
# Compressibility (1/GPa) = 0.02272767
#
# Stress axis : x y z
#
# Youngs Moduli (GPa) = 38.47673 31.11366 45.12537
#
# Poissons Ratio (x) = 0.28267 0.60910
# Poissons Ratio (y) = 0.34956 0.27970
# Poissons Ratio (z) = 0.51936 0.19285
#
# Static dielectric constant tensor:
#      x y z
#    x 1.624880 0.000000 0.000000 
#    y 0.000000 1.599260 0.000000 
#    z 0.000000 0.000000 1.637580 
# 
# From -- ./inp_files/24365.got.cif
#   From: 2010.05.17/outbox.cif.g08.bks.cpg/sg59_13_cif.got.tgz:24365.got - 2010.06.03 14:40:33.
