data_PCOD9450795
_publ_section_title
;
Structure prediction by ZEFSAII (Michael W. Deem and Ramdas Pophale) SiO2 
 PCOD9450795
Probable space group: P M M N
;
_chemical_formula_sum "Si O2"
_cell_formula_units_Z 32
_cell_length_a 12.872355
_cell_length_b 16.397607
_cell_length_c 6.316570
_cell_angle_alpha 90.000000
_cell_angle_beta 90.000000
_cell_angle_gamma 90.000000
_cell_volume 1333.275183
_symmetry_space_group_name_H-M "P M M N"
_symmetry_group_IT_number 59
_space_group.IT_coordinate_system_code '2'
_symmetry_cell_setting 'orthorhombic'
loop_
_space_group_symop_operation_xyz
x,y,z
1/2-x,1/2-y,z
1/2+x,-y,-z
-x,1/2+y,-z
-x,-y,-z
1/2+x,1/2+y,-z
1/2-x,y,z
x,1/2-y,z
loop_
_atom_site_type_symbol
_atom_site_label
_atom_site_fract_x
_atom_site_fract_y
_atom_site_fract_z
Si Si1 0.085690 0.341093 0.299099
Si Si2 0.908420 0.013702 0.799775
Si Si3 0.362761 0.660206 0.893657
Si Si4 0.866112 0.542610 0.350053
O O1 0.122739 0.250000 0.251025
O O2 0.123918 0.418768 0.160868
O O3 0.114298 0.369934 0.535937
O O4 0.961908 0.342571 0.259453
O O5 0.867756 0.087853 0.936594
O O6 0.034132 0.022207 0.790611
O O7 0.874465 0.018220 0.552680
O O8 0.250000 0.655238 0.786378
O O9 0.369245 0.750000 0.998079
O O10 0.750000 0.538247 0.263200
#
# Coordination Sequence:
#
# PCOD9450795 Si02
#       4
#     8   8   8   8
#     4   9  19  35  54  79 107 136 178 219 259 314
#     4   9  19  36  53  79 108 137 174 218 258 310
#     4  10  20  35  55  78 107 141 176 220 267 307
#     4   9  19  35  54  76 105 137 174 214 262 310
#
# _framework density 24.001048999999998
#
# number of rings (size 3 to 8) (size 9 to 14) (size 15 to 20)
#    1.500    1.250    0.000    1.500    0.000    2.500 
#    0.000    1.250    0.000    1.500    0.000    0.000 
#    0.000    0.000    0.000    0.000    0.000    0.000 
#
# Total GULP energy -178273.181630 kJ/mol
# GULP energy per Si atom -5571.036926 kJ/mol
# Density = 2.394642 g / cm^3
# Si number density = 24.001049 Si / 1000 Ang^3
#
#
#
# Elastic Constant Matrix: (Units=GPa)
#
#
# Indices 1 2 3 4 5 6 
#
# 1 184.1725 40.3034 27.5362 0.0000 0.0000 0.0000
# 2 40.3034 220.7682 46.9144 0.0000 0.0000 0.0000
# 3 27.5362 46.9144 39.3961 0.0000 0.0000 0.0000
# 4 0.0000 0.0000 0.0000 32.4600 0.0000 0.0000
# 5 0.0000 0.0000 0.0000 0.0000 7.2625 0.0000
# 6 0.0000 0.0000 0.0000 0.0000 0.0000 16.5675
#
#
#
# Elastic Compliance Matrix: (Units=1/GPa)
#
#
# Indices 1 2 3 4 5 6 
#
# 1 0.006076 -0.000277 -0.003917 0.000000 0.000000 0.000000
# 2 -0.000277 0.006077 -0.007043 0.000000 0.000000 0.000000
# 3 -0.003917 -0.007043 0.036508 0.000000 0.000000 0.000000
# 4 0.000000 0.000000 0.000000 0.030807 0.000000 0.000000
# 5 0.000000 0.000000 0.000000 0.000000 0.137694 0.000000
# 6 0.000000 0.000000 0.000000 0.000000 0.000000 0.060359
#
#
# Mechanical properties :
#
#
# Convention : Reuss Voigt Hill
#
# Bulk Modulus (GPa) = 38.18693 74.87168 56.52930
# Shear Modulus (GPa) = 16.19566 33.23019 24.71293
#
# Velocity S-wave (km/s) = 2.60049 3.72497 3.21231
# Velocity P-wave (km/s) = 4.99618 7.05432 6.11249
#
# Compressibility (1/GPa) = 0.02618697
#
# Stress axis : x y z
#
# Youngs Moduli (GPa) = 164.58357 164.55850 27.39097
#
# Poissons Ratio (x) = 0.04555 0.10730
# Poissons Ratio (y) = 0.04556 0.19292
# Poissons Ratio (z) = 0.64471 1.15900
#
# Static dielectric constant tensor:
#      x y z
#    x 1.930680 0.000000 0.000000 
#    y 0.000000 1.944270 0.000000 
#    z 0.000000 0.000000 1.991070 
# 
# From -- ./inp_files/15417.got.cif
#   From: 2010.05.17/outbox.cif.g08.bks.cpg/sg59_8_cif.got.tgz:15417.got - 2010.06.03 14:40:33.
