data_PCOD9450742
_publ_section_title
;
Structure prediction by ZEFSAII (Michael W. Deem and Ramdas Pophale) SiO2 
 PCOD9450742
Probable space group: P M M N
;
_chemical_formula_sum "Si O2"
_cell_formula_units_Z 64
_cell_length_a 24.228761
_cell_length_b 7.546508
_cell_length_c 15.310340
_cell_angle_alpha 90.000000
_cell_angle_beta 90.000000
_cell_angle_gamma 90.000000
_cell_volume 2799.381434
_symmetry_space_group_name_H-M "P M M N"
_symmetry_group_IT_number 59
_space_group.IT_coordinate_system_code '2'
_symmetry_cell_setting 'orthorhombic'
loop_
_space_group_symop_operation_xyz
x,y,z
1/2-x,1/2-y,z
1/2+x,-y,-z
-x,1/2+y,-z
-x,-y,-z
1/2+x,1/2+y,-z
1/2-x,y,z
x,1/2-y,z
loop_
_atom_site_type_symbol
_atom_site_label
_atom_site_fract_x
_atom_site_fract_y
_atom_site_fract_z
Si Si1 0.311262 0.462940 0.991527
Si Si2 0.867422 0.544104 0.550642
Si Si3 0.809676 0.464188 0.717478
Si Si4 0.186289 0.466529 0.627124
Si Si5 0.603196 0.038350 0.856998
Si Si6 0.012317 0.032269 0.788835
Si Si7 0.636399 0.533671 0.187603
Si Si8 0.515041 0.054718 0.597902
O O1 0.250000 0.528785 0.017710
O O2 0.308275 0.250000 0.989039
O O3 0.361346 0.505639 0.056480
O O4 0.327348 0.524995 0.894468
O O5 0.883382 0.750000 0.542630
O O6 0.817902 0.526669 0.618771
O O7 0.849800 0.475732 0.455948
O O8 0.918799 0.447089 0.595005
O O9 0.750000 0.520329 0.751928
O O10 0.811131 0.250000 0.717485
O O11 0.858951 0.531637 0.777895
O O12 0.250000 0.521724 0.618958
O O13 0.185919 0.250000 0.625055
O O14 0.160715 0.522759 0.719184
O O15 0.600241 0.250000 0.846855
O O16 0.540449 0.973597 0.845893
O O17 0.011683 0.250000 0.788613
O O18 0.003948 0.967622 0.688398
O O19 0.072618 0.978705 0.821192
O O20 0.637443 0.750000 0.188058
O O21 0.491078 0.250000 0.605214
O O22 0.500000 0.000000 0.500000
#
# Coordination Sequence:
#
# PCOD9450742 Si02
#       8
#     8   8   8   8   8   8   8   8
#     4  10  21  36  56  85 114 138 174 229 287 334
#     4  11  21  33  52  81 113 146 187 234 284 333
#     4  10  20  35  54  76 106 147 189 227 274 334
#     4   9  17  30  50  78 111 146 187 231 275 332
#     4  10  20  37  58  79 107 148 189 224 269 334
#     4   9  18  34  56  80 109 144 187 230 271 331
#     4   9  17  32  55  80 107 142 181 226 282 337
#     4  11  21  36  56  80 112 150 193 236 276 330
#
# _framework density 22.862192
#
# number of rings (size 3 to 8) (size 9 to 14) (size 15 to 20)
#    0.000    2.125    1.250    2.625    0.000    6.000 
#    0.000    0.000    0.000    4.500    0.000    0.000 
#    0.000    0.000    0.000    0.000    0.000    0.000 
#
# Total GULP energy -357434.704999 kJ/mol
# GULP energy per Si atom -5584.917266 kJ/mol
# Density = 2.281016 g / cm^3
# Si number density = 22.862192 Si / 1000 Ang^3
#
#
#
# Elastic Constant Matrix: (Units=GPa)
#
#
# Indices 1 2 3 4 5 6 
#
# 1 80.8789 -3.7080 3.2626 0.0000 0.0000 0.0000
# 2 -3.7080 52.8565 -9.3036 0.0000 0.0000 0.0000
# 3 3.2626 -9.3036 89.9139 0.0000 0.0000 0.0000
# 4 0.0000 0.0000 0.0000 16.8181 0.0000 0.0000
# 5 0.0000 0.0000 0.0000 0.0000 36.0526 0.0000
# 6 0.0000 0.0000 0.0000 0.0000 0.0000 149.8671
#
#
#
# Elastic Compliance Matrix: (Units=1/GPa)
#
#
# Indices 1 2 3 4 5 6 
#
# 1 0.012416 0.000806 -0.000367 0.000000 0.000000 0.000000
# 2 0.000806 0.019323 0.001970 0.000000 0.000000 0.000000
# 3 -0.000367 0.001970 0.011339 0.000000 0.000000 0.000000
# 4 0.000000 0.000000 0.000000 0.059460 0.000000 0.000000
# 5 0.000000 0.000000 0.000000 0.000000 0.027737 0.000000
# 6 0.000000 0.000000 0.000000 0.000000 0.000000 0.006673
#
#
# Mechanical properties :
#
#
# Convention : Reuss Voigt Hill
#
# Bulk Modulus (GPa) = 20.87850 22.68347 21.78099
# Shear Modulus (GPa) = 33.76249 56.10746 44.93497
#
# Velocity S-wave (km/s) = 3.84706 4.95932 4.43817
# Velocity P-wave (km/s) = 5.37451 6.53732 5.98422
#
# Compressibility (1/GPa) = 0.04789616
#
# Stress axis : x y z
#
# Youngs Moduli (GPa) = 80.54159 51.75312 88.19182
#
# Poissons Ratio (x) = -0.04173 0.03237
# Poissons Ratio (y) = -0.06495 -0.17375
# Poissons Ratio (z) = 0.02957 -0.10196
#
# Static dielectric constant tensor:
#      x y z
#    x 1.888690 0.000000 0.000000 
#    y 0.000000 1.908600 0.000000 
#    z 0.000000 0.000000 1.840140 
# 
# From -- ./inp_files/21515.got.cif
#   From: 2010.05.17/outbox.cif.g08.bks.cpg/sg59_11_cif.got.tgz:21515.got - 2010.06.03 14:40:33.
