data_PCOD9450185
_publ_section_title
;
Structure prediction by ZEFSAII (Michael W. Deem and Ramdas Pophale) SiO2 
 PCOD9450185
Probable space group: P M M N
;
_chemical_formula_sum "Si O2"
_cell_formula_units_Z 64
_cell_length_a 15.381812
_cell_length_b 9.535699
_cell_length_c 21.105049
_cell_angle_alpha 90.000000
_cell_angle_beta 90.000000
_cell_angle_gamma 90.000000
_cell_volume 3095.611117
_symmetry_space_group_name_H-M "P M M N"
_symmetry_group_IT_number 59
_space_group.IT_coordinate_system_code '2'
_symmetry_cell_setting 'orthorhombic'
loop_
_space_group_symop_operation_xyz
x,y,z
1/2-x,1/2-y,z
1/2+x,-y,-z
-x,1/2+y,-z
-x,-y,-z
1/2+x,1/2+y,-z
1/2-x,y,z
x,1/2-y,z
loop_
_atom_site_type_symbol
_atom_site_label
_atom_site_fract_x
_atom_site_fract_y
_atom_site_fract_z
Si Si1 0.648813 0.910194 0.008202
Si Si2 0.382356 0.409477 0.135794
Si Si3 0.353847 0.409813 0.618507
Si Si4 0.605575 0.409487 0.747042
Si Si5 0.409849 0.591696 0.876738
Si Si6 0.643368 0.411198 0.500641
Si Si7 0.896998 0.909487 0.240510
Si Si8 0.145028 0.089311 0.377304
O O1 0.750000 0.907182 0.025798
O O2 0.614188 0.750000 0.011718
O O3 0.602651 0.010645 0.057589
O O4 0.642767 0.954647 0.934966
O O5 0.350442 0.250000 0.146119
O O6 0.355440 0.513454 0.191515
O O7 0.487025 0.402455 0.135912
O O8 0.250000 0.400478 0.610283
O O9 0.389147 0.250000 0.613091
O O10 0.386171 0.512386 0.563719
O O11 0.370339 0.460805 0.689860
O O12 0.637084 0.250000 0.738592
O O13 0.501756 0.402871 0.758090
O O14 0.621212 0.503482 0.685402
O O15 0.376128 0.750000 0.880370
O O16 0.369846 0.505440 0.818163
O O17 0.750000 0.409330 0.500511
O O18 0.614613 0.250000 0.504822
O O19 0.615785 0.503544 0.560838
O O20 0.863913 0.750000 0.232823
O O21 0.250000 0.095280 0.380185
O O22 0.112861 0.250000 0.376040
#
# Coordination Sequence:
#
# PCOD9450185 Si02
#       8
#     8   8   8   8   8   8   8   8
#     4  10  21  36  54  76 103 134 168 209 255 304
#     4   9  19  36  55  75 101 136 175 208 247 305
#     4   9  17  31  52  75  99 131 171 210 248 296
#     4  10  20  34  53  77 105 135 169 212 257 300
#     4  10  20  34  54  77 102 134 171 212 254 300
#     4   9  17  30  49  74 103 132 165 208 256 304
#     4   9  19  35  53  75 105 139 173 208 249 302
#     4  10  20  34  53  75 100 133 172 212 254 305
#
# _framework density 20.674430999999998
#
# number of rings (size 3 to 8) (size 9 to 14) (size 15 to 20)
#    0.000    2.500    0.000    1.875    0.000    5.500 
#    0.000    3.125    0.000    0.000    0.000    0.000 
#    0.000    0.000    0.000    0.000    0.000    0.000 
#
# Total GULP energy -357345.469401 kJ/mol
# GULP energy per Si atom -5583.522959 kJ/mol
# Density = 2.062738 g / cm^3
# Si number density = 20.674431 Si / 1000 Ang^3
#
#
#
# Elastic Constant Matrix: (Units=GPa)
#
#
# Indices 1 2 3 4 5 6 
#
# 1 20.1070 7.4934 -0.4545 0.0000 0.0000 0.0000
# 2 7.4934 153.0657 115.3150 0.0000 0.0000 0.0000
# 3 -0.4545 115.3150 166.1295 0.0000 0.0000 0.0000
# 4 0.0000 0.0000 0.0000 19.2195 0.0000 0.0000
# 5 0.0000 0.0000 0.0000 0.0000 25.9903 0.0000
# 6 0.0000 0.0000 0.0000 0.0000 0.0000 -7.4480
#
#
#
# Elastic Compliance Matrix: (Units=1/GPa)
#
#
# Indices 1 2 3 4 5 6 
#
# 1 0.051892 -0.005549 0.003994 0.000000 0.000000 0.000000
# 2 -0.005549 0.014288 -0.009933 0.000000 0.000000 0.000000
# 3 0.003994 -0.009933 0.012925 0.000000 0.000000 0.000000
# 4 0.000000 0.000000 0.000000 0.052030 0.000000 0.000000
# 5 0.000000 0.000000 0.000000 0.000000 0.038476 0.000000
# 6 0.000000 0.000000 0.000000 0.000000 0.000000 -0.134265
#
#
# Mechanical properties :
#
#
# Convention : Reuss Voigt Hill
#
# Bulk Modulus (GPa) = 17.81623 64.89003 41.35313
# Shear Modulus (GPa) = 64.90791 22.01558 43.46174
#
# Velocity S-wave (km/s) = 5.60923 3.26677 4.58995
# Velocity P-wave (km/s) = 7.11249 6.75898 6.93799
#
# Compressibility (1/GPa) = 0.05612859
#
# Stress axis : x y z
#
# Youngs Moduli (GPa) = 19.27073 69.98949 77.36987
#
# Poissons Ratio (x) = 0.38839 -0.30900
# Poissons Ratio (y) = 0.10694 0.76850
# Poissons Ratio (z) = -0.07696 0.69519
#
# Static dielectric constant tensor:
#      x y z
#    x 1.772590 0.000000 0.000000 
#    y 0.000000 1.731350 0.000000 
#    z 0.000000 0.000000 1.704080 
# 
# From -- ./inp_files/28255.got.cif
#   From: 2010.05.17/outbox.cif.g08.bks.cpg/sg59_15_cif.got.tgz:28255.got - 2010.06.03 14:40:33.
