data_PCOD9450670
_publ_section_title
;
Structure prediction by ZEFSAII (Michael W. Deem and Ramdas Pophale) SiO2 
 PCOD9450670
Probable space group: P M M N
;
_chemical_formula_sum "Si O2"
_cell_formula_units_Z 48
_cell_length_a 28.673052
_cell_length_b 8.706235
_cell_length_c 10.496695
_cell_angle_alpha 90.000000
_cell_angle_beta 90.000000
_cell_angle_gamma 90.000000
_cell_volume 2620.335412
_symmetry_space_group_name_H-M "P M M N"
_symmetry_group_IT_number 59
_space_group.IT_coordinate_system_code '2'
_symmetry_cell_setting 'orthorhombic'
loop_
_space_group_symop_operation_xyz
x,y,z
1/2-x,1/2-y,z
1/2+x,-y,-z
-x,1/2+y,-z
-x,-y,-z
1/2+x,1/2+y,-z
1/2-x,y,z
x,1/2-y,z
loop_
_atom_site_type_symbol
_atom_site_label
_atom_site_fract_x
_atom_site_fract_y
_atom_site_fract_z
Si Si1 0.303138 0.567203 0.884810
Si Si2 0.448870 0.065957 0.734446
Si Si3 0.606492 0.565530 0.007664
Si Si4 0.947447 0.565811 0.750510
Si Si5 0.196170 0.067034 0.602151
Si Si6 0.894759 0.432329 0.508459
O O1 0.250000 0.531871 0.925384
O O2 0.306864 0.750000 0.866545
O O3 0.342880 0.509998 0.979618
O O4 0.310898 0.486198 0.748266
O O5 0.446383 0.250000 0.718934
O O6 0.422740 0.024235 0.865794
O O7 0.502138 0.012317 0.741427
O O8 0.423331 0.987183 0.615790
O O9 0.611909 0.750000 0.006810
O O10 0.578395 0.521076 0.881433
O O11 0.953225 0.750000 0.749452
O O12 0.916665 0.513773 0.630989
O O13 0.250000 0.032487 0.569227
O O14 0.189048 0.250000 0.595148
O O15 0.158421 0.982898 0.515779
O O16 0.898376 0.250000 0.521695
#
# Coordination Sequence:
#
# PCOD9450670 Si02
#       6
#     8   8   8   8   8   8
#     4  10  20  34  57  89 120 151 191 238 286 340
#     4  11  22  39  62  88 116 152 198 245 292 346
#     4  10  22  39  61  87 117 155 197 239 291 347
#     4  11  24  41  59  84 119 158 198 243 293 347
#     4  10  20  36  60  88 117 150 191 240 290 343
#     4  12  24  39  60  88 119 156 196 241 293 346
#
# _framework density 18.318265
#
# number of rings (size 3 to 8) (size 9 to 14) (size 15 to 20)
#    0.000    1.333    1.667    4.500    0.000    4.000 
#    0.000    0.833    0.000    1.000    0.000    0.000 
#    0.000    0.000    0.000    0.000    0.000    0.000 
#
# Total GULP energy -268364.338398 kJ/mol
# GULP energy per Si atom -5590.923717 kJ/mol
# Density = 1.827657 g / cm^3
# Si number density = 18.318265 Si / 1000 Ang^3
#
#
#
# Elastic Constant Matrix: (Units=GPa)
#
#
# Indices 1 2 3 4 5 6 
#
# 1 89.4497 4.5071 12.5038 0.0000 0.0000 0.0000
# 2 4.5071 23.2781 -1.8247 0.0000 0.0000 0.0000
# 3 12.5038 -1.8247 65.3522 0.0000 0.0000 0.0000
# 4 0.0000 0.0000 0.0000 8.5600 0.0000 0.0000
# 5 0.0000 0.0000 0.0000 0.0000 -18.8222 0.0000
# 6 0.0000 0.0000 0.0000 0.0000 0.0000 35.9158
#
#
#
# Elastic Compliance Matrix: (Units=1/GPa)
#
#
# Indices 1 2 3 4 5 6 
#
# 1 0.011622 -0.002430 -0.002292 0.000000 0.000000 0.000000
# 2 -0.002430 0.043561 0.001681 0.000000 0.000000 0.000000
# 3 -0.002292 0.001681 0.015787 0.000000 0.000000 0.000000
# 4 0.000000 0.000000 0.000000 0.116822 0.000000 0.000000
# 5 0.000000 0.000000 0.000000 0.000000 -0.053129 0.000000
# 6 0.000000 0.000000 0.000000 0.000000 0.000000 0.027843
#
#
# Mechanical properties :
#
#
# Convention : Reuss Voigt Hill
#
# Bulk Modulus (GPa) = 15.41073 23.16137 19.28605
# Shear Modulus (GPa) = 26.28577 15.99032 21.13804
#
# Velocity S-wave (km/s) = 3.79218 2.95772 3.40064
# Velocity P-wave (km/s) = 5.25407 4.93310 5.09611
#
# Compressibility (1/GPa) = 0.06488986
#
# Stress axis : x y z
#
# Youngs Moduli (GPa) = 86.04203 22.95630 63.34299
#
# Poissons Ratio (x) = 0.05578 0.14515
# Poissons Ratio (y) = 0.20908 -0.10649
# Poissons Ratio (z) = 0.19717 -0.03859
#
# Static dielectric constant tensor:
#      x y z
#    x 1.624530 0.000000 0.000000 
#    y 0.000000 1.611880 0.000000 
#    z 0.000000 0.000000 1.596970 
# 
# From -- ./inp_files/12919.got.cif
#   From: 2010.05.17/outbox.cif.g08.bks.cpg/sg59_7_cif.got.tgz:12919.got - 2010.06.03 14:40:33.
