data_PCOD9450783
_publ_section_title
;
Structure prediction by ZEFSAII (Michael W. Deem and Ramdas Pophale) SiO2 
 PCOD9450783
Probable space group: P M M N
;
_chemical_formula_sum "Si O2"
_cell_formula_units_Z 56
_cell_length_a 21.388568
_cell_length_b 17.346322
_cell_length_c 7.407263
_cell_angle_alpha 90.000000
_cell_angle_beta 90.000000
_cell_angle_gamma 90.000000
_cell_volume 2748.190776
_symmetry_space_group_name_H-M "P M M N"
_symmetry_group_IT_number 59
_space_group.IT_coordinate_system_code '2'
_symmetry_cell_setting 'orthorhombic'
loop_
_space_group_symop_operation_xyz
x,y,z
1/2-x,1/2-y,z
1/2+x,-y,-z
-x,1/2+y,-z
-x,-y,-z
1/2+x,1/2+y,-z
1/2-x,y,z
x,1/2-y,z
loop_
_atom_site_type_symbol
_atom_site_label
_atom_site_fract_x
_atom_site_fract_y
_atom_site_fract_z
Si Si1 0.179103 0.563946 0.551293
Si Si2 0.422285 0.162283 0.989123
Si Si3 0.547504 0.127326 0.765600
Si Si4 0.570055 0.165222 0.364982
Si Si5 0.323013 0.054879 0.832888
Si Si6 0.678710 0.082929 0.874807
Si Si7 0.981513 0.539878 0.808574
O O1 0.250000 0.572327 0.613097
O O2 0.141292 0.637626 0.619822
O O3 0.155604 0.487189 0.649534
O O4 0.178656 0.558125 0.335813
O O5 0.412251 0.250000 0.041598
O O6 0.488387 0.154796 0.882324
O O7 0.366828 0.127036 0.871006
O O8 0.427855 0.102172 0.153922
O O9 0.549524 0.168639 0.574119
O O10 0.613634 0.132146 0.875315
O O11 0.538312 0.037080 0.707070
O O12 0.560792 0.250000 0.282173
O O13 0.535096 0.094135 0.270073
O O14 0.250000 0.076238 0.824331
O O15 0.329272 0.988443 0.987767
O O16 0.750000 0.115032 0.907048
O O17 0.000000 0.500000 0.000000
#
# Coordination Sequence:
#
# PCOD9450783 Si02
#       7
#     8   8   8   8   8   8   8
#     4   9  19  35  58  84 111 151 197 236 281 346
#     4  11  22  36  55  84 119 150 186 245 304 343
#     4  10  20  36  58  81 112 153 197 234 285 349
#     4  11  22  35  54  85 118 149 185 242 302 346
#     4  10  20  37  61  84 110 151 200 241 288 350
#     4   9  18  34  57  86 111 141 196 247 276 332
#     4  10  20  35  55  77 104 147 192 231 275 341
#
# _framework density 20.377041999999999
#
# number of rings (size 3 to 8) (size 9 to 14) (size 15 to 20)
#    0.000    2.000    1.429    3.000    2.000    1.714 
#    0.000    0.000    0.000    1.286    0.000    8.000 
#    0.000    0.000    0.000    0.000    0.000    0.000 
#
# Total GULP energy -312065.460002 kJ/mol
# GULP energy per Si atom -5572.597500 kJ/mol
# Density = 2.033066 g / cm^3
# Si number density = 20.377042 Si / 1000 Ang^3
#
#
#
# Elastic Constant Matrix: (Units=GPa)
#
#
# Indices 1 2 3 4 5 6 
#
# 1 75.4781 19.5432 10.8730 0.0000 0.0000 0.0000
# 2 19.5432 113.6872 15.6882 0.0000 0.0000 0.0000
# 3 10.8730 15.6882 31.6832 0.0000 0.0000 0.0000
# 4 0.0000 0.0000 0.0000 16.5846 0.0000 0.0000
# 5 0.0000 0.0000 0.0000 0.0000 25.6288 0.0000
# 6 0.0000 0.0000 0.0000 0.0000 0.0000 2.9624
#
#
#
# Elastic Compliance Matrix: (Units=1/GPa)
#
#
# Indices 1 2 3 4 5 6 
#
# 1 0.014316 -0.001914 -0.003965 0.000000 0.000000 0.000000
# 2 -0.001914 0.009697 -0.004145 0.000000 0.000000 0.000000
# 3 -0.003965 -0.004145 0.034976 0.000000 0.000000 0.000000
# 4 0.000000 0.000000 0.000000 0.060297 0.000000 0.000000
# 5 0.000000 0.000000 0.000000 0.000000 0.039019 0.000000
# 6 0.000000 0.000000 0.000000 0.000000 0.000000 0.337561
#
#
# Mechanical properties :
#
#
# Convention : Reuss Voigt Hill
#
# Bulk Modulus (GPa) = 25.68007 34.78415 30.23211
# Shear Modulus (GPa) = 9.45372 20.68478 15.06925
#
# Velocity S-wave (km/s) = 2.15626 3.18952 2.72236
# Velocity P-wave (km/s) = 4.33925 5.53818 4.97496
#
# Compressibility (1/GPa) = 0.03894070
#
# Stress axis : x y z
#
# Youngs Moduli (GPa) = 69.85393 103.12468 28.59139
#
# Poissons Ratio (x) = 0.19735 0.11337
# Poissons Ratio (y) = 0.13368 0.11851
# Poissons Ratio (z) = 0.27699 0.42743
#
# Static dielectric constant tensor:
#      x y z
#    x 1.798970 0.000000 0.000000 
#    y 0.000000 1.716430 0.000000 
#    z 0.000000 0.000000 1.805220 
# 
# From -- ./inp_files/11413.got.cif
#   From: 2010.05.17/outbox.cif.g08.bks.cpg/sg59_6_cif.got.tgz:11413.got - 2010.06.03 14:40:33.
