data_PCOD9450939
_publ_section_title
;
Structure prediction by ZEFSAII (Michael W. Deem and Ramdas Pophale) SiO2 
 PCOD9450939
Probable space group: P M M N
;
_chemical_formula_sum "Si O2"
_cell_formula_units_Z 56
_cell_length_a 15.626894
_cell_length_b 8.929144
_cell_length_c 21.536820
_cell_angle_alpha 90.000000
_cell_angle_beta 90.000000
_cell_angle_gamma 90.000000
_cell_volume 3005.135587
_symmetry_space_group_name_H-M "P M M N"
_symmetry_group_IT_number 59
_space_group.IT_coordinate_system_code '2'
_symmetry_cell_setting 'orthorhombic'
loop_
_space_group_symop_operation_xyz
x,y,z
1/2-x,1/2-y,z
1/2+x,-y,-z
-x,1/2+y,-z
-x,-y,-z
1/2+x,1/2+y,-z
1/2-x,y,z
x,1/2-y,z
loop_
_atom_site_type_symbol
_atom_site_label
_atom_site_fract_x
_atom_site_fract_y
_atom_site_fract_z
Si Si1 0.403963 0.075091 0.812195
Si Si2 0.652662 0.923800 0.858864
Si Si3 0.750000 0.432116 0.405211
Si Si4 0.584712 0.075181 0.741391
Si Si5 0.904486 0.429819 0.496503
Si Si6 0.651115 0.574703 0.622906
Si Si7 0.002066 0.928824 0.067652
Si Si8 0.750000 0.428543 0.261458
O O1 0.378976 0.250000 0.815752
O O2 0.490837 0.066226 0.771814
O O3 0.429496 0.023889 0.881976
O O4 0.331812 0.984824 0.776725
O O5 0.750000 0.932275 0.880289
O O6 0.625342 0.750000 0.859544
O O7 0.644800 0.988020 0.789585
O O8 0.590485 0.021380 0.900861
O O9 0.750000 0.250000 0.405894
O O10 0.837551 0.477087 0.441763
O O11 0.750000 0.482862 0.333386
O O12 0.608310 0.250000 0.736574
O O13 0.591529 0.995763 0.675468
O O14 0.912521 0.250000 0.493700
O O15 0.860293 0.483314 0.559902
O O16 0.000000 0.500000 0.500000
O O17 0.750000 0.563483 0.643494
O O18 0.631426 0.750000 0.612732
O O19 0.997418 0.750000 0.063228
O O20 0.000000 0.000000 0.000000
O O21 0.750000 0.250000 0.263809
#
# Coordination Sequence:
#
# PCOD9450939 Si02
#       8
#     8   8   4   8   8   8   8   4
#     4   9  21  41  60  86 120 156 195 244 298 355
#     4  10  20  35  56  85 119 154 193 236 286 345
#     4   9  22  43  63  87 123 160 201 258 319 369
#     4  10  21  36  58  86 117 155 195 239 298 358
#     4  11  23  42  63  86 118 157 202 255 313 377
#     4  11  23  38  57  85 119 154 196 246 301 363
#     4  10  21  39  63  88 120 158 198 243 297 353
#     4  11  23  39  63  91 117 156 205 252 301 357
#
# _framework density 18.634765999999999
#
# number of rings (size 3 to 8) (size 9 to 14) (size 15 to 20)
#    0.000    1.857    0.714    3.643    2.000    7.143 
#    1.286    2.143    0.000    0.000    0.000    0.000 
#    0.000    0.000    0.000    0.000    0.000    0.000 
#
# Total GULP energy -312514.779121 kJ/mol
# GULP energy per Si atom -5580.621056 kJ/mol
# Density = 1.859235 g / cm^3
# Si number density = 18.634766 Si / 1000 Ang^3
#
#
#
# Elastic Constant Matrix: (Units=GPa)
#
#
# Indices 1 2 3 4 5 6 
#
# 1 79.3803 36.9368 52.5066 0.0000 0.0000 0.0000
# 2 36.9368 67.5214 46.3881 0.0000 0.0000 0.0000
# 3 52.5066 46.3881 153.7187 0.0000 0.0000 0.0000
# 4 0.0000 0.0000 0.0000 33.8095 0.0000 0.0000
# 5 0.0000 0.0000 0.0000 0.0000 15.9838 0.0000
# 6 0.0000 0.0000 0.0000 0.0000 0.0000 31.1479
#
#
#
# Elastic Compliance Matrix: (Units=1/GPa)
#
#
# Indices 1 2 3 4 5 6 
#
# 1 0.018820 -0.007417 -0.004191 0.000000 0.000000 0.000000
# 2 -0.007417 0.021606 -0.003987 0.000000 0.000000 0.000000
# 3 -0.004191 -0.003987 0.009140 0.000000 0.000000 0.000000
# 4 0.000000 0.000000 0.000000 0.029578 0.000000 0.000000
# 5 0.000000 0.000000 0.000000 0.000000 0.062563 0.000000
# 6 0.000000 0.000000 0.000000 0.000000 0.000000 0.032105
#
#
# Mechanical properties :
#
#
# Convention : Reuss Voigt Hill
#
# Bulk Modulus (GPa) = 54.41060 63.58705 58.99882
# Shear Modulus (GPa) = 23.68248 27.17415 25.42832
#
# Velocity S-wave (km/s) = 3.56880 3.82285 3.69801
# Velocity P-wave (km/s) = 6.80027 7.32683 7.06845
#
# Compressibility (1/GPa) = 0.01837877
#
# Stress axis : x y z
#
# Youngs Moduli (GPa) = 53.13362 46.28274 109.41041
#
# Poissons Ratio (x) = 0.34326 0.45848
# Poissons Ratio (y) = 0.39407 0.43621
# Poissons Ratio (z) = 0.22266 0.18452
#
# Static dielectric constant tensor:
#      x y z
#    x 1.657880 0.000000 0.000000 
#    y 0.000000 1.630400 0.000000 
#    z 0.000000 0.000000 1.660450 
# 
# From -- ./inp_files/30456.got.cif
#   From: 2010.05.17/outbox.cif.g08.bks.cpg/sg59_16_cif.got.tgz:30456.got - 2010.06.03 14:40:33.
