data_PCOD9450289
_publ_section_title
;
Structure prediction by ZEFSAII (Michael W. Deem and Ramdas Pophale) SiO2 
 PCOD9450289
Probable space group: P M M N
;
_chemical_formula_sum "Si O2"
_cell_formula_units_Z 56
_cell_length_a 9.012822
_cell_length_b 13.875172
_cell_length_c 24.005961
_cell_angle_alpha 90.000000
_cell_angle_beta 90.000000
_cell_angle_gamma 90.000000
_cell_volume 3002.052381
_symmetry_space_group_name_H-M "P M M N"
_symmetry_group_IT_number 59
_space_group.IT_coordinate_system_code '2'
_symmetry_cell_setting 'orthorhombic'
loop_
_space_group_symop_operation_xyz
x,y,z
1/2-x,1/2-y,z
1/2+x,-y,-z
-x,1/2+y,-z
-x,-y,-z
1/2+x,1/2+y,-z
1/2-x,y,z
x,1/2-y,z
loop_
_atom_site_type_symbol
_atom_site_label
_atom_site_fract_x
_atom_site_fract_y
_atom_site_fract_z
Si Si1 0.073012 0.364224 0.695740
Si Si2 0.073100 0.551447 0.414387
Si Si3 0.573171 0.859201 0.522469
Si Si4 0.573730 0.458298 0.803889
Si Si5 0.419270 0.366496 0.909464
Si Si6 0.571383 0.362205 0.147670
Si Si7 0.079947 0.632481 0.978981
O O1 0.250000 0.377467 0.698440
O O2 0.042770 0.250000 0.692069
O O3 0.007337 0.415716 0.641420
O O4 0.998622 0.406907 0.750916
O O5 0.250000 0.562166 0.408561
O O6 0.039678 0.440928 0.431919
O O7 0.014538 0.614217 0.466427
O O8 0.750000 0.866022 0.510515
O O9 0.540632 0.750000 0.540002
O O10 0.750000 0.458224 0.799486
O O11 0.521123 0.403479 0.859710
O O12 0.510215 0.566053 0.811024
O O13 0.250000 0.398750 0.900159
O O14 0.420826 0.250000 0.908935
O O15 0.476949 0.398410 0.970116
O O16 0.750000 0.370081 0.152545
O O17 0.532429 0.250000 0.155347
O O18 0.532906 0.391798 0.083885
O O19 0.250000 0.601203 0.988111
O O20 0.081797 0.750000 0.979649
#
# Coordination Sequence:
#
# PCOD9450289 Si02
#       7
#     8   8   8   8   8   8   8
#     4  11  24  42  62  82 109 147 188 230 278 334
#     4  10  20  34  56  87 119 152 193 237 279 325
#     4   9  18  34  56  84 121 161 194 227 272 324
#     4  12  25  38  56  81 108 141 182 229 278 329
#     4  10  20  34  53  78 109 143 178 221 275 333
#     4   9  19  38  61  81 105 139 178 223 275 331
#     4   8  15  30  53  79 105 135 173 218 270 328
#
# _framework density 18.653905000000002
#
# number of rings (size 3 to 8) (size 9 to 14) (size 15 to 20)
#    0.000    2.143    0.000    4.286    0.000    7.714 
#    0.000    2.143    0.000    2.571    0.000    0.000 
#    0.000    0.000    0.000    0.000    0.000    0.000 
#
# Total GULP energy -312915.020068 kJ/mol
# GULP energy per Si atom -5587.768216 kJ/mol
# Density = 1.861145 g / cm^3
# Si number density = 18.653905 Si / 1000 Ang^3
#
#
#
# Elastic Constant Matrix: (Units=GPa)
#
#
# Indices 1 2 3 4 5 6 
#
# 1 82.4361 62.2191 68.7834 0.0000 0.0000 0.0000
# 2 62.2191 121.0087 63.9565 0.0000 0.0000 0.0000
# 3 68.7834 63.9565 122.4067 0.0000 0.0000 0.0000
# 4 0.0000 0.0000 0.0000 21.7600 0.0000 0.0000
# 5 0.0000 0.0000 0.0000 0.0000 35.4650 0.0000
# 6 0.0000 0.0000 0.0000 0.0000 0.0000 26.4082
#
#
#
# Elastic Compliance Matrix: (Units=1/GPa)
#
#
# Indices 1 2 3 4 5 6 
#
# 1 0.027855 -0.008357 -0.011286 0.000000 0.000000 0.000000
# 2 -0.008357 0.013924 -0.002579 0.000000 0.000000 0.000000
# 3 -0.011286 -0.002579 0.015859 0.000000 0.000000 0.000000
# 4 0.000000 0.000000 0.000000 0.045956 0.000000 0.000000
# 5 0.000000 0.000000 0.000000 0.000000 0.028197 0.000000
# 6 0.000000 0.000000 0.000000 0.000000 0.000000 0.037867
#
#
# Mechanical properties :
#
#
# Convention : Reuss Voigt Hill
#
# Bulk Modulus (GPa) = 75.79456 79.52994 77.66225
# Shear Modulus (GPa) = 22.88331 25.45282 24.16807
#
# Velocity S-wave (km/s) = 3.50627 3.69789 3.60335
# Velocity P-wave (km/s) = 7.55726 7.80766 7.68348
#
# Compressibility (1/GPa) = 0.01319356
#
# Stress axis : x y z
#
# Youngs Moduli (GPa) = 35.90004 71.81814 63.05669
#
# Poissons Ratio (x) = 0.60021 0.71165
# Poissons Ratio (y) = 0.30003 0.16262
# Poissons Ratio (z) = 0.40516 0.18522
#
# Static dielectric constant tensor:
#      x y z
#    x 1.622870 0.000000 0.000000 
#    y 0.000000 1.685630 0.000000 
#    z 0.000000 0.000000 1.602200 
# 
# From -- ./inp_files/29127.got.cif
#   From: 2010.05.17/outbox.cif.g08.bks.cpg/sg59_15_cif.got.tgz:29127.got - 2010.06.03 14:40:33.
