data_PCOD9450985
_publ_section_title
;
Structure prediction by ZEFSAII (Michael W. Deem and Ramdas Pophale) SiO2 
 PCOD9450985
Probable space group: P M M N
;
_chemical_formula_sum "Si O2"
_cell_formula_units_Z 32
_cell_length_a 8.911464
_cell_length_b 21.522608
_cell_length_c 9.238119
_cell_angle_alpha 90.000000
_cell_angle_beta 90.000000
_cell_angle_gamma 90.000000
_cell_volume 1771.852253
_symmetry_space_group_name_H-M "P M M N"
_symmetry_group_IT_number 59
_space_group.IT_coordinate_system_code '2'
_symmetry_cell_setting 'orthorhombic'
loop_
_space_group_symop_operation_xyz
x,y,z
1/2-x,1/2-y,z
1/2+x,-y,-z
-x,1/2+y,-z
-x,-y,-z
1/2+x,1/2+y,-z
1/2-x,y,z
x,1/2-y,z
loop_
_atom_site_type_symbol
_atom_site_label
_atom_site_fract_x
_atom_site_fract_y
_atom_site_fract_z
Si Si1 0.571500 0.250000 0.833620
Si Si2 0.430286 0.750000 0.827814
Si Si3 0.428995 0.133959 0.671893
Si Si4 0.570229 0.630899 0.672504
Si Si5 0.930440 0.003467 0.339100
O O1 0.750000 0.250000 0.822113
O O2 0.508809 0.188763 0.756086
O O3 0.530775 0.250000 0.002597
O O4 0.250000 0.750000 0.812189
O O5 0.499083 0.689100 0.753388
O O6 0.250000 0.141744 0.685466
O O7 0.463550 0.136890 0.499816
O O8 0.466871 0.064244 0.726453
O O9 0.750000 0.629886 0.688142
O O10 0.500799 0.565662 0.726694
O O11 0.750000 0.008712 0.347678
O O12 0.000000 0.000000 0.500000
#
# Coordination Sequence:
#
# PCOD9450985 Si02
#       5
#     4   4   8   8   8
#     4  11  24  37  52  76 106 141 182 221 262 312
#     4  11  24  39  52  74 108 143 180 223 264 312
#     4   9  19  35  56  81 108 136 172 215 261 314
#     4  10  20  35  57  84 108 137 177 219 265 320
#     4   9  17  31  53  82 111 138 171 217 266 314
#
# _framework density 18.060196000000001
#
# number of rings (size 3 to 8) (size 9 to 14) (size 15 to 20)
#    0.000    2.250    0.000    4.500    0.000   11.000 
#    0.000    1.250    0.000    0.000    0.000    0.000 
#    0.000    0.000    0.000    0.000    0.000    0.000 
#
# Total GULP energy -178515.633399 kJ/mol
# GULP energy per Si atom -5578.613544 kJ/mol
# Density = 1.801909 g / cm^3
# Si number density = 18.060196 Si / 1000 Ang^3
#
#
#
# Elastic Constant Matrix: (Units=GPa)
#
#
# Indices 1 2 3 4 5 6 
#
# 1 65.3974 82.1914 50.3821 0.0000 0.0000 0.0000
# 2 82.1914 230.5615 82.5754 0.0000 0.0000 0.0000
# 3 50.3821 82.5754 65.5672 0.0000 0.0000 0.0000
# 4 0.0000 0.0000 0.0000 -10.1588 0.0000 0.0000
# 5 0.0000 0.0000 0.0000 0.0000 23.1379 0.0000
# 6 0.0000 0.0000 0.0000 0.0000 0.0000 39.0479
#
#
#
# Elastic Compliance Matrix: (Units=1/GPa)
#
#
# Indices 1 2 3 4 5 6 
#
# 1 0.041826 -0.006193 -0.024339 0.000000 0.000000 0.000000
# 2 -0.006193 0.008818 -0.006347 0.000000 0.000000 0.000000
# 3 -0.024339 -0.006347 0.041947 0.000000 0.000000 0.000000
# 4 0.000000 0.000000 0.000000 -0.098437 0.000000 0.000000
# 5 0.000000 0.000000 0.000000 0.000000 0.043219 0.000000
# 6 0.000000 0.000000 0.000000 0.000000 0.000000 0.025610
#
#
# Mechanical properties :
#
#
# Convention : Reuss Voigt Hill
#
# Bulk Modulus (GPa) = 53.10007 87.98045 70.54026
# Shear Modulus (GPa) = 34.96067 20.16388 27.56228
#
# Velocity S-wave (km/s) = 4.40453 3.34500 3.91081
# Velocity P-wave (km/s) = 7.43855 7.98371 7.71595
#
# Compressibility (1/GPa) = 0.01883237
#
# Stress axis : x y z
#
# Youngs Moduli (GPa) = 23.90886 113.40452 23.83959
#
# Poissons Ratio (x) = 0.70231 0.58024
# Poissons Ratio (y) = 0.14807 0.15130
# Poissons Ratio (z) = 0.58193 0.71974
#
# Static dielectric constant tensor:
#      x y z
#    x 1.598220 0.000000 0.000000 
#    y 0.000000 1.646700 0.000000 
#    z 0.000000 0.000000 1.596070 
# 
# From -- ./inp_files/5393.got.cif
#   From: 2010.05.17/outbox.cif.g08.bks.cpg/sg59_3_cif.got.tgz:5393.got - 2010.06.03 14:40:33.
