data_PCOD9450842
_publ_section_title
;
Structure prediction by ZEFSAII (Michael W. Deem and Ramdas Pophale) SiO2 
 PCOD9450842
Probable space group: P M M N
;
_chemical_formula_sum "Si O2"
_cell_formula_units_Z 40
_cell_length_a 12.812001
_cell_length_b 25.986978
_cell_length_c 5.645595
_cell_angle_alpha 90.000000
_cell_angle_beta 90.000000
_cell_angle_gamma 90.000000
_cell_volume 1879.673689
_symmetry_space_group_name_H-M "P M M N"
_symmetry_group_IT_number 59
_space_group.IT_coordinate_system_code '2'
_symmetry_cell_setting 'orthorhombic'
loop_
_space_group_symop_operation_xyz
x,y,z
1/2-x,1/2-y,z
1/2+x,-y,-z
-x,1/2+y,-z
-x,-y,-z
1/2+x,1/2+y,-z
1/2-x,y,z
x,1/2-y,z
loop_
_atom_site_type_symbol
_atom_site_label
_atom_site_fract_x
_atom_site_fract_y
_atom_site_fract_z
Si Si1 0.972542 0.539853 0.203211
Si Si2 0.250000 0.381148 0.244291
Si Si3 0.865209 0.306725 0.819432
Si Si4 0.629555 0.406788 0.481188
Si Si5 0.973221 0.861542 0.899376
Si Si6 0.750000 0.942908 0.260931
O O1 0.954494 0.598145 0.110869
O O2 0.070063 0.548390 0.374861
O O3 0.857151 0.526056 0.289881
O O4 0.000000 0.500000 0.000000
O O5 0.139690 0.351568 0.214380
O O6 0.250000 0.405086 0.508824
O O7 0.250000 0.420701 0.014573
O O8 0.750000 0.309828 0.937649
O O9 0.872642 0.250000 0.707623
O O10 0.947937 0.392721 0.269150
O O11 0.868412 0.354280 0.638895
O O12 0.750000 0.417469 0.419329
O O13 0.540050 0.314621 0.000467
#
# Coordination Sequence:
#
# PCOD9450842 Si02
#       6
#     8   4   8   8   8   4
#     4  10  22  37  54  80 117 155 202 249 299 356
#     4  10  20  38  63  82 116 158 202 242 293 358
#     4   9  19  36  59  85 115 149 188 238 302 368
#     4  10  20  35  55  83 116 148 195 247 303 352
#     4  10  20  37  57  82 112 153 195 245 296 357
#     4  10  20  40  58  84 113 162 205 242 300 362
#
# _framework density 21.280289
#
# number of rings (size 3 to 8) (size 9 to 14) (size 15 to 20)
#    0.000    2.200    2.000    0.600    1.400    2.400 
#    0.000    2.500    0.000    0.000    0.000    0.000 
#    0.000    0.000    0.000    0.000    0.000    0.000 
#
# Total GULP energy -222802.632729 kJ/mol
# GULP energy per Si atom -5570.065818 kJ/mol
# Density = 2.123185 g / cm^3
# Si number density = 21.280289 Si / 1000 Ang^3
#
#
#
# Elastic Constant Matrix: (Units=GPa)
#
#
# Indices 1 2 3 4 5 6 
#
# 1 204.0338 28.9591 26.9762 0.0000 0.0000 0.0000
# 2 28.9591 66.7716 11.0063 0.0000 0.0000 0.0000
# 3 26.9762 11.0063 53.7984 0.0000 0.0000 0.0000
# 4 0.0000 0.0000 0.0000 19.2229 0.0000 0.0000
# 5 0.0000 0.0000 0.0000 0.0000 28.2539 0.0000
# 6 0.0000 0.0000 0.0000 0.0000 0.0000 25.3990
#
#
#
# Elastic Compliance Matrix: (Units=1/GPa)
#
#
# Indices 1 2 3 4 5 6 
#
# 1 0.005495 -0.001996 -0.002347 0.000000 0.000000 0.000000
# 2 -0.001996 0.016224 -0.002318 0.000000 0.000000 0.000000
# 3 -0.002347 -0.002318 0.020239 0.000000 0.000000 0.000000
# 4 0.000000 0.000000 0.000000 0.052021 0.000000 0.000000
# 5 0.000000 0.000000 0.000000 0.000000 0.035393 0.000000
# 6 0.000000 0.000000 0.000000 0.000000 0.000000 0.039372
#
#
# Mechanical properties :
#
#
# Convention : Reuss Voigt Hill
#
# Bulk Modulus (GPa) = 34.92184 50.94297 42.93240
# Shear Modulus (GPa) = 26.09437 31.75264 28.92351
#
# Velocity S-wave (km/s) = 3.50555 3.86698 3.69069
# Velocity P-wave (km/s) = 5.72985 6.62790 6.19517
#
# Compressibility (1/GPa) = 0.02863538
#
# Stress axis : x y z
#
# Youngs Moduli (GPa) = 181.99130 61.63577 49.40962
#
# Poissons Ratio (x) = 0.12304 0.11596
# Poissons Ratio (y) = 0.36330 0.11454
# Poissons Ratio (z) = 0.42710 0.14289
#
# Static dielectric constant tensor:
#      x y z
#    x 1.854840 0.000000 0.000000 
#    y 0.000000 1.790060 0.000000 
#    z 0.000000 0.000000 1.847790 
# 
# From -- ./inp_files/2217.got.cif
#   From: 2010.05.17/outbox.cif.g08.bks.cpg/sg59_2_cif.got.tgz:2217.got - 2010.06.03 14:40:33.
