data_PCOD9450168
_publ_section_title
;
Structure prediction by ZEFSAII (Michael W. Deem and Ramdas Pophale) SiO2 
 PCOD9450168
Probable space group: P M M N
;
_chemical_formula_sum "Si O2"
_cell_formula_units_Z 64
_cell_length_a 28.694410
_cell_length_b 9.855881
_cell_length_c 12.398320
_cell_angle_alpha 90.000000
_cell_angle_beta 90.000000
_cell_angle_gamma 90.000000
_cell_volume 3506.352641
_symmetry_space_group_name_H-M "P M M N"
_symmetry_group_IT_number 59
_space_group.IT_coordinate_system_code '2'
_symmetry_cell_setting 'orthorhombic'
loop_
_space_group_symop_operation_xyz
x,y,z
1/2-x,1/2-y,z
1/2+x,-y,-z
-x,1/2+y,-z
-x,-y,-z
1/2+x,1/2+y,-z
1/2-x,y,z
x,1/2-y,z
loop_
_atom_site_type_symbol
_atom_site_label
_atom_site_fract_x
_atom_site_fract_y
_atom_site_fract_z
Si Si1 0.698091 0.408784 0.238005
Si Si2 0.695826 0.909624 0.585072
Si Si3 0.478143 0.087950 0.596329
Si Si4 0.131585 0.409992 0.623099
Si Si5 0.694175 0.404981 0.784023
Si Si6 0.017372 0.593998 0.165542
Si Si7 0.068521 0.093317 0.002105
Si Si8 0.652766 0.406394 0.017919
O O1 0.750000 0.454580 0.269839
O O2 0.693143 0.250000 0.268202
O O3 0.657803 0.497426 0.290715
O O4 0.691982 0.416508 0.109192
O O5 0.750000 0.945927 0.558201
O O6 0.695379 0.750000 0.610444
O O7 0.660817 0.931847 0.486611
O O8 0.680688 0.994919 0.688611
O O9 0.482531 0.250000 0.574443
O O10 0.422962 0.058159 0.609020
O O11 0.503085 0.061869 0.711749
O O12 0.500000 0.000000 0.500000
O O13 0.134959 0.250000 0.651635
O O14 0.750000 0.413229 0.796130
O O15 0.682299 0.250000 0.754644
O O16 0.671709 0.435048 0.898994
O O17 0.035331 0.750000 0.162083
O O18 0.051666 0.487841 0.108462
O O19 0.971745 0.590386 0.088706
O O20 0.078779 0.250000 0.026073
O O21 0.112274 0.011673 0.957421
O O22 0.635549 0.250000 0.020850
#
# Coordination Sequence:
#
# PCOD9450168 Si02
#       8
#     8   8   8   8   8   8   8   8
#     4  10  21  36  56  84 116 149 185 224 266 320
#     4   9  18  33  53  77 106 139 175 219 271 323
#     4  10  22  39  58  80 109 145 184 229 281 336
#     4  10  21  38  58  80 109 144 181 225 279 332
#     4   9  18  33  52  72  98 136 176 211 251 302
#     4   9  19  37  56  76 106 139 172 215 268 320
#     4  10  20  34  56  82 105 135 176 219 261 312
#     4  10  20  34  52  77 111 144 173 212 264 314
#
# _framework density 18.252586999999998
#
# number of rings (size 3 to 8) (size 9 to 14) (size 15 to 20)
#    0.000    2.375    0.000    1.875    0.000    7.250 
#    0.000    3.750    0.000    2.250    0.000    0.000 
#    0.000    0.000    0.000    0.000    0.000    0.000 
#
# Total GULP energy -357056.790894 kJ/mol
# GULP energy per Si atom -5579.012358 kJ/mol
# Density = 1.821104 g / cm^3
# Si number density = 18.252587 Si / 1000 Ang^3
#
#
#
# Elastic Constant Matrix: (Units=GPa)
#
#
# Indices 1 2 3 4 5 6 
#
# 1 69.3877 43.4107 30.8021 0.0000 0.0000 0.0000
# 2 43.4107 65.6460 56.4622 0.0000 0.0000 0.0000
# 3 30.8021 56.4622 97.6028 0.0000 0.0000 0.0000
# 4 0.0000 0.0000 0.0000 22.0558 0.0000 0.0000
# 5 0.0000 0.0000 0.0000 0.0000 166.6165 0.0000
# 6 0.0000 0.0000 0.0000 0.0000 0.0000 27.8329
#
#
#
# Elastic Compliance Matrix: (Units=1/GPa)
#
#
# Indices 1 2 3 4 5 6 
#
# 1 0.025119 -0.019490 0.003348 0.000000 0.000000 0.000000
# 2 -0.019490 0.045441 -0.020136 0.000000 0.000000 0.000000
# 3 0.003348 -0.020136 0.020838 0.000000 0.000000 0.000000
# 4 0.000000 0.000000 0.000000 0.045340 0.000000 0.000000
# 5 0.000000 0.000000 0.000000 0.000000 0.006002 0.000000
# 6 0.000000 0.000000 0.000000 0.000000 0.000000 0.035929
#
#
# Mechanical properties :
#
#
# Convention : Reuss Voigt Hill
#
# Bulk Modulus (GPa) = 53.07796 54.88738 53.98267
# Shear Modulus (GPa) = 19.41694 50.09848 34.75771
#
# Velocity S-wave (km/s) = 3.26512 5.24470 4.36852
# Velocity P-wave (km/s) = 6.58464 8.17387 7.42192
#
# Compressibility (1/GPa) = 0.01884021
#
# Stress axis : x y z
#
# Youngs Moduli (GPa) = 39.80981 22.00640 47.98967
#
# Poissons Ratio (x) = 0.42891 -0.16065
# Poissons Ratio (y) = 0.77591 0.96634
# Poissons Ratio (z) = -0.13327 0.44313
#
# Static dielectric constant tensor:
#      x y z
#    x 1.632950 0.000000 0.000000 
#    y 0.000000 1.563340 0.000000 
#    z 0.000000 0.000000 1.609730 
# 
# From -- ./inp_files/19297.got.cif
#   From: 2010.05.17/outbox.cif.g08.bks.cpg/sg59_10_cif.got.tgz:19297.got - 2010.06.03 14:40:33.
