data_PCOD9450868
_publ_section_title
;
Structure prediction by ZEFSAII (Michael W. Deem and Ramdas Pophale) SiO2 
 PCOD9450868
Probable space group: P M M N
;
_chemical_formula_sum "Si O2"
_cell_formula_units_Z 64
_cell_length_a 9.068428
_cell_length_b 19.589160
_cell_length_c 20.481965
_cell_angle_alpha 90.000000
_cell_angle_beta 90.000000
_cell_angle_gamma 90.000000
_cell_volume 3638.475395
_symmetry_space_group_name_H-M "P M M N"
_symmetry_group_IT_number 59
_space_group.IT_coordinate_system_code '2'
_symmetry_cell_setting 'orthorhombic'
loop_
_space_group_symop_operation_xyz
x,y,z
1/2-x,1/2-y,z
1/2+x,-y,-z
-x,1/2+y,-z
-x,-y,-z
1/2+x,1/2+y,-z
1/2-x,y,z
x,1/2-y,z
loop_
_atom_site_type_symbol
_atom_site_label
_atom_site_fract_x
_atom_site_fract_y
_atom_site_fract_z
Si Si1 0.575089 0.905882 0.545784
Si Si2 0.575776 0.171949 0.347415
Si Si3 0.425000 0.168481 0.836915
Si Si4 0.419099 0.832895 0.028800
Si Si5 0.926906 0.830106 0.894025
Si Si6 0.425599 0.454596 0.595829
Si Si7 0.573764 0.914818 0.765647
Si Si8 0.073803 0.929237 0.267086
O O1 0.750000 0.909717 0.557801
O O2 0.503984 0.843583 0.584343
O O3 0.551073 0.907521 0.468046
O O4 0.498226 0.973190 0.576007
O O5 0.750000 0.160444 0.354153
O O6 0.550656 0.250000 0.327180
O O7 0.508776 0.121983 0.293467
O O8 0.250000 0.156635 0.835433
O O9 0.449948 0.250000 0.830046
O O10 0.491259 0.146481 0.906917
O O11 0.504834 0.127328 0.779858
O O12 0.250000 0.856182 0.032440
O O13 0.418933 0.750000 0.028738
O O14 0.494856 0.852550 0.960779
O O15 0.750000 0.833462 0.902752
O O16 0.963729 0.750000 0.881100
O O17 0.967765 0.877599 0.833061
O O18 0.250000 0.463062 0.605182
O O19 0.500929 0.428024 0.661377
O O20 0.750000 0.905618 0.756772
O O21 0.543592 0.995409 0.762779
O O22 0.250000 0.921236 0.272089
#
# Coordination Sequence:
#
# PCOD9450868 Si02
#       8
#     8   8   8   8   8   8   8   8
#     4  10  20  35  56  81 106 140 185 228 273 325
#     4  11  23  36  53  80 114 151 190 234 281 328
#     4  10  21  38  60  83 107 139 180 226 280 340
#     4   9  17  31  53  80 108 138 177 226 276 328
#     4   9  17  31  52  77 107 145 186 226 268 318
#     4  10  20  35  57  82 109 141 180 226 273 325
#     4  10  21  36  54  79 111 149 190 228 272 330
#     4  11  22  36  57  85 114 145 183 226 276 333
#
# _framework density 17.589786
#
# number of rings (size 3 to 8) (size 9 to 14) (size 15 to 20)
#    0.000    2.000    1.250    2.625    0.000    6.250 
#    0.000    2.500    0.000    0.750    0.000    0.000 
#    0.000    0.000    0.000    0.000    0.000    0.000 
#
# Total GULP energy -357239.477074 kJ/mol
# GULP energy per Si atom -5581.866829 kJ/mol
# Density = 1.754975 g / cm^3
# Si number density = 17.589786 Si / 1000 Ang^3
#
#
#
# Elastic Constant Matrix: (Units=GPa)
#
#
# Indices 1 2 3 4 5 6 
#
# 1 86.8595 50.7160 74.6975 0.0000 0.0000 0.0000
# 2 50.7160 51.6833 51.3882 0.0000 0.0000 0.0000
# 3 74.6975 51.3882 150.0427 0.0000 0.0000 0.0000
# 4 0.0000 0.0000 0.0000 29.7972 0.0000 0.0000
# 5 0.0000 0.0000 0.0000 0.0000 33.4213 0.0000
# 6 0.0000 0.0000 0.0000 0.0000 0.0000 21.3696
#
#
#
# Elastic Compliance Matrix: (Units=1/GPa)
#
#
# Indices 1 2 3 4 5 6 
#
# 1 0.032114 -0.023680 -0.007877 0.000000 0.000000 0.000000
# 2 -0.023680 0.046802 -0.004240 0.000000 0.000000 0.000000
# 3 -0.007877 -0.004240 0.012039 0.000000 0.000000 0.000000
# 4 0.000000 0.000000 0.000000 0.033560 0.000000 0.000000
# 5 0.000000 0.000000 0.000000 0.000000 0.029921 0.000000
# 6 0.000000 0.000000 0.000000 0.000000 0.000000 0.046795
#
#
# Mechanical properties :
#
#
# Convention : Reuss Voigt Hill
#
# Bulk Modulus (GPa) = 51.65675 71.35430 61.50552
# Shear Modulus (GPa) = 17.90324 24.36987 21.13656
#
# Velocity S-wave (km/s) = 3.19379 3.72621 3.47023
# Velocity P-wave (km/s) = 6.55985 7.69199 7.14837
#
# Compressibility (1/GPa) = 0.01935856
#
# Stress axis : x y z
#
# Youngs Moduli (GPa) = 31.13923 21.36678 83.06651
#
# Poissons Ratio (x) = 0.50598 0.65434
# Poissons Ratio (y) = 0.73739 0.35220
# Poissons Ratio (z) = 0.24529 0.09059
#
# Static dielectric constant tensor:
#      x y z
#    x 1.586910 0.000000 0.000000 
#    y 0.000000 1.586150 0.000000 
#    z 0.000000 0.000000 1.587030 
# 
# From -- ./inp_files/26215.got.cif
#   From: 2010.05.17/outbox.cif.g08.bks.cpg/sg59_14_cif.got.tgz:26215.got - 2010.06.03 14:40:33.
