data_PCOD9450245
_publ_section_title
;
Structure prediction by ZEFSAII (Michael W. Deem and Ramdas Pophale) SiO2 
 PCOD9450245
Probable space group: P M M N
;
_chemical_formula_sum "Si O2"
_cell_formula_units_Z 48
_cell_length_a 7.761005
_cell_length_b 9.426182
_cell_length_c 31.780156
_cell_angle_alpha 90.000000
_cell_angle_beta 90.000000
_cell_angle_gamma 90.000000
_cell_volume 2324.929611
_symmetry_space_group_name_H-M "P M M N"
_symmetry_group_IT_number 59
_space_group.IT_coordinate_system_code '2'
_symmetry_cell_setting 'orthorhombic'
loop_
_space_group_symop_operation_xyz
x,y,z
1/2-x,1/2-y,z
1/2+x,-y,-z
-x,1/2+y,-z
-x,-y,-z
1/2+x,1/2+y,-z
1/2-x,y,z
x,1/2-y,z
loop_
_atom_site_type_symbol
_atom_site_label
_atom_site_fract_x
_atom_site_fract_y
_atom_site_fract_z
Si Si1 0.457708 0.911456 0.958450
Si Si2 0.955002 0.588436 0.798061
Si Si3 0.538813 0.913104 0.376918
Si Si4 0.455198 0.409967 0.879106
Si Si5 0.457382 0.911735 0.541606
Si Si6 0.957154 0.087914 0.296267
O O1 0.250000 0.904080 0.955367
O O2 0.522874 0.750000 0.960805
O O3 0.524068 0.993512 0.917165
O O4 0.500000 0.000000 0.000000
O O5 0.750000 0.594977 0.801363
O O6 0.024055 0.750000 0.803069
O O7 0.018450 0.486604 0.834692
O O8 0.999353 0.539865 0.750876
O O9 0.750000 0.913081 0.377018
O O10 0.483610 0.750000 0.380014
O O11 0.481461 0.005038 0.416962
O O12 0.481477 0.987167 0.333665
O O13 0.250000 0.399715 0.885650
O O14 0.525922 0.250000 0.879601
O O15 0.250000 0.904710 0.544622
O O16 0.522540 0.750000 0.539509
O O17 0.500000 0.000000 0.500000
O O18 0.750000 0.093099 0.299347
O O19 0.021815 0.250000 0.301217
#
# Coordination Sequence:
#
# PCOD9450245 Si02
#       6
#     8   8   8   8   8   8
#     4  10  21  37  58  83 110 141 177 217 262 311
#     4  10  21  36  54  78 108 141 176 215 262 314
#     4   9  17  30  50  75 101 131 171 217 261 307
#     4  10  21  37  57  80 106 139 180 222 262 308
#     4  10  20  34  53  77 105 137 174 215 259 309
#     4   9  17  31  52  75  99 131 172 216 261 310
#
# _framework density 20.645786999999999
#
# number of rings (size 3 to 8) (size 9 to 14) (size 15 to 20)
#    0.000    2.333    0.000    2.500    0.000    7.333 
#    0.000    2.500    0.000    3.000    0.000    0.000 
#    0.000    0.000    0.000    0.000    0.000    0.000 
#
# Total GULP energy -268110.538345 kJ/mol
# GULP energy per Si atom -5585.636216 kJ/mol
# Density = 2.059880 g / cm^3
# Si number density = 20.645787 Si / 1000 Ang^3
#
#
#
# Elastic Constant Matrix: (Units=GPa)
#
#
# Indices 1 2 3 4 5 6 
#
# 1 28.0651 8.4364 -2.4708 0.0000 0.0000 0.0000
# 2 8.4364 206.2857 147.3444 0.0000 0.0000 0.0000
# 3 -2.4708 147.3444 205.8201 0.0000 0.0000 0.0000
# 4 0.0000 0.0000 0.0000 40.1858 0.0000 0.0000
# 5 0.0000 0.0000 0.0000 0.0000 23.0956 0.0000
# 6 0.0000 0.0000 0.0000 0.0000 0.0000 14.5427
#
#
#
# Elastic Compliance Matrix: (Units=1/GPa)
#
#
# Indices 1 2 3 4 5 6 
#
# 1 0.037034 -0.003749 0.003129 0.000000 0.000000 0.000000
# 2 -0.003749 0.010300 -0.007419 0.000000 0.000000 0.000000
# 3 0.003129 -0.007419 0.010207 0.000000 0.000000 0.000000
# 4 0.000000 0.000000 0.000000 0.024884 0.000000 0.000000
# 5 0.000000 0.000000 0.000000 0.000000 0.043298 0.000000
# 6 0.000000 0.000000 0.000000 0.000000 0.000000 0.068763
#
#
# Mechanical properties :
#
#
# Convention : Reuss Voigt Hill
#
# Bulk Modulus (GPa) = 24.11819 82.97677 53.54748
# Shear Modulus (GPa) = 22.28304 34.68888 28.48596
#
# Velocity S-wave (km/s) = 3.28884 4.10346 3.71852
# Velocity P-wave (km/s) = 5.11167 7.92017 6.66552
#
# Compressibility (1/GPa) = 0.04146249
#
# Stress axis : x y z
#
# Youngs Moduli (GPa) = 27.00223 97.08859 97.97152
#
# Poissons Ratio (x) = 0.36401 -0.30652
# Poissons Ratio (y) = 0.10124 0.72681
# Poissons Ratio (z) = -0.08448 0.72026
#
# Static dielectric constant tensor:
#      x y z
#    x 1.774290 0.000000 0.000000 
#    y 0.000000 1.734850 0.000000 
#    z 0.000000 0.000000 1.692060 
# 
# From -- ./inp_files/32832.got.cif
#   From: 2010.05.17/outbox.cif.g08.bks.cpg/sg59_17_cif.got.tgz:32832.got - 2010.06.03 14:40:33.
