data_PCOD9450851
_publ_section_title
;
Structure prediction by ZEFSAII (Michael W. Deem and Ramdas Pophale) SiO2 
 PCOD9450851
Probable space group: P M M N
;
_chemical_formula_sum "Si O2"
_cell_formula_units_Z 64
_cell_length_a 15.275170
_cell_length_b 9.148615
_cell_length_c 24.399603
_cell_angle_alpha 90.000000
_cell_angle_beta 90.000000
_cell_angle_gamma 90.000000
_cell_volume 3409.762766
_symmetry_space_group_name_H-M "P M M N"
_symmetry_group_IT_number 59
_space_group.IT_coordinate_system_code '2'
_symmetry_cell_setting 'orthorhombic'
loop_
_space_group_symop_operation_xyz
x,y,z
1/2-x,1/2-y,z
1/2+x,-y,-z
-x,1/2+y,-z
-x,-y,-z
1/2+x,1/2+y,-z
1/2-x,y,z
x,1/2-y,z
loop_
_atom_site_type_symbol
_atom_site_label
_atom_site_fract_x
_atom_site_fract_y
_atom_site_fract_z
Si Si1 0.352323 0.084205 0.009001
Si Si2 0.145525 0.425113 0.485915
Si Si3 0.346688 0.924538 0.786717
Si Si4 0.492722 0.925624 0.698718
Si Si5 0.507061 0.924507 0.417306
Si Si6 0.886588 0.082869 0.879454
Si Si7 0.849374 0.076962 0.757281
Si Si8 0.407335 0.081103 0.893538
O O1 0.250000 0.088383 0.994862
O O2 0.385317 0.250000 0.016602
O O3 0.398522 0.019301 0.955157
O O4 0.361155 0.002514 0.066181
O O5 0.250000 0.465390 0.487508
O O6 0.142239 0.250000 0.475231
O O7 0.083284 0.508745 0.442320
O O8 0.090072 0.450810 0.542089
O O9 0.250000 0.959104 0.765210
O O10 0.354145 0.750000 0.793017
O O11 0.420679 0.971246 0.743947
O O12 0.358244 0.995733 0.846127
O O13 0.492077 0.750000 0.694037
O O14 0.475372 0.999260 0.640483
O O15 0.584733 0.983950 0.721405
O O16 0.497020 0.750000 0.411603
O O17 0.856314 0.250000 0.885050
O O18 0.853629 0.027281 0.820879
O O19 0.991380 0.081171 0.877337
O O20 0.750000 0.064879 0.737768
O O21 0.874037 0.250000 0.756712
O O22 0.376629 0.250000 0.895757
#
# Coordination Sequence:
#
# PCOD9450851 Si02
#       8
#     8   8   8   8   8   8   8   8
#     4  10  21  34  49  75 108 139 176 224 280 345
#     4   9  19  38  63  91 124 160 197 237 281 330
#     4  10  22  39  58  82 112 147 188 235 287 342
#     4  11  23  39  59  84 117 155 195 238 283 336
#     4  10  21  37  60  90 123 158 197 239 283 331
#     4  10  20  35  56  79 104 138 182 230 285 345
#     4  10  21  38  59  82 110 145 189 241 292 342
#     4  10  20  36  57  79 105 139 181 230 284 343
#
# _framework density 18.769635000000001
#
# number of rings (size 3 to 8) (size 9 to 14) (size 15 to 20)
#    0.000    2.000    1.250    1.875    0.000    5.500 
#    0.000    0.000    0.000    0.000    0.000    0.000 
#    0.000    0.000    0.000    0.000    0.000    0.000 
#
# Total GULP energy -357057.670142 kJ/mol
# GULP energy per Si atom -5579.026096 kJ/mol
# Density = 1.872691 g / cm^3
# Si number density = 18.769635 Si / 1000 Ang^3
#
#
#
# Elastic Constant Matrix: (Units=GPa)
#
#
# Indices 1 2 3 4 5 6 
#
# 1 79.0091 18.9322 -0.0917 0.0000 0.0000 0.0000
# 2 18.9322 34.8559 27.9250 0.0000 0.0000 0.0000
# 3 -0.0917 27.9250 64.1336 0.0000 0.0000 0.0000
# 4 0.0000 0.0000 0.0000 31.7160 0.0000 0.0000
# 5 0.0000 0.0000 0.0000 0.0000 42.0326 0.0000
# 6 0.0000 0.0000 0.0000 0.0000 0.0000 14.3416
#
#
#
# Elastic Compliance Matrix: (Units=1/GPa)
#
#
# Indices 1 2 3 4 5 6 
#
# 1 0.015835 -0.013237 0.005786 0.000000 0.000000 0.000000
# 2 -0.013237 0.055123 -0.024021 0.000000 0.000000 0.000000
# 3 0.005786 -0.024021 0.026060 0.000000 0.000000 0.000000
# 4 0.000000 0.000000 0.000000 0.031530 0.000000 0.000000
# 5 0.000000 0.000000 0.000000 0.000000 0.023791 0.000000
# 6 0.000000 0.000000 0.000000 0.000000 0.000000 0.069727
#
#
# Mechanical properties :
#
#
# Convention : Reuss Voigt Hill
#
# Bulk Modulus (GPa) = 29.34610 30.16995 29.75802
# Shear Modulus (GPa) = 16.87094 26.36692 21.61893
#
# Velocity S-wave (km/s) = 3.00132 3.75208 3.39750
# Velocity P-wave (km/s) = 5.26112 5.90589 5.59281
#
# Compressibility (1/GPa) = 0.03407608
#
# Stress axis : x y z
#
# Youngs Moduli (GPa) = 63.15030 18.14112 38.37332
#
# Poissons Ratio (x) = 0.24013 -0.22203
# Poissons Ratio (y) = 0.83589 0.92175
# Poissons Ratio (z) = -0.36539 0.43576
#
# Static dielectric constant tensor:
#      x y z
#    x 1.664340 0.000000 0.000000 
#    y 0.000000 1.647480 0.000000 
#    z 0.000000 0.000000 1.638640 
# 
# From -- ./inp_files/32264.got.cif
#   From: 2010.05.17/outbox.cif.g08.bks.cpg/sg59_17_cif.got.tgz:32264.got - 2010.06.03 14:40:33.
