data_PCOD9450405
_publ_section_title
;
Structure prediction by ZEFSAII (Michael W. Deem and Ramdas Pophale) SiO2 
 PCOD9450405
Probable space group: P M M N
;
_chemical_formula_sum "Si O2"
_cell_formula_units_Z 64
_cell_length_a 9.144393
_cell_length_b 17.981030
_cell_length_c 21.173756
_cell_angle_alpha 90.000000
_cell_angle_beta 90.000000
_cell_angle_gamma 90.000000
_cell_volume 3481.507638
_symmetry_space_group_name_H-M "P M M N"
_symmetry_group_IT_number 59
_space_group.IT_coordinate_system_code '2'
_symmetry_cell_setting 'orthorhombic'
loop_
_space_group_symop_operation_xyz
x,y,z
1/2-x,1/2-y,z
1/2+x,-y,-z
-x,1/2+y,-z
-x,-y,-z
1/2+x,1/2+y,-z
1/2-x,y,z
x,1/2-y,z
loop_
_atom_site_type_symbol
_atom_site_label
_atom_site_fract_x
_atom_site_fract_y
_atom_site_fract_z
Si Si1 0.581144 0.659436 0.949865
Si Si2 0.424899 0.578545 0.316112
Si Si3 0.075457 0.918746 0.691039
Si Si4 0.924213 0.660922 0.807539
Si Si5 0.580835 0.660272 0.575303
Si Si6 0.577569 0.161789 0.553123
Si Si7 0.919134 0.660235 0.202202
Si Si8 0.917251 0.159261 0.924977
O O1 0.750000 0.637553 0.959918
O O2 0.578911 0.750000 0.949779
O O3 0.536210 0.637195 0.879082
O O4 0.482947 0.634051 0.008134
O O5 0.250000 0.569602 0.310864
O O6 0.505675 0.500165 0.313126
O O7 0.456560 0.618152 0.382949
O O8 0.485149 0.627936 0.258768
O O9 0.250000 0.921417 0.690782
O O10 0.015723 0.879949 0.754367
O O11 0.015176 0.873138 0.631157
O O12 0.750000 0.647205 0.799056
O O13 0.945234 0.750000 0.802440
O O14 0.750000 0.637301 0.582276
O O15 0.574739 0.750000 0.578583
O O16 0.517415 0.638111 0.507048
O O17 0.750000 0.151661 0.538728
O O18 0.553712 0.250000 0.563595
O O19 0.750000 0.637216 0.208205
O O20 0.924172 0.750000 0.204381
O O21 0.985198 0.636520 0.134694
O O22 0.750000 0.135349 0.916918
O O23 0.918535 0.250000 0.925924
#
# Coordination Sequence:
#
# PCOD9450405 Si02
#       8
#     8   8   8   8   8   8   8   8
#     4   8  14  26  46  73 104 136 171 216 269 319
#     4  11  23  39  58  79 108 145 183 224 269 319
#     4  12  25  38  54  78 110 146 183 224 269 318
#     4   9  18  34  56  80 107 141 181 224 271 324
#     4  10  21  38  61  86 111 141 177 217 263 317
#     4   9  19  37  61  87 111 136 171 217 267 317
#     4  10  20  34  54  80 110 143 180 223 269 319
#     4   9  16  26  44  73 107 140 176 219 265 314
#
# _framework density 18.382840999999999
#
# number of rings (size 3 to 8) (size 9 to 14) (size 15 to 20)
#    0.000    2.250    0.000    4.125    0.000    7.250 
#    0.000    2.500    0.000    0.750    0.000    0.000 
#    0.000    0.000    0.000    0.000    0.000    0.000 
#
# Total GULP energy -357286.748668 kJ/mol
# GULP energy per Si atom -5582.605448 kJ/mol
# Density = 1.834100 g / cm^3
# Si number density = 18.382841 Si / 1000 Ang^3
#
#
#
# Elastic Constant Matrix: (Units=GPa)
#
#
# Indices 1 2 3 4 5 6 
#
# 1 113.8413 32.9802 87.9689 0.0000 0.0000 0.0000
# 2 32.9802 20.0282 34.0664 0.0000 0.0000 0.0000
# 3 87.9689 34.0664 154.6886 0.0000 0.0000 0.0000
# 4 0.0000 0.0000 0.0000 -12.9057 0.0000 0.0000
# 5 0.0000 0.0000 0.0000 0.0000 39.1779 0.0000
# 6 0.0000 0.0000 0.0000 0.0000 0.0000 22.9201
#
#
#
# Elastic Compliance Matrix: (Units=1/GPa)
#
#
# Indices 1 2 3 4 5 6 
#
# 1 0.020394 -0.022155 -0.006719 0.000000 0.000000 0.000000
# 2 -0.022155 0.103902 -0.010283 0.000000 0.000000 0.000000
# 3 -0.006719 -0.010283 0.012550 0.000000 0.000000 0.000000
# 4 0.000000 0.000000 0.000000 -0.077485 0.000000 0.000000
# 5 0.000000 0.000000 0.000000 0.000000 0.025525 0.000000
# 6 0.000000 0.000000 0.000000 0.000000 0.000000 0.043630
#
#
# Mechanical properties :
#
#
# Convention : Reuss Voigt Hill
#
# Bulk Modulus (GPa) = 17.08424 66.50988 41.79706
# Shear Modulus (GPa) = 22.09064 18.74131 20.41597
#
# Velocity S-wave (km/s) = 3.47031 3.19642 3.33618
# Velocity P-wave (km/s) = 5.03698 7.06271 6.13404
#
# Compressibility (1/GPa) = 0.05853349
#
# Stress axis : x y z
#
# Youngs Moduli (GPa) = 49.03304 9.62443 79.68097
#
# Poissons Ratio (x) = 0.21323 0.53537
# Poissons Ratio (y) = 1.08633 0.81934
# Poissons Ratio (z) = 0.32945 0.09897
#
# Static dielectric constant tensor:
#      x y z
#    x 1.613210 0.000000 0.000000 
#    y 0.000000 1.623900 0.000000 
#    z 0.000000 0.000000 1.614550 
# 
# From -- ./inp_files/29460.got.cif
#   From: 2010.05.17/outbox.cif.g08.bks.cpg/sg59_15_cif.got.tgz:29460.got - 2010.06.03 14:40:33.
