data_PCOD9450568
_publ_section_title
;
Structure prediction by ZEFSAII (Michael W. Deem and Ramdas Pophale) SiO2 
 PCOD9450568
Probable space group: P M M N
;
_chemical_formula_sum "Si O2"
_cell_formula_units_Z 64
_cell_length_a 14.340532
_cell_length_b 8.929326
_cell_length_c 27.195852
_cell_angle_alpha 90.000000
_cell_angle_beta 90.000000
_cell_angle_gamma 90.000000
_cell_volume 3482.463802
_symmetry_space_group_name_H-M "P M M N"
_symmetry_group_IT_number 59
_space_group.IT_coordinate_system_code '2'
_symmetry_cell_setting 'orthorhombic'
loop_
_space_group_symop_operation_xyz
x,y,z
1/2-x,1/2-y,z
1/2+x,-y,-z
-x,1/2+y,-z
-x,-y,-z
1/2+x,1/2+y,-z
1/2-x,y,z
x,1/2-y,z
loop_
_atom_site_type_symbol
_atom_site_label
_atom_site_fract_x
_atom_site_fract_y
_atom_site_fract_z
Si Si1 0.143252 0.067496 0.138606
Si Si2 0.040679 0.071071 0.424676
Si Si3 0.452035 0.429233 0.240418
Si Si4 0.854374 0.926541 0.230246
Si Si5 0.857416 0.070062 0.482065
Si Si6 0.357753 0.928945 0.333305
Si Si7 0.012847 0.073884 0.052706
Si Si8 0.357110 0.420778 0.887969
O O1 0.250000 0.018816 0.143905
O O2 0.142273 0.250000 0.138162
O O3 0.082335 0.022153 0.185987
O O4 0.097320 0.017302 0.087373
O O5 0.049098 0.250000 0.420811
O O6 0.933940 0.034928 0.440157
O O7 0.105641 0.011175 0.468997
O O8 0.075232 0.995097 0.374986
O O9 0.446763 0.250000 0.242857
O O10 0.557646 0.482882 0.249713
O O11 0.385944 0.501135 0.281233
O O12 0.750000 0.974805 0.245726
O O13 0.864237 0.750000 0.241924
O O14 0.858208 0.939461 0.170851
O O15 0.750000 0.030815 0.471099
O O16 0.861456 0.250000 0.490257
O O17 0.250000 0.965460 0.345143
O O18 0.366791 0.750000 0.331419
O O19 0.025020 0.250000 0.045739
O O20 0.922115 0.037629 0.085130
O O21 0.000000 0.000000 0.000000
O O22 0.250000 0.434686 0.904013
O O23 0.388379 0.250000 0.898861
#
# Coordination Sequence:
#
# PCOD9450568 Si02
#       8
#     8   8   8   8   8   8   8   8
#     4   9  19  36  56  78 106 140 177 220 273 330
#     4  10  20  34  55  84 115 150 195 244 288 334
#     4  11  21  36  60  87 112 142 185 236 283 333
#     4   9  18  34  57  83 111 142 176 217 267 325
#     4   9  18  34  56  82 115 154 192 234 288 346
#     4  11  24  40  57  80 113 153 193 235 288 345
#     4  11  22  36  54  79 109 142 180 224 272 327
#     4   9  18  34  56  79 104 137 173 213 264 319
#
# _framework density 18.377791999999999
#
# number of rings (size 3 to 8) (size 9 to 14) (size 15 to 20)
#    0.000    2.125    1.250    3.000    0.000    4.750 
#    0.000    3.125    0.000    5.625    0.000    0.000 
#    0.000    0.000    0.000    0.000    0.000    0.000 
#
# Total GULP energy -357107.655104 kJ/mol
# GULP energy per Si atom -5579.807111 kJ/mol
# Density = 1.833596 g / cm^3
# Si number density = 18.377792 Si / 1000 Ang^3
#
#
#
# Elastic Constant Matrix: (Units=GPa)
#
#
# Indices 1 2 3 4 5 6 
#
# 1 121.2224 34.2695 33.8095 0.0000 0.0000 0.0000
# 2 34.2695 35.5062 28.2731 0.0000 0.0000 0.0000
# 3 33.8095 28.2731 73.6629 0.0000 0.0000 0.0000
# 4 0.0000 0.0000 0.0000 30.8879 0.0000 0.0000
# 5 0.0000 0.0000 0.0000 0.0000 16.3121 0.0000
# 6 0.0000 0.0000 0.0000 0.0000 0.0000 28.7954
#
#
#
# Elastic Compliance Matrix: (Units=1/GPa)
#
#
# Indices 1 2 3 4 5 6 
#
# 1 0.011453 -0.009891 -0.001460 0.000000 0.000000 0.000000
# 2 -0.009891 0.049103 -0.014307 0.000000 0.000000 0.000000
# 3 -0.001460 -0.014307 0.019737 0.000000 0.000000 0.000000
# 4 0.000000 0.000000 0.000000 0.032375 0.000000 0.000000
# 5 0.000000 0.000000 0.000000 0.000000 0.061304 0.000000
# 6 0.000000 0.000000 0.000000 0.000000 0.000000 0.034728
#
#
# Mechanical properties :
#
#
# Convention : Reuss Voigt Hill
#
# Bulk Modulus (GPa) = 34.51096 47.01065 40.76080
# Shear Modulus (GPa) = 18.54089 24.13506 21.33797
#
# Velocity S-wave (km/s) = 3.17972 3.62784 3.41115
# Velocity P-wave (km/s) = 5.68333 6.57145 6.14346
#
# Compressibility (1/GPa) = 0.02897630
#
# Stress axis : x y z
#
# Youngs Moduli (GPa) = 87.31520 20.36540 50.66706
#
# Poissons Ratio (x) = 0.20144 0.07398
# Poissons Ratio (y) = 0.86365 0.72488
# Poissons Ratio (z) = 0.12749 0.29136
#
# Static dielectric constant tensor:
#      x y z
#    x 1.644780 0.000000 0.000000 
#    y 0.000000 1.685180 0.000000 
#    z 0.000000 0.000000 1.614020 
# 
# From -- ./inp_files/32223.got.cif
#   From: 2010.05.17/outbox.cif.g08.bks.cpg/sg59_17_cif.got.tgz:32223.got - 2010.06.03 14:40:33.
