data_PCOD9450330
_publ_section_title
;
Structure prediction by ZEFSAII (Michael W. Deem and Ramdas Pophale) SiO2 
 PCOD9450330
Probable space group: P M M N
;
_chemical_formula_sum "Si O2"
_cell_formula_units_Z 64
_cell_length_a 9.026340
_cell_length_b 14.929042
_cell_length_c 26.567515
_cell_angle_alpha 90.000000
_cell_angle_beta 90.000000
_cell_angle_gamma 90.000000
_cell_volume 3580.095095
_symmetry_space_group_name_H-M "P M M N"
_symmetry_group_IT_number 59
_space_group.IT_coordinate_system_code '2'
_symmetry_cell_setting 'orthorhombic'
loop_
_space_group_symop_operation_xyz
x,y,z
1/2-x,1/2-y,z
1/2+x,-y,-z
-x,1/2+y,-z
-x,-y,-z
1/2+x,1/2+y,-z
1/2-x,y,z
x,1/2-y,z
loop_
_atom_site_type_symbol
_atom_site_label
_atom_site_fract_x
_atom_site_fract_y
_atom_site_fract_z
Si Si1 0.572189 0.494707 0.445326
Si Si2 0.928445 0.855055 0.629662
Si Si3 0.426350 0.494459 0.173676
Si Si4 0.419902 0.648442 0.897083
Si Si5 0.926647 0.597285 0.998574
Si Si6 0.422604 0.147733 0.887552
Si Si7 0.571991 0.494213 0.710211
Si Si8 0.928305 0.645599 0.363986
O O1 0.500000 0.500000 0.500000
O O2 0.750000 0.488364 0.448603
O O3 0.507697 0.409273 0.415158
O O4 0.535538 0.584362 0.412834
O O5 0.750000 0.858771 0.622417
O O6 0.969809 0.750000 0.633217
O O7 0.963245 0.914902 0.679140
O O8 0.250000 0.483609 0.172223
O O9 0.501800 0.415145 0.142668
O O10 0.474672 0.583733 0.144618
O O11 0.474106 0.498114 0.231823
O O12 0.250000 0.619170 0.904885
O O13 0.421026 0.750000 0.878690
O O14 0.502481 0.644530 0.950523
O O15 0.750000 0.591921 0.992009
O O16 0.955857 0.640735 0.052907
O O17 0.000000 0.500000 0.000000
O O18 0.250000 0.120452 0.881485
O O19 0.437623 0.250000 0.871504
O O20 0.750000 0.483119 0.708504
O O21 0.498771 0.409785 0.682115
O O22 0.750000 0.644788 0.358814
O O23 0.975156 0.750000 0.367233
#
# Coordination Sequence:
#
# PCOD9450330 Si02
#       8
#     8   8   8   8   8   8   8   8
#     4  10  20  34  53  81 117 151 186 229 272 320
#     4   9  18  35  58  80 106 144 186 228 276 328
#     4  11  23  38  58  83 112 145 181 228 281 331
#     4  11  24  40  58  82 112 146 184 226 273 328
#     4  11  21  36  60  85 110 143 181 222 273 330
#     4  10  22  39  58  80 109 145 182 221 269 330
#     4   9  20  37  56  81 109 139 180 229 279 328
#     4   9  19  36  57  80 107 145 189 228 271 324
#
# _framework density 17.876621
#
# number of rings (size 3 to 8) (size 9 to 14) (size 15 to 20)
#    0.000    2.000    1.250    1.875    0.000    5.750 
#    0.000    5.000    0.000    0.000    0.000    0.000 
#    0.000    0.000    0.000    0.000    0.000    0.000 
#
# Total GULP energy -357195.078540 kJ/mol
# GULP energy per Si atom -5581.173102 kJ/mol
# Density = 1.783593 g / cm^3
# Si number density = 17.876621 Si / 1000 Ang^3
#
#
#
# Elastic Constant Matrix: (Units=GPa)
#
#
# Indices 1 2 3 4 5 6 
#
# 1 60.0515 49.1020 63.8926 0.0000 0.0000 0.0000
# 2 49.1020 143.0206 67.1223 0.0000 0.0000 0.0000
# 3 63.8926 67.1223 154.2521 0.0000 0.0000 0.0000
# 4 0.0000 0.0000 0.0000 27.5048 0.0000 0.0000
# 5 0.0000 0.0000 0.0000 0.0000 30.3706 0.0000
# 6 0.0000 0.0000 0.0000 0.0000 0.0000 18.1673
#
#
#
# Elastic Compliance Matrix: (Units=1/GPa)
#
#
# Indices 1 2 3 4 5 6 
#
# 1 0.033783 -0.006322 -0.011242 0.000000 0.000000 0.000000
# 2 -0.006322 0.009970 -0.001719 0.000000 0.000000 0.000000
# 3 -0.011242 -0.001719 0.011888 0.000000 0.000000 0.000000
# 4 0.000000 0.000000 0.000000 0.036357 0.000000 0.000000
# 5 0.000000 0.000000 0.000000 0.000000 0.032927 0.000000
# 6 0.000000 0.000000 0.000000 0.000000 0.000000 0.055044
#
#
# Mechanical properties :
#
#
# Convention : Reuss Voigt Hill
#
# Bulk Modulus (GPa) = 58.57346 79.72865 69.15106
# Shear Modulus (GPa) = 22.29883 27.02235 24.66059
#
# Velocity S-wave (km/s) = 3.53565 3.89215 3.71818
# Velocity P-wave (km/s) = 7.03593 8.05572 7.56303
#
# Compressibility (1/GPa) = 0.01707258
#
# Stress axis : x y z
#
# Youngs Moduli (GPa) = 29.60052 100.30531 84.12038
#
# Poissons Ratio (x) = 0.63416 0.94570
# Poissons Ratio (y) = 0.18714 0.14464
# Poissons Ratio (z) = 0.33277 0.17247
#
# Static dielectric constant tensor:
#      x y z
#    x 1.604770 0.000000 0.000000 
#    y 0.000000 1.608430 0.000000 
#    z 0.000000 0.000000 1.595820 
# 
# From -- ./inp_files/31566.got.cif
#   From: 2010.05.17/outbox.cif.g08.bks.cpg/sg59_16_cif.got.tgz:31566.got - 2010.06.03 14:40:33.
