data_PCOD9450148
_publ_section_title
;
Structure prediction by ZEFSAII (Michael W. Deem and Ramdas Pophale) SiO2 
 PCOD9450148
Probable space group: P M M N
;
_chemical_formula_sum "Si O2"
_cell_formula_units_Z 56
_cell_length_a 9.091420
_cell_length_b 13.854247
_cell_length_c 24.008194
_cell_angle_alpha 90.000000
_cell_angle_beta 90.000000
_cell_angle_gamma 90.000000
_cell_volume 3023.946752
_symmetry_space_group_name_H-M "P M M N"
_symmetry_group_IT_number 59
_space_group.IT_coordinate_system_code '2'
_symmetry_cell_setting 'orthorhombic'
loop_
_space_group_symop_operation_xyz
x,y,z
1/2-x,1/2-y,z
1/2+x,-y,-z
-x,1/2+y,-z
-x,-y,-z
1/2+x,1/2+y,-z
1/2-x,y,z
x,1/2-y,z
loop_
_atom_site_type_symbol
_atom_site_label
_atom_site_fract_x
_atom_site_fract_y
_atom_site_fract_z
Si Si1 0.418252 0.133380 0.909316
Si Si2 0.574305 0.864202 0.306501
Si Si3 0.074968 0.541996 0.413861
Si Si4 0.581837 0.367780 0.021118
Si Si5 0.424322 0.361383 0.135699
Si Si6 0.074324 0.638458 0.532791
Si Si7 0.924455 0.048300 0.802218
O O1 0.250000 0.100415 0.902253
O O2 0.417027 0.250000 0.909668
O O3 0.517334 0.100069 0.857954
O O4 0.484538 0.101257 0.968532
O O5 0.750000 0.875868 0.307400
O O6 0.541035 0.750000 0.306332
O O7 0.503239 0.913033 0.360539
O O8 0.508223 0.911591 0.251045
O O9 0.250000 0.538399 0.405411
O O10 0.045521 0.607130 0.468793
O O11 0.012062 0.436542 0.428706
O O12 0.750000 0.400195 0.015300
O O13 0.582274 0.250000 0.019909
O O14 0.513433 0.392390 0.080884
O O15 0.250000 0.366731 0.122406
O O16 0.459534 0.250000 0.148579
O O17 0.452334 0.435082 0.185694
O O18 0.250000 0.627716 0.541806
O O19 0.034490 0.750000 0.541387
O O20 0.750000 0.063408 0.796033
#
# Coordination Sequence:
#
# PCOD9450148 Si02
#       7
#     8   8   8   8   8   8   8
#     4  10  20  34  52  75 106 141 173 212 267 327
#     4  11  24  41  60  82 111 148 187 227 274 330
#     4  10  20  35  58  88 120 155 196 238 280 328
#     4   9  17  30  51  78 104 132 170 215 263 319
#     4   9  19  37  57  76 101 133 170 215 269 328
#     4   9  18  34  57  87 124 161 195 235 282 329
#     4  11  23  37  56  80 104 136 179 226 274 323
#
# _framework density 18.518844999999999
#
# number of rings (size 3 to 8) (size 9 to 14) (size 15 to 20)
#    0.000    2.143    0.000    3.000    0.000    8.571 
#    0.000    0.714    0.000    2.571    0.000    0.000 
#    0.000    0.000    0.000    0.000    0.000    0.000 
#
# Total GULP energy -312913.040533 kJ/mol
# GULP energy per Si atom -5587.732867 kJ/mol
# Density = 1.847670 g / cm^3
# Si number density = 18.518845 Si / 1000 Ang^3
#
#
#
# Elastic Constant Matrix: (Units=GPa)
#
#
# Indices 1 2 3 4 5 6 
#
# 1 83.3921 68.1244 72.6360 0.0000 0.0000 0.0000
# 2 68.1244 122.2807 73.2025 0.0000 0.0000 0.0000
# 3 72.6360 73.2025 136.0121 0.0000 0.0000 0.0000
# 4 0.0000 0.0000 0.0000 26.2448 0.0000 0.0000
# 5 0.0000 0.0000 0.0000 0.0000 36.1914 0.0000
# 6 0.0000 0.0000 0.0000 0.0000 0.0000 26.6588
#
#
#
# Elastic Compliance Matrix: (Units=1/GPa)
#
#
# Indices 1 2 3 4 5 6 
#
# 1 0.029042 -0.010173 -0.010035 0.000000 0.000000 0.000000
# 2 -0.010173 0.015628 -0.002979 0.000000 0.000000 0.000000
# 3 -0.010035 -0.002979 0.014314 0.000000 0.000000 0.000000
# 4 0.000000 0.000000 0.000000 0.038103 0.000000 0.000000
# 5 0.000000 0.000000 0.000000 0.000000 0.027631 0.000000
# 6 0.000000 0.000000 0.000000 0.000000 0.000000 0.037511
#
#
# Mechanical properties :
#
#
# Convention : Reuss Voigt Hill
#
# Bulk Modulus (GPa) = 79.28415 85.51230 82.39823
# Shear Modulus (GPa) = 23.49557 26.33379 24.91468
#
# Velocity S-wave (km/s) = 3.56580 3.77503 3.67191
# Velocity P-wave (km/s) = 7.73685 8.07943 7.91000
#
# Compressibility (1/GPa) = 0.01261286
#
# Stress axis : x y z
#
# Youngs Moduli (GPa) = 34.43273 63.98608 69.85965
#
# Poissons Ratio (x) = 0.65090 0.70102
# Poissons Ratio (y) = 0.35027 0.20809
# Poissons Ratio (z) = 0.34552 0.19060
#
# Static dielectric constant tensor:
#      x y z
#    x 1.619280 0.000000 0.000000 
#    y 0.000000 1.673840 0.000000 
#    z 0.000000 0.000000 1.586270 
# 
# From -- ./inp_files/29025.got.cif
#   From: 2010.05.17/outbox.cif.g08.bks.cpg/sg59_15_cif.got.tgz:29025.got - 2010.06.03 14:40:33.
