data_PCOD9450260
_publ_section_title
;
Structure prediction by ZEFSAII (Michael W. Deem and Ramdas Pophale) SiO2 
 PCOD9450260
Probable space group: P M M N
;
_chemical_formula_sum "Si O2"
_cell_formula_units_Z 64
_cell_length_a 9.254709
_cell_length_b 14.206550
_cell_length_c 26.571291
_cell_angle_alpha 90.000000
_cell_angle_beta 90.000000
_cell_angle_gamma 90.000000
_cell_volume 3493.526544
_symmetry_space_group_name_H-M "P M M N"
_symmetry_group_IT_number 59
_space_group.IT_coordinate_system_code '2'
_symmetry_cell_setting 'orthorhombic'
loop_
_space_group_symop_operation_xyz
x,y,z
1/2-x,1/2-y,z
1/2+x,-y,-z
-x,1/2+y,-z
-x,-y,-z
1/2+x,1/2+y,-z
1/2-x,y,z
x,1/2-y,z
loop_
_atom_site_type_symbol
_atom_site_label
_atom_site_fract_x
_atom_site_fract_y
_atom_site_fract_z
Si Si1 0.920741 0.638233 0.924922
Si Si2 0.921482 0.638931 0.128031
Si Si3 0.076118 0.956713 0.629369
Si Si4 0.077088 0.024445 0.176454
Si Si5 0.085095 0.864565 0.024842
Si Si6 0.417165 0.636985 0.523695
Si Si7 0.076553 0.142514 0.578828
Si Si8 0.923926 0.859858 0.723402
O O1 0.750000 0.626544 0.935127
O O2 0.946509 0.750000 0.918369
O O3 0.956152 0.585756 0.873309
O O4 0.010209 0.604349 0.973188
O O5 0.750000 0.624584 0.125091
O O6 0.948308 0.750000 0.136708
O O7 0.992788 0.572937 0.169891
O O8 0.995395 0.612679 0.074786
O O9 0.250000 0.948219 0.635131
O O10 0.036286 0.907323 0.576461
O O11 0.998069 0.907775 0.675595
O O12 0.037952 0.066386 0.621090
O O13 0.250000 0.007959 0.176928
O O14 0.038381 0.083174 0.226018
O O15 0.250000 0.897959 0.029104
O O16 0.087575 0.750000 0.022742
O O17 0.250000 0.609538 0.515009
O O18 0.423130 0.750000 0.528839
O O19 0.510267 0.612594 0.474793
O O20 0.250000 0.141430 0.574140
O O21 0.030374 0.250000 0.589346
O O22 0.750000 0.863526 0.718025
O O23 0.965195 0.750000 0.727480
#
# Coordination Sequence:
#
# PCOD9450260 Si02
#       8
#     8   8   8   8   8   8   8   8
#     4   9  17  31  52  77 106 139 173 211 259 315
#     4  10  21  37  56  78 105 137 174 215 258 307
#     4  10  20  34  53  77 107 144 182 219 263 313
#     4  10  21  37  57  79 103 135 174 216 264 313
#     4   9  17  30  50  77 108 140 173 211 256 307
#     4   9  17  29  47  74 107 141 178 221 268 316
#     4   9  18  32  50  75 108 144 181 220 261 307
#     4  10  22  40  60  82 107 134 169 215 263 312
#
# _framework density 18.319597000000002
#
# number of rings (size 3 to 8) (size 9 to 14) (size 15 to 20)
#    0.000    2.500    0.000    1.875    0.000    7.000 
#    0.000    1.875    0.000    4.500    0.000    0.000 
#    0.000    0.000    0.000    0.000    0.000    0.000 
#
# Total GULP energy -357282.078983 kJ/mol
# GULP energy per Si atom -5582.532484 kJ/mol
# Density = 1.827790 g / cm^3
# Si number density = 18.319597 Si / 1000 Ang^3
#
#
#
# Elastic Constant Matrix: (Units=GPa)
#
#
# Indices 1 2 3 4 5 6 
#
# 1 43.7720 54.0965 55.6218 0.0000 0.0000 0.0000
# 2 54.0965 112.3301 86.4824 0.0000 0.0000 0.0000
# 3 55.6218 86.4824 125.5690 0.0000 0.0000 0.0000
# 4 0.0000 0.0000 0.0000 34.8802 0.0000 0.0000
# 5 0.0000 0.0000 0.0000 0.0000 31.0931 0.0000
# 6 0.0000 0.0000 0.0000 0.0000 0.0000 22.7450
#
#
#
# Elastic Compliance Matrix: (Units=1/GPa)
#
#
# Indices 1 2 3 4 5 6 
#
# 1 0.069397 -0.020764 -0.016439 0.000000 0.000000 0.000000
# 2 -0.020764 0.025164 -0.008133 0.000000 0.000000 0.000000
# 3 -0.016439 -0.008133 0.020847 0.000000 0.000000 0.000000
# 4 0.000000 0.000000 0.000000 0.028670 0.000000 0.000000
# 5 0.000000 0.000000 0.000000 0.000000 0.032161 0.000000
# 6 0.000000 0.000000 0.000000 0.000000 0.000000 0.043966
#
#
# Mechanical properties :
#
#
# Convention : Reuss Voigt Hill
#
# Bulk Modulus (GPa) = 40.42891 74.89697 57.66294
# Shear Modulus (GPa) = 15.66796 23.44169 19.55482
#
# Velocity S-wave (km/s) = 2.92765 3.58103 3.27069
# Velocity P-wave (km/s) = 5.79178 7.62041 6.76814
#
# Compressibility (1/GPa) = 0.02473478
#
# Stress axis : x y z
#
# Youngs Moduli (GPa) = 14.40987 39.73964 47.96808
#
# Poissons Ratio (x) = 0.82516 0.78856
# Poissons Ratio (y) = 0.29921 0.39014
# Poissons Ratio (z) = 0.23689 0.32321
#
# Static dielectric constant tensor:
#      x y z
#    x 1.616670 0.000000 0.000000 
#    y 0.000000 1.674010 0.000000 
#    z 0.000000 0.000000 1.585650 
# 
# From -- ./inp_files/31591.got.cif
#   From: 2010.05.17/outbox.cif.g08.bks.cpg/sg59_16_cif.got.tgz:31591.got - 2010.06.03 14:40:33.
