data_PCOD9450599
_publ_section_title
;
Structure prediction by ZEFSAII (Michael W. Deem and Ramdas Pophale) SiO2 
 PCOD9450599
Probable space group: P M M N
;
_chemical_formula_sum "Si O2"
_cell_formula_units_Z 40
_cell_length_a 29.481958
_cell_length_b 8.667319
_cell_length_c 7.971321
_cell_angle_alpha 90.000000
_cell_angle_beta 90.000000
_cell_angle_gamma 90.000000
_cell_volume 2036.907946
_symmetry_space_group_name_H-M "P M M N"
_symmetry_group_IT_number 59
_space_group.IT_coordinate_system_code '2'
_symmetry_cell_setting 'orthorhombic'
loop_
_space_group_symop_operation_xyz
x,y,z
1/2-x,1/2-y,z
1/2+x,-y,-z
-x,1/2+y,-z
-x,-y,-z
1/2+x,1/2+y,-z
1/2-x,y,z
x,1/2-y,z
loop_
_atom_site_type_symbol
_atom_site_label
_atom_site_fract_x
_atom_site_fract_y
_atom_site_fract_z
Si Si1 0.949730 0.433284 0.518364
Si Si2 0.199766 0.435710 0.306715
Si Si3 0.396419 0.436115 0.164445
Si Si4 0.301147 0.934007 0.682772
Si Si5 0.393710 0.066080 0.792382
O O1 0.951438 0.250000 0.522717
O O2 0.926336 0.494153 0.687871
O O3 0.920009 0.487236 0.359707
O O4 0.000000 0.500000 0.500000
O O5 0.250000 0.473227 0.237882
O O6 0.198031 0.250000 0.332161
O O7 0.156251 0.479110 0.197382
O O8 0.195559 0.516232 0.487613
O O9 0.399249 0.250000 0.174214
O O10 0.410351 0.482537 0.976878
O O11 0.250000 0.973105 0.739036
O O12 0.307391 0.750000 0.696047
O O13 0.340893 0.021821 0.777667
O O14 0.398587 0.250000 0.776149
#
# Coordination Sequence:
#
# PCOD9450599 Si02
#       5
#     8   8   8   8   8
#     4  12  26  45  69  92 121 159 201 255 314 372
#     4   9  17  32  57  87 121 163 207 251 298 352
#     4  10  22  40  64  94 127 162 206 255 304 364
#     4  10  20  34  55  87 126 168 211 253 301 356
#     4  11  23  40  64  94 128 164 205 252 305 369
#
# _framework density 19.637608
#
# number of rings (size 3 to 8) (size 9 to 14) (size 15 to 20)
#    0.000    1.600    2.000    3.000    0.000    4.400 
#    0.000    2.000    0.000    2.400    0.000    0.000 
#    0.000    0.000    0.000    0.000    0.000    0.000 
#
# Total GULP energy -223519.086372 kJ/mol
# GULP energy per Si atom -5587.977159 kJ/mol
# Density = 1.959291 g / cm^3
# Si number density = 19.637608 Si / 1000 Ang^3
#
#
#
# Elastic Constant Matrix: (Units=GPa)
#
#
# Indices 1 2 3 4 5 6 
#
# 1 89.2967 19.7675 44.6980 0.0000 0.0000 0.0000
# 2 19.7675 35.7647 31.2975 0.0000 0.0000 0.0000
# 3 44.6980 31.2975 124.7081 0.0000 0.0000 0.0000
# 4 0.0000 0.0000 0.0000 -5.4081 0.0000 0.0000
# 5 0.0000 0.0000 0.0000 0.0000 -3.6300 0.0000
# 6 0.0000 0.0000 0.0000 0.0000 0.0000 33.4098
#
#
#
# Elastic Compliance Matrix: (Units=1/GPa)
#
#
# Indices 1 2 3 4 5 6 
#
# 1 0.014153 -0.004336 -0.003985 0.000000 0.000000 0.000000
# 2 -0.004336 0.037157 -0.007771 0.000000 0.000000 0.000000
# 3 -0.003985 -0.007771 0.011397 0.000000 0.000000 0.000000
# 4 0.000000 0.000000 0.000000 -0.184909 0.000000 0.000000
# 5 0.000000 0.000000 0.000000 0.000000 -0.275483 0.000000
# 6 0.000000 0.000000 0.000000 0.000000 0.000000 0.029931
#
#
# Mechanical properties :
#
#
# Convention : Reuss Voigt Hill
#
# Bulk Modulus (GPa) = 32.76041 49.03283 40.89662
# Shear Modulus (GPa) = -15.36592 15.14146 -0.11223
#
# Velocity S-wave (km/s) = -2.80031 2.77978 -0.23932
# Velocity P-wave (km/s) = 2.50261 5.94356 4.56010
#
# Compressibility (1/GPa) = 0.03052465
#
# Stress axis : x y z
#
# Youngs Moduli (GPa) = 70.65686 26.91255 87.74060
#
# Poissons Ratio (x) = 0.11668 0.34961
# Poissons Ratio (y) = 0.30633 0.68186
# Poissons Ratio (z) = 0.28154 0.20915
#
# Static dielectric constant tensor:
#      x y z
#    x 1.693690 0.000000 0.000000 
#    y 0.000000 1.548050 0.000000 
#    z 0.000000 0.000000 1.681780 
# 
# From -- ./inp_files/6032.got.cif
#   From: 2010.05.17/outbox.cif.g08.bks.cpg/sg59_4_cif.got.tgz:6032.got - 2010.06.03 14:40:33.
