data_PCOD9450624
_publ_section_title
;
Structure prediction by ZEFSAII (Michael W. Deem and Ramdas Pophale) SiO2 
 PCOD9450624
Probable space group: P M M N
;
_chemical_formula_sum "Si O2"
_cell_formula_units_Z 48
_cell_length_a 7.732994
_cell_length_b 9.242492
_cell_length_c 35.634244
_cell_angle_alpha 90.000000
_cell_angle_beta 90.000000
_cell_angle_gamma 90.000000
_cell_volume 2546.855504
_symmetry_space_group_name_H-M "P M M N"
_symmetry_group_IT_number 59
_space_group.IT_coordinate_system_code '2'
_symmetry_cell_setting 'orthorhombic'
loop_
_space_group_symop_operation_xyz
x,y,z
1/2-x,1/2-y,z
1/2+x,-y,-z
-x,1/2+y,-z
-x,-y,-z
1/2+x,1/2+y,-z
1/2-x,y,z
x,1/2-y,z
loop_
_atom_site_type_symbol
_atom_site_label
_atom_site_fract_x
_atom_site_fract_y
_atom_site_fract_z
Si Si1 0.541948 0.085679 0.962226
Si Si2 0.459985 0.417179 0.111855
Si Si3 0.447146 0.421374 0.811932
Si Si4 0.042413 0.586036 0.537696
Si Si5 0.250000 0.926043 0.243800
Si Si6 0.750000 0.074139 0.670710
Si Si7 0.046574 0.423691 0.613320
O O1 0.750000 0.091907 0.959460
O O2 0.475905 0.250000 0.963717
O O3 0.479805 0.002036 0.925197
O O4 0.500000 0.000000 0.000000
O O5 0.250000 0.421220 0.112472
O O6 0.513430 0.250000 0.110296
O O7 0.523561 0.493491 0.149574
O O8 0.250000 0.439154 0.799254
O O9 0.476826 0.250000 0.819224
O O10 0.582472 0.468973 0.780279
O O11 0.250000 0.592999 0.539858
O O12 0.974517 0.750000 0.536407
O O13 0.987310 0.501674 0.575139
O O14 0.000000 0.500000 0.500000
O O15 0.250000 0.750000 0.245343
O O16 0.250000 0.978846 0.286525
O O17 0.750000 0.250000 0.672077
O O18 0.579333 0.032841 0.647231
O O19 0.250000 0.456142 0.620286
O O20 0.032960 0.250000 0.608219
#
# Coordination Sequence:
#
# PCOD9450624 Si02
#       7
#     8   8   8   8   4   4   8
#     4  10  21  36  55  79 109 146 186 229 275 323
#     4  10  20  35  56  79 106 144 186 230 282 334
#     4  10  20  34  56  84 112 146 185 226 278 334
#     4  10  21  35  52  76 107 142 181 228 278 327
#     4   9  18  34  55  83 117 143 179 237 283 329
#     4   9  18  32  55  83 109 145 185 225 279 335
#     4   9  18  33  52  76 108 143 183 230 276 327
#
# _framework density 18.846772000000001
#
# number of rings (size 3 to 8) (size 9 to 14) (size 15 to 20)
#    0.000    2.333    0.833    1.500    1.167    4.333 
#    0.000    3.333    0.000    2.000    0.000    2.333 
#    0.000    0.000    0.000    0.000    0.000    0.000 
#
# Total GULP energy -267947.544557 kJ/mol
# GULP energy per Si atom -5582.240512 kJ/mol
# Density = 1.880388 g / cm^3
# Si number density = 18.846772 Si / 1000 Ang^3
#
#
#
# Elastic Constant Matrix: (Units=GPa)
#
#
# Indices 1 2 3 4 5 6 
#
# 1 74.2138 45.8735 68.7624 0.0000 0.0000 0.0000
# 2 45.8735 92.3018 79.0025 0.0000 0.0000 0.0000
# 3 68.7624 79.0025 208.2259 0.0000 0.0000 0.0000
# 4 0.0000 0.0000 0.0000 24.9956 0.0000 0.0000
# 5 0.0000 0.0000 0.0000 0.0000 23.9959 0.0000
# 6 0.0000 0.0000 0.0000 0.0000 0.0000 15.6146
#
#
#
# Elastic Compliance Matrix: (Units=1/GPa)
#
#
# Indices 1 2 3 4 5 6 
#
# 1 0.022111 -0.007019 -0.004639 0.000000 0.000000 0.000000
# 2 -0.007019 0.018272 -0.004615 0.000000 0.000000 0.000000
# 3 -0.004639 -0.004615 0.008085 0.000000 0.000000 0.000000
# 4 0.000000 0.000000 0.000000 0.040007 0.000000 0.000000
# 5 0.000000 0.000000 0.000000 0.000000 0.041674 0.000000
# 6 0.000000 0.000000 0.000000 0.000000 0.000000 0.064043
#
#
# Mechanical properties :
#
#
# Convention : Reuss Voigt Hill
#
# Bulk Modulus (GPa) = 62.79868 84.66868 73.73368
# Shear Modulus (GPa) = 21.54758 24.99475 23.27116
#
# Velocity S-wave (km/s) = 3.38495 3.64567 3.51772
# Velocity P-wave (km/s) = 6.97640 7.92108 7.46370
#
# Compressibility (1/GPa) = 0.01592390
#
# Stress axis : x y z
#
# Youngs Moduli (GPa) = 45.22625 54.72808 123.68212
#
# Poissons Ratio (x) = 0.38412 0.57374
# Poissons Ratio (y) = 0.31743 0.57077
# Poissons Ratio (z) = 0.20980 0.25256
#
# Static dielectric constant tensor:
#      x y z
#    x 1.662460 0.000000 0.000000 
#    y 0.000000 1.647820 0.000000 
#    z 0.000000 0.000000 1.609730 
# 
# From -- ./inp_files/33000.got.cif
#   From: 2010.05.17/outbox.cif.g08.bks.cpg/sg59_17_cif.got.tgz:33000.got - 2010.06.03 14:40:33.
