data_PCOD9450100
_publ_section_title
;
Structure prediction by ZEFSAII (Michael W. Deem and Ramdas Pophale) SiO2 
 PCOD9450100
Probable space group: P M M N
;
_chemical_formula_sum "Si O2"
_cell_formula_units_Z 48
_cell_length_a 20.219768
_cell_length_b 8.950978
_cell_length_c 14.545312
_cell_angle_alpha 90.000000
_cell_angle_beta 90.000000
_cell_angle_gamma 90.000000
_cell_volume 2632.507998
_symmetry_space_group_name_H-M "P M M N"
_symmetry_group_IT_number 59
_space_group.IT_coordinate_system_code '2'
_symmetry_cell_setting 'orthorhombic'
loop_
_space_group_symop_operation_xyz
x,y,z
1/2-x,1/2-y,z
1/2+x,-y,-z
-x,1/2+y,-z
-x,-y,-z
1/2+x,1/2+y,-z
1/2-x,y,z
x,1/2-y,z
loop_
_atom_site_type_symbol
_atom_site_label
_atom_site_fract_x
_atom_site_fract_y
_atom_site_fract_z
Si Si1 0.977245 0.577372 0.276600
Si Si2 0.827919 0.912979 0.808048
Si Si3 0.827835 0.932223 0.007759
Si Si4 0.456407 0.929337 0.917405
Si Si5 0.065840 0.569223 0.545889
Si Si6 0.624576 0.080536 0.635883
O O1 0.958071 0.750000 0.260682
O O2 0.049856 0.578852 0.323256
O O3 0.980748 0.488346 0.181560
O O4 0.930408 0.498758 0.352493
O O5 0.750000 0.896816 0.823319
O O6 0.860211 0.750000 0.802295
O O7 0.849183 0.984712 0.904422
O O8 0.836520 0.990155 0.711383
O O9 0.750000 0.967116 0.024728
O O10 0.833631 0.750000 0.010027
O O11 0.881176 0.009658 0.072565
O O12 0.459127 0.750000 0.922505
O O13 0.500000 0.000000 0.000000
O O14 0.060708 0.750000 0.548946
O O15 0.121245 0.528987 0.469861
O O16 0.000000 0.500000 0.500000
O O17 0.648463 0.250000 0.635767
#
# Coordination Sequence:
#
# PCOD9450100 Si02
#       6
#     8   8   8   8   8   8
#     4  10  20  34  51  74 102 131 168 211 257 308
#     4   9  18  31  48  71  97 127 164 203 245 297
#     4   9  19  37  57  76 103 140 179 218 263 316
#     4  12  24  36  53  79 110 141 176 220 268 315
#     4   9  17  30  47  70  99 130 164 200 245 303
#     4   9  18  30  47  72 100 129 161 200 246 297
#
# _framework density 18.233563
#
# number of rings (size 3 to 8) (size 9 to 14) (size 15 to 20)
#    0.000    2.333    0.000    5.500    0.000    8.000 
#    0.000    1.667    0.000    1.000    0.000    4.667 
#    0.000    0.000    0.000    0.000    0.000    0.000 
#
# Total GULP energy -267264.016976 kJ/mol
# GULP energy per Si atom -5568.000354 kJ/mol
# Density = 1.819206 g / cm^3
# Si number density = 18.233563 Si / 1000 Ang^3
#
#
#
# Elastic Constant Matrix: (Units=GPa)
#
#
# Indices 1 2 3 4 5 6 
#
# 1 31.3537 16.6946 8.4739 0.0000 0.0000 0.0000
# 2 16.6946 76.5677 38.6930 0.0000 0.0000 0.0000
# 3 8.4739 38.6930 105.6375 0.0000 0.0000 0.0000
# 4 0.0000 0.0000 0.0000 32.9554 0.0000 0.0000
# 5 0.0000 0.0000 0.0000 0.0000 30.9016 0.0000
# 6 0.0000 0.0000 0.0000 0.0000 0.0000 20.8045
#
#
#
# Elastic Compliance Matrix: (Units=1/GPa)
#
#
# Indices 1 2 3 4 5 6 
#
# 1 0.036083 -0.007860 -0.000016 0.000000 0.000000 0.000000
# 2 -0.007860 0.017739 -0.005867 0.000000 0.000000 0.000000
# 3 -0.000016 -0.005867 0.011617 0.000000 0.000000 0.000000
# 4 0.000000 0.000000 0.000000 0.030344 0.000000 0.000000
# 5 0.000000 0.000000 0.000000 0.000000 0.032361 0.000000
# 6 0.000000 0.000000 0.000000 0.000000 0.000000 0.048067
#
#
# Mechanical properties :
#
#
# Convention : Reuss Voigt Hill
#
# Bulk Modulus (GPa) = 26.34748 37.92020 32.13384
# Shear Modulus (GPa) = 23.11116 26.91213 25.01164
#
# Velocity S-wave (km/s) = 3.56407 3.84600 3.70771
# Velocity P-wave (km/s) = 5.60519 6.36901 5.99927
#
# Compressibility (1/GPa) = 0.03795430
#
# Stress axis : x y z
#
# Youngs Moduli (GPa) = 27.71369 56.37358 86.08422
#
# Poissons Ratio (x) = 0.44307 0.00135
# Poissons Ratio (y) = 0.21782 0.50505
# Poissons Ratio (z) = 0.00043 0.33074
#
# Static dielectric constant tensor:
#      x y z
#    x 1.666470 0.000000 0.000000 
#    y 0.000000 1.635780 0.000000 
#    z 0.000000 0.000000 1.696450 
# 
# From -- ./inp_files/24500.got.cif
#   From: 2010.05.17/outbox.cif.g08.bks.cpg/sg59_13_cif.got.tgz:24500.got - 2010.06.03 14:40:33.
