data_PCOD9450895
_publ_section_title
;
Structure prediction by ZEFSAII (Michael W. Deem and Ramdas Pophale) SiO2 
 PCOD9450895
Probable space group: P M M N
;
_chemical_formula_sum "Si O2"
_cell_formula_units_Z 48
_cell_length_a 7.627119
_cell_length_b 24.501092
_cell_length_c 10.105883
_cell_angle_alpha 90.000000
_cell_angle_beta 90.000000
_cell_angle_gamma 90.000000
_cell_volume 1888.514090
_symmetry_space_group_name_H-M "P M M N"
_symmetry_group_IT_number 59
_space_group.IT_coordinate_system_code '2'
_symmetry_cell_setting 'orthorhombic'
loop_
_space_group_symop_operation_xyz
x,y,z
1/2-x,1/2-y,z
1/2+x,-y,-z
-x,1/2+y,-z
-x,-y,-z
1/2+x,1/2+y,-z
1/2-x,y,z
x,1/2-y,z
loop_
_atom_site_type_symbol
_atom_site_label
_atom_site_fract_x
_atom_site_fract_y
_atom_site_fract_z
Si Si1 0.049987 0.190220 0.804718
Si Si2 0.461877 0.431445 0.749215
Si Si3 0.458162 0.308298 0.383900
Si Si4 0.049212 0.660564 0.915009
Si Si5 0.541885 0.955277 0.830902
Si Si6 0.963935 0.923534 0.538398
O O1 0.250000 0.190001 0.752426
O O2 0.974087 0.250000 0.768176
O O3 0.971901 0.130387 0.771583
O O4 0.053696 0.186418 0.964094
O O5 0.250000 0.428582 0.752032
O O6 0.508846 0.480442 0.848876
O O7 0.522677 0.448102 0.600591
O O8 0.250000 0.306469 0.405093
O O9 0.535104 0.250000 0.419369
O O10 0.486076 0.320031 0.228549
O O11 0.521357 0.360329 0.463498
O O12 0.250000 0.676663 0.931045
O O13 0.035197 0.594557 0.914655
O O14 0.750000 0.946567 0.835596
O O15 0.474191 0.944238 0.680653
O O16 0.750000 0.926347 0.540864
#
# Coordination Sequence:
#
# PCOD9450895 Si02
#       6
#     8   8   8   8   8   8
#     4  10  22  39  57  78 108 146 182 217 262 316
#     4  10  20  35  56  82 111 143 181 221 260 312
#     4   9  17  31  53  80 110 143 179 222 272 323
#     4  11  22  36  56  80 106 138 180 229 275 319
#     4  10  20  36  58  83 111 141 175 219 273 326
#     4   8  16  31  52  80 111 143 178 216 262 316
#
# _framework density 25.416809000000001
#
# number of rings (size 3 to 8) (size 9 to 14) (size 15 to 20)
#    0.000    2.333    0.000    4.000    0.000    4.667 
#    0.000    6.667    0.000    0.000    0.000    4.667 
#    0.000    0.000    0.000    0.000    0.000    0.000 
#
# Total GULP energy -268146.524934 kJ/mol
# GULP energy per Si atom -5586.385936 kJ/mol
# Density = 2.535896 g / cm^3
# Si number density = 25.416809 Si / 1000 Ang^3
#
#
#
# Elastic Constant Matrix: (Units=GPa)
#
#
# Indices 1 2 3 4 5 6 
#
# 1 64.1277 -1.6132 -6.9370 0.0000 0.0000 0.0000
# 2 -1.6132 172.2615 10.1181 0.0000 0.0000 0.0000
# 3 -6.9370 10.1181 56.0349 0.0000 0.0000 0.0000
# 4 0.0000 0.0000 0.0000 91.2954 0.0000 0.0000
# 5 0.0000 0.0000 0.0000 0.0000 -2.3477 0.0000
# 6 0.0000 0.0000 0.0000 0.0000 0.0000 14.4084
#
#
#
# Elastic Compliance Matrix: (Units=1/GPa)
#
#
# Indices 1 2 3 4 5 6 
#
# 1 0.015806 0.000033 0.001951 0.000000 0.000000 0.000000
# 2 0.000033 0.005867 -0.001055 0.000000 0.000000 0.000000
# 3 0.001951 -0.001055 0.018278 0.000000 0.000000 0.000000
# 4 0.000000 0.000000 0.000000 0.010953 0.000000 0.000000
# 5 0.000000 0.000000 0.000000 0.000000 -0.425945 0.000000
# 6 0.000000 0.000000 0.000000 0.000000 0.000000 0.069404
#
#
# Mechanical properties :
#
#
# Convention : Reuss Voigt Hill
#
# Bulk Modulus (GPa) = 23.91838 32.83996 28.37917
# Shear Modulus (GPa) = -17.03241 40.06164 11.51461
#
# Velocity S-wave (km/s) = -2.59148 3.97443 2.13076
# Velocity P-wave (km/s) = 0.69029 5.83181 4.15250
#
# Compressibility (1/GPa) = 0.04180886
#
# Stress axis : x y z
#
# Youngs Moduli (GPa) = 63.26818 170.43241 54.71034
#
# Poissons Ratio (x) = -0.00570 -0.10672
# Poissons Ratio (y) = -0.00212 0.05774
# Poissons Ratio (z) = -0.12342 0.17986
#
# Static dielectric constant tensor:
#      x y z
#    x 1.952180 0.000000 0.000000 
#    y 0.000000 2.066220 0.000000 
#    z 0.000000 0.000000 1.986860 
# 
# From -- ./inp_files/14303.got.cif
#   From: 2010.05.17/outbox.cif.g08.bks.cpg/sg59_8_cif.got.tgz:14303.got - 2010.06.03 14:40:33.
