data_PCOD9450126
_publ_section_title
;
Structure prediction by ZEFSAII (Michael W. Deem and Ramdas Pophale) SiO2 
 PCOD9450126
Probable space group: P M M N
;
_chemical_formula_sum "Si O2"
_cell_formula_units_Z 64
_cell_length_a 15.276573
_cell_length_b 9.470929
_cell_length_c 21.052460
_cell_angle_alpha 90.000000
_cell_angle_beta 90.000000
_cell_angle_gamma 90.000000
_cell_volume 3045.940191
_symmetry_space_group_name_H-M "P M M N"
_symmetry_group_IT_number 59
_space_group.IT_coordinate_system_code '2'
_symmetry_cell_setting 'orthorhombic'
loop_
_space_group_symop_operation_xyz
x,y,z
1/2-x,1/2-y,z
1/2+x,-y,-z
-x,1/2+y,-z
-x,-y,-z
1/2+x,1/2+y,-z
1/2-x,y,z
x,1/2-y,z
loop_
_atom_site_type_symbol
_atom_site_label
_atom_site_fract_x
_atom_site_fract_y
_atom_site_fract_z
Si Si1 0.352330 0.591941 0.220401
Si Si2 0.644327 0.915091 0.272860
Si Si3 0.597949 0.590324 0.896983
Si Si4 0.350748 0.586370 0.987043
Si Si5 0.899844 0.408628 0.150607
Si Si6 0.857431 0.912621 0.660486
Si Si7 0.143024 0.085836 0.586275
Si Si8 0.642867 0.412381 0.536135
O O1 0.250000 0.607276 0.236074
O O2 0.390773 0.750000 0.217186
O O3 0.356475 0.511465 0.153782
O O4 0.389356 0.495178 0.276880
O O5 0.750000 0.926460 0.271239
O O6 0.622159 0.750000 0.267520
O O7 0.615258 0.962501 0.343319
O O8 0.609532 0.999035 0.212881
O O9 0.634062 0.750000 0.899053
O O10 0.599913 0.516927 0.965443
O O11 0.500014 0.598373 0.870783
O O12 0.250000 0.587456 0.008296
O O13 0.383140 0.750000 0.989283
O O14 0.353554 0.539129 0.913761
O O15 0.867092 0.250000 0.163828
O O16 0.750000 0.909673 0.661250
O O17 0.886244 0.750000 0.660108
O O18 0.883719 0.997810 0.597640
O O19 0.250000 0.084329 0.585988
O O20 0.117774 0.250000 0.577120
O O21 0.113454 0.988479 0.528462
O O22 0.750000 0.412021 0.535631
O O23 0.614423 0.250000 0.540241
#
# Coordination Sequence:
#
# PCOD9450126 Si02
#       8
#     8   8   8   8   8   8   8   8
#     4  10  20  34  52  74 101 134 172 214 260 309
#     4   9  18  32  51  76 104 135 174 218 261 306
#     4  11  23  37  54  78 106 136 172 211 252 302
#     4  10  21  38  59  81 105 135 170 208 254 305
#     4  10  22  38  55  77 106 139 172 208 253 305
#     4   9  16  26  42  65  95 131 168 209 258 307
#     4   8  14  25  40  61  93 130 166 207 255 303
#     4   9  15  22  35  60  94 130 168 209 254 304
#
# _framework density 21.011575000000001
#
# number of rings (size 3 to 8) (size 9 to 14) (size 15 to 20)
#    0.000    2.500    0.000    3.375    0.000    8.250 
#    0.000    1.250    0.000    0.000    0.000    0.875 
#    0.000    0.000    0.000    0.000    0.000    0.000 
#
# Total GULP energy -357322.389255 kJ/mol
# GULP energy per Si atom -5583.162332 kJ/mol
# Density = 2.096375 g / cm^3
# Si number density = 21.011575 Si / 1000 Ang^3
#
#
#
# Elastic Constant Matrix: (Units=GPa)
#
#
# Indices 1 2 3 4 5 6 
#
# 1 19.1867 10.3922 9.8683 0.0000 0.0000 0.0000
# 2 10.3922 146.2528 96.6028 0.0000 0.0000 0.0000
# 3 9.8683 96.6028 159.9453 0.0000 0.0000 0.0000
# 4 0.0000 0.0000 0.0000 32.7981 0.0000 0.0000
# 5 0.0000 0.0000 0.0000 0.0000 8.6932 0.0000
# 6 0.0000 0.0000 0.0000 0.0000 0.0000 2.3750
#
#
#
# Elastic Compliance Matrix: (Units=1/GPa)
#
#
# Indices 1 2 3 4 5 6 
#
# 1 0.054483 -0.002747 -0.001702 0.000000 0.000000 0.000000
# 2 -0.002747 0.011514 -0.006785 0.000000 0.000000 0.000000
# 3 -0.001702 -0.006785 0.010455 0.000000 0.000000 0.000000
# 4 0.000000 0.000000 0.000000 0.030490 0.000000 0.000000
# 5 0.000000 0.000000 0.000000 0.000000 0.115032 0.000000
# 6 0.000000 0.000000 0.000000 0.000000 0.000000 0.421045
#
#
# Mechanical properties :
#
#
# Convention : Reuss Voigt Hill
#
# Bulk Modulus (GPa) = 18.52408 62.12349 40.32379
# Shear Modulus (GPa) = 7.31549 22.67471 14.99510
#
# Velocity S-wave (km/s) = 1.86794 3.28861 2.67434
# Velocity P-wave (km/s) = 3.67254 6.63705 5.36367
#
# Compressibility (1/GPa) = 0.05398379
#
# Stress axis : x y z
#
# Youngs Moduli (GPa) = 18.35442 86.84996 95.64812
#
# Poissons Ratio (x) = 0.23856 0.16284
# Poissons Ratio (y) = 0.05042 0.64895
# Poissons Ratio (z) = 0.03125 0.58926
#
# Static dielectric constant tensor:
#      x y z
#    x 1.818080 0.000000 0.000000 
#    y 0.000000 1.734600 0.000000 
#    z 0.000000 0.000000 1.728750 
# 
# From -- ./inp_files/30736.got.cif
#   From: 2010.05.17/outbox.cif.g08.bks.cpg/sg59_16_cif.got.tgz:30736.got - 2010.06.03 14:40:33.
