data_PCOD9450538
_publ_section_title
;
Structure prediction by ZEFSAII (Michael W. Deem and Ramdas Pophale) SiO2 
 PCOD9450538
Probable space group: P M M N
;
_chemical_formula_sum "Si O2"
_cell_formula_units_Z 56
_cell_length_a 8.799266
_cell_length_b 24.714711
_cell_length_c 15.015612
_cell_angle_alpha 90.000000
_cell_angle_beta 90.000000
_cell_angle_gamma 90.000000
_cell_volume 3265.464905
_symmetry_space_group_name_H-M "P M M N"
_symmetry_group_IT_number 59
_space_group.IT_coordinate_system_code '2'
_symmetry_cell_setting 'orthorhombic'
loop_
_space_group_symop_operation_xyz
x,y,z
1/2-x,1/2-y,z
1/2+x,-y,-z
-x,1/2+y,-z
-x,-y,-z
1/2+x,1/2+y,-z
1/2-x,y,z
x,1/2-y,z
loop_
_atom_site_type_symbol
_atom_site_label
_atom_site_fract_x
_atom_site_fract_y
_atom_site_fract_z
Si Si1 0.567849 0.954192 0.176252
Si Si2 0.069867 0.081006 0.451239
Si Si3 0.569652 0.250000 0.013071
Si Si4 0.431875 0.067701 0.138049
Si Si5 0.068231 0.138279 0.961772
Si Si6 0.569583 0.460518 0.628001
Si Si7 0.568206 0.750000 0.788709
Si Si8 0.568792 0.358811 0.291696
O O1 0.750000 0.960335 0.175422
O O2 0.529065 0.900499 0.120648
O O3 0.507800 0.951792 0.276967
O O4 0.494050 0.007013 0.130835
O O5 0.250000 0.090796 0.454418
O O6 0.001835 0.075733 0.549829
O O7 0.987420 0.124426 0.389356
O O8 0.045551 0.022573 0.403837
O O9 0.750000 0.250000 0.024912
O O10 0.490259 0.250000 0.109862
O O11 0.516638 0.304753 0.964654
O O12 0.250000 0.066438 0.150940
O O13 0.509195 0.095796 0.222870
O O14 0.465280 0.104149 0.051615
O O15 0.250000 0.148138 0.960945
O O16 0.750000 0.451801 0.634581
O O17 0.750000 0.750000 0.788752
O O18 0.504824 0.803029 0.740457
O O19 0.750000 0.355839 0.287913
#
# Coordination Sequence:
#
# PCOD9450538 Si02
#       8
#     8   8   4   8   8   8   4   8
#     4  11  22  36  56  84 116 154 194 236 285 344
#     4  10  20  35  56  82 114 150 185 226 282 340
#     4  12  24  38  60  85 108 145 196 244 286 332
#     4  11  21  35  55  81 116 157 190 230 285 340
#     4  10  23  40  58  79 113 155 193 236 289 342
#     4  10  20  34  55  82 114 149 186 232 281 336
#     4  12  24  40  60  81 114 153 192 236 286 340
#     4  12  23  36  57  86 117 150 191 235 281 340
#
# _framework density 17.149166000000001
#
# number of rings (size 3 to 8) (size 9 to 14) (size 15 to 20)
#    0.000    1.143    2.857    4.714    0.000    2.857 
#    0.000    0.000    0.000    0.857    0.000    3.000 
#    0.000    0.000    0.000    0.000    0.000    0.000 
#
# Total GULP energy -313063.649899 kJ/mol
# GULP energy per Si atom -5590.422320 kJ/mol
# Density = 1.711013 g / cm^3
# Si number density = 17.149166 Si / 1000 Ang^3
#
#
#
# Elastic Constant Matrix: (Units=GPa)
#
#
# Indices 1 2 3 4 5 6 
#
# 1 99.9617 67.3488 47.8521 0.0000 0.0000 0.0000
# 2 67.3488 120.5895 47.8333 0.0000 0.0000 0.0000
# 3 47.8521 47.8333 73.7062 0.0000 0.0000 0.0000
# 4 0.0000 0.0000 0.0000 16.8276 0.0000 0.0000
# 5 0.0000 0.0000 0.0000 0.0000 26.4854 0.0000
# 6 0.0000 0.0000 0.0000 0.0000 0.0000 31.0034
#
#
#
# Elastic Compliance Matrix: (Units=1/GPa)
#
#
# Indices 1 2 3 4 5 6 
#
# 1 0.018455 -0.007480 -0.007127 0.000000 0.000000 0.000000
# 2 -0.007480 0.014199 -0.004359 0.000000 0.000000 0.000000
# 3 -0.007127 -0.004359 0.021023 0.000000 0.000000 0.000000
# 4 0.000000 0.000000 0.000000 0.059426 0.000000 0.000000
# 5 0.000000 0.000000 0.000000 0.000000 0.037757 0.000000
# 6 0.000000 0.000000 0.000000 0.000000 0.000000 0.032255
#
#
# Mechanical properties :
#
#
# Convention : Reuss Voigt Hill
#
# Bulk Modulus (GPa) = 63.50939 68.92511 66.21725
# Shear Modulus (GPa) = 22.09498 23.61149 22.85323
#
# Velocity S-wave (km/s) = 3.59332 3.71459 3.65446
# Velocity P-wave (km/s) = 7.37088 7.66005 7.51686
#
# Compressibility (1/GPa) = 0.01574570
#
# Stress axis : x y z
#
# Youngs Moduli (GPa) = 54.18452 70.42711 47.56641
#
# Poissons Ratio (x) = 0.52680 0.33902
# Poissons Ratio (y) = 0.40531 0.20732
# Poissons Ratio (z) = 0.38619 0.30696
#
# Static dielectric constant tensor:
#      x y z
#    x 1.568950 0.000000 0.000000 
#    y 0.000000 1.575550 0.000000 
#    z 0.000000 0.000000 1.565760 
# 
# From -- ./inp_files/21209.got.cif
#   From: 2010.05.17/outbox.cif.g08.bks.cpg/sg59_11_cif.got.tgz:21209.got - 2010.06.03 14:40:33.
