data_PCOD9450591
_publ_section_title
;
Structure prediction by ZEFSAII (Michael W. Deem and Ramdas Pophale) SiO2 
 PCOD9450591
Probable space group: P M M N
;
_chemical_formula_sum "Si O2"
_cell_formula_units_Z 64
_cell_length_a 8.669515
_cell_length_b 14.952473
_cell_length_c 25.158978
_cell_angle_alpha 90.000000
_cell_angle_beta 90.000000
_cell_angle_gamma 90.000000
_cell_volume 3261.375652
_symmetry_space_group_name_H-M "P M M N"
_symmetry_group_IT_number 59
_space_group.IT_coordinate_system_code '2'
_symmetry_cell_setting 'orthorhombic'
loop_
_space_group_symop_operation_xyz
x,y,z
1/2-x,1/2-y,z
1/2+x,-y,-z
-x,1/2+y,-z
-x,-y,-z
1/2+x,1/2+y,-z
1/2-x,y,z
x,1/2-y,z
loop_
_atom_site_type_symbol
_atom_site_label
_atom_site_fract_x
_atom_site_fract_y
_atom_site_fract_z
Si Si1 0.934850 0.464189 0.379718
Si Si2 0.935822 0.147342 0.276408
Si Si3 0.565477 0.148855 0.594988
Si Si4 0.433175 0.146937 0.476524
Si Si5 0.569961 0.150846 0.092548
Si Si6 0.432406 0.030298 0.181199
Si Si7 0.063724 0.851149 0.129743
Si Si8 0.934556 0.902619 0.014526
O O1 0.750000 0.464107 0.382601
O O2 0.984729 0.401152 0.330881
O O3 0.993126 0.565739 0.373812
O O4 0.001453 0.421363 0.433562
O O5 0.750000 0.150651 0.276381
O O6 0.992362 0.250000 0.272562
O O7 0.987656 0.085505 0.227770
O O8 0.750000 0.143787 0.598020
O O9 0.517913 0.250000 0.611194
O O10 0.512955 0.137420 0.533721
O O11 0.250000 0.133896 0.482944
O O12 0.459900 0.250000 0.458718
O O13 0.750000 0.124347 0.092106
O O14 0.559236 0.250000 0.116894
O O15 0.472633 0.081600 0.126684
O O16 0.506296 0.154526 0.033089
O O17 0.250000 0.031276 0.190410
O O18 0.483427 0.928043 0.171320
O O19 0.250000 0.856909 0.124103
O O20 0.024002 0.750000 0.145561
O O21 0.991148 0.872297 0.072311
O O22 0.750000 0.901667 0.012700
O O23 0.000000 0.000000 0.000000
#
# Coordination Sequence:
#
# PCOD9450591 Si02
#       8
#     8   8   8   8   8   8   8   8
#     4  11  22  37  59  85 116 155 198 245 298 355
#     4  10  23  43  64  86 115 151 189 235 294 353
#     4  10  21  37  57  83 118 159 200 242 290 347
#     4  10  20  34  55  85 121 159 199 244 293 349
#     4  11  23  38  58  84 117 155 189 229 285 344
#     4  11  23  39  62  88 114 148 191 241 289 340
#     4  10  22  41  62  85 117 155 192 235 290 346
#     4  12  23  36  57  86 119 155 193 235 284 340
#
# _framework density 19.623621
#
# number of rings (size 3 to 8) (size 9 to 14) (size 15 to 20)
#    0.000    1.375    1.250    4.500    0.000    8.000 
#    0.000    0.625    0.000    2.250    0.000    0.000 
#    0.000    0.000    0.000    0.000    0.000    0.000 
#
# Total GULP energy -357660.574895 kJ/mol
# GULP energy per Si atom -5588.446483 kJ/mol
# Density = 1.957896 g / cm^3
# Si number density = 19.623621 Si / 1000 Ang^3
#
#
#
# Elastic Constant Matrix: (Units=GPa)
#
#
# Indices 1 2 3 4 5 6 
#
# 1 28.3691 22.8764 4.6428 0.0000 0.0000 0.0000
# 2 22.8764 155.1461 45.5803 0.0000 0.0000 0.0000
# 3 4.6428 45.5803 52.4785 0.0000 0.0000 0.0000
# 4 0.0000 0.0000 0.0000 28.9005 0.0000 0.0000
# 5 0.0000 0.0000 0.0000 0.0000 25.7317 0.0000
# 6 0.0000 0.0000 0.0000 0.0000 0.0000 27.4106
#
#
#
# Elastic Compliance Matrix: (Units=1/GPa)
#
#
# Indices 1 2 3 4 5 6 
#
# 1 0.040184 -0.006553 0.002136 0.000000 0.000000 0.000000
# 2 -0.006553 0.009722 -0.007865 0.000000 0.000000 0.000000
# 3 0.002136 -0.007865 0.025697 0.000000 0.000000 0.000000
# 4 0.000000 0.000000 0.000000 0.034602 0.000000 0.000000
# 5 0.000000 0.000000 0.000000 0.000000 0.038863 0.000000
# 6 0.000000 0.000000 0.000000 0.000000 0.000000 0.036482
#
#
# Mechanical properties :
#
#
# Convention : Reuss Voigt Hill
#
# Bulk Modulus (GPa) = 19.59192 42.46586 31.02889
# Shear Modulus (GPa) = 22.01424 27.26817 24.64120
#
# Velocity S-wave (km/s) = 3.35300 3.73172 3.54742
# Velocity P-wave (km/s) = 4.99956 6.34467 5.71185
#
# Compressibility (1/GPa) = 0.05104144
#
# Stress axis : x y z
#
# Youngs Moduli (GPa) = 24.88549 102.85664 38.91479
#
# Poissons Ratio (x) = 0.67400 -0.08313
# Poissons Ratio (y) = 0.16307 0.30605
# Poissons Ratio (z) = -0.05316 0.80892
#
# Static dielectric constant tensor:
#      x y z
#    x 1.658630 0.000000 0.000000 
#    y 0.000000 1.739370 0.000000 
#    z 0.000000 0.000000 1.654450 
# 
# From -- ./inp_files/31408.got.cif
#   From: 2010.05.17/outbox.cif.g08.bks.cpg/sg59_16_cif.got.tgz:31408.got - 2010.06.03 14:40:33.
