data_PCOD9450017
_publ_section_title
;
Structure prediction by ZEFSAII (Michael W. Deem and Ramdas Pophale) SiO2 
 PCOD9450017
Probable space group: P M M N
;
_chemical_formula_sum "Si O2"
_cell_formula_units_Z 64
_cell_length_a 28.951871
_cell_length_b 9.037430
_cell_length_c 13.048711
_cell_angle_alpha 90.000000
_cell_angle_beta 90.000000
_cell_angle_gamma 90.000000
_cell_volume 3414.201856
_symmetry_space_group_name_H-M "P M M N"
_symmetry_group_IT_number 59
_space_group.IT_coordinate_system_code '2'
_symmetry_cell_setting 'orthorhombic'
loop_
_space_group_symop_operation_xyz
x,y,z
1/2-x,1/2-y,z
1/2+x,-y,-z
-x,1/2+y,-z
-x,-y,-z
1/2+x,1/2+y,-z
1/2-x,y,z
x,1/2-y,z
loop_
_atom_site_type_symbol
_atom_site_label
_atom_site_fract_x
_atom_site_fract_y
_atom_site_fract_z
Si Si1 0.302093 0.423812 0.911267
Si Si2 0.863747 0.072963 0.919875
Si Si3 0.352368 0.927958 0.488839
Si Si4 0.325031 0.082152 0.688310
Si Si5 0.956154 0.426004 0.446969
Si Si6 0.067800 0.082863 0.752794
Si Si7 0.950262 0.573131 0.011037
Si Si8 0.803616 0.069702 0.722052
O O1 0.250000 0.430472 0.951455
O O2 0.317156 0.250000 0.912023
O O3 0.301873 0.472705 0.792724
O O4 0.334806 0.520533 0.981465
O O5 0.868812 0.250000 0.918141
O O6 0.834411 0.025978 0.820016
O O7 0.913442 0.997158 0.933118
O O8 0.351859 0.750000 0.491280
O O9 0.406315 0.973273 0.504425
O O10 0.329181 0.977208 0.382582
O O11 0.323417 0.987921 0.585503
O O12 0.309148 0.250000 0.668381
O O13 0.378841 0.086673 0.720249
O O14 0.959050 0.250000 0.456184
O O15 0.955723 0.474399 0.327987
O O16 0.000000 0.500000 0.500000
O O17 0.048795 0.250000 0.741091
O O18 0.064937 0.042082 0.871573
O O19 0.951922 0.750000 0.997912
O O20 0.000000 0.500000 0.000000
O O21 0.750000 0.020569 0.727556
O O22 0.802665 0.250000 0.721852
#
# Coordination Sequence:
#
# PCOD9450017 Si02
#       8
#     8   8   8   8   8   8   8   8
#     4  10  20  35  56  82 114 151 188 232 291 350
#     4  11  22  37  59  85 115 152 198 246 292 349
#     4   9  19  35  55  80 109 145 189 239 289 345
#     4   9  17  33  54  78 108 145 182 224 285 347
#     4  10  20  33  53  82 113 147 193 241 293 352
#     4   9  18  35  56  74 105 148 185 228 285 346
#     4  11  23  40  60  86 117 153 196 240 298 358
#     4   9  19  37  59  82 114 156 197 242 300 358
#
# _framework density 18.745231
#
# number of rings (size 3 to 8) (size 9 to 14) (size 15 to 20)
#    0.000    2.250    1.250    1.500    0.000    4.250 
#    0.000    3.750    0.000    1.500    0.000    0.000 
#    0.000    0.000    0.000    0.000    0.000    0.000 
#
# Total GULP energy -356955.810613 kJ/mol
# GULP energy per Si atom -5577.434541 kJ/mol
# Density = 1.870257 g / cm^3
# Si number density = 18.745231 Si / 1000 Ang^3
#
#
#
# Elastic Constant Matrix: (Units=GPa)
#
#
# Indices 1 2 3 4 5 6 
#
# 1 96.7631 37.8055 65.5173 0.0000 0.0000 0.0000
# 2 37.8055 39.5024 40.4143 0.0000 0.0000 0.0000
# 3 65.5173 40.4143 129.8447 0.0000 0.0000 0.0000
# 4 0.0000 0.0000 0.0000 28.5144 0.0000 0.0000
# 5 0.0000 0.0000 0.0000 0.0000 25.9580 0.0000
# 6 0.0000 0.0000 0.0000 0.0000 0.0000 14.0306
#
#
#
# Elastic Compliance Matrix: (Units=1/GPa)
#
#
# Indices 1 2 3 4 5 6 
#
# 1 0.019069 -0.012333 -0.005783 0.000000 0.000000 0.000000
# 2 -0.012333 0.045119 -0.007820 0.000000 0.000000 0.000000
# 3 -0.005783 -0.007820 0.013054 0.000000 0.000000 0.000000
# 4 0.000000 0.000000 0.000000 0.035070 0.000000 0.000000
# 5 0.000000 0.000000 0.000000 0.000000 0.038524 0.000000
# 6 0.000000 0.000000 0.000000 0.000000 0.000000 0.071273
#
#
# Mechanical properties :
#
#
# Convention : Reuss Voigt Hill
#
# Bulk Modulus (GPa) = 39.41893 61.50936 50.46415
# Shear Modulus (GPa) = 17.70310 21.85883 19.78096
#
# Velocity S-wave (km/s) = 3.07645 3.41853 3.25199
# Velocity P-wave (km/s) = 5.80464 6.96178 6.40938
#
# Compressibility (1/GPa) = 0.02536852
#
# Stress axis : x y z
#
# Youngs Moduli (GPa) = 52.44200 22.16364 76.60716
#
# Poissons Ratio (x) = 0.27334 0.44302
# Poissons Ratio (y) = 0.64677 0.59909
# Poissons Ratio (z) = 0.30327 0.17333
#
# Static dielectric constant tensor:
#      x y z
#    x 1.668740 0.000000 0.000000 
#    y 0.000000 1.639730 0.000000 
#    z 0.000000 0.000000 1.642960 
# 
# From -- ./inp_files/19274.got.cif
#   From: 2010.05.17/outbox.cif.g08.bks.cpg/sg59_10_cif.got.tgz:19274.got - 2010.06.03 14:40:33.
