data_PCOD9450618
_publ_section_title
;
Structure prediction by ZEFSAII (Michael W. Deem and Ramdas Pophale) SiO2 
 PCOD9450618
Probable space group: P M M N
;
_chemical_formula_sum "Si O2"
_cell_formula_units_Z 64
_cell_length_a 8.811756
_cell_length_b 18.784344
_cell_length_c 21.085114
_cell_angle_alpha 90.000000
_cell_angle_beta 90.000000
_cell_angle_gamma 90.000000
_cell_volume 3490.072504
_symmetry_space_group_name_H-M "P M M N"
_symmetry_group_IT_number 59
_space_group.IT_coordinate_system_code '2'
_symmetry_cell_setting 'orthorhombic'
loop_
_space_group_symop_operation_xyz
x,y,z
1/2-x,1/2-y,z
1/2+x,-y,-z
-x,1/2+y,-z
-x,-y,-z
1/2+x,1/2+y,-z
1/2-x,y,z
x,1/2-y,z
loop_
_atom_site_type_symbol
_atom_site_label
_atom_site_fract_x
_atom_site_fract_y
_atom_site_fract_z
Si Si1 0.932390 0.587825 0.124117
Si Si2 0.433155 0.331482 0.002208
Si Si3 0.931059 0.920875 0.501413
Si Si4 0.068360 0.921107 0.883615
Si Si5 0.566726 0.333157 0.381645
Si Si6 0.568699 0.419170 0.740863
Si Si7 0.067136 0.666645 0.384904
Si Si8 0.932908 0.075919 0.259293
O O1 0.750000 0.593375 0.130305
O O2 0.983323 0.634506 0.064572
O O3 0.967867 0.504960 0.110412
O O4 0.005213 0.606387 0.191511
O O5 0.250000 0.333213 0.002253
O O6 0.483453 0.250000 0.007197
O O7 0.491191 0.376553 0.061448
O O8 0.750000 0.925471 0.502577
O O9 0.990756 0.878235 0.562641
O O10 0.986905 0.877656 0.439972
O O11 0.000000 0.000000 0.500000
O O12 0.250000 0.913232 0.888966
O O13 0.022926 0.900268 0.811788
O O14 0.750000 0.337412 0.388626
O O15 0.524394 0.250000 0.384425
O O16 0.526579 0.368890 0.314283
O O17 0.750000 0.423630 0.744238
O O18 0.527622 0.367383 0.683046
O O19 0.503088 0.498197 0.728767
O O20 0.250000 0.660590 0.392991
O O21 0.027912 0.750000 0.388026
O O22 0.750000 0.067729 0.259012
#
# Coordination Sequence:
#
# PCOD9450618 Si02
#       8
#     8   8   8   8   8   8   8   8
#     4   9  19  36  55  75 104 141 179 220 266 319
#     4  10  21  35  51  75 107 140 174 216 269 324
#     4  12  25  40  60  85 112 145 188 233 274 322
#     4   9  18  33  54  78 103 136 179 222 261 308
#     4  10  21  38  60  85 115 150 184 223 274 327
#     4  10  20  34  56  84 109 138 180 226 269 316
#     4  10  22  40  59  82 116 151 180 219 274 330
#     4   9  19  36  57  81 109 143 182 221 266 323
#
# _framework density 18.337727999999998
#
# number of rings (size 3 to 8) (size 9 to 14) (size 15 to 20)
#    0.000    2.125    0.000    3.750    0.000    9.250 
#    0.000    1.250    0.000    0.000    0.000    0.000 
#    0.000    0.000    0.000    0.000    0.000    0.000 
#
# Total GULP energy -357425.209251 kJ/mol
# GULP energy per Si atom -5584.768895 kJ/mol
# Density = 1.829599 g / cm^3
# Si number density = 18.337728 Si / 1000 Ang^3
#
#
#
# Elastic Constant Matrix: (Units=GPa)
#
#
# Indices 1 2 3 4 5 6 
#
# 1 25.8922 36.6305 40.2838 0.0000 0.0000 0.0000
# 2 36.6305 86.5148 60.6287 0.0000 0.0000 0.0000
# 3 40.2838 60.6287 118.8685 0.0000 0.0000 0.0000
# 4 0.0000 0.0000 0.0000 -23.2373 0.0000 0.0000
# 5 0.0000 0.0000 0.0000 0.0000 31.7166 0.0000
# 6 0.0000 0.0000 0.0000 0.0000 0.0000 20.8081
#
#
#
# Elastic Compliance Matrix: (Units=1/GPa)
#
#
# Indices 1 2 3 4 5 6 
#
# 1 0.131807 -0.038135 -0.025218 0.000000 0.000000 0.000000
# 2 -0.038135 0.029022 -0.001879 0.000000 0.000000 0.000000
# 3 -0.025218 -0.001879 0.017917 0.000000 0.000000 0.000000
# 4 0.000000 0.000000 0.000000 -0.043034 0.000000 0.000000
# 5 0.000000 0.000000 0.000000 0.000000 0.031529 0.000000
# 6 0.000000 0.000000 0.000000 0.000000 0.000000 0.048058
#
#
# Mechanical properties :
#
#
# Convention : Reuss Voigt Hill
#
# Bulk Modulus (GPa) = 20.71138 56.26239 38.48689
# Shear Modulus (GPa) = 13.81766 12.10629 12.96198
#
# Velocity S-wave (km/s) = 2.74799 2.57219 2.66154
# Velocity P-wave (km/s) = 4.62467 6.29042 5.52073
#
# Compressibility (1/GPa) = 0.04828263
#
# Stress axis : x y z
#
# Youngs Moduli (GPa) = 7.58687 34.45709 55.81231
#
# Poissons Ratio (x) = 1.31400 1.40747
# Poissons Ratio (y) = 0.28932 0.10486
# Poissons Ratio (z) = 0.19133 0.06474
#
# Static dielectric constant tensor:
#      x y z
#    x 1.622500 0.000000 0.000000 
#    y 0.000000 1.602580 0.000000 
#    z 0.000000 0.000000 1.617270 
# 
# From -- ./inp_files/29576.got.cif
#   From: 2010.05.17/outbox.cif.g08.bks.cpg/sg59_15_cif.got.tgz:29576.got - 2010.06.03 14:40:33.
