data_PCOD9450486
_publ_section_title
;
Structure prediction by ZEFSAII (Michael W. Deem and Ramdas Pophale) SiO2 
 PCOD9450486
Probable space group: P M M N
;
_chemical_formula_sum "Si O2"
_cell_formula_units_Z 64
_cell_length_a 14.889625
_cell_length_b 8.975712
_cell_length_c 26.397987
_cell_angle_alpha 90.000000
_cell_angle_beta 90.000000
_cell_angle_gamma 90.000000
_cell_volume 3527.958597
_symmetry_space_group_name_H-M "P M M N"
_symmetry_group_IT_number 59
_space_group.IT_coordinate_system_code '2'
_symmetry_cell_setting 'orthorhombic'
loop_
_space_group_symop_operation_xyz
x,y,z
1/2-x,1/2-y,z
1/2+x,-y,-z
-x,1/2+y,-z
-x,-y,-z
1/2+x,1/2+y,-z
1/2-x,y,z
x,1/2-y,z
loop_
_atom_site_type_symbol
_atom_site_label
_atom_site_fract_x
_atom_site_fract_y
_atom_site_fract_z
Si Si1 0.644879 0.570681 0.862301
Si Si2 0.648109 0.578594 0.395371
Si Si3 0.004474 0.926036 0.676373
Si Si4 0.855084 0.929166 0.131057
Si Si5 0.504977 0.428116 0.786369
Si Si6 0.352617 0.922945 0.386780
Si Si7 0.097942 0.927534 0.501885
Si Si8 0.505061 0.071639 0.055146
O O1 0.750000 0.527252 0.865820
O O2 0.641868 0.750000 0.855559
O O3 0.590376 0.494006 0.816640
O O4 0.584794 0.535725 0.912053
O O5 0.750000 0.578142 0.376800
O O6 0.616984 0.750000 0.399880
O O7 0.585306 0.490411 0.357205
O O8 0.645147 0.503667 0.450552
O O9 0.011864 0.750000 0.681705
O O10 0.001715 0.002318 0.731039
O O11 0.916215 0.971007 0.644881
O O12 0.750000 0.972046 0.134769
O O13 0.858350 0.750000 0.123651
O O14 0.915074 0.962719 0.180874
O O15 0.909419 0.007702 0.085760
O O16 0.513191 0.250000 0.783239
O O17 0.250000 0.936859 0.370556
O O18 0.381076 0.750000 0.379619
O O19 0.359063 0.953427 0.446876
O O20 0.093519 0.750000 0.509929
O O21 0.000000 0.000000 0.500000
O O22 0.511592 0.250000 0.051724
O O23 0.500000 0.000000 0.000000
#
# Coordination Sequence:
#
# PCOD9450486 Si02
#       8
#     8   8   8   8   8   8   8   8
#     4   9  19  37  59  82 111 150 195 239 285 337
#     4  11  24  41  61  85 115 151 190 233 283 340
#     4  12  25  40  60  85 115 150 188 236 288 342
#     4   9  19  37  60  84 111 148 192 235 284 340
#     4  10  21  38  60  84 112 145 185 236 289 343
#     4  10  22  40  61  84 113 149 188 231 280 337
#     4  11  21  36  61  88 116 150 186 227 281 340
#     4  10  20  34  54  84 121 158 195 237 284 331
#
# _framework density 18.140803999999999
#
# number of rings (size 3 to 8) (size 9 to 14) (size 15 to 20)
#    0.000    1.750    1.250    3.000    0.000    5.250 
#    0.000    2.500    0.000    0.000    0.000    0.000 
#    0.000    0.000    0.000    0.000    0.000    0.000 
#
# Total GULP energy -357414.391439 kJ/mol
# GULP energy per Si atom -5584.599866 kJ/mol
# Density = 1.809951 g / cm^3
# Si number density = 18.140804 Si / 1000 Ang^3
#
#
#
# Elastic Constant Matrix: (Units=GPa)
#
#
# Indices 1 2 3 4 5 6 
#
# 1 145.6553 55.4644 62.0424 0.0000 0.0000 0.0000
# 2 55.4644 77.0351 69.3276 0.0000 0.0000 0.0000
# 3 62.0424 69.3276 143.7122 0.0000 0.0000 0.0000
# 4 0.0000 0.0000 0.0000 32.7634 0.0000 0.0000
# 5 0.0000 0.0000 0.0000 0.0000 22.4235 0.0000
# 6 0.0000 0.0000 0.0000 0.0000 0.0000 15.6614
#
#
#
# Elastic Compliance Matrix: (Units=1/GPa)
#
#
# Indices 1 2 3 4 5 6 
#
# 1 0.009623 -0.005637 -0.001435 0.000000 0.000000 0.000000
# 2 -0.005637 0.026243 -0.010226 0.000000 0.000000 0.000000
# 3 -0.001435 -0.010226 0.012511 0.000000 0.000000 0.000000
# 4 0.000000 0.000000 0.000000 0.030522 0.000000 0.000000
# 5 0.000000 0.000000 0.000000 0.000000 0.044596 0.000000
# 6 0.000000 0.000000 0.000000 0.000000 0.000000 0.063851
#
#
# Mechanical properties :
#
#
# Convention : Reuss Voigt Hill
#
# Bulk Modulus (GPa) = 72.56650 82.23016 77.39833
# Shear Modulus (GPa) = 22.07149 26.14086 24.10617
#
# Velocity S-wave (km/s) = 3.49187 3.80017 3.64928
# Velocity P-wave (km/s) = 7.50641 8.04253 7.77909
#
# Compressibility (1/GPa) = 0.01378046
#
# Stress axis : x y z
#
# Youngs Moduli (GPa) = 103.91293 38.10582 79.92976
#
# Poissons Ratio (x) = 0.21481 0.11471
# Poissons Ratio (y) = 0.58578 0.81736
# Poissons Ratio (z) = 0.14913 0.38967
#
# Static dielectric constant tensor:
#      x y z
#    x 1.622200 0.000000 0.000000 
#    y 0.000000 1.610140 0.000000 
#    z 0.000000 0.000000 1.596270 
# 
# From -- ./inp_files/32199.got.cif
#   From: 2010.05.17/outbox.cif.g08.bks.cpg/sg59_17_cif.got.tgz:32199.got - 2010.06.03 14:40:33.
