data_PCOD9450098
_publ_section_title
;
Structure prediction by ZEFSAII (Michael W. Deem and Ramdas Pophale) SiO2 
 PCOD9450098
Probable space group: P M M N
;
_chemical_formula_sum "Si O2"
_cell_formula_units_Z 48
_cell_length_a 14.645480
_cell_length_b 8.570488
_cell_length_c 18.362841
_cell_angle_alpha 90.000000
_cell_angle_beta 90.000000
_cell_angle_gamma 90.000000
_cell_volume 2304.883798
_symmetry_space_group_name_H-M "P M M N"
_symmetry_group_IT_number 59
_space_group.IT_coordinate_system_code '2'
_symmetry_cell_setting 'orthorhombic'
loop_
_space_group_symop_operation_xyz
x,y,z
1/2-x,1/2-y,z
1/2+x,-y,-z
-x,1/2+y,-z
-x,-y,-z
1/2+x,1/2+y,-z
1/2-x,y,z
x,1/2-y,z
loop_
_atom_site_type_symbol
_atom_site_label
_atom_site_fract_x
_atom_site_fract_y
_atom_site_fract_z
Si Si1 0.848577 0.438924 0.133779
Si Si2 0.857579 0.070368 0.532613
Si Si3 0.901880 0.437383 0.976477
Si Si4 0.355082 0.066485 0.623895
Si Si5 0.961563 0.567940 0.669067
Si Si6 0.452618 0.936811 0.177880
O O1 0.750000 0.484343 0.166855
O O2 0.857652 0.250000 0.140027
O O3 0.941423 0.515175 0.163182
O O4 0.844199 0.479656 0.047403
O O5 0.750000 0.057959 0.550334
O O6 0.877130 0.250000 0.512445
O O7 0.874141 0.965207 0.461683
O O8 0.915831 0.021806 0.601972
O O9 0.901062 0.250000 0.973611
O O10 0.892783 0.488820 0.892522
O O11 0.000000 0.500000 0.000000
O O12 0.250000 0.018714 0.637047
O O13 0.364289 0.250000 0.639484
O O14 0.430668 0.971569 0.667397
O O15 0.947122 0.750000 0.658855
O O16 0.923611 0.512552 0.746495
O O17 0.448183 0.750000 0.184076
#
# Coordination Sequence:
#
# PCOD9450098 Si02
#       6
#     8   8   8   8   8   8
#     4   9  17  31  52  77 103 132 169 213 264 323
#     4  10  21  39  62  85 110 142 183 230 277 328
#     4   8  15  29  49  70  93 125 164 205 248 300
#     4  10  21  38  60  85 113 145 184 230 276 326
#     4  12  24  37  56  81 113 151 188 228 276 331
#     4  10  20  34  51  73 104 139 177 219 265 319
#
# _framework density 20.825346
#
# number of rings (size 3 to 8) (size 9 to 14) (size 15 to 20)
#    0.000    2.167    0.000    3.500    0.000    3.667 
#    0.000    0.833    0.000    3.000    0.000    0.000 
#    0.000    0.000    0.000    0.000    0.000    0.000 
#
# Total GULP energy -267822.416326 kJ/mol
# GULP energy per Si atom -5579.633673 kJ/mol
# Density = 2.077795 g / cm^3
# Si number density = 20.825346 Si / 1000 Ang^3
#
#
#
# Elastic Constant Matrix: (Units=GPa)
#
#
# Indices 1 2 3 4 5 6 
#
# 1 21.5465 3.0368 -1.5636 0.0000 0.0000 0.0000
# 2 3.0368 25.9585 -10.1649 0.0000 0.0000 0.0000
# 3 -1.5636 -10.1649 67.1040 0.0000 0.0000 0.0000
# 4 0.0000 0.0000 0.0000 29.9103 0.0000 0.0000
# 5 0.0000 0.0000 0.0000 0.0000 11.7887 0.0000
# 6 0.0000 0.0000 0.0000 0.0000 0.0000 16.2342
#
#
#
# Elastic Compliance Matrix: (Units=1/GPa)
#
#
# Indices 1 2 3 4 5 6 
#
# 1 0.047194 -0.005412 0.000280 0.000000 0.000000 0.000000
# 2 -0.005412 0.041573 0.006171 0.000000 0.000000 0.000000
# 3 0.000280 0.006171 0.015844 0.000000 0.000000 0.000000
# 4 0.000000 0.000000 0.000000 0.033433 0.000000 0.000000
# 5 0.000000 0.000000 0.000000 0.000000 0.084827 0.000000
# 6 0.000000 0.000000 0.000000 0.000000 0.000000 0.061598
#
#
# Mechanical properties :
#
#
# Convention : Reuss Voigt Hill
#
# Bulk Modulus (GPa) = 9.37294 10.80284 10.08789
# Shear Modulus (GPa) = 15.72559 19.80669 17.76614
#
# Velocity S-wave (km/s) = 2.75092 3.08731 2.92396
# Velocity P-wave (km/s) = 3.82107 4.23170 4.03162
#
# Compressibility (1/GPa) = 0.10669009
#
# Stress axis : x y z
#
# Youngs Moduli (GPa) = 21.18903 24.05424 63.11693
#
# Poissons Ratio (x) = 0.13017 -0.01767
# Poissons Ratio (y) = 0.11466 -0.38952
# Poissons Ratio (z) = -0.00593 -0.14845
#
# Static dielectric constant tensor:
#      x y z
#    x 1.764530 0.000000 0.000000 
#    y 0.000000 1.694890 0.000000 
#    z 0.000000 0.000000 1.776930 
# 
# From -- ./inp_files/25435.got.cif
#   From: 2010.05.17/outbox.cif.g08.bks.cpg/sg59_13_cif.got.tgz:25435.got - 2010.06.03 14:40:33.
