data_PCOD9450952
_publ_section_title
;
Structure prediction by ZEFSAII (Michael W. Deem and Ramdas Pophale) SiO2 
 PCOD9450952
Probable space group: P M M N
;
_chemical_formula_sum "Si O2"
_cell_formula_units_Z 48
_cell_length_a 15.897246
_cell_length_b 8.972590
_cell_length_c 19.322441
_cell_angle_alpha 90.000000
_cell_angle_beta 90.000000
_cell_angle_gamma 90.000000
_cell_volume 2756.142753
_symmetry_space_group_name_H-M "P M M N"
_symmetry_group_IT_number 59
_space_group.IT_coordinate_system_code '2'
_symmetry_cell_setting 'orthorhombic'
loop_
_space_group_symop_operation_xyz
x,y,z
1/2-x,1/2-y,z
1/2+x,-y,-z
-x,1/2+y,-z
-x,-y,-z
1/2+x,1/2+y,-z
1/2-x,y,z
x,1/2-y,z
loop_
_atom_site_type_symbol
_atom_site_label
_atom_site_fract_x
_atom_site_fract_y
_atom_site_fract_z
Si Si1 0.505480 0.428838 0.168972
Si Si2 0.425247 0.572302 0.456708
Si Si3 0.925291 0.072672 0.706936
Si Si4 0.847308 0.571420 0.081233
Si Si5 0.250000 0.080198 0.290471
Si Si6 0.844068 0.930833 0.919921
Si Si7 0.250000 0.420171 0.458418
O O1 0.505583 0.250000 0.172302
O O2 0.494920 0.497682 0.244960
O O3 0.586916 0.487479 0.129137
O O4 0.422419 0.479628 0.126115
O O5 0.500000 0.500000 0.500000
O O6 0.424141 0.750000 0.465453
O O7 0.436846 0.540917 0.374645
O O8 0.335286 0.504263 0.478352
O O9 0.924035 0.250000 0.716040
O O10 0.835310 0.003381 0.728703
O O11 0.750000 0.541187 0.099535
O O12 0.860402 0.750000 0.086152
O O13 0.858020 0.528782 0.000388
O O14 0.250000 0.250000 0.263868
O O15 0.250000 0.084211 0.374368
O O16 0.750000 0.981753 0.898865
O O17 0.842623 0.750000 0.917424
O O18 0.250000 0.250000 0.483378
#
# Coordination Sequence:
#
# PCOD9450952 Si02
#       7
#     8   8   8   8   4   8   4
#     4  11  21  31  51  79 107 138 174 221 267 310
#     4  10  20  35  57  81 109 143 179 222 266 315
#     4  10  21  35  51  76 110 144 177 212 260 321
#     4   9  18  35  56  72  95 137 181 221 268 319
#     4   9  17  31  51  75 105 139 172 209 254 307
#     4   8  16  31  50  75 105 137 174 212 260 317
#     4   9  17  31  53  81 109 139 174 209 254 315
#
# _framework density 17.415642999999999
#
# number of rings (size 3 to 8) (size 9 to 14) (size 15 to 20)
#    0.000    2.500    0.000    3.500    1.167    4.333 
#    0.000    0.833    1.833    2.000    0.000    0.000 
#    0.000    0.000    0.000    0.000    0.000    0.000 
#
# Total GULP energy -267834.217066 kJ/mol
# GULP energy per Si atom -5579.879522 kJ/mol
# Density = 1.737600 g / cm^3
# Si number density = 17.415643 Si / 1000 Ang^3
#
#
#
# Elastic Constant Matrix: (Units=GPa)
#
#
# Indices 1 2 3 4 5 6 
#
# 1 124.1104 64.4740 70.0287 0.0000 0.0000 0.0000
# 2 64.4740 73.7438 54.9184 0.0000 0.0000 0.0000
# 3 70.0287 54.9184 71.2024 0.0000 0.0000 0.0000
# 4 0.0000 0.0000 0.0000 20.5677 0.0000 0.0000
# 5 0.0000 0.0000 0.0000 0.0000 30.3910 0.0000
# 6 0.0000 0.0000 0.0000 0.0000 0.0000 34.1683
#
#
#
# Elastic Compliance Matrix: (Units=1/GPa)
#
#
# Indices 1 2 3 4 5 6 
#
# 1 0.019324 -0.006441 -0.014038 0.000000 0.000000 0.000000
# 2 -0.006441 0.034009 -0.019896 0.000000 0.000000 0.000000
# 3 -0.014038 -0.019896 0.043197 0.000000 0.000000 0.000000
# 4 0.000000 0.000000 0.000000 0.048620 0.000000 0.000000
# 5 0.000000 0.000000 0.000000 0.000000 0.032905 0.000000
# 6 0.000000 0.000000 0.000000 0.000000 0.000000 0.029267
#
#
# Mechanical properties :
#
#
# Convention : Reuss Voigt Hill
#
# Bulk Modulus (GPa) = 63.37157 71.98874 67.68016
# Shear Modulus (GPa) = 17.04564 22.33443 19.69003
#
# Velocity S-wave (km/s) = 3.13190 3.58499 3.36608
# Velocity P-wave (km/s) = 7.03883 7.65256 7.35210
#
# Compressibility (1/GPa) = 0.01577995
#
# Stress axis : x y z
#
# Youngs Moduli (GPa) = 51.74948 29.40410 23.14991
#
# Poissons Ratio (x) = 0.18938 0.32497
# Poissons Ratio (y) = 0.33331 0.46060
# Poissons Ratio (z) = 0.72644 0.58504
#
# Static dielectric constant tensor:
#      x y z
#    x 1.576180 0.000000 0.000000 
#    y 0.000000 1.578640 0.000000 
#    z 0.000000 0.000000 1.595250 
# 
# From -- ./inp_files/25521.got.cif
#   From: 2010.05.17/outbox.cif.g08.bks.cpg/sg59_13_cif.got.tgz:25521.got - 2010.06.03 14:40:33.
