data_PCOD9450253
_publ_section_title
;
Structure prediction by ZEFSAII (Michael W. Deem and Ramdas Pophale) SiO2 
 PCOD9450253
Probable space group: P M M N
;
_chemical_formula_sum "Si O2"
_cell_formula_units_Z 40
_cell_length_a 11.404631
_cell_length_b 8.701621
_cell_length_c 19.283122
_cell_angle_alpha 90.000000
_cell_angle_beta 90.000000
_cell_angle_gamma 90.000000
_cell_volume 1913.633436
_symmetry_space_group_name_H-M "P M M N"
_symmetry_group_IT_number 59
_space_group.IT_coordinate_system_code '2'
_symmetry_cell_setting 'orthorhombic'
loop_
_space_group_symop_operation_xyz
x,y,z
1/2-x,1/2-y,z
1/2+x,-y,-z
-x,1/2+y,-z
-x,-y,-z
1/2+x,1/2+y,-z
1/2-x,y,z
x,1/2-y,z
loop_
_atom_site_type_symbol
_atom_site_label
_atom_site_fract_x
_atom_site_fract_y
_atom_site_fract_z
Si Si1 0.880814 0.934575 0.307682
Si Si2 0.620131 0.077914 0.056701
Si Si3 0.878116 0.931010 0.753005
Si Si4 0.587306 0.424749 0.895272
Si Si5 0.617698 0.434950 0.463735
O O1 0.750000 0.978172 0.278774
O O2 0.884710 0.750000 0.309992
O O3 0.884365 0.003058 0.385205
O O4 0.000928 0.991495 0.271780
O O5 0.750000 0.086926 0.083351
O O6 0.565842 0.250000 0.062425
O O7 0.550803 0.950752 0.097832
O O8 0.624418 0.042217 0.974439
O O9 0.750000 0.984992 0.724305
O O10 0.886881 0.750000 0.739483
O O11 0.872322 0.964558 0.835138
O O12 0.618221 0.250000 0.878708
O O13 0.500000 0.500000 0.500000
O O14 0.750000 0.476778 0.491828
O O15 0.610885 0.250000 0.464580
#
# Coordination Sequence:
#
# PCOD9450253 Si02
#       5
#     8   8   8   8   8
#     4  10  22  41  64  89 118 154 196 241 289 340
#     4   9  18  33  52  74 102 137 178 226 282 343
#     4  11  24  40  59  84 114 151 194 238 288 346
#     4  10  20  34  53  77 105 138 179 229 284 340
#     4  10  21  38  62  92 125 161 199 239 285 335
#
# _framework density 20.902645
#
# number of rings (size 3 to 8) (size 9 to 14) (size 15 to 20)
#    0.000    2.000    0.000    3.000    0.000    7.600 
#    0.000    0.000    0.000    0.000    0.000    0.000 
#    0.000    0.000    0.000    0.000    0.000    0.000 
#
# Total GULP energy -222834.676856 kJ/mol
# GULP energy per Si atom -5570.866921 kJ/mol
# Density = 2.085507 g / cm^3
# Si number density = 20.902645 Si / 1000 Ang^3
#
#
#
# Elastic Constant Matrix: (Units=GPa)
#
#
# Indices 1 2 3 4 5 6 
#
# 1 213.0554 66.7547 46.3662 0.0000 0.0000 0.0000
# 2 66.7547 63.1034 16.4647 0.0000 0.0000 0.0000
# 3 46.3662 16.4647 36.2044 0.0000 0.0000 0.0000
# 4 0.0000 0.0000 0.0000 32.8993 0.0000 0.0000
# 5 0.0000 0.0000 0.0000 0.0000 2725.7685 0.0000
# 6 0.0000 0.0000 0.0000 0.0000 0.0000 23.0951
#
#
#
# Elastic Compliance Matrix: (Units=1/GPa)
#
#
# Indices 1 2 3 4 5 6 
#
# 1 0.008608 -0.007068 -0.007809 0.000000 0.000000 0.000000
# 2 -0.007068 0.023785 -0.001764 0.000000 0.000000 0.000000
# 3 -0.007809 -0.001764 0.038425 0.000000 0.000000 0.000000
# 4 0.000000 0.000000 0.000000 0.030396 0.000000 0.000000
# 5 0.000000 0.000000 0.000000 0.000000 0.000367 0.000000
# 6 0.000000 0.000000 0.000000 0.000000 0.000000 0.043299
#
#
# Mechanical properties :
#
#
# Convention : Reuss Voigt Hill
#
# Bulk Modulus (GPa) = 26.64327 63.50384 45.07355
# Shear Modulus (GPa) = 26.22281 568.53774 297.38028
#
# Velocity S-wave (km/s) = 3.54576 16.51011 11.94061
# Velocity P-wave (km/s) = 5.43482 19.84670 14.55041
#
# Compressibility (1/GPa) = 0.03753294
#
# Stress axis : x y z
#
# Youngs Moduli (GPa) = 116.17447 42.04406 26.02503
#
# Poissons Ratio (x) = 0.29718 0.20324
# Poissons Ratio (y) = 0.82115 0.04592
# Poissons Ratio (z) = 0.90724 0.07418
#
# Static dielectric constant tensor:
#      x y z
#    x 1.869030 0.000000 0.000000 
#    y 0.000000 1.737420 0.000000 
#    z 0.000000 0.000000 1.729190 
# 
# From -- ./inp_files/26744.got.cif
#   From: 2010.05.17/outbox.cif.g08.bks.cpg/sg59_14_cif.got.tgz:26744.got - 2010.06.03 14:40:33.
