data_PCOD9450231
_publ_section_title
;
Structure prediction by ZEFSAII (Michael W. Deem and Ramdas Pophale) SiO2 
 PCOD9450231
Probable space group: P M M N
;
_chemical_formula_sum "Si O2"
_cell_formula_units_Z 64
_cell_length_a 14.507869
_cell_length_b 8.996446
_cell_length_c 26.148269
_cell_angle_alpha 90.000000
_cell_angle_beta 90.000000
_cell_angle_gamma 90.000000
_cell_volume 3412.852721
_symmetry_space_group_name_H-M "P M M N"
_symmetry_group_IT_number 59
_space_group.IT_coordinate_system_code '2'
_symmetry_cell_setting 'orthorhombic'
loop_
_space_group_symop_operation_xyz
x,y,z
1/2-x,1/2-y,z
1/2+x,-y,-z
-x,1/2+y,-z
-x,-y,-z
1/2+x,1/2+y,-z
1/2-x,y,z
x,1/2-y,z
loop_
_atom_site_type_symbol
_atom_site_label
_atom_site_fract_x
_atom_site_fract_y
_atom_site_fract_z
Si Si1 0.857087 0.928811 0.977948
Si Si2 0.643085 0.928007 0.684300
Si Si3 0.954787 0.428073 0.075959
Si Si4 0.904394 0.573593 0.483938
Si Si5 0.145382 0.913739 0.417540
Si Si6 0.640737 0.421771 0.377533
Si Si7 0.043902 0.571137 0.729350
Si Si8 0.858506 0.571670 0.173640
O O1 0.750000 0.967961 0.966323
O O2 0.859612 0.750000 0.986114
O O3 0.937181 0.962560 0.936240
O O4 0.893597 0.009391 0.029002
O O5 0.750000 0.969441 0.695949
O O6 0.642210 0.750000 0.678611
O O7 0.564887 0.967526 0.725549
O O8 0.607359 0.994879 0.630258
O O9 0.945981 0.250000 0.078527
O O10 0.915711 0.501386 0.127064
O O11 0.902844 0.750000 0.486751
O O12 0.847318 0.502969 0.530070
O O13 0.879547 0.519373 0.427403
O O14 0.000000 0.500000 0.500000
O O15 0.250000 0.892000 0.401241
O O16 0.101780 0.750000 0.424516
O O17 0.750000 0.426492 0.367913
O O18 0.615208 0.250000 0.389715
O O19 0.589310 0.465054 0.325606
O O20 0.052009 0.750000 0.736292
O O21 0.097596 0.488815 0.774047
O O22 0.750000 0.530624 0.170150
O O23 0.864383 0.750000 0.171643
#
# Coordination Sequence:
#
# PCOD9450231 Si02
#       8
#     8   8   8   8   8   8   8   8
#     4   9  18  34  56  84 121 160 194 232 280 329
#     4   9  18  34  57  84 112 142 178 221 271 329
#     4  10  20  34  56  86 117 153 197 238 277 327
#     4  12  24  36  52  74 102 136 174 216 266 326
#     4  10  20  34  53  77 104 133 167 209 258 316
#     4  10  21  37  56  79 108 140 176 222 275 329
#     4  10  21  38  60  83 107 140 183 229 276 327
#     4  11  24  40  58  81 111 147 187 234 285 333
#
# _framework density 18.75264
#
# number of rings (size 3 to 8) (size 9 to 14) (size 15 to 20)
#    0.000    1.875    0.000    4.125    0.000    8.250 
#    0.000    0.625    0.000    3.750    0.000    0.000 
#    0.000    0.000    0.000    0.000    0.000    0.000 
#
# Total GULP energy -356844.143572 kJ/mol
# GULP energy per Si atom -5575.689743 kJ/mol
# Density = 1.870996 g / cm^3
# Si number density = 18.752640 Si / 1000 Ang^3
#
#
#
# Elastic Constant Matrix: (Units=GPa)
#
#
# Indices 1 2 3 4 5 6 
#
# 1 149.3675 53.4071 73.4950 0.0000 0.0000 0.0000
# 2 53.4071 63.4999 51.5975 0.0000 0.0000 0.0000
# 3 73.4950 51.5975 111.5180 0.0000 0.0000 0.0000
# 4 0.0000 0.0000 0.0000 33.7223 0.0000 0.0000
# 5 0.0000 0.0000 0.0000 0.0000 27.7221 0.0000
# 6 0.0000 0.0000 0.0000 0.0000 0.0000 21.6199
#
#
#
# Elastic Compliance Matrix: (Units=1/GPa)
#
#
# Indices 1 2 3 4 5 6 
#
# 1 0.010937 -0.005355 -0.004730 0.000000 0.000000 0.000000
# 2 -0.005355 0.027858 -0.009360 0.000000 0.000000 0.000000
# 3 -0.004730 -0.009360 0.016415 0.000000 0.000000 0.000000
# 4 0.000000 0.000000 0.000000 0.029654 0.000000 0.000000
# 5 0.000000 0.000000 0.000000 0.000000 0.036072 0.000000
# 6 0.000000 0.000000 0.000000 0.000000 0.000000 0.046254
#
#
# Mechanical properties :
#
#
# Convention : Reuss Voigt Hill
#
# Bulk Modulus (GPa) = 61.27737 75.70940 68.49339
# Shear Modulus (GPa) = 23.63836 26.33858 24.98847
#
# Velocity S-wave (km/s) = 3.55425 3.75177 3.65434
# Velocity P-wave (km/s) = 7.04210 7.69597 7.37629
#
# Compressibility (1/GPa) = 0.01631924
#
# Stress axis : x y z
#
# Youngs Moduli (GPa) = 91.43141 35.89690 60.91856
#
# Poissons Ratio (x) = 0.19223 0.28817
# Poissons Ratio (y) = 0.48962 0.57020
# Poissons Ratio (z) = 0.43250 0.33599
#
# Static dielectric constant tensor:
#      x y z
#    x 1.636570 0.000000 0.000000 
#    y 0.000000 1.661950 0.000000 
#    z 0.000000 0.000000 1.756400 
# 
# From -- ./inp_files/32162.got.cif
#   From: 2010.05.17/outbox.cif.g08.bks.cpg/sg59_17_cif.got.tgz:32162.got - 2010.06.03 14:40:33.
