data_PCOD9450656
_publ_section_title
;
Structure prediction by ZEFSAII (Michael W. Deem and Ramdas Pophale) SiO2 
 PCOD9450656
Probable space group: P M M N
;
_chemical_formula_sum "Si O2"
_cell_formula_units_Z 48
_cell_length_a 33.896985
_cell_length_b 7.603603
_cell_length_c 8.254748
_cell_angle_alpha 90.000000
_cell_angle_beta 90.000000
_cell_angle_gamma 90.000000
_cell_volume 2127.572285
_symmetry_space_group_name_H-M "P M M N"
_symmetry_group_IT_number 59
_space_group.IT_coordinate_system_code '2'
_symmetry_cell_setting 'orthorhombic'
loop_
_space_group_symop_operation_xyz
x,y,z
1/2-x,1/2-y,z
1/2+x,-y,-z
-x,1/2+y,-z
-x,-y,-z
1/2+x,1/2+y,-z
1/2-x,y,z
x,1/2-y,z
loop_
_atom_site_type_symbol
_atom_site_label
_atom_site_fract_x
_atom_site_fract_y
_atom_site_fract_z
Si Si1 0.908633 0.045938 0.685054
Si Si2 0.329641 0.450807 0.167842
Si Si3 0.493987 0.040306 0.188081
Si Si4 0.295533 0.464700 0.505786
Si Si5 0.423810 0.539059 0.671784
Si Si6 0.343444 0.038474 0.819340
O O1 0.896540 0.250000 0.680728
O O2 0.909606 0.971905 0.502698
O O3 0.876289 0.950302 0.792767
O O4 0.952865 0.035838 0.751201
O O5 0.314820 0.250000 0.157280
O O6 0.309943 0.528576 0.329424
O O7 0.325921 0.530617 0.988763
O O8 0.491755 0.250000 0.210317
O O9 0.532875 0.973060 0.281253
O O10 0.500000 0.000000 0.000000
O O11 0.250000 0.509479 0.531072
O O12 0.298813 0.250000 0.503493
O O13 0.321791 0.526998 0.657035
O O14 0.427007 0.750000 0.657921
O O15 0.389877 0.500273 0.801199
O O16 0.339320 0.250000 0.822951
#
# Coordination Sequence:
#
# PCOD9450656 Si02
#       6
#     8   8   8   8   8   8
#     4  11  22  37  57  81 110 149 192 235 283 332
#     4  10  20  35  57  85 114 149 190 231 281 338
#     4  11  23  38  55  80 113 149 191 237 282 333
#     4   9  18  34  56  84 117 147 180 230 285 336
#     4  10  22  38  56  79 110 149 190 232 281 332
#     4  10  20  34  57  85 112 147 188 229 278 335
#
# _framework density 22.560925000000001
#
# number of rings (size 3 to 8) (size 9 to 14) (size 15 to 20)
#    0.000    1.833    1.667    2.500    0.000    6.000 
#    0.000    3.333    0.000    2.000    0.000    2.333 
#    0.000    0.000    0.000    0.000    0.000    0.000 
#
# Total GULP energy -268269.766322 kJ/mol
# GULP energy per Si atom -5588.953465 kJ/mol
# Density = 2.250958 g / cm^3
# Si number density = 22.560925 Si / 1000 Ang^3
#
#
#
# Elastic Constant Matrix: (Units=GPa)
#
#
# Indices 1 2 3 4 5 6 
#
# 1 87.8937 -11.9314 11.2752 0.0000 0.0000 0.0000
# 2 -11.9314 56.3893 -10.3201 0.0000 0.0000 0.0000
# 3 11.2752 -10.3201 107.9422 0.0000 0.0000 0.0000
# 4 0.0000 0.0000 0.0000 3.7085 0.0000 0.0000
# 5 0.0000 0.0000 0.0000 0.0000 17.6502 0.0000
# 6 0.0000 0.0000 0.0000 0.0000 0.0000 11.3285
#
#
#
# Elastic Compliance Matrix: (Units=1/GPa)
#
#
# Indices 1 2 3 4 5 6 
#
# 1 0.011822 0.002316 -0.001013 0.000000 0.000000 0.000000
# 2 0.002316 0.018503 0.001527 0.000000 0.000000 0.000000
# 3 -0.001013 0.001527 0.009516 0.000000 0.000000 0.000000
# 4 0.000000 0.000000 0.000000 0.269653 0.000000 0.000000
# 5 0.000000 0.000000 0.000000 0.000000 0.056657 0.000000
# 6 0.000000 0.000000 0.000000 0.000000 0.000000 0.088273
#
#
# Mechanical properties :
#
#
# Convention : Reuss Voigt Hill
#
# Bulk Modulus (GPa) = 21.97783 25.58586 23.78184
# Shear Modulus (GPa) = 10.77746 24.08419 17.43082
#
# Velocity S-wave (km/s) = 2.18802 3.27083 2.78260
# Velocity P-wave (km/s) = 4.01820 5.06260 4.57033
#
# Compressibility (1/GPa) = 0.04550040
#
# Stress axis : x y z
#
# Youngs Moduli (GPa) = 84.58971 54.04423 105.08521
#
# Poissons Ratio (x) = -0.12516 0.10650
# Poissons Ratio (y) = -0.19590 -0.16048
# Poissons Ratio (z) = 0.08573 -0.08253
#
# Static dielectric constant tensor:
#      x y z
#    x 1.795740 0.000000 0.000000 
#    y 0.000000 1.860040 0.000000 
#    z 0.000000 0.000000 1.846550 
# 
# From -- ./inp_files/12928.got.cif
#   From: 2010.05.17/outbox.cif.g08.bks.cpg/sg59_7_cif.got.tgz:12928.got - 2010.06.03 14:40:33.
