data_PCOD9450448
_publ_section_title
;
Structure prediction by ZEFSAII (Michael W. Deem and Ramdas Pophale) SiO2 
 PCOD9450448
Probable space group: P M M N
;
_chemical_formula_sum "Si O2"
_cell_formula_units_Z 48
_cell_length_a 9.157650
_cell_length_b 18.371363
_cell_length_c 15.710574
_cell_angle_alpha 90.000000
_cell_angle_beta 90.000000
_cell_angle_gamma 90.000000
_cell_volume 2643.123598
_symmetry_space_group_name_H-M "P M M N"
_symmetry_group_IT_number 59
_space_group.IT_coordinate_system_code '2'
_symmetry_cell_setting 'orthorhombic'
loop_
_space_group_symop_operation_xyz
x,y,z
1/2-x,1/2-y,z
1/2+x,-y,-z
-x,1/2+y,-z
-x,-y,-z
1/2+x,1/2+y,-z
1/2-x,y,z
x,1/2-y,z
loop_
_atom_site_type_symbol
_atom_site_label
_atom_site_fract_x
_atom_site_fract_y
_atom_site_fract_z
Si Si1 0.924997 0.250000 0.745891
Si Si2 0.581989 0.108711 0.968906
Si Si3 0.575287 0.381230 0.618209
Si Si4 0.925528 0.958985 0.691253
Si Si5 0.574307 0.666113 0.556973
Si Si6 0.922769 0.750000 0.071065
Si Si7 0.919089 0.008666 0.136429
O O1 0.750000 0.250000 0.760620
O O2 0.961441 0.178261 0.690552
O O3 0.008481 0.250000 0.834571
O O4 0.750000 0.127290 0.950029
O O5 0.483708 0.179335 0.975767
O O6 0.515581 0.059681 0.893522
O O7 0.577196 0.063212 0.056133
O O8 0.750000 0.377387 0.605297
O O9 0.539625 0.463298 0.647177
O O10 0.496482 0.359073 0.531402
O O11 0.750000 0.957420 0.705738
O O12 0.965023 0.891628 0.630316
O O13 0.010772 0.957074 0.779900
O O14 0.750000 0.663871 0.548455
O O15 0.532404 0.750000 0.575506
O O16 0.750000 0.750000 0.075572
O O17 0.750000 0.987863 0.150558
#
# Coordination Sequence:
#
# PCOD9450448 Si02
#       7
#     4   8   8   8   8   4   8
#     4  10  20  34  54  81 114 147 184 235 298 351
#     4  10  21  39  61  83 118 156 186 233 294 346
#     4  10  20  35  56  81 108 145 189 232 286 345
#     4  10  21  36  56  82 113 150 190 233 287 346
#     4  10  21  37  55  78 112 151 190 235 287 337
#     4  12  24  36  56  89 118 149 196 239 280 339
#     4  10  21  38  61  88 113 146 194 239 283 342
#
# _framework density 18.160332
#
# number of rings (size 3 to 8) (size 9 to 14) (size 15 to 20)
#    0.000    1.833    0.833    3.250    0.000    5.333 
#    1.500    0.000    0.000    0.000    0.000    0.000 
#    0.000    0.000    0.000    0.000    0.000    0.000 
#
# Total GULP energy -268137.788395 kJ/mol
# GULP energy per Si atom -5586.203925 kJ/mol
# Density = 1.811900 g / cm^3
# Si number density = 18.160332 Si / 1000 Ang^3
#
#
#
# Elastic Constant Matrix: (Units=GPa)
#
#
# Indices 1 2 3 4 5 6 
#
# 1 66.7854 34.3640 25.9011 0.0000 0.0000 0.0000
# 2 34.3640 87.7108 26.6017 0.0000 0.0000 0.0000
# 3 25.9011 26.6017 43.9594 0.0000 0.0000 0.0000
# 4 0.0000 0.0000 0.0000 16.6721 0.0000 0.0000
# 5 0.0000 0.0000 0.0000 0.0000 34.5523 0.0000
# 6 0.0000 0.0000 0.0000 0.0000 0.0000 20.2474
#
#
#
# Elastic Compliance Matrix: (Units=1/GPa)
#
#
# Indices 1 2 3 4 5 6 
#
# 1 0.021438 -0.005595 -0.009246 0.000000 0.000000 0.000000
# 2 -0.005595 0.015424 -0.006037 0.000000 0.000000 0.000000
# 3 -0.009246 -0.006037 0.031849 0.000000 0.000000 0.000000
# 4 0.000000 0.000000 0.000000 0.059981 0.000000 0.000000
# 5 0.000000 0.000000 0.000000 0.000000 0.028942 0.000000
# 6 0.000000 0.000000 0.000000 0.000000 0.000000 0.049389
#
#
# Mechanical properties :
#
#
# Convention : Reuss Voigt Hill
#
# Bulk Modulus (GPa) = 37.09790 41.35436 39.22613
# Shear Modulus (GPa) = 19.39764 21.73359 20.56561
#
# Velocity S-wave (km/s) = 3.27178 3.46318 3.36884
# Velocity P-wave (km/s) = 5.89449 6.22998 6.06456
#
# Compressibility (1/GPa) = 0.02695570
#
# Stress axis : x y z
#
# Youngs Moduli (GPa) = 46.64641 64.83321 31.39798
#
# Poissons Ratio (x) = 0.36274 0.29029
# Poissons Ratio (y) = 0.26099 0.18956
# Poissons Ratio (z) = 0.43127 0.39141
#
# Static dielectric constant tensor:
#      x y z
#    x 1.604830 0.000000 0.000000 
#    y 0.000000 1.639320 0.000000 
#    z 0.000000 0.000000 1.587220 
# 
# From -- ./inp_files/20521.got.cif
#   From: 2010.05.17/outbox.cif.g08.bks.cpg/sg59_11_cif.got.tgz:20521.got - 2010.06.03 14:40:33.
