data_PCOD9450057
_publ_section_title
;
Structure prediction by ZEFSAII (Michael W. Deem and Ramdas Pophale) SiO2 
 PCOD9450057
Probable space group: P M M N
;
_chemical_formula_sum "Si O2"
_cell_formula_units_Z 52
_cell_length_a 7.458818
_cell_length_b 20.194190
_cell_length_c 15.171028
_cell_angle_alpha 90.000000
_cell_angle_beta 90.000000
_cell_angle_gamma 90.000000
_cell_volume 2285.132874
_symmetry_space_group_name_H-M "P M M N"
_symmetry_group_IT_number 59
_space_group.IT_coordinate_system_code '2'
_symmetry_cell_setting 'orthorhombic'
loop_
_space_group_symop_operation_xyz
x,y,z
1/2-x,1/2-y,z
1/2+x,-y,-z
-x,1/2+y,-z
-x,-y,-z
1/2+x,1/2+y,-z
1/2-x,y,z
x,1/2-y,z
loop_
_atom_site_type_symbol
_atom_site_label
_atom_site_fract_x
_atom_site_fract_y
_atom_site_fract_z
Si Si1 0.037523 0.856277 0.351255
Si Si2 0.031386 0.177012 0.147177
Si Si3 0.533841 0.676992 0.149880
Si Si4 0.964696 0.922106 0.001685
Si Si5 0.036378 0.000535 0.396383
Si Si6 0.006483 0.250000 0.500508
Si Si7 0.030717 0.354529 0.345445
O O1 0.250000 0.855122 0.372244
O O2 0.967703 0.931277 0.358239
O O3 0.958757 0.807555 0.424163
O O4 0.015654 0.832274 0.251663
O O5 0.250000 0.175366 0.147518
O O6 0.978840 0.250000 0.114635
O O7 0.976127 0.168784 0.248535
O O8 0.969544 0.118053 0.084000
O O9 0.750000 0.676777 0.145762
O O10 0.473490 0.750000 0.119843
O O11 0.468414 0.617500 0.087802
O O12 0.750000 0.915596 0.001732
O O13 0.000000 0.000000 0.000000
O O14 0.250000 0.000682 0.380943
O O15 0.969891 0.069982 0.358629
O O16 0.000000 0.000000 0.500000
O O17 0.972715 0.307494 0.424886
O O18 0.250000 0.351436 0.349323
#
# Coordination Sequence:
#
# PCOD9450057 Si02
#       7
#     8   8   8   8   8   4   8
#     4  11  24  39  58  85 119 158 197 240 295 358
#     4   9  17  33  58  87 115 147 192 244 291 343
#     4  10  22  40  61  87 118 156 202 249 293 341
#     4  10  22  39  62  90 121 155 194 244 300 354
#     4  10  21  37  53  76 112 152 193 235 287 347
#     4  12  20  34  58  82 119 148 193 240 291 346
#     4  10  20  33  55  87 116 147 193 244 290 340
#
# _framework density 22.755787999999999
#
# number of rings (size 3 to 8) (size 9 to 14) (size 15 to 20)
#    0.000    1.846    3.077    0.923    2.154    4.308 
#    0.000    0.000    0.000    3.231    0.000    0.000 
#    0.000    0.000    0.000    0.000    0.000    0.000 
#
# Total GULP energy -289633.584709 kJ/mol
# GULP energy per Si atom -5569.876629 kJ/mol
# Density = 2.270399 g / cm^3
# Si number density = 22.755788 Si / 1000 Ang^3
#
#
#
# Elastic Constant Matrix: (Units=GPa)
#
#
# Indices 1 2 3 4 5 6 
#
# 1 68.3536 8.8525 -1.8988 0.0000 0.0000 0.0000
# 2 8.8525 254.2546 105.8404 0.0000 0.0000 0.0000
# 3 -1.8988 105.8404 178.4587 0.0000 0.0000 0.0000
# 4 0.0000 0.0000 0.0000 48.3441 0.0000 0.0000
# 5 0.0000 0.0000 0.0000 0.0000 7.8392 0.0000
# 6 0.0000 0.0000 0.0000 0.0000 0.0000 82.2771
#
#
#
# Elastic Compliance Matrix: (Units=1/GPa)
#
#
# Indices 1 2 3 4 5 6 
#
# 1 0.014746 -0.000768 0.000613 0.000000 0.000000 0.000000
# 2 -0.000768 0.005262 -0.003129 0.000000 0.000000 0.000000
# 3 0.000613 -0.003129 0.007466 0.000000 0.000000 0.000000
# 4 0.000000 0.000000 0.000000 0.020685 0.000000 0.000000
# 5 0.000000 0.000000 0.000000 0.000000 0.127565 0.000000
# 6 0.000000 0.000000 0.000000 0.000000 0.000000 0.012154
#
#
# Mechanical properties :
#
#
# Convention : Reuss Voigt Hill
#
# Bulk Modulus (GPa) = 47.83620 80.73944 64.28782
# Shear Modulus (GPa) = 24.82415 53.57692 39.20053
#
# Velocity S-wave (km/s) = 3.30645 4.85751 4.15500
# Velocity P-wave (km/s) = 5.97026 8.18648 7.16458
#
# Compressibility (1/GPa) = 0.02090467
#
# Stress axis : x y z
#
# Youngs Moduli (GPa) = 67.81339 190.02554 133.94152
#
# Poissons Ratio (x) = 0.14603 -0.08206
# Poissons Ratio (y) = 0.05211 0.41913
# Poissons Ratio (z) = -0.04155 0.59463
#
# Static dielectric constant tensor:
#      x y z
#    x 1.941350 0.000000 0.000000 
#    y 0.000000 1.857170 0.000000 
#    z 0.000000 0.000000 1.774160 
# 
# From -- ./inp_files/20835.got.cif
#   From: 2010.05.17/outbox.cif.g08.bks.cpg/sg59_11_cif.got.tgz:20835.got - 2010.06.03 14:40:33.
