data_PCOD9450887
_publ_section_title
;
Structure prediction by ZEFSAII (Michael W. Deem and Ramdas Pophale) SiO2 
 PCOD9450887
Probable space group: P M M N
;
_chemical_formula_sum "Si O2"
_cell_formula_units_Z 64
_cell_length_a 8.401831
_cell_length_b 29.570943
_cell_length_c 12.973345
_cell_angle_alpha 90.000000
_cell_angle_beta 90.000000
_cell_angle_gamma 90.000000
_cell_volume 3223.228416
_symmetry_space_group_name_H-M "P M M N"
_symmetry_group_IT_number 59
_space_group.IT_coordinate_system_code '2'
_symmetry_cell_setting 'orthorhombic'
loop_
_space_group_symop_operation_xyz
x,y,z
1/2-x,1/2-y,z
1/2+x,-y,-z
-x,1/2+y,-z
-x,-y,-z
1/2+x,1/2+y,-z
1/2-x,y,z
x,1/2-y,z
loop_
_atom_site_type_symbol
_atom_site_label
_atom_site_fract_x
_atom_site_fract_y
_atom_site_fract_z
Si Si1 0.057783 0.301755 0.427011
Si Si2 0.442369 0.800612 0.997133
Si Si3 0.560058 0.155820 0.214277
Si Si4 0.559186 0.979012 0.107253
Si Si5 0.558477 0.549920 0.521818
Si Si6 0.559265 0.940212 0.755914
Si Si7 0.557491 0.623519 0.154684
Si Si8 0.944436 0.633949 0.388478
O O1 0.250000 0.301599 0.429285
O O2 0.001186 0.250000 0.423846
O O3 0.004004 0.327599 0.530644
O O4 0.008234 0.327692 0.323335
O O5 0.250000 0.801137 0.998718
O O6 0.496218 0.750000 0.025281
O O7 0.501899 0.839216 0.073677
O O8 0.492688 0.812727 0.880488
O O9 0.750000 0.157380 0.220905
O O10 0.506939 0.104618 0.190159
O O11 0.750000 0.978421 0.106690
O O12 0.503625 0.927456 0.125913
O O13 0.501743 0.013423 0.195267
O O14 0.500000 0.000000 0.000000
O O15 0.500000 0.500000 0.500000
O O16 0.750000 0.550253 0.520490
O O17 0.508048 0.563259 0.636831
O O18 0.504008 0.586326 0.438201
O O19 0.750000 0.939490 0.761589
O O20 0.750000 0.622730 0.154742
O O21 0.503444 0.636585 0.270313
O O22 0.750000 0.634567 0.387636
#
# Coordination Sequence:
#
# PCOD9450887 Si02
#       8
#     8   8   8   8   8   8   8   8
#     4  10  20  36  60  87 117 154 194 241 301 365
#     4  10  23  42  61  83 115 154 194 244 308 365
#     4  11  22  38  61  87 119 157 199 251 306 363
#     4  11  23  39  59  87 122 161 205 253 304 358
#     4  10  20  35  56  81 115 154 193 238 288 348
#     4  11  22  37  59  87 120 158 200 246 299 360
#     4  10  22  39  62  88 117 154 200 249 292 352
#     4   9  18  37  58  82 117 153 189 237 294 349
#
# _framework density 19.855869999999999
#
# number of rings (size 3 to 8) (size 9 to 14) (size 15 to 20)
#    0.000    1.750    1.250    3.000    0.000    7.500 
#    0.000    2.500    0.000    0.000    0.000    0.000 
#    0.000    0.000    0.000    0.000    0.000    0.000 
#
# Total GULP energy -357556.843267 kJ/mol
# GULP energy per Si atom -5586.825676 kJ/mol
# Density = 1.981068 g / cm^3
# Si number density = 19.855870 Si / 1000 Ang^3
#
#
#
# Elastic Constant Matrix: (Units=GPa)
#
#
# Indices 1 2 3 4 5 6 
#
# 1 8.3390 13.5461 16.9925 0.0000 0.0000 0.0000
# 2 13.5461 168.2370 67.6426 0.0000 0.0000 0.0000
# 3 16.9925 67.6426 136.5579 0.0000 0.0000 0.0000
# 4 0.0000 0.0000 0.0000 35.2831 0.0000 0.0000
# 5 0.0000 0.0000 0.0000 0.0000 18.3078 0.0000
# 6 0.0000 0.0000 0.0000 0.0000 0.0000 27.8230
#
#
#
# Elastic Compliance Matrix: (Units=1/GPa)
#
#
# Indices 1 2 3 4 5 6 
#
# 1 0.165857 -0.006314 -0.017511 0.000000 0.000000 0.000000
# 2 -0.006314 0.007663 -0.003010 0.000000 0.000000 0.000000
# 3 -0.017511 -0.003010 0.010993 0.000000 0.000000 0.000000
# 4 0.000000 0.000000 0.000000 0.028342 0.000000 0.000000
# 5 0.000000 0.000000 0.000000 0.000000 0.054622 0.000000
# 6 0.000000 0.000000 0.000000 0.000000 0.000000 0.035941
#
#
# Mechanical properties :
#
#
# Convention : Reuss Voigt Hill
#
# Bulk Modulus (GPa) = 7.64275 56.61070 32.12673
# Shear Modulus (GPa) = 12.47815 30.61296 21.54555
#
# Velocity S-wave (km/s) = 2.50958 3.93078 3.29766
# Velocity P-wave (km/s) = 3.50069 7.01243 5.54206
#
# Compressibility (1/GPa) = 0.13084291
#
# Stress axis : x y z
#
# Youngs Moduli (GPa) = 6.02930 130.50452 90.96905
#
# Poissons Ratio (x) = 0.82400 1.59293
# Poissons Ratio (y) = 0.03807 0.27381
# Poissons Ratio (z) = 0.10558 0.39281
#
# Static dielectric constant tensor:
#      x y z
#    x 1.689590 0.000000 0.000000 
#    y 0.000000 1.691520 0.000000 
#    z 0.000000 0.000000 1.697850 
# 
# From -- ./inp_files/14880.got.cif
#   From: 2010.05.17/outbox.cif.g08.bks.cpg/sg59_8_cif.got.tgz:14880.got - 2010.06.03 14:40:33.
