data_PCOD9450166
_publ_section_title
;
Structure prediction by ZEFSAII (Michael W. Deem and Ramdas Pophale) SiO2 
 PCOD9450166
Probable space group: P M M N
;
_chemical_formula_sum "Si O2"
_cell_formula_units_Z 48
_cell_length_a 15.317598
_cell_length_b 16.620678
_cell_length_c 9.789588
_cell_angle_alpha 90.000000
_cell_angle_beta 90.000000
_cell_angle_gamma 90.000000
_cell_volume 2492.320089
_symmetry_space_group_name_H-M "P M M N"
_symmetry_group_IT_number 59
_space_group.IT_coordinate_system_code '2'
_symmetry_cell_setting 'orthorhombic'
loop_
_space_group_symop_operation_xyz
x,y,z
1/2-x,1/2-y,z
1/2+x,-y,-z
-x,1/2+y,-z
-x,-y,-z
1/2+x,1/2+y,-z
1/2-x,y,z
x,1/2-y,z
loop_
_atom_site_type_symbol
_atom_site_label
_atom_site_fract_x
_atom_site_fract_y
_atom_site_fract_z
Si Si1 0.348071 0.654394 0.707926
Si Si2 0.505270 0.847983 0.520019
Si Si3 0.846974 0.119861 0.977882
Si Si4 0.090319 0.049799 0.007074
Si Si5 0.013688 0.155839 0.791508
Si Si6 0.353036 0.346408 0.262370
O O1 0.250000 0.621185 0.687292
O O2 0.343661 0.750000 0.682936
O O3 0.422747 0.621768 0.608347
O O4 0.371284 0.644516 0.867427
O O5 0.500451 0.750000 0.517607
O O6 0.503821 0.874322 0.363290
O O7 0.593372 0.868393 0.601520
O O8 0.750000 0.151823 0.946758
O O9 0.921796 0.146706 0.872904
O O10 0.843121 0.023196 0.981819
O O11 0.103121 0.106810 0.136775
O O12 0.085825 0.105227 0.873661
O O13 0.000000 0.000000 0.000000
O O14 0.036637 0.250000 0.790337
O O15 0.250000 0.364433 0.270669
O O16 0.362377 0.250000 0.241703
#
# Coordination Sequence:
#
# PCOD9450166 Si02
#       6
#     8   8   8   8   8   8
#     4   9  17  31  53  78 105 143 186 224 269 329
#     4   9  18  33  53  78 108 138 175 227 278 322
#     4  10  20  34  52  77 110 143 177 220 269 323
#     4  10  20  35  54  76 105 139 177 222 269 319
#     4  10  20  34  55  81 106 136 175 224 278 322
#     4  10  20  36  58  79 103 144 193 231 266 318
#
# _framework density 19.259163000000001
#
# number of rings (size 3 to 8) (size 9 to 14) (size 15 to 20)
#    0.000    2.333    0.000    3.500    0.000    3.000 
#    0.000   10.833    0.000    8.000    0.000    0.000 
#    0.000    0.000    0.000    0.000    0.000    0.000 
#
# Total GULP energy -267603.032605 kJ/mol
# GULP energy per Si atom -5575.063179 kJ/mol
# Density = 1.921533 g / cm^3
# Si number density = 19.259163 Si / 1000 Ang^3
#
#
#
# Elastic Constant Matrix: (Units=GPa)
#
#
# Indices 1 2 3 4 5 6 
#
# 1 83.8932 27.1326 52.7563 0.0000 0.0000 0.0000
# 2 27.1326 41.9019 24.4560 0.0000 0.0000 0.0000
# 3 52.7563 24.4560 142.5974 0.0000 0.0000 0.0000
# 4 0.0000 0.0000 0.0000 -34.5848 0.0000 0.0000
# 5 0.0000 0.0000 0.0000 0.0000 -16.0782 0.0000
# 6 0.0000 0.0000 0.0000 0.0000 0.0000 14.8054
#
#
#
# Elastic Compliance Matrix: (Units=1/GPa)
#
#
# Indices 1 2 3 4 5 6 
#
# 1 0.017953 -0.008610 -0.005165 0.000000 0.000000 0.000000
# 2 -0.008610 0.030649 -0.002071 0.000000 0.000000 0.000000
# 3 -0.005165 -0.002071 0.009279 0.000000 0.000000 0.000000
# 4 0.000000 0.000000 0.000000 -0.028914 0.000000 0.000000
# 5 0.000000 0.000000 0.000000 0.000000 -0.062196 0.000000
# 6 0.000000 0.000000 0.000000 0.000000 0.000000 0.067543
#
#
# Mechanical properties :
#
#
# Convention : Reuss Voigt Hill
#
# Bulk Modulus (GPa) = 38.18525 53.00914 45.59719
# Shear Modulus (GPa) = 66.90227 3.76499 35.33363
#
# Velocity S-wave (km/s) = 5.90028 1.39970 4.28792
# Velocity P-wave (km/s) = 8.14173 5.49510 6.94564
#
# Compressibility (1/GPa) = 0.02618812
#
# Stress axis : x y z
#
# Youngs Moduli (GPa) = 55.70168 32.62714 107.77136
#
# Poissons Ratio (x) = 0.28093 0.55667
# Poissons Ratio (y) = 0.47960 0.22319
# Poissons Ratio (z) = 0.28771 0.06757
#
# Static dielectric constant tensor:
#      x y z
#    x 1.703590 0.000000 0.000000 
#    y 0.000000 1.702140 0.000000 
#    z 0.000000 0.000000 1.650370 
# 
# From -- ./inp_files/9048.got.cif
#   From: 2010.05.17/outbox.cif.g08.bks.cpg/sg59_5_cif.got.tgz:9048.got - 2010.06.03 14:40:33.
