data_PCOD9450533
_publ_section_title
;
Structure prediction by ZEFSAII (Michael W. Deem and Ramdas Pophale) SiO2 
 PCOD9450533
Probable space group: P M M N
;
_chemical_formula_sum "Si O2"
_cell_formula_units_Z 64
_cell_length_a 8.751162
_cell_length_b 14.463566
_cell_length_c 26.410481
_cell_angle_alpha 90.000000
_cell_angle_beta 90.000000
_cell_angle_gamma 90.000000
_cell_volume 3342.854054
_symmetry_space_group_name_H-M "P M M N"
_symmetry_group_IT_number 59
_space_group.IT_coordinate_system_code '2'
_symmetry_cell_setting 'orthorhombic'
loop_
_space_group_symop_operation_xyz
x,y,z
1/2-x,1/2-y,z
1/2+x,-y,-z
-x,1/2+y,-z
-x,-y,-z
1/2+x,1/2+y,-z
1/2-x,y,z
x,1/2-y,z
loop_
_atom_site_type_symbol
_atom_site_label
_atom_site_fract_x
_atom_site_fract_y
_atom_site_fract_z
Si Si1 0.067384 0.097914 0.983028
Si Si2 0.431588 0.143255 0.364649
Si Si3 0.925941 0.137348 0.471320
Si Si4 0.434839 0.348269 0.093728
Si Si5 0.566581 0.056229 0.880011
Si Si6 0.567528 0.967407 0.322397
Si Si7 0.065334 0.858437 0.417538
Si Si8 0.565457 0.857735 0.221862
O O1 0.250000 0.095811 0.977418
O O2 0.994815 0.114348 0.928250
O O3 0.032048 0.154784 0.033566
O O4 0.000000 0.000000 0.000000
O O5 0.250000 0.138483 0.359571
O O6 0.480436 0.250000 0.357749
O O7 0.477275 0.114421 0.421909
O O8 0.509206 0.072095 0.326612
O O9 0.750000 0.107175 0.464110
O O10 0.923263 0.250000 0.474337
O O11 0.984279 0.107128 0.526557
O O12 0.250000 0.350023 0.098691
O O13 0.489555 0.250000 0.116297
O O14 0.487292 0.448331 0.114395
O O15 0.750000 0.056322 0.881844
O O16 0.507002 0.099519 0.828353
O O17 0.750000 0.965768 0.324491
O O18 0.502506 0.914218 0.371153
O O19 0.517950 0.915337 0.271400
O O20 0.250000 0.864334 0.417056
O O21 0.024123 0.750000 0.412459
O O22 0.750000 0.862712 0.217907
O O23 0.523531 0.750000 0.227450
#
# Coordination Sequence:
#
# PCOD9450533 Si02
#       8
#     8   8   8   8   8   8   8   8
#     4   9  16  28  49  76 109 149 189 227 266 312
#     4  10  21  37  57  81 109 141 178 220 267 322
#     4   8  15  30  52  78 109 144 179 215 260 317
#     4   8  15  29  50  78 112 148 182 214 255 311
#     4  10  20  34  55  82 110 143 184 230 278 325
#     4  11  23  38  58  81 105 138 181 228 277 330
#     4   9  18  33  54  81 113 146 179 220 271 324
#     4  10  23  43  62  79 103 137 177 222 273 328
#
# _framework density 19.145316000000001
#
# number of rings (size 3 to 8) (size 9 to 14) (size 15 to 20)
#    0.000    2.625    0.000    3.375    0.000    4.250 
#    0.000    3.125    0.000   15.375    0.000    0.000 
#    0.000    0.000    0.000    0.000    0.000    0.000 
#
# Total GULP energy -356860.868610 kJ/mol
# GULP energy per Si atom -5575.951072 kJ/mol
# Density = 1.910174 g / cm^3
# Si number density = 19.145316 Si / 1000 Ang^3
#
#
#
# Elastic Constant Matrix: (Units=GPa)
#
#
# Indices 1 2 3 4 5 6 
#
# 1 25.2607 29.4089 33.8862 0.0000 0.0000 0.0000
# 2 29.4089 105.2905 65.5134 0.0000 0.0000 0.0000
# 3 33.8862 65.5134 128.4024 0.0000 0.0000 0.0000
# 4 0.0000 0.0000 0.0000 18.8491 0.0000 0.0000
# 5 0.0000 0.0000 0.0000 0.0000 31.4577 0.0000
# 6 0.0000 0.0000 0.0000 0.0000 0.0000 20.7389
#
#
#
# Elastic Compliance Matrix: (Units=1/GPa)
#
#
# Indices 1 2 3 4 5 6 
#
# 1 0.070057 -0.011815 -0.012460 0.000000 0.000000 0.000000
# 2 -0.011815 0.015908 -0.004998 0.000000 0.000000 0.000000
# 3 -0.012460 -0.004998 0.013627 0.000000 0.000000 0.000000
# 4 0.000000 0.000000 0.000000 0.053053 0.000000 0.000000
# 5 0.000000 0.000000 0.000000 0.000000 0.031789 0.000000
# 6 0.000000 0.000000 0.000000 0.000000 0.000000 0.048219
#
#
# Mechanical properties :
#
#
# Convention : Reuss Voigt Hill
#
# Bulk Modulus (GPa) = 24.36388 57.39674 40.88031
# Shear Modulus (GPa) = 16.39989 22.88549 19.64269
#
# Velocity S-wave (km/s) = 2.92995 3.46114 3.20657
# Velocity P-wave (km/s) = 4.91930 6.78360 5.92524
#
# Compressibility (1/GPa) = 0.04104436
#
# Stress axis : x y z
#
# Youngs Moduli (GPa) = 14.27405 62.86302 73.38556
#
# Poissons Ratio (x) = 0.74271 0.91441
# Poissons Ratio (y) = 0.16864 0.36681
# Poissons Ratio (z) = 0.17786 0.31421
#
# Static dielectric constant tensor:
#      x y z
#    x 1.635860 0.000000 0.000000 
#    y 0.000000 1.721100 0.000000 
#    z 0.000000 0.000000 1.655880 
# 
# From -- ./inp_files/31636.got.cif
#   From: 2010.05.17/outbox.cif.g08.bks.cpg/sg59_16_cif.got.tgz:31636.got - 2010.06.03 14:40:33.
