data_PCOD9450251
_publ_section_title
;
Structure prediction by ZEFSAII (Michael W. Deem and Ramdas Pophale) SiO2 
 PCOD9450251
Probable space group: P M M N
;
_chemical_formula_sum "Si O2"
_cell_formula_units_Z 48
_cell_length_a 9.327958
_cell_length_b 8.560856
_cell_length_c 31.722260
_cell_angle_alpha 90.000000
_cell_angle_beta 90.000000
_cell_angle_gamma 90.000000
_cell_volume 2533.190754
_symmetry_space_group_name_H-M "P M M N"
_symmetry_group_IT_number 59
_space_group.IT_coordinate_system_code '2'
_symmetry_cell_setting 'orthorhombic'
loop_
_space_group_symop_operation_xyz
x,y,z
1/2-x,1/2-y,z
1/2+x,-y,-z
-x,1/2+y,-z
-x,-y,-z
1/2+x,1/2+y,-z
1/2-x,y,z
x,1/2-y,z
loop_
_atom_site_type_symbol
_atom_site_label
_atom_site_fract_x
_atom_site_fract_y
_atom_site_fract_z
Si Si1 0.415620 0.937239 0.959546
Si Si2 0.417394 0.936634 0.798971
Si Si3 0.415737 0.563058 0.121114
Si Si4 0.415680 0.439050 0.540522
Si Si5 0.914812 0.059303 0.624078
Si Si6 0.417567 0.061777 0.707410
O O1 0.250000 0.990418 0.960143
O O2 0.416334 0.750000 0.960736
O O3 0.493766 0.992900 0.917263
O O4 0.500000 0.000000 0.000000
O O5 0.250000 0.983674 0.804658
O O6 0.424975 0.750000 0.802342
O O7 0.513713 0.011983 0.834977
O O8 0.460750 0.989044 0.752057
O O9 0.250000 0.511649 0.118711
O O10 0.419104 0.750000 0.117841
O O11 0.500000 0.500000 0.500000
O O12 0.250000 0.489571 0.539862
O O13 0.417807 0.250000 0.539930
O O14 0.494409 0.490582 0.583409
O O15 0.750000 0.008869 0.621113
O O16 0.916065 0.250000 0.624181
O O17 0.988401 0.009710 0.667723
O O18 0.250000 0.023452 0.699890
O O19 0.428065 0.250000 0.710767
#
# Coordination Sequence:
#
# PCOD9450251 Si02
#       6
#     8   8   8   8   8   8
#     4  11  24  41  62  89 119 151 189 231 276 328
#     4  10  21  37  57  82 112 146 184 225 272 327
#     4  11  24  40  59  85 115 148 189 233 276 326
#     4  10  20  34  53  77 105 138 177 220 267 321
#     4   9  17  30  50  75 102 134 175 222 269 318
#     4   9  17  31  52  76 102 135 176 221 269 321
#
# _framework density 18.948436000000001
#
# number of rings (size 3 to 8) (size 9 to 14) (size 15 to 20)
#    0.000    2.000    0.000    3.500    0.000   11.333 
#    0.000    2.500    0.000    3.000    0.000    0.000 
#    0.000    0.000    0.000    0.000    0.000    0.000 
#
# Total GULP energy -268188.473801 kJ/mol
# GULP energy per Si atom -5587.259871 kJ/mol
# Density = 1.890531 g / cm^3
# Si number density = 18.948436 Si / 1000 Ang^3
#
#
#
# Elastic Constant Matrix: (Units=GPa)
#
#
# Indices 1 2 3 4 5 6 
#
# 1 178.8328 35.6804 124.3496 0.0000 0.0000 0.0000
# 2 35.6804 21.3027 30.7027 0.0000 0.0000 0.0000
# 3 124.3496 30.7027 179.2536 0.0000 0.0000 0.0000
# 4 0.0000 0.0000 0.0000 34.2757 0.0000 0.0000
# 5 0.0000 0.0000 0.0000 0.0000 42.5166 0.0000
# 6 0.0000 0.0000 0.0000 0.0000 0.0000 22.4120
#
#
#
# Elastic Compliance Matrix: (Units=1/GPa)
#
#
# Indices 1 2 3 4 5 6 
#
# 1 0.012550 -0.011250 -0.006779 0.000000 0.000000 0.000000
# 2 -0.011250 0.072414 -0.004599 0.000000 0.000000 0.000000
# 3 -0.006779 -0.004599 0.011069 0.000000 0.000000 0.000000
# 4 0.000000 0.000000 0.000000 0.029175 0.000000 0.000000
# 5 0.000000 0.000000 0.000000 0.000000 0.023520 0.000000
# 6 0.000000 0.000000 0.000000 0.000000 0.000000 0.044619
#
#
# Mechanical properties :
#
#
# Convention : Reuss Voigt Hill
#
# Bulk Modulus (GPa) = 19.69403 84.53939 52.11671
# Shear Modulus (GPa) = 19.56718 32.41795 25.99256
#
# Velocity S-wave (km/s) = 3.21698 4.14073 3.70774
# Velocity P-wave (km/s) = 4.92084 8.22029 6.77451
#
# Compressibility (1/GPa) = 0.05077681
#
# Stress axis : x y z
#
# Youngs Moduli (GPa) = 79.67875 13.80954 90.34011
#
# Poissons Ratio (x) = 0.15536 0.61245
# Poissons Ratio (y) = 0.89640 0.41545
# Poissons Ratio (z) = 0.54017 0.06351
#
# Static dielectric constant tensor:
#      x y z
#    x 1.646580 0.000000 0.000000 
#    y 0.000000 1.652070 0.000000 
#    z 0.000000 0.000000 1.616050 
# 
# From -- ./inp_files/32781.got.cif
#   From: 2010.05.17/outbox.cif.g08.bks.cpg/sg59_17_cif.got.tgz:32781.got - 2010.06.03 14:40:33.
