data_PCOD9450683
_publ_section_title
;
Structure prediction by ZEFSAII (Michael W. Deem and Ramdas Pophale) SiO2 
 PCOD9450683
Probable space group: P M M N
;
_chemical_formula_sum "Si O2"
_cell_formula_units_Z 64
_cell_length_a 18.257078
_cell_length_b 14.949912
_cell_length_c 12.128007
_cell_angle_alpha 90.000000
_cell_angle_beta 90.000000
_cell_angle_gamma 90.000000
_cell_volume 3310.238963
_symmetry_space_group_name_H-M "P M M N"
_symmetry_group_IT_number 59
_space_group.IT_coordinate_system_code '2'
_symmetry_cell_setting 'orthorhombic'
loop_
_space_group_symop_operation_xyz
x,y,z
1/2-x,1/2-y,z
1/2+x,-y,-z
-x,1/2+y,-z
-x,-y,-z
1/2+x,1/2+y,-z
1/2-x,y,z
x,1/2-y,z
loop_
_atom_site_type_symbol
_atom_site_label
_atom_site_fract_x
_atom_site_fract_y
_atom_site_fract_z
Si Si1 0.664776 0.115873 0.879615
Si Si2 0.666383 0.544572 0.175680
Si Si3 0.383536 0.849807 0.877094
Si Si4 0.333006 0.094080 0.075228
Si Si5 0.074966 0.470553 0.440611
Si Si6 0.042055 0.150974 0.232385
Si Si7 0.404040 0.652764 0.355702
Si Si8 0.081419 0.147539 0.639300
O O1 0.750000 0.144023 0.885954
O O2 0.627291 0.147493 0.767724
O O3 0.664544 0.008168 0.881874
O O4 0.623425 0.146261 0.990261
O O5 0.750000 0.566541 0.204589
O O6 0.659094 0.437084 0.165475
O O7 0.611960 0.586394 0.263328
O O8 0.650960 0.585766 0.054796
O O9 0.358333 0.750000 0.842601
O O10 0.465983 0.861745 0.832478
O O11 0.250000 0.127775 0.089224
O O12 0.392907 0.146197 0.144046
O O13 0.055642 0.423008 0.325537
O O14 0.119085 0.562219 0.418914
O O15 0.106830 0.397882 0.524867
O O16 0.000000 0.500000 0.500000
O O17 0.039805 0.250000 0.284522
O O18 0.383175 0.750000 0.403870
O O19 0.492696 0.649205 0.353851
O O20 0.106483 0.250000 0.648641
#
# Coordination Sequence:
#
# PCOD9450683 Si02
#       8
#     8   8   8   8   8   8   8   8
#     4  10  20  35  56  84 121 160 193 234 291 354
#     4  10  22  39  60  85 117 159 199 241 297 356
#     4  10  21  34  55  89 122 156 194 235 288 354
#     4   9  20  37  57  85 122 160 194 238 296 354
#     4  10  20  39  60  83 118 155 194 252 304 342
#     4  11  22  36  60  90 118 156 200 243 297 355
#     4  10  20  34  58  87 113 152 197 242 299 354
#     4  10  22  39  61  85 113 154 206 253 295 347
#
# _framework density 19.333952
#
# number of rings (size 3 to 8) (size 9 to 14) (size 15 to 20)
#    0.000    2.000    1.250    3.375    1.750    4.250 
#    0.000    3.125    0.000    1.500    0.000    0.000 
#    0.000    0.000    0.000    0.000    0.000    0.000 
#
# Total GULP energy -357001.919323 kJ/mol
# GULP energy per Si atom -5578.154989 kJ/mol
# Density = 1.928995 g / cm^3
# Si number density = 19.333952 Si / 1000 Ang^3
#
#
#
# Elastic Constant Matrix: (Units=GPa)
#
#
# Indices 1 2 3 4 5 6 
#
# 1 35.3426 13.3944 29.3089 0.0000 0.0000 0.0000
# 2 13.3944 99.5677 33.8981 0.0000 0.0000 0.0000
# 3 29.3089 33.8981 69.2152 0.0000 0.0000 0.0000
# 4 0.0000 0.0000 0.0000 14.3706 0.0000 0.0000
# 5 0.0000 0.0000 0.0000 0.0000 -0.0328 0.0000
# 6 0.0000 0.0000 0.0000 0.0000 0.0000 -1.6670
#
#
#
# Elastic Compliance Matrix: (Units=1/GPa)
#
#
# Indices 1 2 3 4 5 6 
#
# 1 0.043629 0.000505 -0.018721 0.000000 0.000000 0.000000
# 2 0.000505 0.012059 -0.006120 0.000000 0.000000 0.000000
# 3 -0.018721 -0.006120 0.025372 0.000000 0.000000 0.000000
# 4 0.000000 0.000000 0.000000 0.069586 0.000000 0.000000
# 5 0.000000 0.000000 0.000000 0.000000-30.457904 0.000000
# 6 0.000000 0.000000 0.000000 0.000000 0.000000 -0.599870
#
#
# Mechanical properties :
#
#
# Convention : Reuss Voigt Hill
#
# Bulk Modulus (GPa) = 30.87662 39.70316 35.28989
# Shear Modulus (GPa) = -0.16209 11.03576 5.43684
#
# Velocity S-wave (km/s) = -0.28986 2.39173 1.67874
# Velocity P-wave (km/s) = 3.98658 5.31104 4.69574
#
# Compressibility (1/GPa) = 0.03238697
#
# Stress axis : x y z
#
# Youngs Moduli (GPa) = 22.92078 82.92597 39.41308
#
# Poissons Ratio (x) = -0.04185 0.73787
# Poissons Ratio (y) = -0.01157 0.24119
# Poissons Ratio (z) = 0.42911 0.50747
#
# Static dielectric constant tensor:
#      x y z
#    x 1.646990 0.000000 0.000000 
#    y 0.000000 1.731790 0.000000 
#    z 0.000000 0.000000 1.648340 
# 
# From -- ./inp_files/17857.got.cif
#   From: 2010.05.17/outbox.cif.g08.bks.cpg/sg59_9_cif.got.tgz:17857.got - 2010.06.03 14:40:33.
