data_PCOD9450520
_publ_section_title
;
Structure prediction by ZEFSAII (Michael W. Deem and Ramdas Pophale) SiO2 
 PCOD9450520
Probable space group: P M M N
;
_chemical_formula_sum "Si O2"
_cell_formula_units_Z 56
_cell_length_a 14.048510
_cell_length_b 33.575283
_cell_length_c 5.685342
_cell_angle_alpha 90.000000
_cell_angle_beta 90.000000
_cell_angle_gamma 90.000000
_cell_volume 2681.677459
_symmetry_space_group_name_H-M "P M M N"
_symmetry_group_IT_number 59
_space_group.IT_coordinate_system_code '2'
_symmetry_cell_setting 'orthorhombic'
loop_
_space_group_symop_operation_xyz
x,y,z
1/2-x,1/2-y,z
1/2+x,-y,-z
-x,1/2+y,-z
-x,-y,-z
1/2+x,1/2+y,-z
1/2-x,y,z
x,1/2-y,z
loop_
_atom_site_type_symbol
_atom_site_label
_atom_site_fract_x
_atom_site_fract_y
_atom_site_fract_z
Si Si1 0.358549 0.091348 0.230662
Si Si2 0.540783 0.702449 0.568936
Si Si3 0.143421 0.480400 0.538829
Si Si4 0.954540 0.374088 0.472708
Si Si5 0.356317 0.941187 0.780435
Si Si6 0.142835 0.201890 0.930686
Si Si7 0.491787 0.429382 0.850926
O O1 0.250000 0.104909 0.256801
O O2 0.437603 0.112598 0.392937
O O3 0.360103 0.044049 0.297119
O O4 0.403965 0.093517 0.975016
O O5 0.523570 0.750000 0.568732
O O6 0.451277 0.673009 0.546802
O O7 0.598076 0.692658 0.325861
O O8 0.590347 0.692310 0.821642
O O9 0.250000 0.470600 0.636465
O O10 0.136295 0.527687 0.563411
O O11 0.058739 0.461373 0.686970
O O12 0.881402 0.397306 0.308742
O O13 0.947480 0.395144 0.723577
O O14 0.250000 0.944346 0.876715
O O15 0.438414 0.950451 0.965734
O O16 0.250000 0.185832 0.939750
O O17 0.147357 0.250000 0.933139
#
# Coordination Sequence:
#
# PCOD9450520 Si02
#       7
#     8   8   8   8   8   8   8
#     4   9  19  34  52  79 117 154 186 225 275 344
#     4  10  21  37  58  83 116 159 201 242 296 357
#     4   9  18  34  55  82 114 150 188 229 286 354
#     4  10  23  37  53  79 113 145 191 242 296 353
#     4  10  22  38  57  80 108 144 190 247 305 357
#     4   9  18  33  55  85 118 152 194 240 284 344
#     4  10  20  34  55  81 111 147 190 238 289 349
#
# _framework density 20.882449999999999
#
# number of rings (size 3 to 8) (size 9 to 14) (size 15 to 20)
#    0.000    2.429    0.000    1.286    4.000   10.286 
#    0.000    2.857    0.000    0.429    0.000    0.000 
#    0.000    0.000    0.000    0.000    0.000    0.000 
#
# Total GULP energy -312050.303619 kJ/mol
# GULP energy per Si atom -5572.326850 kJ/mol
# Density = 2.083492 g / cm^3
# Si number density = 20.882450 Si / 1000 Ang^3
#
#
#
# Elastic Constant Matrix: (Units=GPa)
#
#
# Indices 1 2 3 4 5 6 
#
# 1 66.3538 4.1928 5.1310 0.0000 0.0000 0.0000
# 2 4.1928 82.0819 10.0697 0.0000 0.0000 0.0000
# 3 5.1310 10.0697 70.0514 0.0000 0.0000 0.0000
# 4 0.0000 0.0000 0.0000 22.0794 0.0000 0.0000
# 5 0.0000 0.0000 0.0000 0.0000 9.2250 0.0000
# 6 0.0000 0.0000 0.0000 0.0000 0.0000 20.6614
#
#
#
# Elastic Compliance Matrix: (Units=1/GPa)
#
#
# Indices 1 2 3 4 5 6 
#
# 1 0.015191 -0.000651 -0.001019 0.000000 0.000000 0.000000
# 2 -0.000651 0.012430 -0.001739 0.000000 0.000000 0.000000
# 3 -0.001019 -0.001739 0.014600 0.000000 0.000000 0.000000
# 4 0.000000 0.000000 0.000000 0.045291 0.000000 0.000000
# 5 0.000000 0.000000 0.000000 0.000000 0.108401 0.000000
# 6 0.000000 0.000000 0.000000 0.000000 0.000000 0.048399
#
#
# Mechanical properties :
#
#
# Convention : Reuss Voigt Hill
#
# Bulk Modulus (GPa) = 28.24704 28.58603 28.41653
# Shear Modulus (GPa) = 19.01641 23.66605 21.34123
#
# Velocity S-wave (km/s) = 3.02096 3.37010 3.20029
# Velocity P-wave (km/s) = 5.07191 5.37235 5.22429
#
# Compressibility (1/GPa) = 0.03540194
#
# Stress axis : x y z
#
# Youngs Moduli (GPa) = 65.82987 80.45343 68.49384
#
# Poissons Ratio (x) = 0.05237 0.06980
# Poissons Ratio (y) = 0.04285 0.11911
# Poissons Ratio (z) = 0.06709 0.13991
#
# Static dielectric constant tensor:
#      x y z
#    x 1.738560 0.000000 0.000000 
#    y 0.000000 1.794320 0.000000 
#    z 0.000000 0.000000 1.819980 
# 
# From -- ./inp_files/2300.got.cif
#   From: 2010.05.17/outbox.cif.g08.bks.cpg/sg59_2_cif.got.tgz:2300.got - 2010.06.03 14:40:33.
