data_PCOD9450504
_publ_section_title
;
Structure prediction by ZEFSAII (Michael W. Deem and Ramdas Pophale) SiO2 
 PCOD9450504
Probable space group: P M M N
;
_chemical_formula_sum "Si O2"
_cell_formula_units_Z 48
_cell_length_a 9.623335
_cell_length_b 8.236309
_cell_length_c 31.952813
_cell_angle_alpha 90.000000
_cell_angle_beta 90.000000
_cell_angle_gamma 90.000000
_cell_volume 2532.604264
_symmetry_space_group_name_H-M "P M M N"
_symmetry_group_IT_number 59
_space_group.IT_coordinate_system_code '2'
_symmetry_cell_setting 'orthorhombic'
loop_
_space_group_symop_operation_xyz
x,y,z
1/2-x,1/2-y,z
1/2+x,-y,-z
-x,1/2+y,-z
-x,-y,-z
1/2+x,1/2+y,-z
1/2-x,y,z
x,1/2-y,z
loop_
_atom_site_type_symbol
_atom_site_label
_atom_site_fract_x
_atom_site_fract_y
_atom_site_fract_z
Si Si1 0.408518 0.054482 0.961324
Si Si2 0.590790 0.943669 0.789252
Si Si3 0.588063 0.553651 0.132455
Si Si4 0.591020 0.445497 0.538781
Si Si5 0.911225 0.051849 0.632233
Si Si6 0.408882 0.445856 0.710707
O O1 0.250000 0.998613 0.967192
O O2 0.407854 0.250000 0.960535
O O3 0.453076 0.001426 0.914655
O O4 0.500000 0.000000 0.000000
O O5 0.750000 0.005340 0.788210
O O6 0.595006 0.750000 0.785664
O O7 0.513287 0.988684 0.832159
O O8 0.499870 0.009971 0.750940
O O9 0.750000 0.505867 0.139467
O O10 0.584845 0.750000 0.133949
O O11 0.500000 0.500000 0.500000
O O12 0.750000 0.500543 0.533245
O O13 0.591088 0.250000 0.539493
O O14 0.545545 0.499469 0.585357
O O15 0.750000 0.003700 0.639158
O O16 0.912438 0.250000 0.632795
O O17 0.011973 0.994959 0.669009
O O18 0.250000 0.505396 0.713770
O O19 0.403266 0.250000 0.708417
#
# Coordination Sequence:
#
# PCOD9450504 Si02
#       6
#     8   8   8   8   8   8
#     4   9  19  35  54  78 108 139 172 212 255 300
#     4  11  24  38  52  75 106 137 169 207 253 304
#     4   9  19  37  58  78 102 135 175 215 254 299
#     4   9  18  32  50  74 103 134 170 210 251 299
#     4   8  15  30  51  73  99 132 169 209 251 296
#     4  10  20  34  55  81 103 127 165 210 254 303
#
# _framework density 18.952824
#
# number of rings (size 3 to 8) (size 9 to 14) (size 15 to 20)
#    0.000    2.667    0.000    3.500    0.000    7.333 
#    0.000    7.500    0.000    1.000    0.000    0.000 
#    0.000    0.000    0.000    0.000    0.000    0.000 
#
# Total GULP energy -267743.686157 kJ/mol
# GULP energy per Si atom -5577.993462 kJ/mol
# Density = 1.890969 g / cm^3
# Si number density = 18.952824 Si / 1000 Ang^3
#
#
#
# Elastic Constant Matrix: (Units=GPa)
#
#
# Indices 1 2 3 4 5 6 
#
# 1 141.7653 15.8109 130.7261 0.0000 0.0000 0.0000
# 2 15.8109 6.7941 14.3630 0.0000 0.0000 0.0000
# 3 130.7261 14.3630 209.5656 0.0000 0.0000 0.0000
# 4 0.0000 0.0000 0.0000 27.3438 0.0000 0.0000
# 5 0.0000 0.0000 0.0000 0.0000 42.7412 0.0000
# 6 0.0000 0.0000 0.0000 0.0000 0.0000 24.0734
#
#
#
# Elastic Compliance Matrix: (Units=1/GPa)
#
#
# Indices 1 2 3 4 5 6 
#
# 1 0.019179 -0.022618 -0.010414 0.000000 0.000000 0.000000
# 2 -0.022618 0.198800 0.000484 0.000000 0.000000 0.000000
# 3 -0.010414 0.000484 0.011235 0.000000 0.000000 0.000000
# 4 0.000000 0.000000 0.000000 0.036571 0.000000 0.000000
# 5 0.000000 0.000000 0.000000 0.000000 0.023397 0.000000
# 6 0.000000 0.000000 0.000000 0.000000 0.000000 0.041540
#
#
# Mechanical properties :
#
#
# Convention : Reuss Voigt Hill
#
# Bulk Modulus (GPa) = 6.09317 75.54722 40.82020
# Shear Modulus (GPa) = 11.09819 31.98001 21.53910
#
# Velocity S-wave (km/s) = 2.42248 4.11219 3.37480
# Velocity P-wave (km/s) = 3.32362 7.90532 6.06385
#
# Compressibility (1/GPa) = 0.16411809
#
# Stress axis : x y z
#
# Youngs Moduli (GPa) = 52.13922 5.03018 89.00974
#
# Poissons Ratio (x) = 0.11377 0.92693
# Poissons Ratio (y) = 1.17930 -0.04308
# Poissons Ratio (z) = 0.54297 -0.00243
#
# Static dielectric constant tensor:
#      x y z
#    x 1.645950 0.000000 0.000000 
#    y 0.000000 1.676100 0.000000 
#    z 0.000000 0.000000 1.648870 
# 
# From -- ./inp_files/32826.got.cif
#   From: 2010.05.17/outbox.cif.g08.bks.cpg/sg59_17_cif.got.tgz:32826.got - 2010.06.03 14:40:33.
