data_PCOD9450700
_publ_section_title
;
Structure prediction by ZEFSAII (Michael W. Deem and Ramdas Pophale) SiO2 
 PCOD9450700
Probable space group: P M M N
;
_chemical_formula_sum "Si O2"
_cell_formula_units_Z 32
_cell_length_a 7.534203
_cell_length_b 15.387498
_cell_length_c 12.723165
_cell_angle_alpha 90.000000
_cell_angle_beta 90.000000
_cell_angle_gamma 90.000000
_cell_volume 1475.028754
_symmetry_space_group_name_H-M "P M M N"
_symmetry_group_IT_number 59
_space_group.IT_coordinate_system_code '2'
_symmetry_cell_setting 'orthorhombic'
loop_
_space_group_symop_operation_xyz
x,y,z
1/2-x,1/2-y,z
1/2+x,-y,-z
-x,1/2+y,-z
-x,-y,-z
1/2+x,1/2+y,-z
1/2-x,y,z
x,1/2-y,z
loop_
_atom_site_type_symbol
_atom_site_label
_atom_site_fract_x
_atom_site_fract_y
_atom_site_fract_z
Si Si1 0.036004 0.750000 0.379772
Si Si2 0.960335 0.396793 0.007782
Si Si3 0.455907 0.094493 0.238534
Si Si4 0.461131 0.250000 0.375065
Si Si5 0.532091 0.397264 0.778639
O O1 0.250000 0.750000 0.376827
O O2 0.976063 0.665630 0.314639
O O3 0.983376 0.750000 0.500633
O O4 0.750000 0.382832 0.014322
O O5 0.036235 0.368550 0.119583
O O6 0.023021 0.363221 0.894365
O O7 0.000000 0.500000 0.000000
O O8 0.250000 0.082602 0.266755
O O9 0.534906 0.163522 0.319274
O O10 0.531019 0.996567 0.236761
O O11 0.250000 0.250000 0.352278
O O12 0.750000 0.398549 0.781716
#
# Coordination Sequence:
#
# PCOD9450700 Si02
#       5
#     4   8   8   4   8
#     4  10  20  35  52  70  94 127 169 208 243 294
#     4   9  16  29  51  78 105 130 160 198 245 301
#     4   9  18  34  52  71 100 134 164 200 251 301
#     4  10  22  37  50  68  98 133 169 212 255 290
#     4   8  16  31  51  73  98 127 156 196 248 294
#
# _framework density 21.694489999999998
#
# number of rings (size 3 to 8) (size 9 to 14) (size 15 to 20)
#    0.000    3.000    0.000    2.250    0.000    3.000 
#    0.000    7.500    0.000    0.000    0.000    0.000 
#    0.000    0.000    0.000    0.000    0.000    0.000 
#
# Total GULP energy -178447.714376 kJ/mol
# GULP energy per Si atom -5576.491074 kJ/mol
# Density = 2.164511 g / cm^3
# Si number density = 21.694490 Si / 1000 Ang^3
#
#
#
# Elastic Constant Matrix: (Units=GPa)
#
#
# Indices 1 2 3 4 5 6 
#
# 1 49.4484 1.4835 -19.5135 0.0000 0.0000 0.0000
# 2 1.4835 120.3309 94.0651 0.0000 0.0000 0.0000
# 3 -19.5135 94.0651 185.1656 0.0000 0.0000 0.0000
# 4 0.0000 0.0000 0.0000 40.5486 0.0000 0.0000
# 5 0.0000 0.0000 0.0000 0.0000 27.6963 0.0000
# 6 0.0000 0.0000 0.0000 0.0000 0.0000 -3.7089
#
#
#
# Elastic Compliance Matrix: (Units=1/GPa)
#
#
# Indices 1 2 3 4 5 6 
#
# 1 0.021929 -0.003445 0.004061 0.000000 0.000000 0.000000
# 2 -0.003445 0.014326 -0.007641 0.000000 0.000000 0.000000
# 3 0.004061 -0.007641 0.009710 0.000000 0.000000 0.000000
# 4 0.000000 0.000000 0.000000 0.024662 0.000000 0.000000
# 5 0.000000 0.000000 0.000000 0.000000 0.036106 0.000000
# 6 0.000000 0.000000 0.000000 0.000000 0.000000 -0.269620
#
#
# Mechanical properties :
#
#
# Convention : Reuss Voigt Hill
#
# Bulk Modulus (GPa) = 31.33252 56.33502 43.83377
# Shear Modulus (GPa) = -36.17930 31.50117 -2.33906
#
# Velocity S-wave (km/s) = -4.08814 3.81469 -1.03948
# Velocity P-wave (km/s) = 2.79463 6.73990 4.33684
#
# Compressibility (1/GPa) = 0.03191573
#
# Stress axis : x y z
#
# Youngs Moduli (GPa) = 45.60166 69.80484 102.98690
#
# Poissons Ratio (x) = 0.24047 -0.41823
# Poissons Ratio (y) = 0.15709 0.78688
# Poissons Ratio (z) = -0.18519 0.53335
#
# Static dielectric constant tensor:
#      x y z
#    x 1.814330 0.000000 0.000000 
#    y 0.000000 1.813700 0.000000 
#    z 0.000000 0.000000 1.766240 
# 
# From -- ./inp_files/13777.got.cif
#   From: 2010.05.17/outbox.cif.g08.bks.cpg/sg59_7_cif.got.tgz:13777.got - 2010.06.03 14:40:33.
