data_PCOD9450750
_publ_section_title
;
Structure prediction by ZEFSAII (Michael W. Deem and Ramdas Pophale) SiO2 
 PCOD9450750
Probable space group: P M M N
;
_chemical_formula_sum "Si O2"
_cell_formula_units_Z 64
_cell_length_a 19.248800
_cell_length_b 8.443611
_cell_length_c 21.643034
_cell_angle_alpha 90.000000
_cell_angle_beta 90.000000
_cell_angle_gamma 90.000000
_cell_volume 3517.628885
_symmetry_space_group_name_H-M "P M M N"
_symmetry_group_IT_number 59
_space_group.IT_coordinate_system_code '2'
_symmetry_cell_setting 'orthorhombic'
loop_
_space_group_symop_operation_xyz
x,y,z
1/2-x,1/2-y,z
1/2+x,-y,-z
-x,1/2+y,-z
-x,-y,-z
1/2+x,1/2+y,-z
1/2-x,y,z
x,1/2-y,z
loop_
_atom_site_type_symbol
_atom_site_label
_atom_site_fract_x
_atom_site_fract_y
_atom_site_fract_z
Si Si1 0.034786 0.060643 0.937696
Si Si2 0.172003 0.558770 0.252910
Si Si3 0.330206 0.943574 0.619594
Si Si4 0.171477 0.941337 0.879401
Si Si5 0.032516 0.558643 0.190750
Si Si6 0.578356 0.439272 0.497306
Si Si7 0.829536 0.560522 0.608769
Si Si8 0.103905 0.558801 0.749572
O O1 0.034131 0.250000 0.937964
O O2 0.992031 0.004695 0.877055
O O3 0.113376 0.003016 0.926319
O O4 0.000000 0.000000 0.000000
O O5 0.250000 0.503044 0.236507
O O6 0.172786 0.750000 0.251285
O O7 0.109094 0.503491 0.209804
O O8 0.157245 0.505572 0.322862
O O9 0.250000 0.994080 0.612622
O O10 0.329972 0.750000 0.619604
O O11 0.378687 0.996247 0.562917
O O12 0.361839 0.994420 0.685497
O O13 0.250000 0.994282 0.892028
O O14 0.170385 0.750000 0.880732
O O15 0.147939 0.990618 0.810131
O O16 0.032176 0.750000 0.190901
O O17 0.974006 0.501494 0.238824
O O18 0.500000 0.500000 0.500000
O O19 0.577063 0.250000 0.494682
O O20 0.618872 0.493044 0.558221
O O21 0.750000 0.516887 0.592287
O O22 0.834694 0.750000 0.610432
O O23 0.102783 0.750000 0.748931
#
# Coordination Sequence:
#
# PCOD9450750 Si02
#       8
#     8   8   8   8   8   8   8   8
#     4  10  20  35  54  77 109 145 182 220 260 309
#     4   9  18  34  56  79 102 133 174 218 268 322
#     4   9  18  33  53  76 101 131 170 214 259 310
#     4   9  17  31  53  80 108 138 175 216 260 313
#     4   9  19  34  52  77 107 138 171 214 262 311
#     4  11  23  37  53  75 104 140 180 223 268 318
#     4  10  21  37  56  77 102 134 175 223 272 322
#     4   9  17  30  52  80 105 133 168 211 260 313
#
# _framework density 18.194074000000001
#
# number of rings (size 3 to 8) (size 9 to 14) (size 15 to 20)
#    0.000    2.500    0.000    1.875    1.750    4.000 
#    0.000    1.250    0.000    4.875    0.000    0.000 
#    0.000    0.000    0.000    0.000    0.000    0.000 
#
# Total GULP energy -357089.195094 kJ/mol
# GULP energy per Si atom -5579.518673 kJ/mol
# Density = 1.815266 g / cm^3
# Si number density = 18.194074 Si / 1000 Ang^3
#
#
#
# Elastic Constant Matrix: (Units=GPa)
#
#
# Indices 1 2 3 4 5 6 
#
# 1 189.1672 24.8551 106.1521 0.0000 0.0000 0.0000
# 2 24.8551 10.0466 13.5121 0.0000 0.0000 0.0000
# 3 106.1521 13.5121 94.4851 0.0000 0.0000 0.0000
# 4 0.0000 0.0000 0.0000 15.0376 0.0000 0.0000
# 5 0.0000 0.0000 0.0000 0.0000 29.1532 0.0000
# 6 0.0000 0.0000 0.0000 0.0000 0.0000 28.5968
#
#
#
# Elastic Compliance Matrix: (Units=1/GPa)
#
#
# Indices 1 2 3 4 5 6 
#
# 1 0.017131 -0.020425 -0.016326 0.000000 0.000000 0.000000
# 2 -0.020425 0.147593 0.001841 0.000000 0.000000 0.000000
# 3 -0.016326 0.001841 0.028662 0.000000 0.000000 0.000000
# 4 0.000000 0.000000 0.000000 0.066500 0.000000 0.000000
# 5 0.000000 0.000000 0.000000 0.000000 0.034302 0.000000
# 6 0.000000 0.000000 0.000000 0.000000 0.000000 0.034969
#
#
# Mechanical properties :
#
#
# Convention : Reuss Voigt Hill
#
# Bulk Modulus (GPa) = 8.09289 64.74861 36.42075
# Shear Modulus (GPa) = 11.35935 24.50282 17.93109
#
# Velocity S-wave (km/s) = 2.50140 3.67379 3.14275
# Velocity P-wave (km/s) = 3.57776 7.32534 5.76459
#
# Compressibility (1/GPa) = 0.12356521
#
# Stress axis : x y z
#
# Youngs Moduli (GPa) = 58.37266 6.77539 34.88940
#
# Poissons Ratio (x) = 0.13839 0.56959
# Poissons Ratio (y) = 1.19229 -0.06422
# Poissons Ratio (z) = 0.95297 -0.01247
#
# Static dielectric constant tensor:
#      x y z
#    x 1.626530 0.000000 0.000000 
#    y 0.000000 1.626930 0.000000 
#    z 0.000000 0.000000 1.602220 
# 
# From -- ./inp_files/30724.got.cif
#   From: 2010.05.17/outbox.cif.g08.bks.cpg/sg59_16_cif.got.tgz:30724.got - 2010.06.03 14:40:33.
