data_PCOD9450668
_publ_section_title
;
Structure prediction by ZEFSAII (Michael W. Deem and Ramdas Pophale) SiO2 
 PCOD9450668
Probable space group: P M M N
;
_chemical_formula_sum "Si O2"
_cell_formula_units_Z 40
_cell_length_a 15.984061
_cell_length_b 8.685805
_cell_length_c 14.766987
_cell_angle_alpha 90.000000
_cell_angle_beta 90.000000
_cell_angle_gamma 90.000000
_cell_volume 2050.166326
_symmetry_space_group_name_H-M "P M M N"
_symmetry_group_IT_number 59
_space_group.IT_coordinate_system_code '2'
_symmetry_cell_setting 'orthorhombic'
loop_
_space_group_symop_operation_xyz
x,y,z
1/2-x,1/2-y,z
1/2+x,-y,-z
-x,1/2+y,-z
-x,-y,-z
1/2+x,1/2+y,-z
1/2-x,y,z
x,1/2-y,z
loop_
_atom_site_type_symbol
_atom_site_label
_atom_site_fract_x
_atom_site_fract_y
_atom_site_fract_z
Si Si1 0.843361 0.566480 0.788415
Si Si2 0.902681 0.066962 0.603971
Si Si3 0.410436 0.933900 0.599032
Si Si4 0.501169 0.065648 0.899260
Si Si5 0.842523 0.564809 0.220202
O O1 0.750000 0.520494 0.818239
O O2 0.851026 0.750000 0.796932
O O3 0.855383 0.519336 0.683780
O O4 0.916880 0.489002 0.845571
O O5 0.895341 0.250000 0.618112
O O6 0.875548 0.030345 0.501150
O O7 0.000153 0.018135 0.609020
O O8 0.423964 0.750000 0.602975
O O9 0.354511 0.988790 0.681874
O O10 0.500214 0.250000 0.902726
O O11 0.418453 0.014481 0.844097
O O12 0.500000 0.000000 0.000000
O O13 0.750000 0.528800 0.183877
O O14 0.848504 0.750000 0.230499
#
# Coordination Sequence:
#
# PCOD9450668 Si02
#       5
#     8   8   8   8   8
#     4  11  24  41  63  92 125 162 205 254 306 361
#     4  10  20  35  57  87 123 164 205 248 299 357
#     4  10  20  34  57  88 123 162 205 249 297 356
#     4  11  24  43  67  92 121 159 200 251 313 367
#     4  10  22  40  62  89 122 160 201 245 299 363
#
# _framework density 19.510611999999998
#
# number of rings (size 3 to 8) (size 9 to 14) (size 15 to 20)
#    0.000    1.600    2.000    2.400    0.000    6.800 
#    0.000    6.000    0.000    0.000    0.000    0.000 
#    0.000    0.000    0.000    0.000    0.000    0.000 
#
# Total GULP energy -223533.398957 kJ/mol
# GULP energy per Si atom -5588.334974 kJ/mol
# Density = 1.946620 g / cm^3
# Si number density = 19.510612 Si / 1000 Ang^3
#
#
#
# Elastic Constant Matrix: (Units=GPa)
#
#
# Indices 1 2 3 4 5 6 
#
# 1 137.4080 33.9033 75.5724 0.0000 0.0000 0.0000
# 2 33.9033 33.5581 32.1385 0.0000 0.0000 0.0000
# 3 75.5724 32.1385 127.8692 0.0000 0.0000 0.0000
# 4 0.0000 0.0000 0.0000 37.1799 0.0000 0.0000
# 5 0.0000 0.0000 0.0000 0.0000 -2.5259 0.0000
# 6 0.0000 0.0000 0.0000 0.0000 0.0000 26.1551
#
#
#
# Elastic Compliance Matrix: (Units=1/GPa)
#
#
# Indices 1 2 3 4 5 6 
#
# 1 0.011902 -0.006964 -0.005284 0.000000 0.000000 0.000000
# 2 -0.006964 0.043321 -0.006772 0.000000 0.000000 0.000000
# 3 -0.005284 -0.006772 0.012645 0.000000 0.000000 0.000000
# 4 0.000000 0.000000 0.000000 0.026896 0.000000 0.000000
# 5 0.000000 0.000000 0.000000 0.000000 -0.395901 0.000000
# 6 0.000000 0.000000 0.000000 0.000000 0.000000 0.038234
#
#
# Mechanical properties :
#
#
# Convention : Reuss Voigt Hill
#
# Bulk Modulus (GPa) = 33.52601 64.67373 49.09987
# Shear Modulus (GPa) = -23.26438 22.64323 -0.31057
#
# Velocity S-wave (km/s) = -3.45686 3.41039 -0.39941
# Velocity P-wave (km/s) = 1.13475 6.98052 5.00077
#
# Compressibility (1/GPa) = 0.02982759
#
# Stress axis : x y z
#
# Youngs Moduli (GPa) = 84.02019 23.08371 79.07974
#
# Poissons Ratio (x) = 0.16076 0.41785
# Poissons Ratio (y) = 0.58512 0.53555
# Poissons Ratio (z) = 0.44395 0.15633
#
# Static dielectric constant tensor:
#      x y z
#    x 1.697230 0.000000 0.000000 
#    y 0.000000 1.654950 0.000000 
#    z 0.000000 0.000000 1.661870 
# 
# From -- ./inp_files/19837.got.cif
#   From: 2010.05.17/outbox.cif.g08.bks.cpg/sg59_10_cif.got.tgz:19837.got - 2010.06.03 14:40:33.
