data_PCOD9450096
_publ_section_title
;
Structure prediction by ZEFSAII (Michael W. Deem and Ramdas Pophale) SiO2 
 PCOD9450096
Probable space group: P M M N
;
_chemical_formula_sum "Si O2"
_cell_formula_units_Z 40
_cell_length_a 11.664215
_cell_length_b 12.780896
_cell_length_c 11.635665
_cell_angle_alpha 90.000000
_cell_angle_beta 90.000000
_cell_angle_gamma 90.000000
_cell_volume 1734.634685
_symmetry_space_group_name_H-M "P M M N"
_symmetry_group_IT_number 59
_space_group.IT_coordinate_system_code '2'
_symmetry_cell_setting 'orthorhombic'
loop_
_space_group_symop_operation_xyz
x,y,z
1/2-x,1/2-y,z
1/2+x,-y,-z
-x,1/2+y,-z
-x,-y,-z
1/2+x,1/2+y,-z
1/2-x,y,z
x,1/2-y,z
loop_
_atom_site_type_symbol
_atom_site_label
_atom_site_fract_x
_atom_site_fract_y
_atom_site_fract_z
Si Si1 0.878257 0.866379 0.293276
Si Si2 0.945003 0.136906 0.915894
Si Si3 0.376486 0.573898 0.547060
Si Si4 0.879627 0.904576 0.623742
Si Si5 0.126784 0.092278 0.104343
O O1 0.750000 0.867627 0.242830
O O2 0.892697 0.750000 0.347923
O O3 0.969283 0.874827 0.192148
O O4 0.880911 0.966497 0.376726
O O5 0.887604 0.250000 0.907121
O O6 0.872599 0.032366 0.915626
O O7 0.022764 0.134627 0.030105
O O8 0.250000 0.622095 0.567435
O O9 0.496066 0.631306 0.574398
O O10 0.377404 0.526223 0.418318
O O11 0.750000 0.866624 0.588478
O O12 0.886519 0.889824 0.759806
O O13 0.250000 0.134453 0.067846
#
# Coordination Sequence:
#
# PCOD9450096 Si02
#       5
#     8   8   8   8   8
#     4   9  16  27  45  69  96 127 168 216 258 297
#     4  10  20  34  51  73 102 136 175 219 266 316
#     4   9  16  28  48  71  97 130 170 210 253 305
#     4   9  17  30  47  71 102 133 166 208 259 314
#     4  10  20  34  52  75 104 138 176 217 268 325
#
# _framework density 23.059611
#
# number of rings (size 3 to 8) (size 9 to 14) (size 15 to 20)
#    0.000    2.600    2.000    0.600    0.000    1.600 
#    0.000    1.000    0.000    4.200    0.000    0.000 
#    0.000    1.600    0.000    0.000    0.000    0.000 
#
# Total GULP energy -222879.239417 kJ/mol
# GULP energy per Si atom -5571.980985 kJ/mol
# Density = 2.300713 g / cm^3
# Si number density = 23.059611 Si / 1000 Ang^3
#
#
#
# Elastic Constant Matrix: (Units=GPa)
#
#
# Indices 1 2 3 4 5 6 
#
# 1 201.9225 22.1253 27.4366 0.0000 0.0000 0.0000
# 2 22.1253 121.0641 2.2193 0.0000 0.0000 0.0000
# 3 27.4366 2.2193 83.4668 0.0000 0.0000 0.0000
# 4 0.0000 0.0000 0.0000 5.0452 0.0000 0.0000
# 5 0.0000 0.0000 0.0000 0.0000 -41.9891 0.0000
# 6 0.0000 0.0000 0.0000 0.0000 0.0000 26.9858
#
#
#
# Elastic Compliance Matrix: (Units=1/GPa)
#
#
# Indices 1 2 3 4 5 6 
#
# 1 0.005288 -0.000935 -0.001713 0.000000 0.000000 0.000000
# 2 -0.000935 0.008429 0.000083 0.000000 0.000000 0.000000
# 3 -0.001713 0.000083 0.012542 0.000000 0.000000 0.000000
# 4 0.000000 0.000000 0.000000 0.198210 0.000000 0.000000
# 5 0.000000 0.000000 0.000000 0.000000 -0.023816 0.000000
# 6 0.000000 0.000000 0.000000 0.000000 0.000000 0.037057
#
#
# Mechanical properties :
#
#
# Convention : Reuss Voigt Hill
#
# Bulk Modulus (GPa) = 47.32869 56.66841 51.99855
# Shear Modulus (GPa) = 20.00942 21.65319 20.83130
#
# Velocity S-wave (km/s) = 2.94891 3.06765 3.00887
# Velocity P-wave (km/s) = 5.67132 6.09716 5.88809
#
# Compressibility (1/GPa) = 0.02112883
#
# Stress axis : x y z
#
# Youngs Moduli (GPa) = 189.12068 118.63200 79.73357
#
# Poissons Ratio (x) = 0.11091 0.13660
# Poissons Ratio (y) = 0.17682 -0.00663
# Poissons Ratio (z) = 0.32401 -0.00987
#
# Static dielectric constant tensor:
#      x y z
#    x 1.895190 0.000000 0.000000 
#    y 0.000000 1.881680 0.000000 
#    z 0.000000 0.000000 1.853270 
# 
# From -- ./inp_files/15506.got.cif
#   From: 2010.05.17/outbox.cif.g08.bks.cpg/sg59_8_cif.got.tgz:15506.got - 2010.06.03 14:40:33.
