data_PCOD9450663
_publ_section_title
;
Structure prediction by ZEFSAII (Michael W. Deem and Ramdas Pophale) SiO2 
 PCOD9450663
Probable space group: P M M N
;
_chemical_formula_sum "Si O2"
_cell_formula_units_Z 64
_cell_length_a 8.325567
_cell_length_b 15.915655
_cell_length_c 24.546462
_cell_angle_alpha 90.000000
_cell_angle_beta 90.000000
_cell_angle_gamma 90.000000
_cell_volume 3252.574409
_symmetry_space_group_name_H-M "P M M N"
_symmetry_group_IT_number 59
_space_group.IT_coordinate_system_code '2'
_symmetry_cell_setting 'orthorhombic'
loop_
_space_group_symop_operation_xyz
x,y,z
1/2-x,1/2-y,z
1/2+x,-y,-z
-x,1/2+y,-z
-x,-y,-z
1/2+x,1/2+y,-z
1/2-x,y,z
x,1/2-y,z
loop_
_atom_site_type_symbol
_atom_site_label
_atom_site_fract_x
_atom_site_fract_y
_atom_site_fract_z
Si Si1 0.055716 0.154585 0.558274
Si Si2 0.055881 0.845103 0.564489
Si Si3 0.944112 0.657028 0.828634
Si Si4 0.557998 0.411930 0.059142
Si Si5 0.060909 0.602152 0.061505
Si Si6 0.556638 0.502911 0.365661
Si Si7 0.060587 0.342795 0.824871
Si Si8 0.559708 0.999776 0.757260
O O1 0.250000 0.153966 0.558221
O O2 0.003448 0.250000 0.571817
O O3 0.998214 0.135609 0.497082
O O4 0.998620 0.084019 0.600403
O O5 0.250000 0.844769 0.565445
O O6 0.000867 0.750000 0.577782
O O7 0.998336 0.917272 0.605407
O O8 0.750000 0.651988 0.831777
O O9 0.987796 0.750000 0.808687
O O10 0.002492 0.581961 0.789901
O O11 0.011528 0.642689 0.889075
O O12 0.750000 0.426526 0.058206
O O13 0.471627 0.502036 0.065041
O O14 0.513732 0.374007 0.000181
O O15 0.250000 0.618551 0.068743
O O16 0.968501 0.644894 0.110791
O O17 0.750000 0.502881 0.369335
O O18 0.511114 0.506707 0.302790
O O19 0.250000 0.347855 0.813856
O O20 0.002284 0.250000 0.808806
O O21 0.977395 0.418046 0.792831
O O22 0.750000 0.990590 0.752146
#
# Coordination Sequence:
#
# PCOD9450663 Si02
#       8
#     8   8   8   8   8   8   8   8
#     4   9  18  33  54  81 112 145 181 223 274 331
#     4   9  18  33  54  82 115 148 183 226 276 328
#     4  10  22  40  60  82 112 150 190 237 294 348
#     4  10  20  34  57  87 117 149 187 231 284 345
#     4  10  20  35  57  86 118 150 184 230 286 343
#     4  10  21  36  55  79 111 149 187 230 279 334
#     4  11  24  41  62  86 113 149 191 236 290 349
#     4  11  24  41  60  83 112 149 195 244 289 335
#
# _framework density 19.67672
#
# number of rings (size 3 to 8) (size 9 to 14) (size 15 to 20)
#    0.000    2.000    1.250    1.875    0.000    5.750 
#    0.000    3.750    0.000    0.000    0.000    0.000 
#    0.000    0.000    0.000    0.000    0.000    0.000 
#
# Total GULP energy -357426.214936 kJ/mol
# GULP energy per Si atom -5584.784608 kJ/mol
# Density = 1.963193 g / cm^3
# Si number density = 19.676720 Si / 1000 Ang^3
#
#
#
# Elastic Constant Matrix: (Units=GPa)
#
#
# Indices 1 2 3 4 5 6 
#
# 1 4.2607 4.3185 0.4889 0.0000 0.0000 0.0000
# 2 4.3185 115.0067 69.5243 0.0000 0.0000 0.0000
# 3 0.4889 69.5243 111.7359 0.0000 0.0000 0.0000
# 4 0.0000 0.0000 0.0000 -3.6112 0.0000 0.0000
# 5 0.0000 0.0000 0.0000 0.0000 28.2089 0.0000
# 6 0.0000 0.0000 0.0000 0.0000 0.0000 12.7185
#
#
#
# Elastic Compliance Matrix: (Units=1/GPa)
#
#
# Indices 1 2 3 4 5 6 
#
# 1 0.247893 -0.013870 0.007545 0.000000 0.000000 0.000000
# 2 -0.013870 0.014714 -0.009095 0.000000 0.000000 0.000000
# 3 0.007545 -0.009095 0.014575 0.000000 0.000000 0.000000
# 4 0.000000 0.000000 0.000000 -0.276917 0.000000 0.000000
# 5 0.000000 0.000000 0.000000 0.000000 0.035450 0.000000
# 6 0.000000 0.000000 0.000000 0.000000 0.000000 0.078626
#
#
# Mechanical properties :
#
#
# Convention : Reuss Voigt Hill
#
# Bulk Modulus (GPa) = 4.05936 42.18520 23.12228
# Shear Modulus (GPa) = 21.99794 17.90800 19.95297
#
# Velocity S-wave (km/s) = 3.34723 3.02008 3.18785
# Velocity P-wave (km/s) = 4.12385 5.80059 5.03254
#
# Compressibility (1/GPa) = 0.24634434
#
# Stress axis : x y z
#
# Youngs Moduli (GPa) = 4.03400 67.96337 68.60852
#
# Poissons Ratio (x) = 0.94263 -0.51767
# Poissons Ratio (y) = 0.05595 0.62396
# Poissons Ratio (z) = -0.03044 0.61809
#
# Static dielectric constant tensor:
#      x y z
#    x 1.676220 0.000000 0.000000 
#    y 0.000000 1.712630 0.000000 
#    z 0.000000 0.000000 1.651530 
# 
# From -- ./inp_files/31519.got.cif
#   From: 2010.05.17/outbox.cif.g08.bks.cpg/sg59_16_cif.got.tgz:31519.got - 2010.06.03 14:40:33.
