data_PCOD9450680
_publ_section_title
;
Structure prediction by ZEFSAII (Michael W. Deem and Ramdas Pophale) SiO2 
 PCOD9450680
Probable space group: P M M N
;
_chemical_formula_sum "Si O2"
_cell_formula_units_Z 40
_cell_length_a 13.684546
_cell_length_b 23.373882
_cell_length_c 6.492147
_cell_angle_alpha 90.000000
_cell_angle_beta 90.000000
_cell_angle_gamma 90.000000
_cell_volume 2076.584394
_symmetry_space_group_name_H-M "P M M N"
_symmetry_group_IT_number 59
_space_group.IT_coordinate_system_code '2'
_symmetry_cell_setting 'orthorhombic'
loop_
_space_group_symop_operation_xyz
x,y,z
1/2-x,1/2-y,z
1/2+x,-y,-z
-x,1/2+y,-z
-x,-y,-z
1/2+x,1/2+y,-z
1/2-x,y,z
x,1/2-y,z
loop_
_atom_site_type_symbol
_atom_site_label
_atom_site_fract_x
_atom_site_fract_y
_atom_site_fract_z
Si Si1 0.364272 0.913064 0.277566
Si Si2 0.012012 0.388982 0.076673
Si Si3 0.039775 0.815265 0.545968
Si Si4 0.136448 0.139620 0.697108
Si Si5 0.864338 0.538026 0.606683
O O1 0.250000 0.911371 0.227623
O O2 0.395251 0.857678 0.407568
O O3 0.383442 0.970644 0.409363
O O4 0.429579 0.914642 0.072477
O O5 0.065700 0.434759 0.221761
O O6 0.966611 0.341331 0.226246
O O7 0.092407 0.361665 0.924626
O O8 0.072352 0.750000 0.542306
O O9 0.931516 0.821151 0.446016
O O10 0.250000 0.154564 0.691482
O O11 0.124068 0.075778 0.598993
O O12 0.750000 0.544823 0.668888
#
# Coordination Sequence:
#
# PCOD9450680 Si02
#       5
#     8   8   8   8   8
#     4  10  22  38  57  81 109 145 188 229 271 322
#     4  10  20  34  58  85 112 142 180 226 276 327
#     4  10  23  40  54  74 108 147 188 232 273 314
#     4   9  19  36  59  86 114 142 172 214 274 341
#     4   9  18  34  57  88 120 144 170 213 275 341
#
# _framework density 19.262398000000001
#
# number of rings (size 3 to 8) (size 9 to 14) (size 15 to 20)
#    0.000    2.400    0.000    1.200    0.000   14.400 
#    0.000    4.000    0.000    0.000    0.000    0.000 
#    0.000    0.000    0.000    0.000    0.000    0.000 
#
# Total GULP energy -223322.121556 kJ/mol
# GULP energy per Si atom -5583.053039 kJ/mol
# Density = 1.921856 g / cm^3
# Si number density = 19.262398 Si / 1000 Ang^3
#
#
#
# Elastic Constant Matrix: (Units=GPa)
#
#
# Indices 1 2 3 4 5 6 
#
# 1 51.4564 3.6403 14.4065 0.0000 0.0000 0.0000
# 2 3.6403 119.7241 17.4221 0.0000 0.0000 0.0000
# 3 14.4065 17.4221 67.3301 0.0000 0.0000 0.0000
# 4 0.0000 0.0000 0.0000 7.4083 0.0000 0.0000
# 5 0.0000 0.0000 0.0000 0.0000 14.3282 0.0000
# 6 0.0000 0.0000 0.0000 0.0000 0.0000 16.3264
#
#
#
# Elastic Compliance Matrix: (Units=1/GPa)
#
#
# Indices 1 2 3 4 5 6 
#
# 1 0.020672 0.000016 -0.004427 0.000000 0.000000 0.000000
# 2 0.000016 0.008679 -0.002249 0.000000 0.000000 0.000000
# 3 -0.004427 -0.002249 0.016382 0.000000 0.000000 0.000000
# 4 0.000000 0.000000 0.000000 0.134984 0.000000 0.000000
# 5 0.000000 0.000000 0.000000 0.000000 0.069792 0.000000
# 6 0.000000 0.000000 0.000000 0.000000 0.000000 0.061251
#
#
# Mechanical properties :
#
#
# Convention : Reuss Voigt Hill
#
# Bulk Modulus (GPa) = 30.85312 34.38315 32.61814
# Shear Modulus (GPa) = 14.88599 21.14867 18.01733
#
# Velocity S-wave (km/s) = 2.78294 3.31709 3.06169
# Velocity P-wave (km/s) = 5.13599 5.70609 5.42853
#
# Compressibility (1/GPa) = 0.03241163
#
# Stress axis : x y z
#
# Youngs Moduli (GPa) = 48.37379 115.21586 61.04446
#
# Poissons Ratio (x) = -0.00181 0.27026
# Poissons Ratio (y) = -0.00076 0.13730
# Poissons Ratio (z) = 0.21416 0.25914
#
# Static dielectric constant tensor:
#      x y z
#    x 1.684800 0.000000 0.000000 
#    y 0.000000 1.667940 0.000000 
#    z 0.000000 0.000000 1.644510 
# 
# From -- ./inp_files/2007.got.cif
#   From: 2010.05.17/outbox.cif.g08.bks.cpg/sg59_2_cif.got.tgz:2007.got - 2010.06.03 14:40:33.
