data_PCOD9450823
_publ_section_title
;
Structure prediction by ZEFSAII (Michael W. Deem and Ramdas Pophale) SiO2 
 PCOD9450823
Probable space group: P M M N
;
_chemical_formula_sum "Si O2"
_cell_formula_units_Z 64
_cell_length_a 21.810838
_cell_length_b 8.831476
_cell_length_c 17.040415
_cell_angle_alpha 90.000000
_cell_angle_beta 90.000000
_cell_angle_gamma 90.000000
_cell_volume 3282.356984
_symmetry_space_group_name_H-M "P M M N"
_symmetry_group_IT_number 59
_space_group.IT_coordinate_system_code '2'
_symmetry_cell_setting 'orthorhombic'
loop_
_space_group_symop_operation_xyz
x,y,z
1/2-x,1/2-y,z
1/2+x,-y,-z
-x,1/2+y,-z
-x,-y,-z
1/2+x,1/2+y,-z
1/2-x,y,z
x,1/2-y,z
loop_
_atom_site_type_symbol
_atom_site_label
_atom_site_fract_x
_atom_site_fract_y
_atom_site_fract_z
Si Si1 0.993545 0.568374 0.173235
Si Si2 0.321133 0.066400 0.552165
Si Si3 0.181746 0.069971 0.069219
Si Si4 0.083533 0.922151 0.958054
Si Si5 0.879559 0.929254 0.771753
Si Si6 0.818440 0.417075 0.181413
Si Si7 0.606715 0.926609 0.299315
Si Si8 0.322751 0.571047 0.381967
O O1 0.989594 0.750000 0.170197
O O2 0.971402 0.505275 0.088491
O O3 0.948695 0.512561 0.244796
O O4 0.060242 0.512275 0.196327
O O5 0.250000 0.023188 0.571236
O O6 0.322620 0.250000 0.550445
O O7 0.370313 0.012072 0.617098
O O8 0.335974 0.001902 0.466561
O O9 0.250000 0.013139 0.045933
O O10 0.180277 0.250000 0.053121
O O11 0.172429 0.047484 0.162144
O O12 0.122129 0.999299 0.027326
O O13 0.066088 0.750000 0.978584
O O14 0.135095 0.919252 0.889917
O O15 0.891379 0.750000 0.766607
O O16 0.859222 0.993736 0.688395
O O17 0.750000 0.434580 0.152038
O O18 0.823929 0.250000 0.219846
O O19 0.835448 0.545788 0.242631
O O20 0.593813 0.750000 0.310645
O O21 0.250000 0.549700 0.367982
O O22 0.335426 0.750000 0.383891
#
# Coordination Sequence:
#
# PCOD9450823 Si02
#       8
#     8   8   8   8   8   8   8   8
#     4  10  21  38  58  81 112 149 189 231 273 321
#     4   9  17  31  53  81 112 144 179 221 271 327
#     4  10  22  39  59  84 111 139 176 225 279 332
#     4  10  20  35  55  80 111 146 183 222 268 324
#     4  11  23  40  61  82 107 143 187 232 279 330
#     4   9  17  28  44  70 105 142 177 216 264 316
#     4   9  18  32  51  76 106 142 184 226 267 318
#     4  10  21  37  58  85 114 142 176 222 277 332
#
# _framework density 19.498183999999998
#
# number of rings (size 3 to 8) (size 9 to 14) (size 15 to 20)
#    0.000    2.250    0.000    2.625    0.000    5.750 
#    0.000    1.875    0.000    0.000    0.000    0.000 
#    0.000    0.000    0.000    0.000    0.000    0.000 
#
# Total GULP energy -356834.765109 kJ/mol
# GULP energy per Si atom -5575.543205 kJ/mol
# Density = 1.945380 g / cm^3
# Si number density = 19.498184 Si / 1000 Ang^3
#
#
#
# Elastic Constant Matrix: (Units=GPa)
#
#
# Indices 1 2 3 4 5 6 
#
# 1 62.8575 25.5818 34.1375 0.0000 0.0000 0.0000
# 2 25.5818 33.7793 29.8160 0.0000 0.0000 0.0000
# 3 34.1375 29.8160 111.5201 0.0000 0.0000 0.0000
# 4 0.0000 0.0000 0.0000 20.3933 0.0000 0.0000
# 5 0.0000 0.0000 0.0000 0.0000 26.9511 0.0000
# 6 0.0000 0.0000 0.0000 0.0000 0.0000 25.7401
#
#
#
# Elastic Compliance Matrix: (Units=1/GPa)
#
#
# Indices 1 2 3 4 5 6 
#
# 1 0.023857 -0.015211 -0.003236 0.000000 0.000000 0.000000
# 2 -0.015211 0.048447 -0.008296 0.000000 0.000000 0.000000
# 3 -0.003236 -0.008296 0.012176 0.000000 0.000000 0.000000
# 4 0.000000 0.000000 0.000000 0.049036 0.000000 0.000000
# 5 0.000000 0.000000 0.000000 0.000000 0.037104 0.000000
# 6 0.000000 0.000000 0.000000 0.000000 0.000000 0.038850
#
#
# Mechanical properties :
#
#
# Convention : Reuss Voigt Hill
#
# Bulk Modulus (GPa) = 32.26610 43.02527 37.64569
# Shear Modulus (GPa) = 18.29575 22.52499 20.41037
#
# Velocity S-wave (km/s) = 3.06654 3.40256 3.23891
# Velocity P-wave (km/s) = 5.39652 6.12787 5.77379
#
# Compressibility (1/GPa) = 0.03099228
#
# Stress axis : x y z
#
# Youngs Moduli (GPa) = 41.91618 20.64125 82.13072
#
# Poissons Ratio (x) = 0.31398 0.26578
# Poissons Ratio (y) = 0.63759 0.68139
# Poissons Ratio (z) = 0.13564 0.17125
#
# Static dielectric constant tensor:
#      x y z
#    x 1.701850 0.000000 0.000000 
#    y 0.000000 1.695270 0.000000 
#    z 0.000000 0.000000 1.679270 
# 
# From -- ./inp_files/24715.got.cif
#   From: 2010.05.17/outbox.cif.g08.bks.cpg/sg59_13_cif.got.tgz:24715.got - 2010.06.03 14:40:33.
