data_PCOD9450002
_publ_section_title
;
Structure prediction by ZEFSAII (Michael W. Deem and Ramdas Pophale) SiO2 
 PCOD9450002
Probable space group: P M M N
;
_chemical_formula_sum "Si O2"
_cell_formula_units_Z 48
_cell_length_a 18.057056
_cell_length_b 18.075051
_cell_length_c 8.897942
_cell_angle_alpha 90.000000
_cell_angle_beta 90.000000
_cell_angle_gamma 90.000000
_cell_volume 2904.129958
_symmetry_space_group_name_H-M "P M M N"
_symmetry_group_IT_number 59
_space_group.IT_coordinate_system_code '2'
_symmetry_cell_setting 'orthorhombic'
loop_
_space_group_symop_operation_xyz
x,y,z
1/2-x,1/2-y,z
1/2+x,-y,-z
-x,1/2+y,-z
-x,-y,-z
1/2+x,1/2+y,-z
1/2-x,y,z
x,1/2-y,z
loop_
_atom_site_type_symbol
_atom_site_label
_atom_site_fract_x
_atom_site_fract_y
_atom_site_fract_z
Si Si1 0.025425 0.836724 0.196107
Si Si2 0.667716 0.523750 0.179426
Si Si3 0.334448 0.565194 0.126319
Si Si4 0.618173 0.664506 0.004065
Si Si5 0.837058 0.589301 0.698180
Si Si6 0.444313 0.059148 0.570979
O O1 0.034126 0.750000 0.224774
O O2 0.102696 0.875776 0.159859
O O3 0.966994 0.845213 0.057952
O O4 0.988600 0.878277 0.337613
O O5 0.750000 0.512585 0.241054
O O6 0.661985 0.605767 0.106650
O O7 0.606572 0.518001 0.306279
O O8 0.655848 0.468163 0.040927
O O9 0.250000 0.592889 0.139834
O O10 0.342194 0.494440 0.236506
O O11 0.638458 0.750000 0.029719
O O12 0.634043 0.641472 0.832917
O O13 0.750000 0.604462 0.668240
O O14 0.889507 0.593014 0.553812
O O15 0.500000 0.000000 0.500000
#
# Coordination Sequence:
#
# PCOD9450002 Si02
#       6
#     8   8   8   8   8   8
#     4  10  21  36  53  77 106 137 177 217 260 318
#     4   9  19  33  53  77 104 134 173 214 257 312
#     4   9  18  34  55  78 101 132 174 221 264 304
#     4   9  19  33  53  78 106 138 174 214 257 300
#     4  10  20  33  53  81 107 135 175 212 253 312
#     4  11  21  33  53  77 106 143 170 209 263 309
#
# _framework density 16.528186000000002
#
# number of rings (size 3 to 8) (size 9 to 14) (size 15 to 20)
#    0.000    2.333    1.667    2.000    2.333    4.333 
#    0.000    0.000    0.000    3.000    0.000    0.000 
#    0.000    0.000    0.000    0.000    0.000    0.000 
#
# Total GULP energy -267656.671482 kJ/mol
# GULP energy per Si atom -5576.180656 kJ/mol
# Density = 1.649057 g / cm^3
# Si number density = 16.528186 Si / 1000 Ang^3
#
#
#
# Elastic Constant Matrix: (Units=GPa)
#
#
# Indices 1 2 3 4 5 6 
#
# 1 143.2506 76.3313 75.8121 0.0000 0.0000 0.0000
# 2 76.3313 85.6326 35.6740 0.0000 0.0000 0.0000
# 3 75.8121 35.6740 87.8703 0.0000 0.0000 0.0000
# 4 0.0000 0.0000 0.0000 14.2946 0.0000 0.0000
# 5 0.0000 0.0000 0.0000 0.0000 26.8595 0.0000
# 6 0.0000 0.0000 0.0000 0.0000 0.0000 21.4358
#
#
#
# Elastic Compliance Matrix: (Units=1/GPa)
#
#
# Indices 1 2 3 4 5 6 
#
# 1 0.020543 -0.013153 -0.012385 0.000000 0.000000 0.000000
# 2 -0.013153 0.022476 0.002223 0.000000 0.000000 0.000000
# 3 -0.012385 0.002223 0.021163 0.000000 0.000000 0.000000
# 4 0.000000 0.000000 0.000000 0.069956 0.000000 0.000000
# 5 0.000000 0.000000 0.000000 0.000000 0.037231 0.000000
# 6 0.000000 0.000000 0.000000 0.000000 0.000000 0.046651
#
#
# Mechanical properties :
#
#
# Convention : Reuss Voigt Hill
#
# Bulk Modulus (GPa) = 56.96818 76.93204 66.95011
# Shear Modulus (GPa) = 18.48429 21.11372 19.79900
#
# Velocity S-wave (km/s) = 3.34780 3.57800 3.46481
# Velocity P-wave (km/s) = 7.03462 7.98226 7.52337
#
# Compressibility (1/GPa) = 0.01755366
#
# Stress axis : x y z
#
# Youngs Moduli (GPa) = 48.67733 44.49226 47.25244
#
# Poissons Ratio (x) = 0.58519 0.58520
# Poissons Ratio (y) = 0.64024 -0.10504
# Poissons Ratio (z) = 0.60285 -0.09891
#
# Static dielectric constant tensor:
#      x y z
#    x 1.562610 0.000000 0.000000 
#    y 0.000000 1.524690 0.000000 
#    z 0.000000 0.000000 1.548910 
# 
# From -- ./inp_files/9028.got.cif
#   From: 2010.05.17/outbox.cif.g08.bks.cpg/sg59_5_cif.got.tgz:9028.got - 2010.06.03 14:40:33.
