data_PCOD9450038
_publ_section_title
;
Structure prediction by ZEFSAII (Michael W. Deem and Ramdas Pophale) SiO2 
 PCOD9450038
Probable space group: P M M N
;
_chemical_formula_sum "Si O2"
_cell_formula_units_Z 48
_cell_length_a 8.108665
_cell_length_b 29.859470
_cell_length_c 10.163943
_cell_angle_alpha 90.000000
_cell_angle_beta 90.000000
_cell_angle_gamma 90.000000
_cell_volume 2460.898344
_symmetry_space_group_name_H-M "P M M N"
_symmetry_group_IT_number 59
_space_group.IT_coordinate_system_code '2'
_symmetry_cell_setting 'orthorhombic'
loop_
_space_group_symop_operation_xyz
x,y,z
1/2-x,1/2-y,z
1/2+x,-y,-z
-x,1/2+y,-z
-x,-y,-z
1/2+x,1/2+y,-z
1/2-x,y,z
x,1/2-y,z
loop_
_atom_site_type_symbol
_atom_site_label
_atom_site_fract_x
_atom_site_fract_y
_atom_site_fract_z
Si Si1 0.560228 0.027059 0.873750
Si Si2 0.945877 0.877442 0.223181
Si Si3 0.049358 0.377496 0.474859
Si Si4 0.548439 0.801670 0.023005
Si Si5 0.944395 0.472760 0.372297
Si Si6 0.049026 0.198981 0.276024
O O1 0.750000 0.038525 0.891684
O O2 0.471674 0.073858 0.841004
O O3 0.536441 0.993998 0.750955
O O4 0.500000 0.000000 0.000000
O O5 0.750000 0.870020 0.233604
O O6 0.009723 0.876996 0.373506
O O7 0.011188 0.837842 0.129190
O O8 0.250000 0.379078 0.476423
O O9 0.995884 0.334843 0.389278
O O10 0.986877 0.421572 0.401248
O O11 0.750000 0.802285 0.024286
O O12 0.499780 0.750000 0.049823
O O13 0.498166 0.813377 0.873090
O O14 0.750000 0.478586 0.351390
O O15 0.000000 0.500000 0.500000
O O16 0.250000 0.198637 0.276095
O O17 0.996522 0.250000 0.300699
#
# Coordination Sequence:
#
# PCOD9450038 Si02
#       6
#     8   8   8   8   8   8
#     4  12  26  43  62  86 118 155 196 245 295 352
#     4  10  20  34  54  83 117 151 194 241 288 344
#     4  10  20  33  54  84 116 152 194 240 289 342
#     4   8  15  29  50  78 112 150 192 239 288 339
#     4  12  24  41  62  86 118 157 198 240 292 350
#     4   8  15  29  50  79 113 149 192 239 286 339
#
# _framework density 19.505071999999998
#
# number of rings (size 3 to 8) (size 9 to 14) (size 15 to 20)
#    0.000    2.000    1.667    4.000    2.333    0.667 
#    0.000    3.333    0.000    1.000    0.000    4.667 
#    0.000    0.000    0.000    0.000    0.000    0.000 
#
# Total GULP energy -267968.523405 kJ/mol
# GULP energy per Si atom -5582.677571 kJ/mol
# Density = 1.946068 g / cm^3
# Si number density = 19.505072 Si / 1000 Ang^3
#
#
#
# Elastic Constant Matrix: (Units=GPa)
#
#
# Indices 1 2 3 4 5 6 
#
# 1 12.5292 -18.1470 -18.8416 0.0000 0.0000 0.0000
# 2 -18.1470 123.9372 70.8739 0.0000 0.0000 0.0000
# 3 -18.8416 70.8739 118.7003 0.0000 0.0000 0.0000
# 4 0.0000 0.0000 0.0000 42.3610 0.0000 0.0000
# 5 0.0000 0.0000 0.0000 0.0000 11.6995 0.0000
# 6 0.0000 0.0000 0.0000 0.0000 0.0000 19.8025
#
#
#
# Elastic Compliance Matrix: (Units=1/GPa)
#
#
# Indices 1 2 3 4 5 6 
#
# 1 0.111661 0.009436 0.012090 0.000000 0.000000 0.000000
# 2 0.009436 0.013049 -0.006294 0.000000 0.000000 0.000000
# 3 0.012090 -0.006294 0.014102 0.000000 0.000000 0.000000
# 4 0.000000 0.000000 0.000000 0.023607 0.000000 0.000000
# 5 0.000000 0.000000 0.000000 0.000000 0.085474 0.000000
# 6 0.000000 0.000000 0.000000 0.000000 0.000000 0.050499
#
#
# Mechanical properties :
#
#
# Convention : Reuss Voigt Hill
#
# Bulk Modulus (GPa) = 5.90749 35.88192 20.89471
# Shear Modulus (GPa) = 15.41533 29.52467 22.47000
#
# Velocity S-wave (km/s) = 2.81432 3.89484 3.39781
# Velocity P-wave (km/s) = 3.68725 6.21792 5.11167
#
# Compressibility (1/GPa) = 0.16927660
#
# Stress axis : x y z
#
# Youngs Moduli (GPa) = 8.95566 76.63250 70.91382
#
# Poissons Ratio (x) = -0.72308 -0.85738
# Poissons Ratio (y) = -0.08450 0.44632
# Poissons Ratio (z) = -0.10828 0.48231
#
# Static dielectric constant tensor:
#      x y z
#    x 1.701540 0.000000 0.000000 
#    y 0.000000 1.614310 0.000000 
#    z 0.000000 0.000000 1.661710 
# 
# From -- ./inp_files/6278.got.cif
#   From: 2010.05.17/outbox.cif.g08.bks.cpg/sg59_4_cif.got.tgz:6278.got - 2010.06.03 14:40:33.
