data_PCOD9450083
_publ_section_title
;
Structure prediction by ZEFSAII (Michael W. Deem and Ramdas Pophale) SiO2 
 PCOD9450083
Probable space group: P M M N
;
_chemical_formula_sum "Si O2"
_cell_formula_units_Z 48
_cell_length_a 7.619342
_cell_length_b 19.297337
_cell_length_c 16.789878
_cell_angle_alpha 90.000000
_cell_angle_beta 90.000000
_cell_angle_gamma 90.000000
_cell_volume 2468.666305
_symmetry_space_group_name_H-M "P M M N"
_symmetry_group_IT_number 59
_space_group.IT_coordinate_system_code '2'
_symmetry_cell_setting 'orthorhombic'
loop_
_space_group_symop_operation_xyz
x,y,z
1/2-x,1/2-y,z
1/2+x,-y,-z
-x,1/2+y,-z
-x,-y,-z
1/2+x,1/2+y,-z
1/2-x,y,z
x,1/2-y,z
loop_
_atom_site_type_symbol
_atom_site_label
_atom_site_fract_x
_atom_site_fract_y
_atom_site_fract_z
Si Si1 0.043254 0.045172 0.738638
Si Si2 0.535178 0.829385 0.159943
Si Si3 0.457951 0.966701 0.584599
Si Si4 0.536215 0.829960 0.980431
Si Si5 0.463068 0.092900 0.176399
Si Si6 0.040772 0.327536 0.334537
O O1 0.250000 0.057280 0.724801
O O2 0.970609 0.115788 0.775349
O O3 0.966861 0.013386 0.657101
O O4 0.023558 0.984234 0.803333
O O5 0.750000 0.830527 0.160235
O O6 0.482636 0.750000 0.174739
O O7 0.480663 0.849030 0.069891
O O8 0.250000 0.966991 0.593499
O O9 0.510725 0.886994 0.599705
O O10 0.500000 0.000000 0.500000
O O11 0.750000 0.831341 0.979940
O O12 0.485263 0.750000 0.965984
O O13 0.476259 0.877866 0.908185
O O14 0.250000 0.093266 0.176929
O O15 0.524003 0.141331 0.250124
O O16 0.250000 0.321962 0.326496
O O17 0.972274 0.250000 0.350596
#
# Coordination Sequence:
#
# PCOD9450083 Si02
#       6
#     8   8   8   8   8   8
#     4   9  18  31  46  66  90 116 149 188 230 275
#     4   8  14  26  44  64  87 117 153 190 223 257
#     4  10  20  34  51  70  94 122 152 190 237 287
#     4   8  13  22  39  64  91 119 153 189 219 251
#     4   9  16  26  43  68  95 122 151 183 221 265
#     4   9  17  30  49  72  97 124 154 188 226 271
#
# _framework density 19.443697
#
# number of rings (size 3 to 8) (size 9 to 14) (size 15 to 20)
#    0.000    3.167    0.000    2.000    0.000    3.667 
#    0.000    0.833    0.000    5.000    0.000    2.333 
#    0.000    0.000    0.000    0.000    0.000    0.000 
#
# Total GULP energy -267533.631475 kJ/mol
# GULP energy per Si atom -5573.617322 kJ/mol
# Density = 1.939944 g / cm^3
# Si number density = 19.443697 Si / 1000 Ang^3
#
#
#
# Elastic Constant Matrix: (Units=GPa)
#
#
# Indices 1 2 3 4 5 6 
#
# 1 37.1723 -0.8922 -1.4639 0.0000 0.0000 0.0000
# 2 -0.8922 149.9764 92.6264 0.0000 0.0000 0.0000
# 3 -1.4639 92.6264 99.5250 0.0000 0.0000 0.0000
# 4 0.0000 0.0000 0.0000 22.7260 0.0000 0.0000
# 5 0.0000 0.0000 0.0000 0.0000 3.3645 0.0000
# 6 0.0000 0.0000 0.0000 0.0000 0.0000 16.3912
#
#
#
# Elastic Compliance Matrix: (Units=1/GPa)
#
#
# Indices 1 2 3 4 5 6 
#
# 1 0.026920 -0.000198 0.000581 0.000000 0.000000 0.000000
# 2 -0.000198 0.015683 -0.014599 0.000000 0.000000 0.000000
# 3 0.000581 -0.014599 0.023643 0.000000 0.000000 0.000000
# 4 0.000000 0.000000 0.000000 0.044002 0.000000 0.000000
# 5 0.000000 0.000000 0.000000 0.000000 0.297219 0.000000
# 6 0.000000 0.000000 0.000000 0.000000 0.000000 0.061008
#
#
# Mechanical properties :
#
#
# Convention : Reuss Voigt Hill
#
# Bulk Modulus (GPa) = 26.44611 51.91269 39.17940
# Shear Modulus (GPa) = 9.81330 21.58992 15.70161
#
# Velocity S-wave (km/s) = 2.24900 3.33585 2.84481
# Velocity P-wave (km/s) = 4.51386 6.44935 5.56638
#
# Compressibility (1/GPa) = 0.03781274
#
# Stress axis : x y z
#
# Youngs Moduli (GPa) = 37.14732 63.76444 42.29591
#
# Poissons Ratio (x) = 0.01266 -0.02456
# Poissons Ratio (y) = 0.00737 0.61746
# Poissons Ratio (z) = -0.02157 0.93087
#
# Static dielectric constant tensor:
#      x y z
#    x 1.738680 0.000000 0.000000 
#    y 0.000000 1.662550 0.000000 
#    z 0.000000 0.000000 1.940310 
# 
# From -- ./inp_files/20386.got.cif
#   From: 2010.05.17/outbox.cif.g08.bks.cpg/sg59_11_cif.got.tgz:20386.got - 2010.06.03 14:40:33.
