data_PCOD9450608
_publ_section_title
;
Structure prediction by ZEFSAII (Michael W. Deem and Ramdas Pophale) SiO2 
 PCOD9450608
Probable space group: P M M N
;
_chemical_formula_sum "Si O2"
_cell_formula_units_Z 56
_cell_length_a 20.193469
_cell_length_b 8.885235
_cell_length_c 17.540148
_cell_angle_alpha 90.000000
_cell_angle_beta 90.000000
_cell_angle_gamma 90.000000
_cell_volume 3147.118560
_symmetry_space_group_name_H-M "P M M N"
_symmetry_group_IT_number 59
_space_group.IT_coordinate_system_code '2'
_symmetry_cell_setting 'orthorhombic'
loop_
_space_group_symop_operation_xyz
x,y,z
1/2-x,1/2-y,z
1/2+x,-y,-z
-x,1/2+y,-z
-x,-y,-z
1/2+x,1/2+y,-z
1/2-x,y,z
x,1/2-y,z
loop_
_atom_site_type_symbol
_atom_site_label
_atom_site_fract_x
_atom_site_fract_y
_atom_site_fract_z
Si Si1 0.908845 0.928916 0.948101
Si Si2 0.454985 0.429299 0.887464
Si Si3 0.060109 0.570859 0.724204
Si Si4 0.173845 0.430598 0.442164
Si Si5 0.825225 0.430238 0.824166
Si Si6 0.919845 0.069627 0.683260
Si Si7 0.326409 0.069741 0.621604
O O1 0.916665 0.750000 0.938286
O O2 0.846462 0.988519 0.901614
O O3 0.909628 0.960169 0.038485
O O4 0.972557 0.011292 0.911687
O O5 0.458330 0.250000 0.875231
O O6 0.433308 0.508736 0.810182
O O7 0.056273 0.750000 0.725094
O O8 0.121128 0.515039 0.673329
O O9 0.991753 0.503702 0.690904
O O10 0.250000 0.473258 0.422872
O O11 0.168325 0.250000 0.432100
O O12 0.121133 0.513097 0.389469
O O13 0.163538 0.462742 0.531754
O O14 0.750000 0.466945 0.802270
O O15 0.829921 0.250000 0.834459
O O16 0.876144 0.472949 0.757422
O O17 0.926302 0.250000 0.681865
O O18 0.250000 0.032009 0.640076
O O19 0.334188 0.250000 0.631381
#
# Coordination Sequence:
#
# PCOD9450608 Si02
#       7
#     8   8   8   8   8   8   8
#     4  10  20  34  56  83 108 143 189 232 278 332
#     4  10  20  36  57  81 111 146 185 230 280 336
#     4  12  24  37  58  88 117 147 189 239 289 337
#     4   9  19  37  60  85 114 150 192 236 283 339
#     4  10  21  36  54  79 115 157 195 234 283 337
#     4  11  22  36  56  83 116 155 195 233 282 340
#     4   9  20  41  65  85 110 148 189 232 290 350
#
# _framework density 17.794056000000001
#
# number of rings (size 3 to 8) (size 9 to 14) (size 15 to 20)
#    0.000    1.857    1.429    3.857    0.000    4.857 
#    0.000    2.143    0.000    0.857    0.000    0.000 
#    0.000    0.000    0.000    0.000    0.000    0.000 
#
# Total GULP energy -312754.538302 kJ/mol
# GULP energy per Si atom -5584.902470 kJ/mol
# Density = 1.775356 g / cm^3
# Si number density = 17.794056 Si / 1000 Ang^3
#
#
#
# Elastic Constant Matrix: (Units=GPa)
#
#
# Indices 1 2 3 4 5 6 
#
# 1 120.1269 66.3349 84.5613 0.0000 0.0000 0.0000
# 2 66.3349 74.2958 67.9894 0.0000 0.0000 0.0000
# 3 84.5613 67.9894 118.8067 0.0000 0.0000 0.0000
# 4 0.0000 0.0000 0.0000 32.1039 0.0000 0.0000
# 5 0.0000 0.0000 0.0000 0.0000 23.9812 0.0000
# 6 0.0000 0.0000 0.0000 0.0000 0.0000 27.5659
#
#
#
# Elastic Compliance Matrix: (Units=1/GPa)
#
#
# Indices 1 2 3 4 5 6 
#
# 1 0.019669 -0.009973 -0.008292 0.000000 0.000000 0.000000
# 2 -0.009973 0.033315 -0.011967 0.000000 0.000000 0.000000
# 3 -0.008292 -0.011967 0.021167 0.000000 0.000000 0.000000
# 4 0.000000 0.000000 0.000000 0.031149 0.000000 0.000000
# 5 0.000000 0.000000 0.000000 0.000000 0.041699 0.000000
# 6 0.000000 0.000000 0.000000 0.000000 0.000000 0.036277
#
#
# Mechanical properties :
#
#
# Convention : Reuss Voigt Hill
#
# Bulk Modulus (GPa) = 73.06092 83.44452 78.25272
# Shear Modulus (GPa) = 20.13669 23.01977 21.57823
#
# Velocity S-wave (km/s) = 3.36765 3.60067 3.48611
# Velocity P-wave (km/s) = 7.50132 8.01766 7.76378
#
# Compressibility (1/GPa) = 0.01368721
#
# Stress axis : x y z
#
# Youngs Moduli (GPa) = 50.84202 30.01629 47.24251
#
# Poissons Ratio (x) = 0.29935 0.39174
# Poissons Ratio (y) = 0.50704 0.56535
# Poissons Ratio (z) = 0.42159 0.35921
#
# Static dielectric constant tensor:
#      x y z
#    x 1.588470 0.000000 0.000000 
#    y 0.000000 1.592140 0.000000 
#    z 0.000000 0.000000 1.602280 
# 
# From -- ./inp_files/24293.got.cif
#   From: 2010.05.17/outbox.cif.g08.bks.cpg/sg59_13_cif.got.tgz:24293.got - 2010.06.03 14:40:33.
