data_PCOD9450048
_publ_section_title
;
Structure prediction by ZEFSAII (Michael W. Deem and Ramdas Pophale) SiO2 
 PCOD9450048
Probable space group: P M M N
;
_chemical_formula_sum "Si O2"
_cell_formula_units_Z 64
_cell_length_a 32.958825
_cell_length_b 17.235658
_cell_length_c 6.631763
_cell_angle_alpha 90.000000
_cell_angle_beta 90.000000
_cell_angle_gamma 90.000000
_cell_volume 3767.285949
_symmetry_space_group_name_H-M "P M M N"
_symmetry_group_IT_number 59
_space_group.IT_coordinate_system_code '2'
_symmetry_cell_setting 'orthorhombic'
loop_
_space_group_symop_operation_xyz
x,y,z
1/2-x,1/2-y,z
1/2+x,-y,-z
-x,1/2+y,-z
-x,-y,-z
1/2+x,1/2+y,-z
1/2-x,y,z
x,1/2-y,z
loop_
_atom_site_type_symbol
_atom_site_label
_atom_site_fract_x
_atom_site_fract_y
_atom_site_fract_z
Si Si1 0.369606 0.465730 0.815706
Si Si2 0.202512 0.838588 0.754445
Si Si3 0.973026 0.558562 0.631206
Si Si4 0.917335 0.063881 0.860579
Si Si5 0.297127 0.518263 0.055705
Si Si6 0.154450 0.935015 0.437101
Si Si7 0.989689 0.160106 0.026215
Si Si8 0.565339 0.658997 0.280952
O O1 0.360532 0.500249 0.595514
O O2 0.395975 0.388227 0.800246
O O3 0.395603 0.529089 0.941678
O O4 0.327418 0.460560 0.938102
O O5 0.250000 0.842154 0.693721
O O6 0.193218 0.750000 0.811547
O O7 0.174694 0.868249 0.571964
O O8 0.197824 0.899524 0.937165
O O9 0.942094 0.506712 0.759877
O O10 0.001326 0.606772 0.781752
O O11 0.949330 0.616943 0.484676
O O12 0.000000 0.500000 0.500000
O O13 0.883177 0.090142 0.702160
O O14 0.949406 0.129421 0.917857
O O15 0.250000 0.496668 0.046341
O O16 0.312692 0.530138 0.282251
O O17 0.986086 0.250000 0.082334
O O18 0.028060 0.151556 0.876313
O O19 0.573418 0.750000 0.310977
#
# Coordination Sequence:
#
# PCOD9450048 Si02
#       8
#     8   8   8   8   8   8   8   8
#     4  10  20  37  57  83 109 142 184 223 275 332
#     4   9  18  33  53  78 109 142 176 220 273 327
#     4  12  21  36  59  78 106 149 194 229 275 332
#     4  11  21  35  56  79 108 152 186 227 272 327
#     4   9  19  35  56  82 109 139 180 224 269 328
#     4  10  20  33  55  79 107 141 188 221 266 323
#     4  11  24  38  53  81 114 147 189 240 283 322
#     4  11  22  37  58  85 111 141 184 237 289 333
#
# _framework density 16.988357000000001
#
# number of rings (size 3 to 8) (size 9 to 14) (size 15 to 20)
#    0.000    1.625    3.750    1.875    0.000    1.500 
#    0.000    6.250    0.000    0.375    0.000    0.000 
#    0.000    0.000    0.000    0.000    0.000    0.000 
#
# Total GULP energy -357257.078166 kJ/mol
# GULP energy per Si atom -5582.141846 kJ/mol
# Density = 1.694969 g / cm^3
# Si number density = 16.988357 Si / 1000 Ang^3
#
#
#
# Elastic Constant Matrix: (Units=GPa)
#
#
# Indices 1 2 3 4 5 6 
#
# 1 112.3063 40.4272 37.4094 0.0000 0.0000 0.0000
# 2 40.4272 61.3933 22.2551 0.0000 0.0000 0.0000
# 3 37.4094 22.2551 81.3315 0.0000 0.0000 0.0000
# 4 0.0000 0.0000 0.0000 22.7979 0.0000 0.0000
# 5 0.0000 0.0000 0.0000 0.0000 30.6774 0.0000
# 6 0.0000 0.0000 0.0000 0.0000 0.0000 23.2016
#
#
#
# Elastic Compliance Matrix: (Units=1/GPa)
#
#
# Indices 1 2 3 4 5 6 
#
# 1 0.012720 -0.006944 -0.003951 0.000000 0.000000 0.000000
# 2 -0.006944 0.021873 -0.002791 0.000000 0.000000 0.000000
# 3 -0.003951 -0.002791 0.014876 0.000000 0.000000 0.000000
# 4 0.000000 0.000000 0.000000 0.043864 0.000000 0.000000
# 5 0.000000 0.000000 0.000000 0.000000 0.032597 0.000000
# 6 0.000000 0.000000 0.000000 0.000000 0.000000 0.043100
#
#
# Mechanical properties :
#
#
# Convention : Reuss Voigt Hill
#
# Bulk Modulus (GPa) = 45.25394 50.57940 47.91667
# Shear Modulus (GPa) = 24.53781 25.66467 25.10124
#
# Velocity S-wave (km/s) = 3.80464 3.89102 3.84807
# Velocity P-wave (km/s) = 6.78206 7.07279 6.92895
#
# Compressibility (1/GPa) = 0.02209752
#
# Stress axis : x y z
#
# Youngs Moduli (GPa) = 78.61801 45.71902 67.22131
#
# Poissons Ratio (x) = 0.31746 0.26556
# Poissons Ratio (y) = 0.54591 0.18763
# Poissons Ratio (z) = 0.31058 0.12761
#
# Static dielectric constant tensor:
#      x y z
#    x 1.587040 0.000000 0.000000 
#    y 0.000000 1.542490 0.000000 
#    z 0.000000 0.000000 1.577840 
# 
# From -- ./inp_files/4627.got.cif
#   From: 2010.05.17/outbox.cif.g08.bks.cpg/sg59_3_cif.got.tgz:4627.got - 2010.06.03 14:40:33.
