data_PCOD9450264
_publ_section_title
;
Structure prediction by ZEFSAII (Michael W. Deem and Ramdas Pophale) SiO2 
 PCOD9450264
Probable space group: P M M N
;
_chemical_formula_sum "Si O2"
_cell_formula_units_Z 64
_cell_length_a 7.607280
_cell_length_b 21.586316
_cell_length_c 17.232531
_cell_angle_alpha 90.000000
_cell_angle_beta 90.000000
_cell_angle_gamma 90.000000
_cell_volume 2829.808198
_symmetry_space_group_name_H-M "P M M N"
_symmetry_group_IT_number 59
_space_group.IT_coordinate_system_code '2'
_symmetry_cell_setting 'orthorhombic'
loop_
_space_group_symop_operation_xyz
x,y,z
1/2-x,1/2-y,z
1/2+x,-y,-z
-x,1/2+y,-z
-x,-y,-z
1/2+x,1/2+y,-z
1/2-x,y,z
x,1/2-y,z
loop_
_atom_site_type_symbol
_atom_site_label
_atom_site_fract_x
_atom_site_fract_y
_atom_site_fract_z
Si Si1 0.536371 0.426213 0.073570
Si Si2 0.964832 0.321192 0.191006
Si Si3 0.965869 0.680926 0.198448
Si Si4 0.550622 0.092136 0.329668
Si Si5 0.446954 0.525348 0.414919
Si Si6 0.550916 0.843541 0.370627
Si Si7 0.462341 0.317566 0.460866
Si Si8 0.045183 0.439528 0.893507
O O1 0.750000 0.428462 0.071169
O O2 0.485027 0.363756 0.117923
O O3 0.475070 0.489991 0.115871
O O4 0.470290 0.427442 0.985583
O O5 0.750000 0.319024 0.193803
O O6 0.025627 0.250000 0.189898
O O7 0.023511 0.361318 0.265364
O O8 0.750000 0.679572 0.196978
O O9 0.016985 0.750000 0.170310
O O10 0.026244 0.673101 0.287608
O O11 0.028321 0.620465 0.151032
O O12 0.750000 0.076193 0.306693
O O13 0.548833 0.130668 0.409166
O O14 0.455791 0.029216 0.352044
O O15 0.500000 0.500000 0.500000
O O16 0.250000 0.548663 0.422029
O O17 0.556681 0.582840 0.384257
O O18 0.750000 0.819520 0.368138
O O19 0.473340 0.819020 0.450824
O O20 0.250000 0.328240 0.461327
O O21 0.495665 0.250000 0.426503
O O22 0.250000 0.442903 0.871144
#
# Coordination Sequence:
#
# PCOD9450264 Si02
#       8
#     8   8   8   8   8   8   8   8
#     4   9  18  34  56  80 110 146 185 228 275 329
#     4   9  19  35  56  83 112 144 186 231 276 333
#     4   9  18  33  56  85 114 146 186 229 274 330
#     4  11  22  36  57  81 109 144 186 235 284 334
#     4  12  24  39  57  81 110 143 186 235 286 338
#     4  10  20  35  57  81 110 145 185 229 277 333
#     4  10  20  34  53  77 109 148 187 229 279 334
#     4   9  18  33  55  82 112 145 185 229 273 327
#
# _framework density 22.616374
#
# number of rings (size 3 to 8) (size 9 to 14) (size 15 to 20)
#    0.000    2.125    1.250    2.250    1.750    2.750 
#    0.000    1.875    0.000    3.375    0.000    0.000 
#    0.000    0.000    0.000    0.000    0.000    0.000 
#
# Total GULP energy -357323.821294 kJ/mol
# GULP energy per Si atom -5583.184708 kJ/mol
# Density = 2.256490 g / cm^3
# Si number density = 22.616374 Si / 1000 Ang^3
#
#
#
# Elastic Constant Matrix: (Units=GPa)
#
#
# Indices 1 2 3 4 5 6 
#
# 1 58.1846 4.9869 -10.5045 0.0000 0.0000 0.0000
# 2 4.9869 157.6505 29.4790 0.0000 0.0000 0.0000
# 3 -10.5045 29.4790 44.4073 0.0000 0.0000 0.0000
# 4 0.0000 0.0000 0.0000 25.6175 0.0000 0.0000
# 5 0.0000 0.0000 0.0000 0.0000 11.5542 0.0000
# 6 0.0000 0.0000 0.0000 0.0000 0.0000 7.1528
#
#
#
# Elastic Compliance Matrix: (Units=1/GPa)
#
#
# Indices 1 2 3 4 5 6 
#
# 1 0.018294 -0.001585 0.005379 0.000000 0.000000 0.000000
# 2 -0.001585 0.007379 -0.005273 0.000000 0.000000 0.000000
# 3 0.005379 -0.005273 0.027292 0.000000 0.000000 0.000000
# 4 0.000000 0.000000 0.000000 0.039036 0.000000 0.000000
# 5 0.000000 0.000000 0.000000 0.000000 0.086548 0.000000
# 6 0.000000 0.000000 0.000000 0.000000 0.000000 0.139805
#
#
# Mechanical properties :
#
#
# Convention : Reuss Voigt Hill
#
# Bulk Modulus (GPa) = 19.99705 34.24059 27.11882
# Shear Modulus (GPa) = 14.79375 24.61699 19.70537
#
# Velocity S-wave (km/s) = 2.56035 3.30276 2.95496
# Velocity P-wave (km/s) = 4.19542 5.45132 4.86407
#
# Compressibility (1/GPa) = 0.05000737
#
# Stress axis : x y z
#
# Youngs Moduli (GPa) = 54.66385 135.51321 36.64078
#
# Poissons Ratio (x) = 0.21473 -0.19710
# Poissons Ratio (y) = 0.08662 0.19322
# Poissons Ratio (z) = -0.29405 0.71463
#
# Static dielectric constant tensor:
#      x y z
#    x 1.852700 0.000000 0.000000 
#    y 0.000000 1.868730 0.000000 
#    z 0.000000 0.000000 1.816100 
# 
# From -- ./inp_files/26278.got.cif
#   From: 2010.05.17/outbox.cif.g08.bks.cpg/sg59_14_cif.got.tgz:26278.got - 2010.06.03 14:40:33.
