data_PCOD9450903
_publ_section_title
;
Structure prediction by ZEFSAII (Michael W. Deem and Ramdas Pophale) SiO2 
 PCOD9450903
Probable space group: P M M N
;
_chemical_formula_sum "Si O2"
_cell_formula_units_Z 64
_cell_length_a 17.377102
_cell_length_b 13.935226
_cell_length_c 12.764247
_cell_angle_alpha 90.000000
_cell_angle_beta 90.000000
_cell_angle_gamma 90.000000
_cell_volume 3090.911472
_symmetry_space_group_name_H-M "P M M N"
_symmetry_group_IT_number 59
_space_group.IT_coordinate_system_code '2'
_symmetry_cell_setting 'orthorhombic'
loop_
_space_group_symop_operation_xyz
x,y,z
1/2-x,1/2-y,z
1/2+x,-y,-z
-x,1/2+y,-z
-x,-y,-z
1/2+x,1/2+y,-z
1/2-x,y,z
x,1/2-y,z
loop_
_atom_site_type_symbol
_atom_site_label
_atom_site_fract_x
_atom_site_fract_y
_atom_site_fract_z
Si Si1 0.086035 0.139954 0.333318
Si Si2 0.402636 0.360960 0.084581
Si Si3 0.659237 0.138862 0.187059
Si Si4 0.073946 0.554244 0.615407
Si Si5 0.001970 0.859052 0.330217
Si Si6 0.159740 0.944124 0.400225
Si Si7 0.832269 0.045138 0.960264
Si Si8 0.979826 0.360154 0.903232
O O1 0.110118 0.250000 0.353701
O O2 0.076475 0.129391 0.206962
O O3 0.003633 0.118173 0.386715
O O4 0.143442 0.055460 0.369069
O O5 0.384277 0.250000 0.065933
O O6 0.334899 0.431322 0.051067
O O7 0.471218 0.387513 0.004690
O O8 0.750000 0.141043 0.212591
O O9 0.632327 0.250000 0.178441
O O10 0.614318 0.082984 0.276497
O O11 0.652674 0.084917 0.076401
O O12 0.132974 0.569390 0.520801
O O13 0.043640 0.444690 0.614015
O O14 0.987815 0.750000 0.365894
O O15 0.093313 0.882688 0.340958
O O16 0.978136 0.866151 0.207822
O O17 0.250000 0.920838 0.384060
O O18 0.750000 0.083595 0.925197
O O19 0.903760 0.078440 0.893311
O O20 0.956298 0.250000 0.918399
#
# Coordination Sequence:
#
# PCOD9450903 Si02
#       8
#     8   8   8   8   8   8   8   8
#     4  10  21  38  62  89 116 150 195 246 293 341
#     4  10  21  37  59  86 115 153 198 237 278 335
#     4  10  21  36  56  86 120 153 193 242 296 349
#     4  11  21  38  63  84 110 147 193 249 300 347
#     4  10  22  39  60  85 114 150 191 238 289 345
#     4  11  25  41  57  83 117 152 192 239 295 356
#     4  11  21  33  53  82 119 155 187 231 284 341
#     4  10  20  35  56  82 112 147 188 231 278 337
#
# _framework density 20.705867000000001
#
# number of rings (size 3 to 8) (size 9 to 14) (size 15 to 20)
#    0.000    1.625    0.000    6.000    0.000    7.000 
#    0.000    2.500    0.000    1.875    0.000    0.000 
#    0.000    0.000    0.000    0.000    0.000    0.000 
#
# Total GULP energy -357375.971178 kJ/mol
# GULP energy per Si atom -5583.999550 kJ/mol
# Density = 2.065874 g / cm^3
# Si number density = 20.705867 Si / 1000 Ang^3
#
#
#
# Elastic Constant Matrix: (Units=GPa)
#
#
# Indices 1 2 3 4 5 6 
#
# 1 51.8930 12.2270 11.3177 0.0000 0.0000 0.0000
# 2 12.2270 94.7772 26.6692 0.0000 0.0000 0.0000
# 3 11.3177 26.6692 58.7634 0.0000 0.0000 0.0000
# 4 0.0000 0.0000 0.0000 24.2989 0.0000 0.0000
# 5 0.0000 0.0000 0.0000 0.0000 11.8681 0.0000
# 6 0.0000 0.0000 0.0000 0.0000 0.0000 15.0648
#
#
#
# Elastic Compliance Matrix: (Units=1/GPa)
#
#
# Indices 1 2 3 4 5 6 
#
# 1 0.020364 -0.001747 -0.003129 0.000000 0.000000 0.000000
# 2 -0.001747 0.012246 -0.005221 0.000000 0.000000 0.000000
# 3 -0.003129 -0.005221 0.019990 0.000000 0.000000 0.000000
# 4 0.000000 0.000000 0.000000 0.041154 0.000000 0.000000
# 5 0.000000 0.000000 0.000000 0.000000 0.084260 0.000000
# 6 0.000000 0.000000 0.000000 0.000000 0.000000 0.066380
#
#
# Mechanical properties :
#
#
# Convention : Reuss Voigt Hill
#
# Bulk Modulus (GPa) = 30.85915 33.98462 32.42188
# Shear Modulus (GPa) = 18.15608 20.59432 19.37520
#
# Velocity S-wave (km/s) = 2.96439 3.15717 3.06230
# Velocity P-wave (km/s) = 5.16263 5.45334 5.30998
#
# Compressibility (1/GPa) = 0.03240530
#
# Stress axis : x y z
#
# Youngs Moduli (GPa) = 49.10511 81.66229 50.02580
#
# Poissons Ratio (x) = 0.14263 0.15656
# Poissons Ratio (y) = 0.08577 0.26119
# Poissons Ratio (z) = 0.15367 0.42637
#
# Static dielectric constant tensor:
#      x y z
#    x 1.741050 0.000000 0.000000 
#    y 0.000000 1.768350 0.000000 
#    z 0.000000 0.000000 1.756950 
# 
# From -- ./inp_files/17861.got.cif
#   From: 2010.05.17/outbox.cif.g08.bks.cpg/sg59_9_cif.got.tgz:17861.got - 2010.06.03 14:40:33.
