data_PCOD9450024
_publ_section_title
;
Structure prediction by ZEFSAII (Michael W. Deem and Ramdas Pophale) SiO2 
 PCOD9450024
Probable space group: P M M N
;
_chemical_formula_sum "Si O2"
_cell_formula_units_Z 64
_cell_length_a 8.836301
_cell_length_b 19.649813
_cell_length_c 20.973223
_cell_angle_alpha 90.000000
_cell_angle_beta 90.000000
_cell_angle_gamma 90.000000
_cell_volume 3641.615572
_symmetry_space_group_name_H-M "P M M N"
_symmetry_group_IT_number 59
_space_group.IT_coordinate_system_code '2'
_symmetry_cell_setting 'orthorhombic'
loop_
_space_group_symop_operation_xyz
x,y,z
1/2-x,1/2-y,z
1/2+x,-y,-z
-x,1/2+y,-z
-x,-y,-z
1/2+x,1/2+y,-z
1/2-x,y,z
x,1/2-y,z
loop_
_atom_site_type_symbol
_atom_site_label
_atom_site_fract_x
_atom_site_fract_y
_atom_site_fract_z
Si Si1 0.932174 0.034082 0.437569
Si Si2 0.571452 0.328161 0.751992
Si Si3 0.932132 0.327136 0.376697
Si Si4 0.430597 0.171691 0.891735
Si Si5 0.568738 0.954047 0.309623
Si Si6 0.930681 0.460116 0.182016
Si Si7 0.930535 0.671594 0.764276
Si Si8 0.569596 0.462875 0.938958
O O1 0.750000 0.032450 0.442143
O O2 0.977290 0.112515 0.424331
O O3 0.976170 0.991958 0.374290
O O4 0.000000 0.000000 0.500000
O O5 0.750000 0.337660 0.763700
O O6 0.546647 0.250000 0.732036
O O7 0.483981 0.338584 0.818665
O O8 0.512233 0.382540 0.701691
O O9 0.750000 0.332003 0.367391
O O10 0.966781 0.250000 0.398155
O O11 0.008744 0.337657 0.307919
O O12 0.250000 0.162942 0.895009
O O13 0.467622 0.250000 0.908769
O O14 0.511345 0.114620 0.933490
O O15 0.750000 0.944287 0.310757
O O16 0.534183 0.000729 0.248145
O O17 0.750000 0.461631 0.172828
O O18 0.989315 0.383568 0.191349
O O19 0.010674 0.498366 0.124052
O O20 0.750000 0.661696 0.765370
O O21 0.963262 0.750000 0.782136
O O22 0.750000 0.464431 0.941343
O O23 0.500000 0.500000 0.000000
#
# Coordination Sequence:
#
# PCOD9450024 Si02
#       8
#     8   8   8   8   8   8   8   8
#     4  10  21  37  54  80 111 146 187 230 282 341
#     4  10  20  33  53  84 116 147 189 238 286 335
#     4   9  17  33  56  78 105 143 186 231 280 338
#     4  10  20  36  59  86 117 153 192 234 283 339
#     4  10  20  35  56  81 112 146 186 231 282 341
#     4  11  21  37  60  85 114 149 190 234 281 339
#     4  10  20  33  53  85 119 148 185 235 288 338
#     4  12  25  41  61  87 120 155 193 238 286 341
#
# _framework density 17.574618000000001
#
# number of rings (size 3 to 8) (size 9 to 14) (size 15 to 20)
#    0.000    1.750    2.500    2.625    0.000    3.750 
#    0.000    1.250    0.000    6.000    0.000    0.000 
#    0.000    0.000    0.000    0.000    0.000    0.000 
#
# Total GULP energy -357375.518887 kJ/mol
# GULP energy per Si atom -5583.992483 kJ/mol
# Density = 1.753462 g / cm^3
# Si number density = 17.574618 Si / 1000 Ang^3
#
#
#
# Elastic Constant Matrix: (Units=GPa)
#
#
# Indices 1 2 3 4 5 6 
#
# 1 67.0487 68.3680 54.0849 0.0000 0.0000 0.0000
# 2 68.3680 152.8696 73.6842 0.0000 0.0000 0.0000
# 3 54.0849 73.6842 103.8017 0.0000 0.0000 0.0000
# 4 0.0000 0.0000 0.0000 29.4360 0.0000 0.0000
# 5 0.0000 0.0000 0.0000 0.0000 29.1168 0.0000
# 6 0.0000 0.0000 0.0000 0.0000 0.0000 32.2212
#
#
#
# Elastic Compliance Matrix: (Units=1/GPa)
#
#
# Indices 1 2 3 4 5 6 
#
# 1 0.033407 -0.009958 -0.010338 0.000000 0.000000 0.000000
# 2 -0.009958 0.012912 -0.003977 0.000000 0.000000 0.000000
# 3 -0.010338 -0.003977 0.017844 0.000000 0.000000 0.000000
# 4 0.000000 0.000000 0.000000 0.033972 0.000000 0.000000
# 5 0.000000 0.000000 0.000000 0.000000 0.034344 0.000000
# 6 0.000000 0.000000 0.000000 0.000000 0.000000 0.031035
#
#
# Mechanical properties :
#
#
# Convention : Reuss Voigt Hill
#
# Bulk Modulus (GPa) = 64.03340 79.55491 71.79415
# Shear Modulus (GPa) = 23.01318 26.66032 24.83675
#
# Velocity S-wave (km/s) = 3.62257 3.89907 3.76336
# Velocity P-wave (km/s) = 7.34926 8.10157 7.73457
#
# Compressibility (1/GPa) = 0.01561685
#
# Stress axis : x y z
#
# Youngs Moduli (GPa) = 29.93344 77.44705 56.04271
#
# Poissons Ratio (x) = 0.77121 0.57937
# Poissons Ratio (y) = 0.29807 0.22290
# Poissons Ratio (z) = 0.30945 0.30803
#
# Static dielectric constant tensor:
#      x y z
#    x 1.585870 0.000000 0.000000 
#    y 0.000000 1.620220 0.000000 
#    z 0.000000 0.000000 1.560740 
# 
# From -- ./inp_files/29524.got.cif
#   From: 2010.05.17/outbox.cif.g08.bks.cpg/sg59_15_cif.got.tgz:29524.got - 2010.06.03 14:40:33.
