data_PCOD9450334
_publ_section_title
;
Structure prediction by ZEFSAII (Michael W. Deem and Ramdas Pophale) SiO2 
 PCOD9450334
Probable space group: P M M N
;
_chemical_formula_sum "Si O2"
_cell_formula_units_Z 58
_cell_length_a 14.878963
_cell_length_b 27.625599
_cell_length_c 7.481389
_cell_angle_alpha 90.000000
_cell_angle_beta 90.000000
_cell_angle_gamma 90.000000
_cell_volume 3075.152120
_symmetry_space_group_name_H-M "P M M N"
_symmetry_group_IT_number 59
_space_group.IT_coordinate_system_code '2'
_symmetry_cell_setting 'orthorhombic'
loop_
_space_group_symop_operation_xyz
x,y,z
1/2-x,1/2-y,z
1/2+x,-y,-z
-x,1/2+y,-z
-x,-y,-z
1/2+x,1/2+y,-z
1/2-x,y,z
x,1/2-y,z
loop_
_atom_site_type_symbol
_atom_site_label
_atom_site_fract_x
_atom_site_fract_y
_atom_site_fract_z
Si Si1 0.852423 0.060499 0.175911
Si Si2 0.523530 0.614082 0.720229
Si Si3 0.564414 0.802115 0.995956
Si Si4 0.352944 0.582299 0.237213
Si Si5 0.352828 0.046999 0.747458
Si Si6 0.474324 0.135904 0.682030
Si Si7 0.353283 0.025833 0.322823
Si Si8 0.250000 0.250000 0.041221
O O1 0.750000 0.061683 0.247294
O O2 0.924887 0.089952 0.288337
O O3 0.877624 0.003767 0.161799
O O4 0.852649 0.081972 0.977546
O O5 0.549479 0.636167 0.527266
O O6 0.588955 0.568764 0.761735
O O7 0.529824 0.655415 0.868537
O O8 0.518852 0.750000 0.960279
O O9 0.549721 0.817787 0.200871
O O10 0.669552 0.791391 0.962927
O O11 0.250000 0.587668 0.299395
O O12 0.421216 0.622599 0.302401
O O13 0.386618 0.528732 0.293520
O O14 0.250000 0.059618 0.796396
O O15 0.419715 0.091316 0.772057
O O16 0.354287 0.035345 0.535189
O O17 0.250000 0.027254 0.258385
#
# Coordination Sequence:
#
# PCOD9450334 Si02
#       8
#     8   8   8   8   8   8   8   2
#     4  10  20  34  53  84 121 160 196 235 281 334
#     4  11  22  37  61  86 115 155 197 238 285 343
#     4  10  24  44  62  87 115 143 186 241 292 351
#     4  10  20  34  53  84 121 160 196 235 281 334
#     4   9  19  32  49  81 121 157 195 234 277 335
#     4  11  22  37  61  86 115 155 197 238 285 343
#     4   9  19  32  49  81 121 157 195 234 277 335
#     4   8  24  48  66  88 118 150 176 240 306 344
#
# _framework density 18.860856999999999
#
# number of rings (size 3 to 8) (size 9 to 14) (size 15 to 20)
#    0.414    1.655    1.379    1.655    3.862    5.517 
#    0.000    0.690    0.000    1.655    0.000    1.931 
#    0.000    0.000    0.000    0.000    0.000    0.000 
#
# Total GULP energy -323156.321978 kJ/mol
# GULP energy per Si atom -5571.660724 kJ/mol
# Density = 1.881793 g / cm^3
# Si number density = 18.860857 Si / 1000 Ang^3
#
#
#
# Elastic Constant Matrix: (Units=GPa)
#
#
# Indices 1 2 3 4 5 6 
#
# 1 57.3599 27.9228 -4.0653 0.0000 0.0000 0.0000
# 2 27.9228 57.1420 -1.2866 0.0000 0.0000 0.0000
# 3 -4.0653 -1.2866 35.8163 0.0000 0.0000 0.0000
# 4 0.0000 0.0000 0.0000 17.2957 0.0000 0.0000
# 5 0.0000 0.0000 0.0000 0.0000 13.8972 0.0000
# 6 0.0000 0.0000 0.0000 0.0000 0.0000 24.4541
#
#
#
# Elastic Compliance Matrix: (Units=1/GPa)
#
#
# Indices 1 2 3 4 5 6 
#
# 1 0.023049 -0.011213 0.002213 0.000000 0.000000 0.000000
# 2 -0.011213 0.022970 -0.000448 0.000000 0.000000 0.000000
# 3 0.002213 -0.000448 0.028155 0.000000 0.000000 0.000000
# 4 0.000000 0.000000 0.000000 0.057818 0.000000 0.000000
# 5 0.000000 0.000000 0.000000 0.000000 0.071957 0.000000
# 6 0.000000 0.000000 0.000000 0.000000 0.000000 0.040893
#
#
# Mechanical properties :
#
#
# Convention : Reuss Voigt Hill
#
# Bulk Modulus (GPa) = 18.09000 21.71778 19.90389
# Shear Modulus (GPa) = 17.72018 19.64587 18.68303
#
# Velocity S-wave (km/s) = 3.06849 3.23092 3.15075
# Velocity P-wave (km/s) = 4.70811 5.04561 4.87978
#
# Compressibility (1/GPa) = 0.05527917
#
# Stress axis : x y z
#
# Youngs Moduli (GPa) = 43.38522 43.53567 35.51715
#
# Poissons Ratio (x) = 0.48818 -0.07861
# Poissons Ratio (y) = 0.48649 0.01590
# Poissons Ratio (z) = -0.09603 0.01949
#
# Static dielectric constant tensor:
#      x y z
#    x 1.668620 0.000000 0.000000 
#    y 0.000000 1.634830 0.000000 
#    z 0.000000 0.000000 1.693950 
# 
# From -- ./inp_files/9685.got.cif
#   From: 2010.05.17/outbox.cif.g08.bks.cpg/sg59_5_cif.got.tgz:9685.got - 2010.06.03 14:40:33.
