data_PCOD9450123
_publ_section_title
;
Structure prediction by ZEFSAII (Michael W. Deem and Ramdas Pophale) SiO2 
 PCOD9450123
Probable space group: P M M N
;
_chemical_formula_sum "Si O2"
_cell_formula_units_Z 48
_cell_length_a 14.114795
_cell_length_b 8.863027
_cell_length_c 21.502280
_cell_angle_alpha 90.000000
_cell_angle_beta 90.000000
_cell_angle_gamma 90.000000
_cell_volume 2689.931125
_symmetry_space_group_name_H-M "P M M N"
_symmetry_group_IT_number 59
_space_group.IT_coordinate_system_code '2'
_symmetry_cell_setting 'orthorhombic'
loop_
_space_group_symop_operation_xyz
x,y,z
1/2-x,1/2-y,z
1/2+x,-y,-z
-x,1/2+y,-z
-x,-y,-z
1/2+x,1/2+y,-z
1/2-x,y,z
x,1/2-y,z
loop_
_atom_site_type_symbol
_atom_site_label
_atom_site_fract_x
_atom_site_fract_y
_atom_site_fract_z
Si Si1 0.357856 0.068531 0.973254
Si Si2 0.636202 0.425052 0.530724
Si Si3 0.639245 0.930798 0.782770
Si Si4 0.955824 0.067438 0.660976
Si Si5 0.642768 0.931227 0.400304
Si Si6 0.048014 0.930545 0.094800
O O1 0.250000 0.028393 0.956307
O O2 0.361675 0.250000 0.982265
O O3 0.439231 0.030160 0.923201
O O4 0.388649 0.990402 0.037505
O O5 0.750000 0.432425 0.535665
O O6 0.608452 0.250000 0.522380
O O7 0.594021 0.477572 0.596088
O O8 0.610256 0.514648 0.468541
O O9 0.750000 0.975586 0.785922
O O10 0.634598 0.750000 0.783744
O O11 0.593158 0.992860 0.719701
O O12 0.584024 0.996513 0.841884
O O13 0.948560 0.250000 0.666446
O O14 0.065776 0.024677 0.651016
O O15 0.750000 0.987162 0.389584
O O16 0.645070 0.750000 0.401436
O O17 0.055377 0.750000 0.098737
#
# Coordination Sequence:
#
# PCOD9450123 Si02
#       6
#     8   8   8   8   8   8
#     4   9  18  34  56  82 112 142 172 209 251 293
#     4   9  17  29  47  72  99 127 163 209 258 304
#     4  11  24  39  54  74 102 135 169 208 256 307
#     4  10  20  34  52  73  99 133 171 210 252 300
#     4   9  18  32  50  73 100 130 166 208 254 304
#     4  10  20  34  55  82 109 140 176 210 248 296
#
# _framework density 17.844322999999999
#
# number of rings (size 3 to 8) (size 9 to 14) (size 15 to 20)
#    0.000    2.333    0.000    2.500    0.000    6.333 
#    0.000    2.500    0.000    5.000    0.000    0.000 
#    0.000    0.000    0.000    0.000    0.000    0.000 
#
# Total GULP energy -267832.867537 kJ/mol
# GULP energy per Si atom -5579.851407 kJ/mol
# Density = 1.780371 g / cm^3
# Si number density = 17.844323 Si / 1000 Ang^3
#
#
#
# Elastic Constant Matrix: (Units=GPa)
#
#
# Indices 1 2 3 4 5 6 
#
# 1 142.6655 43.0056 87.5832 0.0000 0.0000 0.0000
# 2 43.0056 23.3567 36.8255 0.0000 0.0000 0.0000
# 3 87.5832 36.8255 119.1503 0.0000 0.0000 0.0000
# 4 0.0000 0.0000 0.0000 31.0883 0.0000 0.0000
# 5 0.0000 0.0000 0.0000 0.0000 23.7907 0.0000
# 6 0.0000 0.0000 0.0000 0.0000 0.0000 22.0752
#
#
#
# Elastic Compliance Matrix: (Units=1/GPa)
#
#
# Indices 1 2 3 4 5 6 
#
# 1 0.017520 -0.023315 -0.005672 0.000000 0.000000 0.000000
# 2 -0.023315 0.114534 -0.018261 0.000000 0.000000 0.000000
# 3 -0.005672 -0.018261 0.018206 0.000000 0.000000 0.000000
# 4 0.000000 0.000000 0.000000 0.032166 0.000000 0.000000
# 5 0.000000 0.000000 0.000000 0.000000 0.042033 0.000000
# 6 0.000000 0.000000 0.000000 0.000000 0.000000 0.045300
#
#
# Mechanical properties :
#
#
# Convention : Reuss Voigt Hill
#
# Bulk Modulus (GPa) = 17.93275 68.88903 43.41089
# Shear Modulus (GPa) = 13.06014 23.24137 18.15076
#
# Velocity S-wave (km/s) = 2.70829 3.61287 3.19277
# Velocity P-wave (km/s) = 4.45546 7.48953 6.16215
#
# Compressibility (1/GPa) = 0.05576391
#
# Stress axis : x y z
#
# Youngs Moduli (GPa) = 57.07794 8.73099 54.92714
#
# Poissons Ratio (x) = 0.20357 0.31156
# Poissons Ratio (y) = 1.33080 1.00300
# Poissons Ratio (z) = 0.32376 0.15943
#
# Static dielectric constant tensor:
#      x y z
#    x 1.650970 0.000000 0.000000 
#    y 0.000000 1.602610 0.000000 
#    z 0.000000 0.000000 1.563380 
# 
# From -- ./inp_files/25447.got.cif
#   From: 2010.05.17/outbox.cif.g08.bks.cpg/sg59_13_cif.got.tgz:25447.got - 2010.06.03 14:40:33.
