data_PCOD9450345
_publ_section_title
;
Structure prediction by ZEFSAII (Michael W. Deem and Ramdas Pophale) SiO2 
 PCOD9450345
Probable space group: P M M N
;
_chemical_formula_sum "Si O2"
_cell_formula_units_Z 64
_cell_length_a 9.250292
_cell_length_b 26.729670
_cell_length_c 14.370893
_cell_angle_alpha 90.000000
_cell_angle_beta 90.000000
_cell_angle_gamma 90.000000
_cell_volume 3553.307520
_symmetry_space_group_name_H-M "P M M N"
_symmetry_group_IT_number 59
_space_group.IT_coordinate_system_code '2'
_symmetry_cell_setting 'orthorhombic'
loop_
_space_group_symop_operation_xyz
x,y,z
1/2-x,1/2-y,z
1/2+x,-y,-z
-x,1/2+y,-z
-x,-y,-z
1/2+x,1/2+y,-z
1/2-x,y,z
x,1/2-y,z
loop_
_atom_site_type_symbol
_atom_site_label
_atom_site_fract_x
_atom_site_fract_y
_atom_site_fract_z
Si Si1 0.580208 0.882502 0.314410
Si Si2 0.414885 0.189106 0.359813
Si Si3 0.579945 0.307512 0.174308
Si Si4 0.078644 0.595973 0.930274
Si Si5 0.917510 0.967696 0.774612
Si Si6 0.421004 0.690204 0.453206
Si Si7 0.417730 0.579406 0.140937
Si Si8 0.578803 0.993544 0.401528
O O1 0.750000 0.871379 0.310942
O O2 0.495800 0.840611 0.371664
O O3 0.513979 0.889064 0.211914
O O4 0.562308 0.936123 0.366374
O O5 0.250000 0.171595 0.366522
O O6 0.413947 0.250000 0.359666
O O7 0.488936 0.174582 0.263180
O O8 0.506802 0.173930 0.449364
O O9 0.750000 0.308737 0.199960
O O10 0.542056 0.250000 0.153289
O O11 0.559536 0.345145 0.089404
O O12 0.250000 0.584200 0.921547
O O13 0.992928 0.567820 0.849525
O O14 0.032427 0.581686 0.034181
O O15 0.750000 0.954193 0.758279
O O16 0.920943 0.022793 0.821378
O O17 0.004190 0.972372 0.677894
O O18 0.250000 0.681047 0.455454
O O19 0.443818 0.750000 0.442799
O O20 0.250000 0.596392 0.143691
O O21 0.750000 0.004230 0.408704
O O22 0.500000 0.000000 0.500000
#
# Coordination Sequence:
#
# PCOD9450345 Si02
#       8
#     8   8   8   8   8   8   8   8
#     4  10  21  36  55  78 105 138 173 213 262 311
#     4   9  17  30  49  72  99 131 166 208 255 298
#     4   9  18  33  51  72 101 136 171 207 251 303
#     4  10  20  34  54  78 103 134 174 219 261 304
#     4  10  20  34  54  79 106 136 171 214 261 310
#     4  10  20  34  54  79 105 137 178 218 256 305
#     4   9  19  36  55  76 104 136 171 214 265 315
#     4  10  21  37  56  79 108 141 175 210 255 313
#
# _framework density 18.011388
#
# number of rings (size 3 to 8) (size 9 to 14) (size 15 to 20)
#    0.000    2.375    0.000    2.250    0.000    6.250 
#    0.000    0.625    0.000    2.250    0.000    0.000 
#    0.000    0.000    0.000    0.000    0.000    0.000 
#
# Total GULP energy -357187.903952 kJ/mol
# GULP energy per Si atom -5581.060999 kJ/mol
# Density = 1.797039 g / cm^3
# Si number density = 18.011388 Si / 1000 Ang^3
#
#
#
# Elastic Constant Matrix: (Units=GPa)
#
#
# Indices 1 2 3 4 5 6 
#
# 1 103.1583 36.5503 72.2186 0.0000 0.0000 0.0000
# 2 36.5503 21.1800 31.4536 0.0000 0.0000 0.0000
# 3 72.2186 31.4536 144.6444 0.0000 0.0000 0.0000
# 4 0.0000 0.0000 0.0000 18.2505 0.0000 0.0000
# 5 0.0000 0.0000 0.0000 0.0000 26.1310 0.0000
# 6 0.0000 0.0000 0.0000 0.0000 0.0000 23.3841
#
#
#
# Elastic Compliance Matrix: (Units=1/GPa)
#
#
# Indices 1 2 3 4 5 6 
#
# 1 0.027176 -0.039505 -0.004978 0.000000 0.000000 0.000000
# 2 -0.039505 0.127160 -0.007928 0.000000 0.000000 0.000000
# 3 -0.004978 -0.007928 0.011123 0.000000 0.000000 0.000000
# 4 0.000000 0.000000 0.000000 0.054793 0.000000 0.000000
# 5 0.000000 0.000000 0.000000 0.000000 0.038269 0.000000
# 6 0.000000 0.000000 0.000000 0.000000 0.000000 0.042764
#
#
# Mechanical properties :
#
#
# Convention : Reuss Voigt Hill
#
# Bulk Modulus (GPa) = 16.49115 61.04751 38.76933
# Shear Modulus (GPa) = 11.72834 22.13715 16.93274
#
# Velocity S-wave (km/s) = 2.55456 3.50960 3.06945
# Velocity P-wave (km/s) = 4.22810 7.09863 5.84240
#
# Compressibility (1/GPa) = 0.06063858
#
# Stress axis : x y z
#
# Youngs Moduli (GPa) = 36.79752 7.86409 89.90527
#
# Poissons Ratio (x) = 0.31067 0.44754
# Poissons Ratio (y) = 1.45367 0.71274
# Poissons Ratio (z) = 0.18318 0.06234
#
# Static dielectric constant tensor:
#      x y z
#    x 1.608320 0.000000 0.000000 
#    y 0.000000 1.626720 0.000000 
#    z 0.000000 0.000000 1.583980 
# 
# From -- ./inp_files/15084.got.cif
#   From: 2010.05.17/outbox.cif.g08.bks.cpg/sg59_8_cif.got.tgz:15084.got - 2010.06.03 14:40:33.
