data_PCOD9450635
_publ_section_title
;
Structure prediction by ZEFSAII (Michael W. Deem and Ramdas Pophale) SiO2 
 PCOD9450635
Probable space group: P M M N
;
_chemical_formula_sum "Si O2"
_cell_formula_units_Z 64
_cell_length_a 18.843607
_cell_length_b 8.951889
_cell_length_c 21.444014
_cell_angle_alpha 90.000000
_cell_angle_beta 90.000000
_cell_angle_gamma 90.000000
_cell_volume 3617.302334
_symmetry_space_group_name_H-M "P M M N"
_symmetry_group_IT_number 59
_space_group.IT_coordinate_system_code '2'
_symmetry_cell_setting 'orthorhombic'
loop_
_space_group_symop_operation_xyz
x,y,z
1/2-x,1/2-y,z
1/2+x,-y,-z
-x,1/2+y,-z
-x,-y,-z
1/2+x,1/2+y,-z
1/2-x,y,z
x,1/2-y,z
loop_
_atom_site_type_symbol
_atom_site_label
_atom_site_fract_x
_atom_site_fract_y
_atom_site_fract_z
Si Si1 0.035344 0.072242 0.939748
Si Si2 0.167689 0.428258 0.254486
Si Si3 0.332933 0.429741 0.624646
Si Si4 0.168878 0.929132 0.879641
Si Si5 0.036975 0.571789 0.192525
Si Si6 0.577978 0.570613 0.499351
Si Si7 0.834067 0.426039 0.610752
Si Si8 0.097913 0.571461 0.746979
O O1 0.038844 0.250000 0.946861
O O2 0.989569 0.038743 0.877489
O O3 0.113046 0.007315 0.924983
O O4 0.000000 0.000000 0.000000
O O5 0.250000 0.460229 0.239040
O O6 0.158767 0.250000 0.257543
O O7 0.112494 0.499661 0.206898
O O8 0.152958 0.499880 0.322117
O O9 0.250000 0.470768 0.616734
O O10 0.336263 0.250000 0.632243
O O11 0.378930 0.468774 0.563656
O O12 0.365736 0.506433 0.685542
O O13 0.250000 0.974927 0.889709
O O14 0.163777 0.750000 0.887367
O O15 0.145381 0.962074 0.808371
O O16 0.039277 0.750000 0.200719
O O17 0.978256 0.502160 0.238912
O O18 0.500000 0.500000 0.500000
O O19 0.573311 0.750000 0.502761
O O20 0.621258 0.507370 0.557883
O O21 0.750000 0.441638 0.597444
O O22 0.851115 0.250000 0.612983
O O23 0.090534 0.750000 0.742075
#
# Coordination Sequence:
#
# PCOD9450635 Si02
#       8
#     8   8   8   8   8   8   8   8
#     4  10  21  37  58  84 114 152 192 231 276 326
#     4  10  21  37  59  86 113 144 185 233 284 336
#     4  10  22  39  57  78 108 146 184 227 281 336
#     4   9  18  34  56  83 115 149 186 230 277 326
#     4  10  21  37  58  84 115 149 186 228 276 329
#     4  11  24  40  57  78 108 146 189 236 285 336
#     4  10  21  38  60  83 108 142 183 230 285 343
#     4  10  20  34  56  85 115 147 184 226 276 331
#
# _framework density 17.692744000000001
#
# number of rings (size 3 to 8) (size 9 to 14) (size 15 to 20)
#    0.000    2.000    0.000    3.000    1.750    6.000 
#    0.000    0.625    0.000    0.750    0.000    0.000 
#    0.000    0.000    0.000    0.000    0.000    0.000 
#
# Total GULP energy -357502.334080 kJ/mol
# GULP energy per Si atom -5585.973970 kJ/mol
# Density = 1.765247 g / cm^3
# Si number density = 17.692744 Si / 1000 Ang^3
#
#
#
# Elastic Constant Matrix: (Units=GPa)
#
#
# Indices 1 2 3 4 5 6 
#
# 1 144.1021 74.7300 94.2349 0.0000 0.0000 0.0000
# 2 74.7300 66.7059 58.4317 0.0000 0.0000 0.0000
# 3 94.2349 58.4317 90.8429 0.0000 0.0000 0.0000
# 4 0.0000 0.0000 0.0000 34.0323 0.0000 0.0000
# 5 0.0000 0.0000 0.0000 0.0000 28.0823 0.0000
# 6 0.0000 0.0000 0.0000 0.0000 0.0000 34.8791
#
#
#
# Elastic Compliance Matrix: (Units=1/GPa)
#
#
# Indices 1 2 3 4 5 6 
#
# 1 0.025313 -0.012270 -0.018366 0.000000 0.000000 0.000000
# 2 -0.012270 0.040287 -0.013185 0.000000 0.000000 0.000000
# 3 -0.018366 -0.013185 0.038540 0.000000 0.000000 0.000000
# 4 0.000000 0.000000 0.000000 0.029384 0.000000 0.000000
# 5 0.000000 0.000000 0.000000 0.000000 0.035610 0.000000
# 6 0.000000 0.000000 0.000000 0.000000 0.000000 0.028670
#
#
# Mechanical properties :
#
#
# Convention : Reuss Voigt Hill
#
# Bulk Modulus (GPa) = 60.61165 84.04935 72.33050
# Shear Modulus (GPa) = 17.18545 24.34903 20.76724
#
# Velocity S-wave (km/s) = 3.11999 3.71376 3.42975
# Velocity P-wave (km/s) = 6.87833 8.12388 7.52692
#
# Compressibility (1/GPa) = 0.01649848
#
# Stress axis : x y z
#
# Youngs Moduli (GPa) = 39.50563 24.82218 25.94704
#
# Poissons Ratio (x) = 0.30457 0.47653
# Poissons Ratio (y) = 0.48474 0.34210
# Poissons Ratio (z) = 0.72555 0.32727
#
# Static dielectric constant tensor:
#      x y z
#    x 1.600640 0.000000 0.000000 
#    y 0.000000 1.588120 0.000000 
#    z 0.000000 0.000000 1.570590 
# 
# From -- ./inp_files/29362.got.cif
#   From: 2010.05.17/outbox.cif.g08.bks.cpg/sg59_15_cif.got.tgz:29362.got - 2010.06.03 14:40:33.
