data_PCOD9450025
_publ_section_title
;
Structure prediction by ZEFSAII (Michael W. Deem and Ramdas Pophale) SiO2 
 PCOD9450025
Probable space group: P M M N
;
_chemical_formula_sum "Si O2"
_cell_formula_units_Z 64
_cell_length_a 13.373001
_cell_length_b 19.297136
_cell_length_c 13.206276
_cell_angle_alpha 90.000000
_cell_angle_beta 90.000000
_cell_angle_gamma 90.000000
_cell_volume 3408.019760
_symmetry_space_group_name_H-M "P M M N"
_symmetry_group_IT_number 59
_space_group.IT_coordinate_system_code '2'
_symmetry_cell_setting 'orthorhombic'
loop_
_space_group_symop_operation_xyz
x,y,z
1/2-x,1/2-y,z
1/2+x,-y,-z
-x,1/2+y,-z
-x,-y,-z
1/2+x,1/2+y,-z
1/2-x,y,z
x,1/2-y,z
loop_
_atom_site_type_symbol
_atom_site_label
_atom_site_fract_x
_atom_site_fract_y
_atom_site_fract_z
Si Si1 0.502254 0.828292 0.528058
Si Si2 0.859090 0.167542 0.788613
Si Si3 0.070220 0.327474 0.691388
Si Si4 0.973269 0.957663 0.865530
Si Si5 0.867384 0.463531 0.494557
Si Si6 0.131318 0.081328 0.338482
Si Si7 0.860570 0.971729 0.271315
Si Si8 0.133386 0.924435 0.011915
O O1 0.460890 0.750000 0.539202
O O2 0.572628 0.827048 0.429500
O O3 0.423451 0.890158 0.509749
O O4 0.569910 0.853287 0.620436
O O5 0.750000 0.146261 0.745384
O O6 0.856848 0.250000 0.803840
O O7 0.871003 0.128835 0.894733
O O8 0.955207 0.154035 0.720048
O O9 0.091821 0.250000 0.729233
O O10 0.137385 0.388895 0.730443
O O11 0.902975 0.930378 0.776302
O O12 0.904225 0.002375 0.941156
O O13 0.054567 0.003807 0.805069
O O14 0.047918 0.907892 0.928902
O O15 0.750000 0.450303 0.505337
O O16 0.895006 0.516097 0.586318
O O17 0.881461 0.502194 0.386079
O O18 0.250000 0.090350 0.345947
O O19 0.750000 0.997741 0.244084
O O20 0.250000 0.927143 0.978736
#
# Coordination Sequence:
#
# PCOD9450025 Si02
#       8
#     8   8   8   8   8   8   8   8
#     4  11  22  36  55  83 121 154 186 233 281 331
#     4   9  18  34  56  81 110 144 182 226 281 342
#     4  10  20  33  53  84 118 151 185 225 278 335
#     4  11  21  36  57  82 112 141 184 239 285 336
#     4  10  21  36  58  83 113 152 194 234 274 330
#     4  11  22  38  60  84 111 151 199 237 279 336
#     4  11  20  34  56  82 114 151 186 227 276 331
#     4  10  21  36  57  84 109 138 180 235 291 339
#
# _framework density 18.779233999999999
#
# number of rings (size 3 to 8) (size 9 to 14) (size 15 to 20)
#    0.000    1.625    3.750    1.875    0.000    1.250 
#    0.000    3.125    0.000    0.000    0.000    0.000 
#    0.000    0.000    0.000    0.000    0.000    0.000 
#
# Total GULP energy -356860.391991 kJ/mol
# GULP energy per Si atom -5575.943625 kJ/mol
# Density = 1.873649 g / cm^3
# Si number density = 18.779234 Si / 1000 Ang^3
#
#
#
# Elastic Constant Matrix: (Units=GPa)
#
#
# Indices 1 2 3 4 5 6 
#
# 1 57.1819 -0.2396 -0.8179 0.0000 0.0000 0.0000
# 2 -0.2396 40.5350 3.4075 0.0000 0.0000 0.0000
# 3 -0.8179 3.4075 50.0911 0.0000 0.0000 0.0000
# 4 0.0000 0.0000 0.0000 15.0535 0.0000 0.0000
# 5 0.0000 0.0000 0.0000 0.0000 20.6524 0.0000
# 6 0.0000 0.0000 0.0000 0.0000 0.0000 13.2640
#
#
#
# Elastic Compliance Matrix: (Units=1/GPa)
#
#
# Indices 1 2 3 4 5 6 
#
# 1 0.017492 0.000080 0.000280 0.000000 0.000000 0.000000
# 2 0.000080 0.024812 -0.001687 0.000000 0.000000 0.000000
# 3 0.000280 -0.001687 0.020083 0.000000 0.000000 0.000000
# 4 0.000000 0.000000 0.000000 0.066430 0.000000 0.000000
# 5 0.000000 0.000000 0.000000 0.000000 0.048421 0.000000
# 6 0.000000 0.000000 0.000000 0.000000 0.000000 0.075392
#
#
# Mechanical properties :
#
#
# Convention : Reuss Voigt Hill
#
# Bulk Modulus (GPa) = 16.74074 16.94533 16.84304
# Shear Modulus (GPa) = 18.16896 19.49117 18.83007
#
# Velocity S-wave (km/s) = 3.11385 3.22516 3.16999
# Velocity P-wave (km/s) = 4.67567 4.78664 4.73148
#
# Compressibility (1/GPa) = 0.05973452
#
# Stress axis : x y z
#
# Youngs Moduli (GPa) = 57.16768 40.30259 49.79353
#
# Poissons Ratio (x) = -0.00322 -0.01395
# Poissons Ratio (y) = -0.00457 0.08398
# Poissons Ratio (z) = -0.01602 0.06797
#
# Static dielectric constant tensor:
#      x y z
#    x 1.677800 0.000000 0.000000 
#    y 0.000000 1.655640 0.000000 
#    z 0.000000 0.000000 1.662410 
# 
# From -- ./inp_files/17239.got.cif
#   From: 2010.05.17/outbox.cif.g08.bks.cpg/sg59_9_cif.got.tgz:17239.got - 2010.06.03 14:40:33.
