data_PCOD9450956
_publ_section_title
;
Structure prediction by ZEFSAII (Michael W. Deem and Ramdas Pophale) SiO2 
 PCOD9450956
Probable space group: P M M N
;
_chemical_formula_sum "Si O2"
_cell_formula_units_Z 48
_cell_length_a 31.074010
_cell_length_b 8.929414
_cell_length_c 9.690041
_cell_angle_alpha 90.000000
_cell_angle_beta 90.000000
_cell_angle_gamma 90.000000
_cell_volume 2688.721839
_symmetry_space_group_name_H-M "P M M N"
_symmetry_group_IT_number 59
_space_group.IT_coordinate_system_code '2'
_symmetry_cell_setting 'orthorhombic'
loop_
_space_group_symop_operation_xyz
x,y,z
1/2-x,1/2-y,z
1/2+x,-y,-z
-x,1/2+y,-z
-x,-y,-z
1/2+x,1/2+y,-z
1/2-x,y,z
x,1/2-y,z
loop_
_atom_site_type_symbol
_atom_site_label
_atom_site_fract_x
_atom_site_fract_y
_atom_site_fract_z
Si Si1 0.074097 0.929038 0.662905
Si Si2 0.328527 0.429516 0.351031
Si Si3 0.921033 0.069978 0.656046
Si Si4 0.999022 0.570656 0.151162
Si Si5 0.673636 0.429889 0.351382
Si Si6 0.750000 0.569518 0.845293
Si Si7 0.750000 0.069635 0.146978
O O1 0.068271 0.750000 0.678811
O O2 0.066092 0.967740 0.501880
O O3 0.124354 0.964148 0.689321
O O4 0.042017 0.013563 0.763393
O O5 0.330083 0.250000 0.356792
O O6 0.375462 0.493403 0.314104
O O7 0.317301 0.492622 0.502472
O O8 0.292216 0.475221 0.241593
O O9 0.915161 0.250000 0.660071
O O10 0.958387 0.027600 0.761889
O O11 0.998161 0.750000 0.141149
O O12 0.000000 0.500000 0.000000
O O13 0.676197 0.250000 0.371524
O O14 0.708022 0.473400 0.235980
O O15 0.750000 0.750000 0.854915
O O16 0.750000 0.501306 0.996804
O O17 0.750000 0.250000 0.134231
#
# Coordination Sequence:
#
# PCOD9450956 Si02
#       7
#     8   8   8   8   8   4   4
#     4   9  18  35  57  80 107 136 172 222 269 311
#     4  10  20  35  57  82 107 139 178 218 264 318
#     4   9  20  38  58  80 106 137 176 223 268 309
#     4  11  23  37  54  78 109 144 178 215 264 318
#     4   9  19  36  57  82 109 137 176 224 266 309
#     4  10  23  38  50  76 116 146 173 218 270 314
#     4  10  21  36  56  80 106 144 187 218 256 316
#
# _framework density 17.852347999999999
#
# number of rings (size 3 to 8) (size 9 to 14) (size 15 to 20)
#    0.000    2.333    0.000    3.000    0.000    7.333 
#    0.000    5.000    0.000    0.000    0.000    0.000 
#    0.000    0.000    0.000    0.000    0.000    0.000 
#
# Total GULP energy -267993.381863 kJ/mol
# GULP energy per Si atom -5583.195455 kJ/mol
# Density = 1.781172 g / cm^3
# Si number density = 17.852348 Si / 1000 Ang^3
#
#
#
# Elastic Constant Matrix: (Units=GPa)
#
#
# Indices 1 2 3 4 5 6 
#
# 1 149.9966 56.3104 139.6404 0.0000 0.0000 0.0000
# 2 56.3104 31.9532 59.8800 0.0000 0.0000 0.0000
# 3 139.6404 59.8800 173.8930 0.0000 0.0000 0.0000
# 4 0.0000 0.0000 0.0000 34.2988 0.0000 0.0000
# 5 0.0000 0.0000 0.0000 0.0000 -4.9373 0.0000
# 6 0.0000 0.0000 0.0000 0.0000 0.0000 28.6775
#
#
#
# Elastic Compliance Matrix: (Units=1/GPa)
#
#
# Indices 1 2 3 4 5 6 
#
# 1 0.031355 -0.022756 -0.017343 0.000000 0.000000 0.000000
# 2 -0.022756 0.104749 -0.017797 0.000000 0.000000 0.000000
# 3 -0.017343 -0.017797 0.025806 0.000000 0.000000 0.000000
# 4 0.000000 0.000000 0.000000 0.029156 0.000000 0.000000
# 5 0.000000 0.000000 0.000000 0.000000 -0.202538 0.000000
# 6 0.000000 0.000000 0.000000 0.000000 0.000000 0.034871
#
#
# Mechanical properties :
#
#
# Convention : Reuss Voigt Hill
#
# Bulk Modulus (GPa) = 21.68324 96.38936 59.03630
# Shear Modulus (GPa) = 32.34952 18.27527 25.31239
#
# Velocity S-wave (km/s) = 4.26145 3.20299 3.76955
# Velocity P-wave (km/s) = 6.03204 8.23338 7.21713
#
# Compressibility (1/GPa) = 0.04611858
#
# Stress axis : x y z
#
# Youngs Moduli (GPa) = 31.89245 9.54666 38.75085
#
# Poissons Ratio (x) = 0.21724 0.67206
# Poissons Ratio (y) = 0.72574 0.68963
# Poissons Ratio (z) = 0.55312 0.16990
#
# Static dielectric constant tensor:
#      x y z
#    x 1.602070 0.000000 0.000000 
#    y 0.000000 1.603310 0.000000 
#    z 0.000000 0.000000 1.576030 
# 
# From -- ./inp_files/6437.got.cif
#   From: 2010.05.17/outbox.cif.g08.bks.cpg/sg59_4_cif.got.tgz:6437.got - 2010.06.03 14:40:33.
