data_PCOD9450949
_publ_section_title
;
Structure prediction by ZEFSAII (Michael W. Deem and Ramdas Pophale) SiO2 
 PCOD9450949
Probable space group: P M M N
;
_chemical_formula_sum "Si O2"
_cell_formula_units_Z 56
_cell_length_a 16.350836
_cell_length_b 7.679338
_cell_length_c 20.417029
_cell_angle_alpha 90.000000
_cell_angle_beta 90.000000
_cell_angle_gamma 90.000000
_cell_volume 2563.635586
_symmetry_space_group_name_H-M "P M M N"
_symmetry_group_IT_number 59
_space_group.IT_coordinate_system_code '2'
_symmetry_cell_setting 'orthorhombic'
loop_
_space_group_symop_operation_xyz
x,y,z
1/2-x,1/2-y,z
1/2+x,-y,-z
-x,1/2+y,-z
-x,-y,-z
1/2+x,1/2+y,-z
1/2-x,y,z
x,1/2-y,z
loop_
_atom_site_type_symbol
_atom_site_label
_atom_site_fract_x
_atom_site_fract_y
_atom_site_fract_z
Si Si1 0.409347 0.459237 0.975828
Si Si2 0.654233 0.959889 0.430708
Si Si3 0.250000 0.036942 0.058025
Si Si4 0.250000 0.037092 0.210140
Si Si5 0.589805 0.949876 0.293871
Si Si6 0.655489 0.045613 0.574183
Si Si7 0.156343 0.462105 0.840752
Si Si8 0.590723 0.550545 0.710994
O O1 0.401641 0.250000 0.974491
O O2 0.333097 0.520357 0.020872
O O3 0.500000 0.500000 0.000000
O O4 0.397351 0.523999 0.901537
O O5 0.750000 0.010376 0.425561
O O6 0.649840 0.750000 0.433299
O O7 0.609012 0.025124 0.365530
O O8 0.621880 0.022197 0.500962
O O9 0.250000 0.250000 0.057338
O O10 0.250000 0.984204 0.134289
O O11 0.250000 0.250000 0.212781
O O12 0.331330 0.980593 0.249023
O O13 0.619401 0.750000 0.298158
O O14 0.633155 0.030456 0.230797
O O15 0.493792 0.952386 0.279655
O O16 0.750000 0.984320 0.572606
O O17 0.654671 0.250000 0.589469
O O18 0.611222 0.954189 0.633931
O O19 0.250000 0.501185 0.856197
O O20 0.148541 0.250000 0.837914
O O21 0.577473 0.750000 0.731645
#
# Coordination Sequence:
#
# PCOD9450949 Si02
#       8
#     8   8   4   4   8   8   8   8
#     4  10  20  35  59  87 117 151 191 235 281 336
#     4   9  18  34  56  80 106 142 182 221 268 326
#     4   9  18  36  59  83 112 153 194 228 275 341
#     4   9  20  36  55  77 104 141 186 226 263 319
#     4  10  21  35  54  82 113 140 179 231 277 321
#     4  10  20  35  57  81 107 140 179 227 277 324
#     4   9  17  34  59  84 111 149 191 228 272 331
#     4  11  22  37  56  78 107 144 185 226 272 330
#
# _framework density 21.843979000000001
#
# number of rings (size 3 to 8) (size 9 to 14) (size 15 to 20)
#    0.000    2.286    1.429    1.286    2.000    3.429 
#    0.000    0.357    0.000    3.857    0.000    0.000 
#    0.000    0.000    0.000    0.000    0.000    0.000 
#
# Total GULP energy -312682.495400 kJ/mol
# GULP energy per Si atom -5583.615989 kJ/mol
# Density = 2.179426 g / cm^3
# Si number density = 21.843979 Si / 1000 Ang^3
#
#
#
# Elastic Constant Matrix: (Units=GPa)
#
#
# Indices 1 2 3 4 5 6 
#
# 1 64.1780 -5.7280 28.1170 0.0000 0.0000 0.0000
# 2 -5.7280 38.6652 1.8051 0.0000 0.0000 0.0000
# 3 28.1170 1.8051 120.8130 0.0000 0.0000 0.0000
# 4 0.0000 0.0000 0.0000 -2.3042 0.0000 0.0000
# 5 0.0000 0.0000 0.0000 0.0000 21.2884 0.0000
# 6 0.0000 0.0000 0.0000 0.0000 0.0000 18.6197
#
#
#
# Elastic Compliance Matrix: (Units=1/GPa)
#
#
# Indices 1 2 3 4 5 6 
#
# 1 0.017650 0.002809 -0.004150 0.000000 0.000000 0.000000
# 2 0.002809 0.026328 -0.001047 0.000000 0.000000 0.000000
# 3 -0.004150 -0.001047 0.009259 0.000000 0.000000 0.000000
# 4 0.000000 0.000000 0.000000 -0.433992 0.000000 0.000000
# 5 0.000000 0.000000 0.000000 0.000000 0.046974 0.000000
# 6 0.000000 0.000000 0.000000 0.000000 0.000000 0.053706
#
#
# Mechanical properties :
#
#
# Convention : Reuss Voigt Hill
#
# Bulk Modulus (GPa) = 20.63532 30.22714 25.43123
# Shear Modulus (GPa) = -19.29428 20.81827 0.76200
#
# Velocity S-wave (km/s) = -2.97522 3.09049 0.59126
# Velocity P-wave (km/s) = 1.52820 5.15777 3.48333
#
# Compressibility (1/GPa) = 0.04846060
#
# Stress axis : x y z
#
# Youngs Moduli (GPa) = 56.65604 37.98237 108.00676
#
# Poissons Ratio (x) = -0.10667 0.44820
# Poissons Ratio (y) = -0.15912 0.11308
# Poissons Ratio (z) = 0.23511 0.03977
#
# Static dielectric constant tensor:
#      x y z
#    x 1.765300 0.000000 0.000000 
#    y 0.000000 1.813630 0.000000 
#    z 0.000000 0.000000 1.806140 
# 
# From -- ./inp_files/30508.got.cif
#   From: 2010.05.17/outbox.cif.g08.bks.cpg/sg59_16_cif.got.tgz:30508.got - 2010.06.03 14:40:33.
