data_PCOD9450919
_publ_section_title
;
Structure prediction by ZEFSAII (Michael W. Deem and Ramdas Pophale) SiO2 
 PCOD9450919
Probable space group: P M M N
;
_chemical_formula_sum "Si O2"
_cell_formula_units_Z 48
_cell_length_a 14.656327
_cell_length_b 9.476284
_cell_length_c 17.730779
_cell_angle_alpha 90.000000
_cell_angle_beta 90.000000
_cell_angle_gamma 90.000000
_cell_volume 2462.583871
_symmetry_space_group_name_H-M "P M M N"
_symmetry_group_IT_number 59
_space_group.IT_coordinate_system_code '2'
_symmetry_cell_setting 'orthorhombic'
loop_
_space_group_symop_operation_xyz
x,y,z
1/2-x,1/2-y,z
1/2+x,-y,-z
-x,1/2+y,-z
-x,-y,-z
1/2+x,1/2+y,-z
1/2-x,y,z
x,1/2-y,z
loop_
_atom_site_type_symbol
_atom_site_label
_atom_site_fract_x
_atom_site_fract_y
_atom_site_fract_z
Si Si1 0.750000 0.919912 0.291251
Si Si2 0.355569 0.406314 0.135177
Si Si3 0.894274 0.085131 0.569686
Si Si4 0.643639 0.408568 0.735139
Si Si5 0.750000 0.081114 0.131722
Si Si6 0.613336 0.585734 0.423176
Si Si7 0.096611 0.919630 0.993160
O O1 0.750000 0.750000 0.278516
O O2 0.836419 0.955759 0.345649
O O3 0.750000 0.998821 0.211095
O O4 0.250000 0.384777 0.154833
O O5 0.394616 0.250000 0.118379
O O6 0.401229 0.485227 0.205753
O O7 0.355518 0.513393 0.065907
O O8 0.871097 0.250000 0.561290
O O9 0.858099 0.035798 0.650200
O O10 0.003850 0.072876 0.578846
O O11 0.860170 0.002919 0.496754
O O12 0.750000 0.392645 0.755594
O O13 0.602663 0.250000 0.736530
O O14 0.750000 0.250000 0.145016
O O15 0.660227 0.049356 0.079850
O O16 0.635727 0.750000 0.435340
O O17 0.087364 0.750000 0.998645
O O18 0.000000 0.000000 0.000000
#
# Coordination Sequence:
#
# PCOD9450919 Si02
#       7
#     4   8   8   8   4   8   8
#     4  10  22  38  58  83 116 157 198 243 298 361
#     4  10  20  35  56  83 115 150 189 233 286 349
#     4   9  18  33  53  77 107 144 189 236 283 341
#     4   9  18  31  49  76 108 141 178 224 281 338
#     4  10  24  44  64  89 124 159 200 255 306 363
#     4   9  19  35  52  75 107 145 187 233 288 341
#     4  11  23  41  64  91 121 157 200 247 305 365
#
# _framework density 19.491720999999998
#
# number of rings (size 3 to 8) (size 9 to 14) (size 15 to 20)
#    0.000    2.333    0.833    1.000    1.167    4.667 
#    0.000    1.667    0.000    0.000    0.000    0.000 
#    0.000    0.000    0.000    0.000    0.000    0.000 
#
# Total GULP energy -267340.103375 kJ/mol
# GULP energy per Si atom -5569.585487 kJ/mol
# Density = 1.944736 g / cm^3
# Si number density = 19.491721 Si / 1000 Ang^3
#
#
#
# Elastic Constant Matrix: (Units=GPa)
#
#
# Indices 1 2 3 4 5 6 
#
# 1 67.2299 34.1105 37.2195 0.0000 0.0000 0.0000
# 2 34.1105 98.9456 96.2185 0.0000 0.0000 0.0000
# 3 37.2195 96.2185 185.6857 0.0000 0.0000 0.0000
# 4 0.0000 0.0000 0.0000 37.6086 0.0000 0.0000
# 5 0.0000 0.0000 0.0000 0.0000 16.2469 0.0000
# 6 0.0000 0.0000 0.0000 0.0000 0.0000 13.7139
#
#
#
# Elastic Compliance Matrix: (Units=1/GPa)
#
#
# Indices 1 2 3 4 5 6 
#
# 1 0.018086 -0.005462 -0.000795 0.000000 0.000000 0.000000
# 2 -0.005462 0.022021 -0.010316 0.000000 0.000000 0.000000
# 3 -0.000795 -0.010316 0.010890 0.000000 0.000000 0.000000
# 4 0.000000 0.000000 0.000000 0.026590 0.000000 0.000000
# 5 0.000000 0.000000 0.000000 0.000000 0.061550 0.000000
# 6 0.000000 0.000000 0.000000 0.000000 0.000000 0.072919
#
#
# Mechanical properties :
#
#
# Convention : Reuss Voigt Hill
#
# Bulk Modulus (GPa) = 56.01782 76.32868 66.17325
# Shear Modulus (GPa) = 19.90823 25.80140 22.85481
#
# Velocity S-wave (km/s) = 3.19935 3.64223 3.42795
# Velocity P-wave (km/s) = 6.51533 7.54535 7.04918
#
# Compressibility (1/GPa) = 0.01785146
#
# Stress axis : x y z
#
# Youngs Moduli (GPa) = 55.29262 45.41050 91.82365
#
# Poissons Ratio (x) = 0.24802 0.07300
# Poissons Ratio (y) = 0.30200 0.94727
# Poissons Ratio (z) = 0.04396 0.46846
#
# Static dielectric constant tensor:
#      x y z
#    x 1.654910 0.000000 0.000000 
#    y 0.000000 1.699250 0.000000 
#    z 0.000000 0.000000 1.675910 
# 
# From -- ./inp_files/23766.got.cif
#   From: 2010.05.17/outbox.cif.g08.bks.cpg/sg59_12_cif.got.tgz:23766.got - 2010.06.03 14:40:33.
