data_PCOD9450177
_publ_section_title
;
Structure prediction by ZEFSAII (Michael W. Deem and Ramdas Pophale) SiO2 
 PCOD9450177
Probable space group: P M M N
;
_chemical_formula_sum "Si O2"
_cell_formula_units_Z 64
_cell_length_a 9.057783
_cell_length_b 23.514905
_cell_length_c 18.642864
_cell_angle_alpha 90.000000
_cell_angle_beta 90.000000
_cell_angle_gamma 90.000000
_cell_volume 3970.797794
_symmetry_space_group_name_H-M "P M M N"
_symmetry_group_IT_number 59
_space_group.IT_coordinate_system_code '2'
_symmetry_cell_setting 'orthorhombic'
loop_
_space_group_symop_operation_xyz
x,y,z
1/2-x,1/2-y,z
1/2+x,-y,-z
-x,1/2+y,-z
-x,-y,-z
1/2+x,1/2+y,-z
1/2-x,y,z
x,1/2-y,z
loop_
_atom_site_type_symbol
_atom_site_label
_atom_site_fract_x
_atom_site_fract_y
_atom_site_fract_z
Si Si1 0.427294 0.684090 0.770649
Si Si2 0.920926 0.319269 0.937533
Si Si3 0.926499 0.372133 0.632135
Si Si4 0.580771 0.819178 0.918114
Si Si5 0.572468 0.111761 0.369111
Si Si6 0.924077 0.817336 0.503840
Si Si7 0.570313 0.315738 0.779886
Si Si8 0.073970 0.999555 0.421382
O O1 0.250000 0.683875 0.776518
O O2 0.473102 0.750000 0.757587
O O3 0.494755 0.664483 0.846100
O O4 0.468486 0.644565 0.703906
O O5 0.750000 0.336430 0.944671
O O6 0.922939 0.250000 0.936663
O O7 0.979339 0.336017 0.858776
O O8 0.009070 0.338719 0.007297
O O9 0.750000 0.361237 0.624885
O O10 0.971968 0.353492 0.711985
O O11 0.951100 0.438306 0.614795
O O12 0.012832 0.335927 0.572989
O O13 0.750000 0.836891 0.913486
O O14 0.575985 0.750000 0.919861
O O15 0.750000 0.107302 0.373224
O O16 0.512901 0.148442 0.435846
O O17 0.498556 0.050252 0.376317
O O18 0.750000 0.830891 0.508680
O O19 0.942925 0.750000 0.514040
O O20 0.750000 0.315320 0.783407
O O21 0.524201 0.250000 0.768768
O O22 0.250000 0.008144 0.428551
O O23 0.000000 0.000000 0.500000
#
# Coordination Sequence:
#
# PCOD9450177 Si02
#       8
#     8   8   8   8   8   8   8   8
#     4   9  18  32  49  70  96 125 160 200 241 291
#     4   8  13  23  41  64  92 126 159 190 227 275
#     4  10  20  34  53  73  94 127 168 206 246 291
#     4   9  16  25  40  65  97 130 159 187 227 282
#     4  11  22  36  54  73  94 127 167 207 250 293
#     4  11  23  35  49  72 101 130 159 196 246 300
#     4   8  14  26  46  72  98 124 159 201 239 282
#     4  11  22  36  54  74  96 126 166 212 254 294
#
# _framework density 16.117667999999998
#
# number of rings (size 3 to 8) (size 9 to 14) (size 15 to 20)
#    0.000    2.375    1.250    3.000    0.000    5.000 
#    0.000    1.875    0.000    2.250    0.000    0.875 
#    0.000    0.000    0.000    0.000    0.000    0.000 
#
# Total GULP energy -356826.365482 kJ/mol
# GULP energy per Si atom -5575.411961 kJ/mol
# Density = 1.608098 g / cm^3
# Si number density = 16.117668 Si / 1000 Ang^3
#
#
#
# Elastic Constant Matrix: (Units=GPa)
#
#
# Indices 1 2 3 4 5 6 
#
# 1 38.1083 22.5913 31.0226 0.0000 0.0000 0.0000
# 2 22.5913 44.4037 25.5010 0.0000 0.0000 0.0000
# 3 31.0226 25.5010 125.6029 0.0000 0.0000 0.0000
# 4 0.0000 0.0000 0.0000 2.6228 0.0000 0.0000
# 5 0.0000 0.0000 0.0000 0.0000 8.7720 0.0000
# 6 0.0000 0.0000 0.0000 0.0000 0.0000 19.3852
#
#
#
# Elastic Compliance Matrix: (Units=1/GPa)
#
#
# Indices 1 2 3 4 5 6 
#
# 1 0.042232 -0.017541 -0.006869 0.000000 0.000000 0.000000
# 2 -0.017541 0.032779 -0.002323 0.000000 0.000000 0.000000
# 3 -0.006869 -0.002323 0.010130 0.000000 0.000000 0.000000
# 4 0.000000 0.000000 0.000000 0.381272 0.000000 0.000000
# 5 0.000000 0.000000 0.000000 0.000000 0.113999 0.000000
# 6 0.000000 0.000000 0.000000 0.000000 0.000000 0.051586
#
#
# Mechanical properties :
#
#
# Convention : Reuss Voigt Hill
#
# Bulk Modulus (GPa) = 31.57147 40.70495 36.13821
# Shear Modulus (GPa) = 7.18367 14.75600 10.96984
#
# Velocity S-wave (km/s) = 2.11346 3.02903 2.61168
# Velocity P-wave (km/s) = 5.05828 6.12724 5.61824
#
# Compressibility (1/GPa) = 0.03167417
#
# Stress axis : x y z
#
# Youngs Moduli (GPa) = 23.67877 30.50731 98.71836
#
# Poissons Ratio (x) = 0.53514 0.67814
# Poissons Ratio (y) = 0.41536 0.22928
# Poissons Ratio (z) = 0.16266 0.07086
#
# Static dielectric constant tensor:
#      x y z
#    x 1.540940 0.000000 0.000000 
#    y 0.000000 1.520940 0.000000 
#    z 0.000000 0.000000 1.540470 
# 
# From -- ./inp_files/26436.got.cif
#   From: 2010.05.17/outbox.cif.g08.bks.cpg/sg59_14_cif.got.tgz:26436.got - 2010.06.03 14:40:33.
