data_PCOD9450018
_publ_section_title
;
Structure prediction by ZEFSAII (Michael W. Deem and Ramdas Pophale) SiO2 
 PCOD9450018
Probable space group: P M M N
;
_chemical_formula_sum "Si O2"
_cell_formula_units_Z 48
_cell_length_a 24.021346
_cell_length_b 8.725390
_cell_length_c 13.060659
_cell_angle_alpha 90.000000
_cell_angle_beta 90.000000
_cell_angle_gamma 90.000000
_cell_volume 2737.456819
_symmetry_space_group_name_H-M "P M M N"
_symmetry_group_IT_number 59
_space_group.IT_coordinate_system_code '2'
_symmetry_cell_setting 'orthorhombic'
loop_
_space_group_symop_operation_xyz
x,y,z
1/2-x,1/2-y,z
1/2+x,-y,-z
-x,1/2+y,-z
-x,-y,-z
1/2+x,1/2+y,-z
1/2-x,y,z
x,1/2-y,z
loop_
_atom_site_type_symbol
_atom_site_label
_atom_site_fract_x
_atom_site_fract_y
_atom_site_fract_z
Si Si1 0.499431 0.432406 0.115096
Si Si2 0.113693 0.065282 0.805965
Si Si3 0.685871 0.065175 0.610566
Si Si4 0.115039 0.933323 0.193825
Si Si5 0.184857 0.433557 0.008122
Si Si6 0.814187 0.565061 0.388114
O O1 0.498595 0.250000 0.107559
O O2 0.554564 0.488758 0.173044
O O3 0.444290 0.490684 0.172129
O O4 0.500000 0.500000 0.000000
O O5 0.106560 0.250000 0.802903
O O6 0.144387 0.016109 0.701917
O O7 0.153590 0.030561 0.902310
O O8 0.750000 0.018636 0.633391
O O9 0.684917 0.250000 0.606016
O O10 0.644545 0.016470 0.700774
O O11 0.671073 0.999651 0.499450
O O12 0.108494 0.750000 0.195855
O O13 0.155240 0.979958 0.100624
O O14 0.250000 0.470538 0.001760
O O15 0.179481 0.250000 0.024765
O O16 0.750000 0.519364 0.365584
O O17 0.815242 0.750000 0.391884
#
# Coordination Sequence:
#
# PCOD9450018 Si02
#       6
#     8   8   8   8   8   8
#     4  12  24  39  58  81 110 148 190 232 280 336
#     4  10  20  36  57  82 114 148 185 229 278 332
#     4   9  19  36  57  82 114 149 184 228 280 330
#     4  11  22  37  57  81 111 148 190 234 281 332
#     4  10  20  33  53  82 114 146 180 224 280 338
#     4   9  18  34  58  86 115 148 185 226 275 332
#
# _framework density 17.534523
#
# number of rings (size 3 to 8) (size 9 to 14) (size 15 to 20)
#    0.000    1.833    1.667    3.000    0.000    5.000 
#    0.000    2.500    0.000    3.000    0.000    0.000 
#    0.000    0.000    0.000    0.000    0.000    0.000 
#
# Total GULP energy -268085.639327 kJ/mol
# GULP energy per Si atom -5585.117486 kJ/mol
# Density = 1.749461 g / cm^3
# Si number density = 17.534523 Si / 1000 Ang^3
#
#
#
# Elastic Constant Matrix: (Units=GPa)
#
#
# Indices 1 2 3 4 5 6 
#
# 1 159.1638 57.9105 109.1416 0.0000 0.0000 0.0000
# 2 57.9105 45.8149 54.4344 0.0000 0.0000 0.0000
# 3 109.1416 54.4344 168.0823 0.0000 0.0000 0.0000
# 4 0.0000 0.0000 0.0000 34.0638 0.0000 0.0000
# 5 0.0000 0.0000 0.0000 0.0000 17.3121 0.0000
# 6 0.0000 0.0000 0.0000 0.0000 0.0000 26.4101
#
#
#
# Elastic Compliance Matrix: (Units=1/GPa)
#
#
# Indices 1 2 3 4 5 6 
#
# 1 0.014239 -0.011399 -0.005554 0.000000 0.000000 0.000000
# 2 -0.011399 0.044604 -0.007044 0.000000 0.000000 0.000000
# 3 -0.005554 -0.007044 0.011837 0.000000 0.000000 0.000000
# 4 0.000000 0.000000 0.000000 0.029357 0.000000 0.000000
# 5 0.000000 0.000000 0.000000 0.000000 0.057763 0.000000
# 6 0.000000 0.000000 0.000000 0.000000 0.000000 0.037864
#
#
# Mechanical properties :
#
#
# Convention : Reuss Voigt Hill
#
# Bulk Modulus (GPa) = 44.07874 90.67043 67.37458
# Shear Modulus (GPa) = 19.90290 25.66216 22.78253
#
# Velocity S-wave (km/s) = 3.37273 3.82975 3.60848
# Velocity P-wave (km/s) = 6.35295 8.44854 7.47455
#
# Compressibility (1/GPa) = 0.02268667
#
# Stress axis : x y z
#
# Youngs Moduli (GPa) = 70.23048 22.41948 84.48038
#
# Poissons Ratio (x) = 0.25556 0.46922
# Poissons Ratio (y) = 0.80055 0.59504
# Poissons Ratio (z) = 0.39007 0.15791
#
# Static dielectric constant tensor:
#      x y z
#    x 1.581070 0.000000 0.000000 
#    y 0.000000 1.591820 0.000000 
#    z 0.000000 0.000000 1.570490 
# 
# From -- ./inp_files/14329.got.cif
#   From: 2010.05.17/outbox.cif.g08.bks.cpg/sg59_8_cif.got.tgz:14329.got - 2010.06.03 14:40:33.
