data_PCOD9450828
_publ_section_title
;
Structure prediction by ZEFSAII (Michael W. Deem and Ramdas Pophale) SiO2 
 PCOD9450828
Probable space group: P M M N
;
_chemical_formula_sum "Si O2"
_cell_formula_units_Z 64
_cell_length_a 16.033035
_cell_length_b 7.883325
_cell_length_c 24.461957
_cell_angle_alpha 90.000000
_cell_angle_beta 90.000000
_cell_angle_gamma 90.000000
_cell_volume 3091.835436
_symmetry_space_group_name_H-M "P M M N"
_symmetry_group_IT_number 59
_space_group.IT_coordinate_system_code '2'
_symmetry_cell_setting 'orthorhombic'
loop_
_space_group_symop_operation_xyz
x,y,z
1/2-x,1/2-y,z
1/2+x,-y,-z
-x,1/2+y,-z
-x,-y,-z
1/2+x,1/2+y,-z
1/2-x,y,z
x,1/2-y,z
loop_
_atom_site_type_symbol
_atom_site_label
_atom_site_fract_x
_atom_site_fract_y
_atom_site_fract_z
Si Si1 0.157572 0.542798 0.384300
Si Si2 0.993078 0.049413 0.813137
Si Si3 0.403503 0.051115 0.992746
Si Si4 0.157403 0.544522 0.111530
Si Si5 0.658270 0.951595 0.378322
Si Si6 0.842573 0.447455 0.123754
Si Si7 0.902745 0.452881 0.497170
Si Si8 0.998588 0.041307 0.688942
O O1 0.250000 0.489238 0.367014
O O2 0.156191 0.750000 0.384432
O O3 0.139636 0.488269 0.446550
O O4 0.082863 0.487838 0.344993
O O5 0.977094 0.250000 0.808330
O O6 0.917864 0.979685 0.850463
O O7 0.995629 0.982508 0.751474
O O8 0.081148 0.027809 0.843348
O O9 0.399815 0.250000 0.981201
O O10 0.358131 0.011667 0.049440
O O11 0.500000 0.000000 0.000000
O O12 0.363151 0.961546 0.940585
O O13 0.250000 0.492082 0.129700
O O14 0.154673 0.750000 0.111600
O O15 0.750000 0.023297 0.366246
O O16 0.661408 0.750000 0.368231
O O17 0.581897 0.018227 0.342082
O O18 0.637010 0.976265 0.442027
O O19 0.750000 0.519551 0.134156
O O20 0.841532 0.250000 0.138618
O O21 0.895114 0.250000 0.494915
O O22 0.000000 0.500000 0.500000
O O23 0.999548 0.250000 0.688403
#
# Coordination Sequence:
#
# PCOD9450828 Si02
#       8
#     8   8   8   8   8   8   8   8
#     4   9  17  30  52  81 111 141 178 229 283 335
#     4  10  21  37  60  85 112 152 197 241 283 333
#     4  12  23  37  61  90 119 152 189 231 284 342
#     4  10  21  37  57  86 122 154 187 233 287 339
#     4  10  20  35  55  80 113 151 187 231 286 338
#     4  11  24  41  61  86 118 154 189 234 289 340
#     4  11  20  33  55  82 113 146 184 230 285 344
#     4   9  18  34  54  80 111 146 192 236 279 331
#
# _framework density 20.699677999999999
#
# number of rings (size 3 to 8) (size 9 to 14) (size 15 to 20)
#    0.000    1.750    2.500    2.625    0.000    4.500 
#    0.000    4.375    0.000    0.000    0.000    0.000 
#    0.000    0.000    0.000    0.000    0.000    0.000 
#
# Total GULP energy -357595.063858 kJ/mol
# GULP energy per Si atom -5587.422873 kJ/mol
# Density = 2.065256 g / cm^3
# Si number density = 20.699678 Si / 1000 Ang^3
#
#
#
# Elastic Constant Matrix: (Units=GPa)
#
#
# Indices 1 2 3 4 5 6 
#
# 1 166.5182 -4.2846 56.4954 0.0000 0.0000 0.0000
# 2 -4.2846 23.6421 -9.3163 0.0000 0.0000 0.0000
# 3 56.4954 -9.3163 127.0415 0.0000 0.0000 0.0000
# 4 0.0000 0.0000 0.0000 18.4098 0.0000 0.0000
# 5 0.0000 0.0000 0.0000 0.0000 -1.6228 0.0000
# 6 0.0000 0.0000 0.0000 0.0000 0.0000 14.5197
#
#
#
# Elastic Compliance Matrix: (Units=1/GPa)
#
#
# Indices 1 2 3 4 5 6 
#
# 1 0.007072 0.000044 -0.003142 0.000000 0.000000 0.000000
# 2 0.000044 0.043556 0.003175 0.000000 0.000000 0.000000
# 3 -0.003142 0.003175 0.009501 0.000000 0.000000 0.000000
# 4 0.000000 0.000000 0.000000 0.054319 0.000000 0.000000
# 5 0.000000 0.000000 0.000000 0.000000 -0.616214 0.000000
# 6 0.000000 0.000000 0.000000 0.000000 0.000000 0.068872
#
#
# Mechanical properties :
#
#
# Convention : Reuss Voigt Hill
#
# Bulk Modulus (GPa) = 16.58837 44.77675 30.68256
# Shear Modulus (GPa) = -12.10798 24.54848 6.22025
#
# Velocity S-wave (km/s) = -2.42117 3.44748 1.73537
# Velocity P-wave (km/s) = 0.46385 6.12580 4.34399
#
# Compressibility (1/GPa) = 0.06028319
#
# Stress axis : x y z
#
# Youngs Moduli (GPa) = 141.39374 22.95873 105.24680
#
# Poissons Ratio (x) = -0.00100 0.33068
# Poissons Ratio (y) = -0.00617 -0.33413
# Poissons Ratio (z) = 0.44425 -0.07289
#
# Static dielectric constant tensor:
#      x y z
#    x 1.738460 0.000000 0.000000 
#    y 0.000000 1.761870 0.000000 
#    z 0.000000 0.000000 1.698590 
# 
# From -- ./inp_files/32155.got.cif
#   From: 2010.05.17/outbox.cif.g08.bks.cpg/sg59_17_cif.got.tgz:32155.got - 2010.06.03 14:40:33.
