data_PCOD9450022
_publ_section_title
;
Structure prediction by ZEFSAII (Michael W. Deem and Ramdas Pophale) SiO2 
 PCOD9450022
Probable space group: P M M N
;
_chemical_formula_sum "Si O2"
_cell_formula_units_Z 32
_cell_length_a 9.071329
_cell_length_b 16.811105
_cell_length_c 10.878184
_cell_angle_alpha 90.000000
_cell_angle_beta 90.000000
_cell_angle_gamma 90.000000
_cell_volume 1658.912881
_symmetry_space_group_name_H-M "P M M N"
_symmetry_group_IT_number 59
_space_group.IT_coordinate_system_code '2'
_symmetry_cell_setting 'orthorhombic'
loop_
_space_group_symop_operation_xyz
x,y,z
1/2-x,1/2-y,z
1/2+x,-y,-z
-x,1/2+y,-z
-x,-y,-z
1/2+x,1/2+y,-z
1/2-x,y,z
x,1/2-y,z
loop_
_atom_site_type_symbol
_atom_site_label
_atom_site_fract_x
_atom_site_fract_y
_atom_site_fract_z
Si Si1 0.571271 0.250000 0.604457
Si Si2 0.574533 0.250000 0.889678
Si Si3 0.915759 0.001229 0.193020
Si Si4 0.584957 0.886175 0.962772
Si Si5 0.572136 0.071200 0.579152
O O1 0.750000 0.250000 0.604390
O O2 0.521645 0.250000 0.747887
O O3 0.528752 0.163373 0.548933
O O4 0.750000 0.250000 0.885606
O O5 0.514525 0.323617 0.966520
O O6 0.750000 0.015818 0.241883
O O7 0.004863 0.080374 0.157904
O O8 0.010893 0.947763 0.284896
O O9 0.899378 0.955582 0.064218
O O10 0.750000 0.856599 0.935975
O O11 0.750000 0.065904 0.575268
O O12 0.500000 0.000000 0.500000
#
# Coordination Sequence:
#
# PCOD9450022 Si02
#       5
#     4   4   8   8   8
#     4   9  20  37  60  85 116 153 197 243 297 360
#     4  11  19  33  56  85 116 153 193 239 295 358
#     4  10  20  35  55  82 113 150 190 235 291 352
#     4  10  20  33  53  83 117 149 185 236 290 347
#     4  11  22  40  62  88 118 157 202 252 303 360
#
# _framework density 19.289740999999999
#
# number of rings (size 3 to 8) (size 9 to 14) (size 15 to 20)
#    0.000    1.750    2.500    2.625    0.000    2.000 
#    0.000    3.750    0.000    1.500    0.000    0.000 
#    0.000    0.000    0.000    0.000    0.000    0.000 
#
# Total GULP energy -178237.577302 kJ/mol
# GULP energy per Si atom -5569.924291 kJ/mol
# Density = 1.924584 g / cm^3
# Si number density = 19.289741 Si / 1000 Ang^3
#
#
#
# Elastic Constant Matrix: (Units=GPa)
#
#
# Indices 1 2 3 4 5 6 
#
# 1 112.3107 47.5765 19.0348 0.0000 0.0000 0.0000
# 2 47.5765 127.4127 33.8637 0.0000 0.0000 0.0000
# 3 19.0348 33.8637 24.4985 0.0000 0.0000 0.0000
# 4 0.0000 0.0000 0.0000 22.3660 0.0000 0.0000
# 5 0.0000 0.0000 0.0000 0.0000 26.1365 0.0000
# 6 0.0000 0.0000 0.0000 0.0000 0.0000 19.7649
#
#
#
# Elastic Compliance Matrix: (Units=1/GPa)
#
#
# Indices 1 2 3 4 5 6 
#
# 1 0.010880 -0.002870 -0.004486 0.000000 0.000000 0.000000
# 2 -0.002870 0.013164 -0.015966 0.000000 0.000000 0.000000
# 3 -0.004486 -0.015966 0.066373 0.000000 0.000000 0.000000
# 4 0.000000 0.000000 0.000000 0.044711 0.000000 0.000000
# 5 0.000000 0.000000 0.000000 0.000000 0.038261 0.000000
# 6 0.000000 0.000000 0.000000 0.000000 0.000000 0.050595
#
#
# Mechanical properties :
#
#
# Convention : Reuss Voigt Hill
#
# Bulk Modulus (GPa) = 22.84513 51.68578 37.26546
# Shear Modulus (GPa) = 17.53047 24.56993 21.05020
#
# Velocity S-wave (km/s) = 3.01790 3.57281 3.30701
# Velocity P-wave (km/s) = 4.90025 6.62364 5.82602
#
# Compressibility (1/GPa) = 0.04377301
#
# Stress axis : x y z
#
# Youngs Moduli (GPa) = 91.91077 75.96672 15.06638
#
# Poissons Ratio (x) = 0.21806 0.06759
# Poissons Ratio (y) = 0.26382 0.24054
# Poissons Ratio (z) = 0.41230 1.21285
#
# Static dielectric constant tensor:
#      x y z
#    x 1.695020 0.000000 0.000000 
#    y 0.000000 1.536610 0.000000 
#    z 0.000000 0.000000 1.676930 
# 
# From -- ./inp_files/13673.got.cif
#   From: 2010.05.17/outbox.cif.g08.bks.cpg/sg59_7_cif.got.tgz:13673.got - 2010.06.03 14:40:33.
