data_PCOD9450437
_publ_section_title
;
Structure prediction by ZEFSAII (Michael W. Deem and Ramdas Pophale) SiO2 
 PCOD9450437
Probable space group: P M M N
;
_chemical_formula_sum "Si O2"
_cell_formula_units_Z 64
_cell_length_a 14.917934
_cell_length_b 8.014616
_cell_length_c 25.078881
_cell_angle_alpha 90.000000
_cell_angle_beta 90.000000
_cell_angle_gamma 90.000000
_cell_volume 2998.468945
_symmetry_space_group_name_H-M "P M M N"
_symmetry_group_IT_number 59
_space_group.IT_coordinate_system_code '2'
_symmetry_cell_setting 'orthorhombic'
loop_
_space_group_symop_operation_xyz
x,y,z
1/2-x,1/2-y,z
1/2+x,-y,-z
-x,1/2+y,-z
-x,-y,-z
1/2+x,1/2+y,-z
1/2-x,y,z
x,1/2-y,z
loop_
_atom_site_type_symbol
_atom_site_label
_atom_site_fract_x
_atom_site_fract_y
_atom_site_fract_z
Si Si1 0.348912 0.940974 0.752717
Si Si2 0.653635 0.560265 0.131574
Si Si3 0.349831 0.052777 0.590849
Si Si4 0.451899 0.944928 0.254940
Si Si5 0.508308 0.946340 0.938914
Si Si6 0.535177 0.044328 0.631441
Si Si7 0.145940 0.952106 0.147847
Si Si8 0.854893 0.050572 0.528346
O O1 0.250000 0.007071 0.735559
O O2 0.356615 0.750000 0.734380
O O3 0.347927 0.943755 0.817182
O O4 0.440325 0.038462 0.741760
O O5 0.750000 0.539441 0.103880
O O6 0.649315 0.750000 0.152614
O O7 0.571413 0.532593 0.093447
O O8 0.250000 0.979793 0.598736
O O9 0.344270 0.250000 0.601610
O O10 0.432297 0.985939 0.625033
O O11 0.375216 0.030367 0.528666
O O12 0.428248 0.750000 0.253998
O O13 0.422261 0.012990 0.312658
O O14 0.410170 0.013930 0.200024
O O15 0.495147 0.750000 0.935921
O O16 0.598583 0.989873 0.906570
O O17 0.500000 0.000000 0.000000
O O18 0.535424 0.250000 0.631853
O O19 0.587755 0.992049 0.578546
O O20 0.250000 0.002246 0.151583
O O21 0.142336 0.750000 0.147543
O O22 0.750000 0.020599 0.539143
O O23 0.867845 0.250000 0.522418
#
# Coordination Sequence:
#
# PCOD9450437 Si02
#       8
#     8   8   8   8   8   8   8   8
#     4  10  20  34  54  81 112 146 182 223 277 336
#     4  10  20  36  60  88 117 148 184 227 277 335
#     4   9  17  30  48  70 100 138 179 224 276 334
#     4  10  20  35  57  82 111 149 193 237 282 338
#     4  12  25  41  64  91 122 156 192 238 288 340
#     4   9  18  31  49  76 105 137 180 228 276 329
#     4  10  22  41  63  87 118 156 198 242 288 340
#     4   9  17  30  49  72 100 134 176 227 280 333
#
# _framework density 21.344225999999999
#
# number of rings (size 3 to 8) (size 9 to 14) (size 15 to 20)
#    0.000    2.125    1.250    2.250    0.000    3.250 
#    0.000    5.000    0.000    1.500    0.000    1.750 
#    0.000    0.000    0.000    0.000    0.000    0.000 
#
# Total GULP energy -357101.320219 kJ/mol
# GULP energy per Si atom -5579.708128 kJ/mol
# Density = 2.129565 g / cm^3
# Si number density = 21.344226 Si / 1000 Ang^3
#
#
#
# Elastic Constant Matrix: (Units=GPa)
#
#
# Indices 1 2 3 4 5 6 
#
# 1 76.4299 5.6083 44.3191 0.0000 0.0000 0.0000
# 2 5.6083 34.8747 1.6389 0.0000 0.0000 0.0000
# 3 44.3191 1.6389 117.3022 0.0000 0.0000 0.0000
# 4 0.0000 0.0000 0.0000 17.0886 0.0000 0.0000
# 5 0.0000 0.0000 0.0000 0.0000 -1.6678 0.0000
# 6 0.0000 0.0000 0.0000 0.0000 0.0000 12.9841
#
#
#
# Elastic Compliance Matrix: (Units=1/GPa)
#
#
# Indices 1 2 3 4 5 6 
#
# 1 0.016957 -0.002427 -0.006373 0.000000 0.000000 0.000000
# 2 -0.002427 0.029040 0.000511 0.000000 0.000000 0.000000
# 3 -0.006373 0.000511 0.010926 0.000000 0.000000 0.000000
# 4 0.000000 0.000000 0.000000 0.058519 0.000000 0.000000
# 5 0.000000 0.000000 0.000000 0.000000 -0.599575 0.000000
# 6 0.000000 0.000000 0.000000 0.000000 0.000000 0.077017
#
#
# Mechanical properties :
#
#
# Convention : Reuss Voigt Hill
#
# Bulk Modulus (GPa) = 24.78590 36.85992 30.82291
# Shear Modulus (GPa) = -13.25947 17.48366 2.11210
#
# Velocity S-wave (km/s) = -2.49513 2.86515 0.99584
# Velocity P-wave (km/s) = 1.82668 5.31528 3.97423
#
# Compressibility (1/GPa) = 0.04034552
#
# Stress axis : x y z
#
# Youngs Moduli (GPa) = 58.97102 34.43476 91.52749
#
# Poissons Ratio (x) = 0.08359 0.58330
# Poissons Ratio (y) = 0.14315 -0.04681
# Poissons Ratio (z) = 0.37582 -0.01761
#
# Static dielectric constant tensor:
#      x y z
#    x 1.799910 0.000000 0.000000 
#    y 0.000000 1.766250 0.000000 
#    z 0.000000 0.000000 1.754520 
# 
# From -- ./inp_files/32256.got.cif
#   From: 2010.05.17/outbox.cif.g08.bks.cpg/sg59_17_cif.got.tgz:32256.got - 2010.06.03 14:40:33.
