data_PCOD9450228
_publ_section_title
;
Structure prediction by ZEFSAII (Michael W. Deem and Ramdas Pophale) SiO2 
 PCOD9450228
Probable space group: P M M N
;
_chemical_formula_sum "Si O2"
_cell_formula_units_Z 48
_cell_length_a 8.660398
_cell_length_b 30.519206
_cell_length_c 10.424057
_cell_angle_alpha 90.000000
_cell_angle_beta 90.000000
_cell_angle_gamma 90.000000
_cell_volume 2755.166563
_symmetry_space_group_name_H-M "P M M N"
_symmetry_group_IT_number 59
_space_group.IT_coordinate_system_code '2'
_symmetry_cell_setting 'orthorhombic'
loop_
_space_group_symop_operation_xyz
x,y,z
1/2-x,1/2-y,z
1/2+x,-y,-z
-x,1/2+y,-z
-x,-y,-z
1/2+x,1/2+y,-z
1/2-x,y,z
x,1/2-y,z
loop_
_atom_site_type_symbol
_atom_site_label
_atom_site_fract_x
_atom_site_fract_y
_atom_site_fract_z
Si Si1 0.063721 0.300492 0.389890
Si Si2 0.936273 0.199642 0.111234
Si Si3 0.564587 0.532920 0.395129
Si Si4 0.435532 0.465810 0.897890
Si Si5 0.436914 0.366351 0.613286
Si Si6 0.564445 0.131273 0.893650
O O1 0.250000 0.301821 0.384371
O O2 0.017179 0.250000 0.414809
O O3 0.013536 0.332835 0.503005
O O4 0.999021 0.313202 0.250900
O O5 0.750000 0.199150 0.115547
O O6 0.985515 0.250000 0.086251
O O7 0.985813 0.166410 0.000245
O O8 0.500000 0.500000 0.500000
O O9 0.750000 0.531139 0.399918
O O10 0.517532 0.522273 0.248515
O O11 0.518537 0.583507 0.419103
O O12 0.250000 0.465140 0.902726
O O13 0.497588 0.416875 0.922530
O O14 0.500000 0.500000 0.000000
O O15 0.250000 0.365106 0.623142
O O16 0.505833 0.355812 0.752340
O O17 0.750000 0.129067 0.893342
#
# Coordination Sequence:
#
# PCOD9450228 Si02
#       6
#     8   8   8   8   8   8
#     4   9  18  33  53  76 101 131 170 213 256 305
#     4   9  19  35  52  73 104 137 170 212 257 301
#     4   9  19  34  51  72  99 130 164 203 246 294
#     4  10  21  37  55  77 105 135 169 210 255 303
#     4   9  19  35  51  72 103 133 164 207 255 300
#     4  10  20  34  53  77 103 134 173 212 253 304
#
# _framework density 17.421814999999999
#
# number of rings (size 3 to 8) (size 9 to 14) (size 15 to 20)
#    0.000    2.667    0.000    2.000    0.000    7.333 
#    0.000    3.333    0.000    0.000    0.000    0.000 
#    0.000    0.000    0.000    0.000    0.000    0.000 
#
# Total GULP energy -267720.097824 kJ/mol
# GULP energy per Si atom -5577.502038 kJ/mol
# Density = 1.738216 g / cm^3
# Si number density = 17.421815 Si / 1000 Ang^3
#
#
#
# Elastic Constant Matrix: (Units=GPa)
#
#
# Indices 1 2 3 4 5 6 
#
# 1 22.1827 33.8959 39.7889 0.0000 0.0000 0.0000
# 2 33.8959 124.5079 140.9398 0.0000 0.0000 0.0000
# 3 39.7889 140.9398 188.2995 0.0000 0.0000 0.0000
# 4 0.0000 0.0000 0.0000 44.7980 0.0000 0.0000
# 5 0.0000 0.0000 0.0000 0.0000 33.9832 0.0000
# 6 0.0000 0.0000 0.0000 0.0000 0.0000 25.1114
#
#
#
# Elastic Compliance Matrix: (Units=1/GPa)
#
#
# Indices 1 2 3 4 5 6 
#
# 1 0.077611 -0.016792 -0.003831 0.000000 0.000000 0.000000
# 2 -0.016792 0.056220 -0.038532 0.000000 0.000000 0.000000
# 3 -0.003831 -0.038532 0.034961 0.000000 0.000000 0.000000
# 4 0.000000 0.000000 0.000000 0.022322 0.000000 0.000000
# 5 0.000000 0.000000 0.000000 0.000000 0.029426 0.000000
# 6 0.000000 0.000000 0.000000 0.000000 0.000000 0.039822
#
#
# Mechanical properties :
#
#
# Convention : Reuss Voigt Hill
#
# Bulk Modulus (GPa) = 19.80909 84.91545 52.36227
# Shear Modulus (GPa) = 12.64227 28.80291 20.72259
#
# Velocity S-wave (km/s) = 2.69673 4.07045 3.45260
# Velocity P-wave (km/s) = 4.59254 8.42248 6.78342
#
# Compressibility (1/GPa) = 0.05048187
#
# Stress axis : x y z
#
# Youngs Moduli (GPa) = 12.88482 17.78733 28.60369
#
# Poissons Ratio (x) = 0.29869 0.10958
# Poissons Ratio (y) = 0.21636 1.10214
# Poissons Ratio (z) = 0.04936 0.68537
#
# Static dielectric constant tensor:
#      x y z
#    x 1.586000 0.000000 0.000000 
#    y 0.000000 1.581210 0.000000 
#    z 0.000000 0.000000 1.567860 
# 
# From -- ./inp_files/6198.got.cif
#   From: 2010.05.17/outbox.cif.g08.bks.cpg/sg59_4_cif.got.tgz:6198.got - 2010.06.03 14:40:33.
