data_PCOD9450359
_publ_section_title
;
Structure prediction by ZEFSAII (Michael W. Deem and Ramdas Pophale) SiO2 
 PCOD9450359
Probable space group: P M M N
;
_chemical_formula_sum "Si O2"
_cell_formula_units_Z 58
_cell_length_a 30.219833
_cell_length_b 7.859522
_cell_length_c 12.475354
_cell_angle_alpha 90.000000
_cell_angle_beta 90.000000
_cell_angle_gamma 90.000000
_cell_volume 2963.064272
_symmetry_space_group_name_H-M "P M M N"
_symmetry_group_IT_number 59
_space_group.IT_coordinate_system_code '2'
_symmetry_cell_setting 'orthorhombic'
loop_
_space_group_symop_operation_xyz
x,y,z
1/2-x,1/2-y,z
1/2+x,-y,-z
-x,1/2+y,-z
-x,-y,-z
1/2+x,1/2+y,-z
1/2-x,y,z
x,1/2-y,z
loop_
_atom_site_type_symbol
_atom_site_label
_atom_site_fract_x
_atom_site_fract_y
_atom_site_fract_z
Si Si1 0.886945 0.454508 0.222355
Si Si2 0.699749 0.546549 0.085494
Si Si3 0.095017 0.553955 0.169327
Si Si4 0.812802 0.945847 0.832607
Si Si5 0.750000 0.250000 0.766648
Si Si6 0.548774 0.045097 0.040043
Si Si7 0.532498 0.551887 0.651874
Si Si8 0.064840 0.543616 0.572647
O O1 0.889705 0.250000 0.225438
O O2 0.840326 0.493409 0.164133
O O3 0.897097 0.511787 0.344151
O O4 0.928376 0.516489 0.149266
O O5 0.750000 0.481527 0.109704
O O6 0.701486 0.750000 0.092078
O O7 0.689720 0.506487 0.960285
O O8 0.108115 0.750000 0.156225
O O9 0.137040 0.451479 0.207526
O O10 0.080736 0.484774 0.054489
O O11 0.054096 0.542940 0.249210
O O12 0.797192 0.750000 0.823141
O O13 0.787367 0.096645 0.773858
O O14 0.549701 0.250000 0.044174
O O15 0.500000 0.000000 0.000000
O O16 0.529604 0.750000 0.680520
O O17 0.563166 0.527989 0.547134
O O18 0.483078 0.494294 0.621944
O O19 0.065447 0.750000 0.563635
#
# Coordination Sequence:
#
# PCOD9450359 Si02
#       8
#     8   8   8   8   2   8   8   8
#     4  10  20  34  54  78 110 145 185 230 280 343
#     4  10  21  35  52  79 110 145 187 234 281 336
#     4  11  21  35  54  81 114 152 191 233 286 345
#     4  11  22  36  56  84 116 152 194 237 290 347
#     4  12  22  36  60  82 116 154 194 244 292 342
#     4  10  21  33  49  75 112 152 186 222 277 344
#     4  10  20  35  57  79 109 146 190 241 286 342
#     4   9  19  36  55  80 109 145 189 239 290 340
#
# _framework density 19.574328999999999
#
# number of rings (size 3 to 8) (size 9 to 14) (size 15 to 20)
#    0.000    1.793    2.759    1.862    0.966    4.138 
#    0.000    0.000    0.000    0.000    1.793    0.000 
#    0.000    0.000    0.000    0.000    0.000    0.000 
#
# Total GULP energy -322888.637413 kJ/mol
# GULP energy per Si atom -5567.045473 kJ/mol
# Density = 1.952978 g / cm^3
# Si number density = 19.574329 Si / 1000 Ang^3
#
#
#
# Elastic Constant Matrix: (Units=GPa)
#
#
# Indices 1 2 3 4 5 6 
#
# 1 52.3048 1.9544 -14.7989 0.0000 0.0000 0.0000
# 2 1.9544 52.3950 -5.5546 0.0000 0.0000 0.0000
# 3 -14.7989 -5.5546 37.4450 0.0000 0.0000 0.0000
# 4 0.0000 0.0000 0.0000 18.4515 0.0000 0.0000
# 5 0.0000 0.0000 0.0000 0.0000 -17.6308 0.0000
# 6 0.0000 0.0000 0.0000 0.0000 0.0000 15.6236
#
#
#
# Elastic Compliance Matrix: (Units=1/GPa)
#
#
# Indices 1 2 3 4 5 6 
#
# 1 0.021526 0.000101 0.008522 0.000000 0.000000 0.000000
# 2 0.000101 0.019391 0.002916 0.000000 0.000000 0.000000
# 3 0.008522 0.002916 0.030507 0.000000 0.000000 0.000000
# 4 0.000000 0.000000 0.000000 0.054196 0.000000 0.000000
# 5 0.000000 0.000000 0.000000 0.000000 -0.056719 0.000000
# 6 0.000000 0.000000 0.000000 0.000000 0.000000 0.064006
#
#
# Mechanical properties :
#
#
# Convention : Reuss Voigt Hill
#
# Bulk Modulus (GPa) = 10.58173 11.70518 11.14346
# Shear Modulus (GPa) = 35.37838 13.99180 24.68509
#
# Velocity S-wave (km/s) = 4.25595 2.67648 3.55504
# Velocity P-wave (km/s) = 5.43769 3.94262 4.74935
#
# Compressibility (1/GPa) = 0.09450246
#
# Stress axis : x y z
#
# Youngs Moduli (GPa) = 46.45489 51.56979 32.77979
#
# Poissons Ratio (x) = -0.00519 -0.27936
# Poissons Ratio (y) = -0.00467 -0.09559
# Poissons Ratio (z) = -0.39591 -0.15039
#
# Static dielectric constant tensor:
#      x y z
#    x 1.728900 0.000000 0.000000 
#    y 0.000000 1.699900 0.000000 
#    z 0.000000 0.000000 1.686710 
# 
# From -- ./inp_files/19138.got.cif
#   From: 2010.05.17/outbox.cif.g08.bks.cpg/sg59_10_cif.got.tgz:19138.got - 2010.06.03 14:40:33.
