data_PCOD9450878
_publ_section_title
;
Structure prediction by ZEFSAII (Michael W. Deem and Ramdas Pophale) SiO2 
 PCOD9450878
Probable space group: P M M N
;
_chemical_formula_sum "Si O2"
_cell_formula_units_Z 40
_cell_length_a 7.734094
_cell_length_b 17.932438
_cell_length_c 13.026465
_cell_angle_alpha 90.000000
_cell_angle_beta 90.000000
_cell_angle_gamma 90.000000
_cell_volume 1806.655556
_symmetry_space_group_name_H-M "P M M N"
_symmetry_group_IT_number 59
_space_group.IT_coordinate_system_code '2'
_symmetry_cell_setting 'orthorhombic'
loop_
_space_group_symop_operation_xyz
x,y,z
1/2-x,1/2-y,z
1/2+x,-y,-z
-x,1/2+y,-z
-x,-y,-z
1/2+x,1/2+y,-z
1/2-x,y,z
x,1/2-y,z
loop_
_atom_site_type_symbol
_atom_site_label
_atom_site_fract_x
_atom_site_fract_y
_atom_site_fract_z
Si Si1 0.457033 0.161845 0.063464
Si Si2 0.449712 0.392665 0.278258
Si Si3 0.951619 0.164312 0.835270
Si Si4 0.462225 0.167402 0.490495
Si Si5 0.551743 0.554346 0.338914
O O1 0.250000 0.151342 0.054550
O O2 0.490909 0.250000 0.077435
O O3 0.524493 0.120740 0.165186
O O4 0.532544 0.139456 0.953573
O O5 0.250000 0.368072 0.269612
O O6 0.522774 0.346996 0.374441
O O7 0.456275 0.478712 0.310416
O O8 0.750000 0.163917 0.806902
O O9 0.015966 0.250000 0.829538
O O10 0.046326 0.110151 0.757458
O O11 0.250000 0.165186 0.491498
O O12 0.513182 0.250000 0.526314
O O13 0.520136 0.101353 0.565292
O O14 0.750000 0.533790 0.361559
#
# Coordination Sequence:
#
# PCOD9450878 Si02
#       5
#     8   8   8   8   8
#     4   9  18  34  57  82 106 137 179 223 268 320
#     4  10  20  35  56  81 110 141 175 220 270 319
#     4  10  21  37  57  80 107 140 179 224 270 315
#     4   9  18  34  57  82 106 137 179 223 267 317
#     4  11  22  35  54  80 112 147 180 217 262 316
#
# _framework density 22.140356000000001
#
# number of rings (size 3 to 8) (size 9 to 14) (size 15 to 20)
#    0.000    2.200    0.000    3.000    0.000    6.000 
#    0.000    1.000    0.000    4.200    0.000    0.000 
#    0.000    0.000    0.000    0.000    0.000    0.000 
#
# Total GULP energy -223474.055219 kJ/mol
# GULP energy per Si atom -5586.851380 kJ/mol
# Density = 2.208996 g / cm^3
# Si number density = 22.140356 Si / 1000 Ang^3
#
#
#
# Elastic Constant Matrix: (Units=GPa)
#
#
# Indices 1 2 3 4 5 6 
#
# 1 37.8353 -7.6081 -3.3519 0.0000 0.0000 0.0000
# 2 -7.6081 37.9724 3.1749 0.0000 0.0000 0.0000
# 3 -3.3519 3.1749 72.0544 0.0000 0.0000 0.0000
# 4 0.0000 0.0000 0.0000 68.7017 0.0000 0.0000
# 5 0.0000 0.0000 0.0000 0.0000 2.2528 0.0000
# 6 0.0000 0.0000 0.0000 0.0000 0.0000 2.0470
#
#
#
# Elastic Compliance Matrix: (Units=1/GPa)
#
#
# Indices 1 2 3 4 5 6 
#
# 1 0.027618 0.005446 0.001045 0.000000 0.000000 0.000000
# 2 0.005446 0.027506 -0.000959 0.000000 0.000000 0.000000
# 3 0.001045 -0.000959 0.013969 0.000000 0.000000 0.000000
# 4 0.000000 0.000000 0.000000 0.014556 0.000000 0.000000
# 5 0.000000 0.000000 0.000000 0.000000 0.443893 0.000000
# 6 0.000000 0.000000 0.000000 0.000000 0.000000 0.488509
#
#
# Mechanical properties :
#
#
# Convention : Reuss Voigt Hill
#
# Bulk Modulus (GPa) = 12.47532 14.69908 13.58720
# Shear Modulus (GPa) = 4.84634 24.97679 14.91157
#
# Velocity S-wave (km/s) = 1.48110 3.36238 2.59801
# Velocity P-wave (km/s) = 2.92776 4.66129 3.89226
#
# Compressibility (1/GPa) = 0.08015824
#
# Stress axis : x y z
#
# Youngs Moduli (GPa) = 36.20817 36.35535 71.58581
#
# Poissons Ratio (x) = -0.19800 -0.07479
# Poissons Ratio (y) = -0.19720 0.06862
# Poissons Ratio (z) = -0.03783 0.03485
#
# Static dielectric constant tensor:
#      x y z
#    x 1.824910 0.000000 0.000000 
#    y 0.000000 1.776490 0.000000 
#    z 0.000000 0.000000 1.817490 
# 
# From -- ./inp_files/13812.got.cif
#   From: 2010.05.17/outbox.cif.g08.bks.cpg/sg59_7_cif.got.tgz:13812.got - 2010.06.03 14:40:33.
