data_PCOD9450452
_publ_section_title
;
Structure prediction by ZEFSAII (Michael W. Deem and Ramdas Pophale) SiO2 
 PCOD9450452
Probable space group: P M M N
;
_chemical_formula_sum "Si O2"
_cell_formula_units_Z 64
_cell_length_a 11.816740
_cell_length_b 13.194938
_cell_length_c 19.593382
_cell_angle_alpha 90.000000
_cell_angle_beta 90.000000
_cell_angle_gamma 90.000000
_cell_volume 3055.022686
_symmetry_space_group_name_H-M "P M M N"
_symmetry_group_IT_number 59
_space_group.IT_coordinate_system_code '2'
_symmetry_cell_setting 'orthorhombic'
loop_
_space_group_symop_operation_xyz
x,y,z
1/2-x,1/2-y,z
1/2+x,-y,-z
-x,1/2+y,-z
-x,-y,-z
1/2+x,1/2+y,-z
1/2-x,y,z
x,1/2-y,z
loop_
_atom_site_type_symbol
_atom_site_label
_atom_site_fract_x
_atom_site_fract_y
_atom_site_fract_z
Si Si1 0.876122 0.917210 0.140542
Si Si2 0.629262 0.585662 0.755072
Si Si3 0.547999 0.364414 0.741242
Si Si4 0.877039 0.629782 0.988143
Si Si5 0.485886 0.131813 0.582913
Si Si6 0.953393 0.364939 0.133178
Si Si7 0.123085 0.562099 0.537256
Si Si8 0.376968 0.132211 0.404530
O O1 0.750000 0.875681 0.145643
O O2 0.951128 0.873879 0.201450
O O3 0.872757 0.039497 0.143886
O O4 0.918772 0.890729 0.064783
O O5 0.750000 0.619166 0.783444
O O6 0.622614 0.463215 0.756303
O O7 0.531213 0.632804 0.799829
O O8 0.620636 0.617599 0.676869
O O9 0.596692 0.250000 0.743906
O O10 0.501853 0.379549 0.663970
O O11 0.750000 0.584479 0.980443
O O12 0.866044 0.750000 0.981282
O O13 0.965633 0.602672 0.929799
O O14 0.465984 0.250000 0.569438
O O15 0.597360 0.095322 0.540856
O O16 0.389037 0.057721 0.553690
O O17 0.909908 0.250000 0.122254
O O18 0.250000 0.596164 0.557106
O O19 0.005147 0.600105 0.572426
O O20 0.250000 0.089527 0.424769
O O21 0.371587 0.250000 0.421695
#
# Coordination Sequence:
#
# PCOD9450452 Si02
#       8
#     8   8   8   8   8   8   8   8
#     4  10  21  36  56  82 116 156 199 247 300 355
#     4  10  20  36  58  84 115 154 202 249 295 354
#     4  10  21  39  61  86 115 153 197 242 296 360
#     4   9  17  31  54  84 113 146 193 247 302 359
#     4  10  23  43  63  88 124 165 203 246 306 375
#     4  10  20  34  54  81 115 155 200 250 300 352
#     4  11  24  42  67  98 128 158 203 259 312 368
#     4  10  21  39  62  88 124 168 208 248 302 368
#
# _framework density 20.949109
#
# number of rings (size 3 to 8) (size 9 to 14) (size 15 to 20)
#    0.000    2.000    1.250    1.875    0.000    6.750 
#    0.000    2.500    0.000    1.500    0.000    3.500 
#    0.000    0.000    0.000    0.000    0.000    0.000 
#
# Total GULP energy -356525.793585 kJ/mol
# GULP energy per Si atom -5570.715525 kJ/mol
# Density = 2.090143 g / cm^3
# Si number density = 20.949109 Si / 1000 Ang^3
#
#
#
# Elastic Constant Matrix: (Units=GPa)
#
#
# Indices 1 2 3 4 5 6 
#
# 1 115.1898 26.2933 46.9661 0.0000 0.0000 0.0000
# 2 26.2933 83.7960 12.2697 0.0000 0.0000 0.0000
# 3 46.9661 12.2697 99.8368 0.0000 0.0000 0.0000
# 4 0.0000 0.0000 0.0000 37.1327 0.0000 0.0000
# 5 0.0000 0.0000 0.0000 0.0000 8.6325 0.0000
# 6 0.0000 0.0000 0.0000 0.0000 0.0000 -33.0693
#
#
#
# Elastic Compliance Matrix: (Units=1/GPa)
#
#
# Indices 1 2 3 4 5 6 
#
# 1 0.011366 -0.002835 -0.004999 0.000000 0.000000 0.000000
# 2 -0.002835 0.012859 -0.000247 0.000000 0.000000 0.000000
# 3 -0.004999 -0.000247 0.012398 0.000000 0.000000 0.000000
# 4 0.000000 0.000000 0.000000 0.026930 0.000000 0.000000
# 5 0.000000 0.000000 0.000000 0.000000 0.115841 0.000000
# 6 0.000000 0.000000 0.000000 0.000000 0.000000 -0.030239
#
#
# Mechanical properties :
#
#
# Convention : Reuss Voigt Hill
#
# Bulk Modulus (GPa) = 48.86739 52.20896 50.53817
# Shear Modulus (GPa) = 29.04649 16.75875 22.90262
#
# Velocity S-wave (km/s) = 3.72765 2.83145 3.31002
# Velocity P-wave (km/s) = 6.47337 5.97205 6.22776
#
# Compressibility (1/GPa) = 0.02046354
#
# Stress axis : x y z
#
# Youngs Moduli (GPa) = 87.97796 77.76458 80.65660
#
# Poissons Ratio (x) = 0.22043 0.40318
# Poissons Ratio (y) = 0.24938 0.01991
# Poissons Ratio (z) = 0.43978 0.01920
#
# Static dielectric constant tensor:
#      x y z
#    x 1.753980 0.000000 0.000000 
#    y 0.000000 1.811460 0.000000 
#    z 0.000000 0.000000 1.750640 
# 
# From -- ./inp_files/27091.got.cif
#   From: 2010.05.17/outbox.cif.g08.bks.cpg/sg59_14_cif.got.tgz:27091.got - 2010.06.03 14:40:33.
