data_PCOD9450875
_publ_section_title
;
Structure prediction by ZEFSAII (Michael W. Deem and Ramdas Pophale) SiO2 
 PCOD9450875
Probable space group: P M M N
;
_chemical_formula_sum "Si O2"
_cell_formula_units_Z 64
_cell_length_a 19.826765
_cell_length_b 8.946203
_cell_length_c 20.767288
_cell_angle_alpha 90.000000
_cell_angle_beta 90.000000
_cell_angle_gamma 90.000000
_cell_volume 3683.582435
_symmetry_space_group_name_H-M "P M M N"
_symmetry_group_IT_number 59
_space_group.IT_coordinate_system_code '2'
_symmetry_cell_setting 'orthorhombic'
loop_
_space_group_symop_operation_xyz
x,y,z
1/2-x,1/2-y,z
1/2+x,-y,-z
-x,1/2+y,-z
-x,-y,-z
1/2+x,1/2+y,-z
1/2-x,y,z
x,1/2-y,z
loop_
_atom_site_type_symbol
_atom_site_label
_atom_site_fract_x
_atom_site_fract_y
_atom_site_fract_z
Si Si1 0.671334 0.071201 0.435195
Si Si2 0.573931 0.429054 0.677043
Si Si3 0.072604 0.929514 0.681773
Si Si4 0.671037 0.927797 0.933215
Si Si5 0.420596 0.071322 0.819291
Si Si6 0.829769 0.927749 0.571711
Si Si7 0.420895 0.927838 0.174741
Si Si8 0.829731 0.071957 0.070437
O O1 0.750000 0.037614 0.421540
O O2 0.665858 0.250000 0.445793
O O3 0.624370 0.031565 0.375120
O O4 0.651864 0.987661 0.500773
O O5 0.567343 0.250000 0.672263
O O6 0.501012 0.503772 0.666821
O O7 0.626590 0.490889 0.625749
O O8 0.595149 0.463925 0.750713
O O9 0.068782 0.750000 0.686713
O O10 0.094567 0.997425 0.750257
O O11 0.750000 0.961865 0.920191
O O12 0.664465 0.750000 0.941106
O O13 0.624814 0.984831 0.875428
O O14 0.652430 0.007864 0.000147
O O15 0.413251 0.250000 0.814663
O O16 0.499525 0.039673 0.834001
O O17 0.373618 0.005454 0.874610
O O18 0.750000 0.958641 0.580709
O O19 0.840098 0.750000 0.575181
O O20 0.411207 0.750000 0.165641
O O21 0.750000 0.041689 0.080593
O O22 0.839801 0.250000 0.071675
#
# Coordination Sequence:
#
# PCOD9450875 Si02
#       8
#     8   8   8   8   8   8   8   8
#     4   9  19  36  56  78 106 140 177 217 263 317
#     4  10  21  37  56  78 107 143 181 220 264 318
#     4  10  20  35  56  81 109 141 178 222 268 315
#     4  10  21  36  55  80 108 138 174 218 267 316
#     4  10  21  37  56  80 110 142 178 220 266 318
#     4  10  21  36  55  80 108 138 176 222 269 318
#     4   9  20  37  55  77 105 139 178 216 258 313
#     4  10  21  37  57  80 107 141 180 220 263 314
#
# _framework density 17.374389999999998
#
# number of rings (size 3 to 8) (size 9 to 14) (size 15 to 20)
#    0.000    2.250    0.000    3.000    0.000    8.250 
#    0.000    3.750    0.000    0.000    0.000    0.000 
#    0.000    0.000    0.000    0.000    0.000    0.000 
#
# Total GULP energy -357310.435461 kJ/mol
# GULP energy per Si atom -5582.975554 kJ/mol
# Density = 1.733484 g / cm^3
# Si number density = 17.374390 Si / 1000 Ang^3
#
#
#
# Elastic Constant Matrix: (Units=GPa)
#
#
# Indices 1 2 3 4 5 6 
#
# 1 81.1584 64.8489 108.7725 0.0000 0.0000 0.0000
# 2 64.8489 76.4349 89.0075 0.0000 0.0000 0.0000
# 3 108.7725 89.0075 175.6242 0.0000 0.0000 0.0000
# 4 0.0000 0.0000 0.0000 35.9145 0.0000 0.0000
# 5 0.0000 0.0000 0.0000 0.0000 42.1491 0.0000
# 6 0.0000 0.0000 0.0000 0.0000 0.0000 28.7738
#
#
#
# Elastic Compliance Matrix: (Units=1/GPa)
#
#
# Indices 1 2 3 4 5 6 
#
# 1 0.092825 -0.028810 -0.042890 0.000000 0.000000 0.000000
# 2 -0.028810 0.040865 -0.002867 0.000000 0.000000 0.000000
# 3 -0.042890 -0.002867 0.033711 0.000000 0.000000 0.000000
# 4 0.000000 0.000000 0.000000 0.027844 0.000000 0.000000
# 5 0.000000 0.000000 0.000000 0.000000 0.023725 0.000000
# 6 0.000000 0.000000 0.000000 0.000000 0.000000 0.034754
#
#
# Mechanical properties :
#
#
# Convention : Reuss Voigt Hill
#
# Bulk Modulus (GPa) = 54.74461 95.38614 75.06537
# Shear Modulus (GPa) = 12.22654 26.07338 19.14996
#
# Velocity S-wave (km/s) = 2.65563 3.87806 3.32353
# Velocity P-wave (km/s) = 6.40159 8.66442 7.61750
#
# Compressibility (1/GPa) = 0.01826664
#
# Stress axis : x y z
#
# Youngs Moduli (GPa) = 10.77297 24.47102 29.66402
#
# Poissons Ratio (x) = 0.70501 1.27229
# Poissons Ratio (y) = 0.31037 0.08505
# Poissons Ratio (z) = 0.46205 0.07016
#
# Static dielectric constant tensor:
#      x y z
#    x 1.571020 0.000000 0.000000 
#    y 0.000000 1.577540 0.000000 
#    z 0.000000 0.000000 1.558750 
# 
# From -- ./inp_files/28228.got.cif
#   From: 2010.05.17/outbox.cif.g08.bks.cpg/sg59_15_cif.got.tgz:28228.got - 2010.06.03 14:40:33.
