data_PCOD9450003
_publ_section_title
;
Structure prediction by ZEFSAII (Michael W. Deem and Ramdas Pophale) SiO2 
 PCOD9450003
Probable space group: P M M N
;
_chemical_formula_sum "Si O2"
_cell_formula_units_Z 48
_cell_length_a 9.172825
_cell_length_b 15.035124
_cell_length_c 19.866612
_cell_angle_alpha 90.000000
_cell_angle_beta 90.000000
_cell_angle_gamma 90.000000
_cell_volume 2739.895079
_symmetry_space_group_name_H-M "P M M N"
_symmetry_group_IT_number 59
_space_group.IT_coordinate_system_code '2'
_symmetry_cell_setting 'orthorhombic'
loop_
_space_group_symop_operation_xyz
x,y,z
1/2-x,1/2-y,z
1/2+x,-y,-z
-x,1/2+y,-z
-x,-y,-z
1/2+x,1/2+y,-z
1/2-x,y,z
x,1/2-y,z
loop_
_atom_site_type_symbol
_atom_site_label
_atom_site_fract_x
_atom_site_fract_y
_atom_site_fract_z
Si Si1 0.916763 0.250000 0.786792
Si Si2 0.074200 0.750000 0.484405
Si Si3 0.425471 0.250000 0.369065
Si Si4 0.916123 0.250000 0.950076
Si Si5 0.577352 0.929066 0.046654
Si Si6 0.075337 0.441776 0.308153
Si Si7 0.575233 0.055074 0.559323
Si Si8 0.423135 0.066771 0.793241
O O1 0.750000 0.250000 0.761208
O O2 0.911745 0.250000 0.868411
O O3 0.999307 0.341493 0.769140
O O4 0.250000 0.750000 0.491666
O O5 0.032998 0.841222 0.446447
O O6 0.002471 0.750000 0.558315
O O7 0.250000 0.250000 0.379523
O O8 0.462434 0.159233 0.329296
O O9 0.750000 0.250000 0.974283
O O10 0.004672 0.164241 0.971272
O O11 0.750000 0.928304 0.035874
O O12 0.551943 0.943123 0.126563
O O13 0.500000 0.000000 0.000000
O O14 0.250000 0.445212 0.296652
O O15 0.040143 0.506584 0.370907
O O16 0.991048 0.483251 0.245434
O O17 0.750000 0.049843 0.550916
O O18 0.500000 0.000000 0.500000
O O19 0.250000 0.073677 0.782155
#
# Coordination Sequence:
#
# PCOD9450003 Si02
#       8
#     4   4   4   4   8   8   8   8
#     4   9  17  32  56  80 107 143 178 216 270 330
#     4  10  20  33  53  81 108 136 175 224 276 326
#     4  10  20  36  56  78 104 141 186 225 266 325
#     4   9  17  31  53  81 109 142 181 221 272 333
#     4  10  20  35  56  82 112 147 187 232 278 331
#     4  10  21  36  55  78 107 144 186 229 276 331
#     4  10  20  34  53  78 106 137 178 224 270 323
#     4  10  21  36  55  82 114 145 183 229 276 328
#
# _framework density 17.518920000000001
#
# number of rings (size 3 to 8) (size 9 to 14) (size 15 to 20)
#    0.000    2.167    1.667    1.500    0.000    6.000 
#    0.000    2.500    0.000    4.000    0.000    0.000 
#    0.000    0.000    0.000    0.000    0.000    0.000 
#
# Total GULP energy -267813.709312 kJ/mol
# GULP energy per Si atom -5579.452277 kJ/mol
# Density = 1.747905 g / cm^3
# Si number density = 17.518920 Si / 1000 Ang^3
#
#
#
# Elastic Constant Matrix: (Units=GPa)
#
#
# Indices 1 2 3 4 5 6 
#
# 1 76.1904 72.2729 58.5411 0.0000 0.0000 0.0000
# 2 72.2729 192.6237 69.2924 0.0000 0.0000 0.0000
# 3 58.5411 69.2924 56.6819 0.0000 0.0000 0.0000
# 4 0.0000 0.0000 0.0000 32.0447 0.0000 0.0000
# 5 0.0000 0.0000 0.0000 0.0000 28.4630 0.0000
# 6 0.0000 0.0000 0.0000 0.0000 0.0000 31.1054
#
#
#
# Elastic Compliance Matrix: (Units=1/GPa)
#
#
# Indices 1 2 3 4 5 6 
#
# 1 0.063596 -0.000417 -0.065172 0.000000 0.000000 0.000000
# 2 -0.000417 0.009269 -0.010901 0.000000 0.000000 0.000000
# 3 -0.065172 -0.010901 0.098278 0.000000 0.000000 0.000000
# 4 0.000000 0.000000 0.000000 0.031206 0.000000 0.000000
# 5 0.000000 0.000000 0.000000 0.000000 0.035133 0.000000
# 6 0.000000 0.000000 0.000000 0.000000 0.000000 0.032149
#
#
# Mechanical properties :
#
#
# Convention : Reuss Voigt Hill
#
# Bulk Modulus (GPa) = 55.05555 80.63431 67.84493
# Shear Modulus (GPa) = 11.66410 26.68190 19.17300
#
# Velocity S-wave (km/s) = 2.58311 3.90684 3.31179
# Velocity P-wave (km/s) = 6.35541 8.15341 7.30990
#
# Compressibility (1/GPa) = 0.01816347
#
# Stress axis : x y z
#
# Youngs Moduli (GPa) = 15.72434 107.88341 10.17521
#
# Poissons Ratio (x) = 0.04499 0.66314
# Poissons Ratio (y) = 0.00656 0.11092
# Poissons Ratio (z) = 1.02479 1.17602
#
# Static dielectric constant tensor:
#      x y z
#    x 1.582700 0.000000 0.000000 
#    y 0.000000 1.587380 0.000000 
#    z 0.000000 0.000000 1.582070 
# 
# From -- ./inp_files/25639.got.cif
#   From: 2010.05.17/outbox.cif.g08.bks.cpg/sg59_13_cif.got.tgz:25639.got - 2010.06.03 14:40:33.
