data_PCOD9450221
_publ_section_title
;
Structure prediction by ZEFSAII (Michael W. Deem and Ramdas Pophale) SiO2 
 PCOD9450221
Probable space group: P M M N
;
_chemical_formula_sum "Si O2"
_cell_formula_units_Z 64
_cell_length_a 7.553759
_cell_length_b 24.936020
_cell_length_c 15.138444
_cell_angle_alpha 90.000000
_cell_angle_beta 90.000000
_cell_angle_gamma 90.000000
_cell_volume 2851.487689
_symmetry_space_group_name_H-M "P M M N"
_symmetry_group_IT_number 59
_space_group.IT_coordinate_system_code '2'
_symmetry_cell_setting 'orthorhombic'
loop_
_space_group_symop_operation_xyz
x,y,z
1/2-x,1/2-y,z
1/2+x,-y,-z
-x,1/2+y,-z
-x,-y,-z
1/2+x,1/2+y,-z
1/2-x,y,z
x,1/2-y,z
loop_
_atom_site_type_symbol
_atom_site_label
_atom_site_fract_x
_atom_site_fract_y
_atom_site_fract_z
Si Si1 0.048969 0.106007 0.130710
Si Si2 0.541689 0.997455 0.221994
Si Si3 0.466772 0.312016 0.982291
Si Si4 0.464291 0.692496 0.730740
Si Si5 0.958792 0.690834 0.347786
Si Si6 0.537310 0.035088 0.413606
Si Si7 0.533747 0.879577 0.188252
Si Si8 0.036450 0.845556 0.543869
O O1 0.250000 0.095767 0.103069
O O2 0.970049 0.146236 0.057503
O O3 0.974402 0.048197 0.156905
O O4 0.041083 0.142196 0.218436
O O5 0.750000 0.988597 0.235891
O O6 0.468849 0.012323 0.319814
O O7 0.471706 0.941239 0.183804
O O8 0.250000 0.310438 0.986541
O O9 0.525425 0.250000 0.991436
O O10 0.519225 0.339501 0.890013
O O11 0.250000 0.688672 0.736209
O O12 0.519172 0.750000 0.769251
O O13 0.513978 0.689588 0.628196
O O14 0.750000 0.694197 0.328931
O O15 0.035690 0.750000 0.332647
O O16 0.026460 0.645879 0.281018
O O17 0.977240 0.675073 0.449479
O O18 0.750000 0.039028 0.404232
O O19 0.471632 0.094691 0.434720
O O20 0.500000 0.000000 0.500000
O O21 0.750000 0.880500 0.184518
O O22 0.250000 0.846236 0.540822
#
# Coordination Sequence:
#
# PCOD9450221 Si02
#       8
#     8   8   8   8   8   8   8   8
#     4  11  22  35  55  83 115 147 183 231 279 323
#     4  10  20  37  57  79 111 149 189 228 272 333
#     4   9  18  34  56  84 115 144 179 226 285 344
#     4  10  20  36  57  78 106 146 187 223 268 333
#     4  10  20  34  55  84 112 139 181 235 281 325
#     4  10  20  34  53  76 107 145 187 229 270 320
#     4   9  18  34  58  82 108 146 185 226 279 337
#     4  10  20  35  53  75 107 148 184 217 271 336
#
# _framework density 22.444424000000001
#
# number of rings (size 3 to 8) (size 9 to 14) (size 15 to 20)
#    0.000    2.125    1.250    2.250    0.000    6.000 
#    0.000    0.625    0.000    2.250    0.000    0.000 
#    0.000    0.000    0.000    0.000    0.000    0.000 
#
# Total GULP energy -357368.849583 kJ/mol
# GULP energy per Si atom -5583.888275 kJ/mol
# Density = 2.239334 g / cm^3
# Si number density = 22.444424 Si / 1000 Ang^3
#
#
#
# Elastic Constant Matrix: (Units=GPa)
#
#
# Indices 1 2 3 4 5 6 
#
# 1 45.8225 3.0722 -5.4866 0.0000 0.0000 0.0000
# 2 3.0722 175.8281 54.8612 0.0000 0.0000 0.0000
# 3 -5.4866 54.8612 92.1654 0.0000 0.0000 0.0000
# 4 0.0000 0.0000 0.0000 33.6694 0.0000 0.0000
# 5 0.0000 0.0000 0.0000 0.0000 -5.4928 0.0000
# 6 0.0000 0.0000 0.0000 0.0000 0.0000 61.0363
#
#
#
# Elastic Compliance Matrix: (Units=1/GPa)
#
#
# Indices 1 2 3 4 5 6 
#
# 1 0.022116 -0.000979 0.001899 0.000000 0.000000 0.000000
# 2 -0.000979 0.007028 -0.004242 0.000000 0.000000 0.000000
# 3 0.001899 -0.004242 0.013488 0.000000 0.000000 0.000000
# 4 0.000000 0.000000 0.000000 0.029701 0.000000 0.000000
# 5 0.000000 0.000000 0.000000 0.000000 -0.182057 0.000000
# 6 0.000000 0.000000 0.000000 0.000000 0.000000 0.016384
#
#
# Mechanical properties :
#
#
# Convention : Reuss Voigt Hill
#
# Bulk Modulus (GPa) = 27.78578 46.52328 37.15453
# Shear Modulus (GPa) = -66.93341 35.26718 -15.83311
#
# Velocity S-wave (km/s) = -5.46686 3.96828 -2.65889
# Velocity P-wave (km/s) = 5.23852 6.46293 2.67651
#
# Compressibility (1/GPa) = 0.03598963
#
# Stress axis : x y z
#
# Youngs Moduli (GPa) = 45.21528 142.28917 74.14025
#
# Poissons Ratio (x) = 0.13931 -0.14082
# Poissons Ratio (y) = 0.04427 0.31448
# Poissons Ratio (z) = -0.08588 0.60354
#
# Static dielectric constant tensor:
#      x y z
#    x 1.893920 0.000000 0.000000 
#    y 0.000000 1.833410 0.000000 
#    z 0.000000 0.000000 1.808820 
# 
# From -- ./inp_files/21470.got.cif
#   From: 2010.05.17/outbox.cif.g08.bks.cpg/sg59_11_cif.got.tgz:21470.got - 2010.06.03 14:40:33.
