data_PCOD9450730
_publ_section_title
;
Structure prediction by ZEFSAII (Michael W. Deem and Ramdas Pophale) SiO2 
 PCOD9450730
Probable space group: P M M N
;
_chemical_formula_sum "Si O2"
_cell_formula_units_Z 56
_cell_length_a 14.131344
_cell_length_b 8.843621
_cell_length_c 21.003747
_cell_angle_alpha 90.000000
_cell_angle_beta 90.000000
_cell_angle_gamma 90.000000
_cell_volume 2624.885533
_symmetry_space_group_name_H-M "P M M N"
_symmetry_group_IT_number 59
_space_group.IT_coordinate_system_code '2'
_symmetry_cell_setting 'orthorhombic'
loop_
_space_group_symop_operation_xyz
x,y,z
1/2-x,1/2-y,z
1/2+x,-y,-z
-x,1/2+y,-z
-x,-y,-z
1/2+x,1/2+y,-z
1/2-x,y,z
x,1/2-y,z
loop_
_atom_site_type_symbol
_atom_site_label
_atom_site_fract_x
_atom_site_fract_y
_atom_site_fract_z
Si Si1 0.136288 0.071302 0.398624
Si Si2 0.935672 0.568947 0.851909
Si Si3 0.650180 0.069078 0.120423
Si Si4 0.099097 0.928757 0.021054
Si Si5 0.134961 0.423738 0.540380
Si Si6 0.457630 0.928116 0.276415
Si Si7 0.360226 0.928969 0.673159
O O1 0.250000 0.056668 0.395753
O O2 0.113870 0.250000 0.391106
O O3 0.104393 0.025538 0.469949
O O4 0.090843 0.977479 0.342203
O O5 0.934464 0.750000 0.854301
O O6 0.877151 0.505768 0.911890
O O7 0.907289 0.509301 0.782964
O O8 0.045868 0.514173 0.859956
O O9 0.750000 0.009713 0.148214
O O10 0.648411 0.250000 0.133085
O O11 0.655539 0.048909 0.044092
O O12 0.091757 0.750000 0.031686
O O13 0.000000 0.000000 0.000000
O O14 0.250000 0.418877 0.537432
O O15 0.103425 0.250000 0.551778
O O16 0.112895 0.528179 0.600368
O O17 0.454887 0.750000 0.267952
O O18 0.565781 0.985913 0.282478
O O19 0.250000 0.971016 0.682533
O O20 0.369137 0.750000 0.683033
#
# Coordination Sequence:
#
# PCOD9450730 Si02
#       7
#     8   8   8   8   8   8   8
#     4   9  19  38  62  84 108 140 181 233 289 342
#     4  10  20  35  54  74 103 142 181 223 269 323
#     4   8  15  29  52  81 106 130 166 213 263 314
#     4   9  16  29  51  75 100 131 165 205 254 308
#     4   8  15  31  56  83 109 138 175 226 287 340
#     4  12  25  38  55  80 112 151 192 233 280 338
#     4  10  21  37  57  81 111 148 189 232 278 333
#
# _framework density 21.334264000000001
#
# number of rings (size 3 to 8) (size 9 to 14) (size 15 to 20)
#    0.000    2.571    0.000    4.286    0.000    2.857 
#    0.000    3.571    0.000   17.571    0.000    0.000 
#    0.000    0.000    0.000    0.000    0.000    0.000 
#
# Total GULP energy -312448.108553 kJ/mol
# GULP energy per Si atom -5579.430510 kJ/mol
# Density = 2.128571 g / cm^3
# Si number density = 21.334264 Si / 1000 Ang^3
#
#
#
# Elastic Constant Matrix: (Units=GPa)
#
#
# Indices 1 2 3 4 5 6 
#
# 1 26.3533 8.9698 -6.8362 0.0000 0.0000 0.0000
# 2 8.9698 63.9182 39.2441 0.0000 0.0000 0.0000
# 3 -6.8362 39.2441 108.5654 0.0000 0.0000 0.0000
# 4 0.0000 0.0000 0.0000 31.7587 0.0000 0.0000
# 5 0.0000 0.0000 0.0000 0.0000 29.8275 0.0000
# 6 0.0000 0.0000 0.0000 0.0000 0.0000 14.4383
#
#
#
# Elastic Compliance Matrix: (Units=1/GPa)
#
#
# Indices 1 2 3 4 5 6 
#
# 1 0.042935 -0.009877 0.006274 0.000000 0.000000 0.000000
# 2 -0.009877 0.022380 -0.008712 0.000000 0.000000 0.000000
# 3 0.006274 -0.008712 0.012755 0.000000 0.000000 0.000000
# 4 0.000000 0.000000 0.000000 0.031487 0.000000 0.000000
# 5 0.000000 0.000000 0.000000 0.000000 0.033526 0.000000
# 6 0.000000 0.000000 0.000000 0.000000 0.000000 0.069260
#
#
# Mechanical properties :
#
#
# Convention : Reuss Voigt Hill
#
# Bulk Modulus (GPa) = 18.71246 31.28802 25.00024
# Shear Modulus (GPa) = 19.62415 25.70218 22.66317
#
# Velocity S-wave (km/s) = 3.03618 3.47470 3.26281
# Velocity P-wave (km/s) = 4.59144 5.54937 5.09298
#
# Compressibility (1/GPa) = 0.05344033
#
# Stress axis : x y z
#
# Youngs Moduli (GPa) = 23.29081 44.68289 78.39909
#
# Poissons Ratio (x) = 0.44135 -0.49188
# Poissons Ratio (y) = 0.23005 0.68300
# Poissons Ratio (z) = -0.14613 0.38927
#
# Static dielectric constant tensor:
#      x y z
#    x 1.832510 0.000000 0.000000 
#    y 0.000000 1.725870 0.000000 
#    z 0.000000 0.000000 1.800410 
# 
# From -- ./inp_files/30353.got.cif
#   From: 2010.05.17/outbox.cif.g08.bks.cpg/sg59_16_cif.got.tgz:30353.got - 2010.06.03 14:40:33.
