data_PCOD9450718
_publ_section_title
;
Structure prediction by ZEFSAII (Michael W. Deem and Ramdas Pophale) SiO2 
 PCOD9450718
Probable space group: P M M N
;
_chemical_formula_sum "Si O2"
_cell_formula_units_Z 48
_cell_length_a 16.488196
_cell_length_b 8.495296
_cell_length_c 18.614919
_cell_angle_alpha 90.000000
_cell_angle_beta 90.000000
_cell_angle_gamma 90.000000
_cell_volume 2607.430899
_symmetry_space_group_name_H-M "P M M N"
_symmetry_group_IT_number 59
_space_group.IT_coordinate_system_code '2'
_symmetry_cell_setting 'orthorhombic'
loop_
_space_group_symop_operation_xyz
x,y,z
1/2-x,1/2-y,z
1/2+x,-y,-z
-x,1/2+y,-z
-x,-y,-z
1/2+x,1/2+y,-z
1/2-x,y,z
x,1/2-y,z
loop_
_atom_site_type_symbol
_atom_site_label
_atom_site_fract_x
_atom_site_fract_y
_atom_site_fract_z
Si Si1 0.086396 0.061427 0.784997
Si Si2 0.926004 0.439747 0.698192
Si Si3 0.084498 0.940672 0.466756
Si Si4 0.250000 0.942000 0.547349
Si Si5 0.750000 0.061421 0.286155
Si Si6 0.495867 0.061125 0.080666
Si Si7 0.661279 0.939564 0.832716
O O1 0.087942 0.250000 0.786561
O O2 0.012843 0.011053 0.731774
O O3 0.170165 0.998310 0.754148
O O4 0.064334 0.999892 0.864402
O O5 0.923254 0.250000 0.699698
O O6 0.913693 0.491134 0.616557
O O7 0.859353 0.504966 0.752642
O O8 0.083384 0.750000 0.468803
O O9 0.166424 0.992493 0.508201
O O10 0.000000 0.000000 0.500000
O O11 0.250000 0.750000 0.545789
O O12 0.250000 0.992335 0.630559
O O13 0.750000 0.250000 0.286372
O O14 0.497823 0.250000 0.080521
O O15 0.411138 0.005410 0.116146
O O16 0.500000 0.000000 0.000000
O O17 0.750000 0.994989 0.855170
O O18 0.660399 0.750000 0.833848
#
# Coordination Sequence:
#
# PCOD9450718 Si02
#       7
#     8   8   8   4   4   8   8
#     4  10  20  36  56  81 109 144 184 228 279 326
#     4   9  19  33  54  79 106 141 184 226 272 327
#     4  10  20  35  53  77 108 145 185 230 282 333
#     4   9  20  35  53  77 110 149 186 227 285 340
#     4  11  21  35  55  79 106 143 192 233 271 330
#     4  10  20  37  59  82 113 146 179 221 268 325
#     4   9  19  35  55  80 108 141 178 216 266 322
#
# _framework density 18.408923999999999
#
# number of rings (size 3 to 8) (size 9 to 14) (size 15 to 20)
#    0.000    2.333    0.000    2.250    1.167    2.333 
#    1.500    1.250    0.000    0.000    0.000    0.000 
#    0.000    0.000    0.000    0.000    0.000    0.000 
#
# Total GULP energy -267862.927522 kJ/mol
# GULP energy per Si atom -5580.477657 kJ/mol
# Density = 1.836702 g / cm^3
# Si number density = 18.408924 Si / 1000 Ang^3
#
#
#
# Elastic Constant Matrix: (Units=GPa)
#
#
# Indices 1 2 3 4 5 6 
#
# 1 139.1349 21.5371 85.8168 0.0000 0.0000 0.0000
# 2 21.5371 22.7704 28.4917 0.0000 0.0000 0.0000
# 3 85.8168 28.4917 183.3914 0.0000 0.0000 0.0000
# 4 0.0000 0.0000 0.0000 23.8929 0.0000 0.0000
# 5 0.0000 0.0000 0.0000 0.0000 14.8028 0.0000
# 6 0.0000 0.0000 0.0000 0.0000 0.0000 23.4452
#
#
#
# Elastic Compliance Matrix: (Units=1/GPa)
#
#
# Indices 1 2 3 4 5 6 
#
# 1 0.010492 -0.004693 -0.004181 0.000000 0.000000 0.000000
# 2 -0.004693 0.056613 -0.006599 0.000000 0.000000 0.000000
# 3 -0.004181 -0.006599 0.008434 0.000000 0.000000 0.000000
# 4 0.000000 0.000000 0.000000 0.041853 0.000000 0.000000
# 5 0.000000 0.000000 0.000000 0.000000 0.067555 0.000000
# 6 0.000000 0.000000 0.000000 0.000000 0.000000 0.042653
#
#
# Mechanical properties :
#
#
# Convention : Reuss Voigt Hill
#
# Bulk Modulus (GPa) = 22.42469 68.55419 45.48944
# Shear Modulus (GPa) = 18.28748 26.39159 22.33954
#
# Velocity S-wave (km/s) = 3.15525 3.79044 3.48734
# Velocity P-wave (km/s) = 5.04797 7.51512 6.40153
#
# Compressibility (1/GPa) = 0.04459371
#
# Stress axis : x y z
#
# Youngs Moduli (GPa) = 95.30787 17.66383 118.56148
#
# Poissons Ratio (x) = 0.08289 0.49567
# Poissons Ratio (y) = 0.44727 0.78243
# Poissons Ratio (z) = 0.39846 0.11657
#
# Static dielectric constant tensor:
#      x y z
#    x 1.632010 0.000000 0.000000 
#    y 0.000000 1.629040 0.000000 
#    z 0.000000 0.000000 1.611790 
# 
# From -- ./inp_files/25513.got.cif
#   From: 2010.05.17/outbox.cif.g08.bks.cpg/sg59_13_cif.got.tgz:25513.got - 2010.06.03 14:40:33.
