data_PCOD9450348
_publ_section_title
;
Structure prediction by ZEFSAII (Michael W. Deem and Ramdas Pophale) SiO2 
 PCOD9450348
Probable space group: P M M N
;
_chemical_formula_sum "Si O2"
_cell_formula_units_Z 64
_cell_length_a 9.195158
_cell_length_b 15.413037
_cell_length_c 24.690926
_cell_angle_alpha 90.000000
_cell_angle_beta 90.000000
_cell_angle_gamma 90.000000
_cell_volume 3499.329153
_symmetry_space_group_name_H-M "P M M N"
_symmetry_group_IT_number 59
_space_group.IT_coordinate_system_code '2'
_symmetry_cell_setting 'orthorhombic'
loop_
_space_group_symop_operation_xyz
x,y,z
1/2-x,1/2-y,z
1/2+x,-y,-z
-x,1/2+y,-z
-x,-y,-z
1/2+x,1/2+y,-z
1/2-x,y,z
x,1/2-y,z
loop_
_atom_site_type_symbol
_atom_site_label
_atom_site_fract_x
_atom_site_fract_y
_atom_site_fract_z
Si Si1 0.574732 0.646514 0.510456
Si Si2 0.425388 0.002658 0.579571
Si Si3 0.578840 0.848635 0.209070
Si Si4 0.915539 0.090095 0.895533
Si Si5 0.427189 0.488763 0.703668
Si Si6 0.917283 0.614472 0.880299
Si Si7 0.575778 0.155275 0.229838
Si Si8 0.417920 0.148662 0.998797
O O1 0.750000 0.644948 0.517683
O O2 0.532725 0.750000 0.509065
O O3 0.542189 0.588962 0.456268
O O4 0.498872 0.584736 0.555502
O O5 0.250000 0.990863 0.577797
O O6 0.472580 0.017553 0.641483
O O7 0.750000 0.867061 0.199834
O O8 0.564513 0.750000 0.227523
O O9 0.499263 0.861102 0.152137
O O10 0.524408 0.913080 0.255648
O O11 0.750000 0.120754 0.899364
O O12 0.916971 0.989433 0.879347
O O13 0.991577 0.099912 0.953468
O O14 0.250000 0.486450 0.703093
O O15 0.474205 0.578639 0.731135
O O16 0.750000 0.645184 0.876240
O O17 0.973271 0.640467 0.939744
O O18 0.007836 0.646695 0.829559
O O19 0.750000 0.148174 0.224632
O O20 0.540422 0.250000 0.252356
O O21 0.250000 0.117447 0.999092
O O22 0.418134 0.250000 0.983991
#
# Coordination Sequence:
#
# PCOD9450348 Si02
#       8
#     8   8   8   8   8   8   8   8
#     4   9  18  33  53  80 115 149 181 223 272 316
#     4   9  18  33  55  81 109 146 187 225 266 314
#     4  10  20  35  56  78 102 138 178 215 263 319
#     4  11  22  35  53  77 103 133 171 215 265 318
#     4   9  18  34  54  79 109 138 176 224 262 303
#     4  10  21  37  55  75 100 134 173 213 262 320
#     4  10  20  34  54  78 104 136 172 215 268 317
#     4  10  21  36  53  73  98 130 169 214 265 321
#
# _framework density 18.289221000000001
#
# number of rings (size 3 to 8) (size 9 to 14) (size 15 to 20)
#    0.000    2.250    1.250    1.500    0.000    5.000 
#    0.000    5.000    0.000    0.000    0.000    1.750 
#    0.000    0.000    0.000    0.000    0.000    0.000 
#
# Total GULP energy -356868.963262 kJ/mol
# GULP energy per Si atom -5576.077551 kJ/mol
# Density = 1.824759 g / cm^3
# Si number density = 18.289221 Si / 1000 Ang^3
#
#
#
# Elastic Constant Matrix: (Units=GPa)
#
#
# Indices 1 2 3 4 5 6 
#
# 1 22.7088 24.3825 21.1180 0.0000 0.0000 0.0000
# 2 24.3825 78.7038 22.2544 0.0000 0.0000 0.0000
# 3 21.1180 22.2544 99.1658 0.0000 0.0000 0.0000
# 4 0.0000 0.0000 0.0000 -48.0904 0.0000 0.0000
# 5 0.0000 0.0000 0.0000 0.0000 24.2146 0.0000
# 6 0.0000 0.0000 0.0000 0.0000 0.0000 5.0207
#
#
#
# Elastic Compliance Matrix: (Units=1/GPa)
#
#
# Indices 1 2 3 4 5 6 
#
# 1 0.077060 -0.020536 -0.011802 0.000000 0.000000 0.000000
# 2 -0.020536 0.019040 0.000101 0.000000 0.000000 0.000000
# 3 -0.011802 0.000101 0.012575 0.000000 0.000000 0.000000
# 4 0.000000 0.000000 0.000000 -0.020794 0.000000 0.000000
# 5 0.000000 0.000000 0.000000 0.000000 0.041297 0.000000
# 6 0.000000 0.000000 0.000000 0.000000 0.000000 0.199174
#
#
# Mechanical properties :
#
#
# Convention : Reuss Voigt Hill
#
# Bulk Modulus (GPa) = 22.62454 37.34311 29.98383
# Shear Modulus (GPa) = 12.26812 5.08390 8.67601
#
# Velocity S-wave (km/s) = 2.59276 1.66906 2.18039
# Velocity P-wave (km/s) = 4.62174 4.91699 4.77165
#
# Compressibility (1/GPa) = 0.04419979
#
# Stress axis : x y z
#
# Youngs Moduli (GPa) = 12.97682 52.52221 79.52391
#
# Poissons Ratio (x) = 1.07861 0.93853
# Poissons Ratio (y) = 0.26650 -0.00800
# Poissons Ratio (z) = 0.15315 -0.00528
#
# Static dielectric constant tensor:
#      x y z
#    x 1.629440 0.000000 0.000000 
#    y 0.000000 1.649880 0.000000 
#    z 0.000000 0.000000 1.606420 
# 
# From -- ./inp_files/31460.got.cif
#   From: 2010.05.17/outbox.cif.g08.bks.cpg/sg59_16_cif.got.tgz:31460.got - 2010.06.03 14:40:33.
