data_PCOD9450864
_publ_section_title
;
Structure prediction by ZEFSAII (Michael W. Deem and Ramdas Pophale) SiO2 
 PCOD9450864
Probable space group: P M M N
;
_chemical_formula_sum "Si O2"
_cell_formula_units_Z 64
_cell_length_a 24.427536
_cell_length_b 7.694120
_cell_length_c 15.169846
_cell_angle_alpha 90.000000
_cell_angle_beta 90.000000
_cell_angle_gamma 90.000000
_cell_volume 2851.148182
_symmetry_space_group_name_H-M "P M M N"
_symmetry_group_IT_number 59
_space_group.IT_coordinate_system_code '2'
_symmetry_cell_setting 'orthorhombic'
loop_
_space_group_symop_operation_xyz
x,y,z
1/2-x,1/2-y,z
1/2+x,-y,-z
-x,1/2+y,-z
-x,-y,-z
1/2+x,1/2+y,-z
1/2-x,y,z
x,1/2-y,z
loop_
_atom_site_type_symbol
_atom_site_label
_atom_site_fract_x
_atom_site_fract_y
_atom_site_fract_z
Si Si1 0.809742 0.542436 0.043318
Si Si2 0.895291 0.953175 0.403687
Si Si3 0.132098 0.951158 0.413174
Si Si4 0.490335 0.951440 0.849351
Si Si5 0.986577 0.038096 0.648992
Si Si6 0.374634 0.542524 0.794988
Si Si7 0.810407 0.952244 0.756326
Si Si8 0.604291 0.963627 0.900924
O O1 0.750000 0.473945 0.018349
O O2 0.808566 0.750000 0.031274
O O3 0.823931 0.504244 0.144192
O O4 0.858726 0.476959 0.982195
O O5 0.897726 0.750000 0.422699
O O6 0.958117 0.021397 0.400285
O O7 0.860445 0.033549 0.482433
O O8 0.873074 0.977916 0.304984
O O9 0.133542 0.750000 0.388188
O O10 0.070347 0.016678 0.394135
O O11 0.173898 0.038922 0.346344
O O12 0.484328 0.750000 0.875193
O O13 0.429601 0.030173 0.843477
O O14 0.541697 0.027687 0.902340
O O15 0.510070 0.964023 0.747542
O O16 0.988482 0.250000 0.653698
O O17 0.380201 0.750000 0.790219
O O18 0.750000 0.029419 0.772238
O O19 0.806840 0.750000 0.781882
O O20 0.861090 0.020721 0.814548
O O21 0.600788 0.750000 0.900107
#
# Coordination Sequence:
#
# PCOD9450864 Si02
#       8
#     8   8   8   8   8   8   8   8
#     4  10  21  38  60  83 107 142 189 234 275 325
#     4  10  20  35  56  80 108 144 187 229 269 320
#     4  11  21  33  51  79 114 148 182 223 275 327
#     4   9  17  31  54  82 113 148 182 219 274 333
#     4   9  18  31  49  78 113 147 181 219 266 322
#     4  10  21  37  56  82 115 146 180 228 284 338
#     4  10  20  35  56  80 108 147 192 233 272 322
#     4   9  17  33  58  85 111 141 183 230 272 321
#
# _framework density 22.447095000000001
#
# number of rings (size 3 to 8) (size 9 to 14) (size 15 to 20)
#    0.000    2.250    1.250    1.875    0.000    4.000 
#    0.000    1.875    0.000    5.250    0.000    0.000 
#    0.000    0.000    0.000    0.000    0.000    0.000 
#
# Total GULP energy -357330.258424 kJ/mol
# GULP energy per Si atom -5583.285288 kJ/mol
# Density = 2.239600 g / cm^3
# Si number density = 22.447095 Si / 1000 Ang^3
#
#
#
# Elastic Constant Matrix: (Units=GPa)
#
#
# Indices 1 2 3 4 5 6 
#
# 1 35.2632 -1.3008 26.7209 0.0000 0.0000 0.0000
# 2 -1.3008 46.0446 -11.2778 0.0000 0.0000 0.0000
# 3 26.7209 -11.2778 63.7465 0.0000 0.0000 0.0000
# 4 0.0000 0.0000 0.0000 11.3348 0.0000 0.0000
# 5 0.0000 0.0000 0.0000 0.0000 -5.5680 0.0000
# 6 0.0000 0.0000 0.0000 0.0000 0.0000 10.6565
#
#
#
# Elastic Compliance Matrix: (Units=1/GPa)
#
#
# Indices 1 2 3 4 5 6 
#
# 1 0.042024 -0.003269 -0.018194 0.000000 0.000000 0.000000
# 2 -0.003269 0.022956 0.005432 0.000000 0.000000 0.000000
# 3 -0.018194 0.005432 0.024274 0.000000 0.000000 0.000000
# 4 0.000000 0.000000 0.000000 0.088224 0.000000 0.000000
# 5 0.000000 0.000000 0.000000 0.000000 -0.179599 0.000000
# 6 0.000000 0.000000 0.000000 0.000000 0.000000 0.093839
#
#
# Mechanical properties :
#
#
# Convention : Reuss Voigt Hill
#
# Bulk Modulus (GPa) = 17.48491 19.25988 18.37239
# Shear Modulus (GPa) = 35.00286 12.01214 23.50750
#
# Velocity S-wave (km/s) = 3.95314 2.31580 3.23962
# Velocity P-wave (km/s) = 5.35189 3.96854 4.71127
#
# Compressibility (1/GPa) = 0.05719219
#
# Stress axis : x y z
#
# Youngs Moduli (GPa) = 23.79594 43.56138 41.19563
#
# Poissons Ratio (x) = 0.14241 0.74950
# Poissons Ratio (y) = 0.07779 -0.22376
# Poissons Ratio (z) = 0.43294 -0.23661
#
# Static dielectric constant tensor:
#      x y z
#    x 1.847260 0.000000 0.000000 
#    y 0.000000 1.810320 0.000000 
#    z 0.000000 0.000000 1.828320 
# 
# From -- ./inp_files/21498.got.cif
#   From: 2010.05.17/outbox.cif.g08.bks.cpg/sg59_11_cif.got.tgz:21498.got - 2010.06.03 14:40:33.
