data_PCOD9450767
_publ_section_title
;
Structure prediction by ZEFSAII (Michael W. Deem and Ramdas Pophale) SiO2 
 PCOD9450767
Probable space group: P M M N
;
_chemical_formula_sum "Si O2"
_cell_formula_units_Z 64
_cell_length_a 7.846043
_cell_length_b 22.750273
_cell_length_c 15.605190
_cell_angle_alpha 90.000000
_cell_angle_beta 90.000000
_cell_angle_gamma 90.000000
_cell_volume 2785.520488
_symmetry_space_group_name_H-M "P M M N"
_symmetry_group_IT_number 59
_space_group.IT_coordinate_system_code '2'
_symmetry_cell_setting 'orthorhombic'
loop_
_space_group_symop_operation_xyz
x,y,z
1/2-x,1/2-y,z
1/2+x,-y,-z
-x,1/2+y,-z
-x,-y,-z
1/2+x,1/2+y,-z
1/2-x,y,z
x,1/2-y,z
loop_
_atom_site_type_symbol
_atom_site_label
_atom_site_fract_x
_atom_site_fract_y
_atom_site_fract_z
Si Si1 0.452636 0.313897 0.528348
Si Si2 0.552726 0.593876 0.600989
Si Si3 0.457329 0.681033 0.749337
Si Si4 0.453803 0.644560 0.288677
Si Si5 0.560343 0.629089 0.111967
Si Si6 0.555572 0.320407 0.061984
Si Si7 0.959610 0.007560 0.718259
Si Si8 0.563835 0.004323 0.902792
O O1 0.250000 0.313187 0.510506
O O2 0.522303 0.250000 0.500686
O O3 0.525786 0.370610 0.478751
O O4 0.478791 0.321855 0.629070
O O5 0.750000 0.580577 0.580192
O O6 0.540700 0.641055 0.677777
O O7 0.479000 0.534368 0.641758
O O8 0.250000 0.676465 0.745418
O O9 0.499770 0.750000 0.737851
O O10 0.511245 0.661491 0.844980
O O11 0.250000 0.647790 0.288817
O O12 0.520975 0.666227 0.196643
O O13 0.506649 0.575591 0.295270
O O14 0.750000 0.604182 0.119392
O O15 0.432778 0.574466 0.111989
O O16 0.543524 0.660949 0.021910
O O17 0.750000 0.342685 0.053213
O O18 0.562619 0.250000 0.065052
O O19 0.750000 0.005246 0.721011
O O20 0.020866 0.985134 0.812553
O O21 0.750000 0.976741 0.904435
O O22 0.500000 0.000000 0.000000
#
# Coordination Sequence:
#
# PCOD9450767 Si02
#       8
#     8   8   8   8   8   8   8   8
#     4  10  22  39  59  86 117 148 186 235 291 350
#     4  10  20  36  59  85 115 150 187 232 287 347
#     4   9  19  35  53  77 112 150 188 235 285 335
#     4  10  21  40  62  82 111 150 191 239 292 346
#     4  11  22  36  56  82 112 147 188 237 289 342
#     4   9  19  36  55  77 110 151 191 234 289 346
#     4   8  18  36  56  82 115 148 188 236 286 337
#     4  10  20  35  54  80 116 155 196 240 284 335
#
# _framework density 22.975959
#
# number of rings (size 3 to 8) (size 9 to 14) (size 15 to 20)
#    0.000    2.375    0.000    3.750    1.750    3.250 
#    0.000    4.375    0.000    0.000    0.000    0.000 
#    0.000    0.000    0.000    0.000    0.000    0.000 
#
# Total GULP energy -357103.097483 kJ/mol
# GULP energy per Si atom -5579.735898 kJ/mol
# Density = 2.292366 g / cm^3
# Si number density = 22.975959 Si / 1000 Ang^3
#
#
#
# Elastic Constant Matrix: (Units=GPa)
#
#
# Indices 1 2 3 4 5 6 
#
# 1 41.9096 -5.2670 -8.1753 0.0000 0.0000 0.0000
# 2 -5.2670 35.4678 -4.2835 0.0000 0.0000 0.0000
# 3 -8.1753 -4.2835 79.8882 0.0000 0.0000 0.0000
# 4 0.0000 0.0000 0.0000 33.3291 0.0000 0.0000
# 5 0.0000 0.0000 0.0000 0.0000 22.8440 0.0000
# 6 0.0000 0.0000 0.0000 0.0000 0.0000 10.0982
#
#
#
# Elastic Compliance Matrix: (Units=1/GPa)
#
#
# Indices 1 2 3 4 5 6 
#
# 1 0.024907 0.004033 0.002765 0.000000 0.000000 0.000000
# 2 0.004033 0.029031 0.001969 0.000000 0.000000 0.000000
# 3 0.002765 0.001969 0.012906 0.000000 0.000000 0.000000
# 4 0.000000 0.000000 0.000000 0.030004 0.000000 0.000000
# 5 0.000000 0.000000 0.000000 0.000000 0.043775 0.000000
# 6 0.000000 0.000000 0.000000 0.000000 0.000000 0.099028
#
#
# Mechanical properties :
#
#
# Convention : Reuss Voigt Hill
#
# Bulk Modulus (GPa) = 11.85137 13.53489 12.69313
# Shear Modulus (GPa) = 19.98053 24.92033 22.45043
#
# Velocity S-wave (km/s) = 2.95214 3.29694 3.12929
# Velocity P-wave (km/s) = 4.09751 4.51628 4.31198
#
# Compressibility (1/GPa) = 0.08437845
#
# Stress axis : x y z
#
# Youngs Moduli (GPa) = 40.14926 34.44558 77.48305
#
# Poissons Ratio (x) = -0.13891 -0.21425
# Poissons Ratio (y) = -0.16191 -0.15259
# Poissons Ratio (z) = -0.11102 -0.06783
#
# Static dielectric constant tensor:
#      x y z
#    x 1.833240 0.000000 0.000000 
#    y 0.000000 1.857110 0.000000 
#    z 0.000000 0.000000 1.896970 
# 
# From -- ./inp_files/21622.got.cif
#   From: 2010.05.17/outbox.cif.g08.bks.cpg/sg59_11_cif.got.tgz:21622.got - 2010.06.03 14:40:33.
