data_PCOD9450235
_publ_section_title
;
Structure prediction by ZEFSAII (Michael W. Deem and Ramdas Pophale) SiO2 
 PCOD9450235
Probable space group: P M M N
;
_chemical_formula_sum "Si O2"
_cell_formula_units_Z 48
_cell_length_a 14.495771
_cell_length_b 8.948329
_cell_length_c 21.626618
_cell_angle_alpha 90.000000
_cell_angle_beta 90.000000
_cell_angle_gamma 90.000000
_cell_volume 2805.251944
_symmetry_space_group_name_H-M "P M M N"
_symmetry_group_IT_number 59
_space_group.IT_coordinate_system_code '2'
_symmetry_cell_setting 'orthorhombic'
loop_
_space_group_symop_operation_xyz
x,y,z
1/2-x,1/2-y,z
1/2+x,-y,-z
-x,1/2+y,-z
-x,-y,-z
1/2+x,1/2+y,-z
1/2-x,y,z
x,1/2-y,z
loop_
_atom_site_type_symbol
_atom_site_label
_atom_site_fract_x
_atom_site_fract_y
_atom_site_fract_z
Si Si1 0.504668 0.071441 0.400608
Si Si2 0.857011 0.570453 0.495586
Si Si3 0.494656 0.428558 0.733982
Si Si4 0.643094 0.429506 0.837340
Si Si5 0.142999 0.570382 0.829415
Si Si6 0.005662 0.428593 0.067300
O O1 0.510709 0.250000 0.395682
O O2 0.415437 0.033670 0.442826
O O3 0.591753 0.008759 0.438790
O O4 0.499334 0.999797 0.333337
O O5 0.750000 0.528785 0.500567
O O6 0.862770 0.750000 0.487069
O O7 0.488132 0.250000 0.729218
O O8 0.584065 0.466039 0.776039
O O9 0.407790 0.491897 0.772229
O O10 0.750000 0.471272 0.831894
O O11 0.637507 0.250000 0.846008
O O12 0.592435 0.508736 0.894331
O O13 0.250000 0.528528 0.834717
O O14 0.137503 0.750000 0.821130
O O15 0.083935 0.533306 0.890723
O O16 0.011134 0.250000 0.062520
O O17 0.000000 0.500000 0.000000
#
# Coordination Sequence:
#
# PCOD9450235 Si02
#       6
#     8   8   8   8   8   8
#     4  10  20  34  53  77 104 134 168 207 252 302
#     4   9  19  36  55  75 101 133 170 211 252 295
#     4  10  20  34  53  77 104 134 168 208 254 303
#     4   9  19  36  55  75 102 136 173 213 256 302
#     4   9  19  36  55  74  99 133 172 212 253 298
#     4  10  20  34  53  78 106 136 171 211 256 306
#
# _framework density 17.110762000000001
#
# number of rings (size 3 to 8) (size 9 to 14) (size 15 to 20)
#    0.000    2.500    0.000    1.500    0.000    5.000 
#    0.000    1.667    0.000    0.000    0.000    0.000 
#    0.000    0.000    0.000    0.000    0.000    0.000 
#
# Total GULP energy -267827.533610 kJ/mol
# GULP energy per Si atom -5579.740284 kJ/mol
# Density = 1.707182 g / cm^3
# Si number density = 17.110762 Si / 1000 Ang^3
#
#
#
# Elastic Constant Matrix: (Units=GPa)
#
#
# Indices 1 2 3 4 5 6 
#
# 1 173.4752 54.6803 90.9227 0.0000 0.0000 0.0000
# 2 54.6803 40.3513 66.0475 0.0000 0.0000 0.0000
# 3 90.9227 66.0475 183.3440 0.0000 0.0000 0.0000
# 4 0.0000 0.0000 0.0000 30.6063 0.0000 0.0000
# 5 0.0000 0.0000 0.0000 0.0000 5.7976 0.0000
# 6 0.0000 0.0000 0.0000 0.0000 0.0000 26.2426
#
#
#
# Elastic Compliance Matrix: (Units=1/GPa)
#
#
# Indices 1 2 3 4 5 6 
#
# 1 0.010065 -0.013328 -0.000190 0.000000 0.000000 0.000000
# 2 -0.013328 0.078041 -0.021504 0.000000 0.000000 0.000000
# 3 -0.000190 -0.021504 0.013295 0.000000 0.000000 0.000000
# 4 0.000000 0.000000 0.000000 0.032673 0.000000 0.000000
# 5 0.000000 0.000000 0.000000 0.000000 0.172486 0.000000
# 6 0.000000 0.000000 0.000000 0.000000 0.000000 0.038106
#
#
# Mechanical properties :
#
#
# Convention : Reuss Voigt Hill
#
# Bulk Modulus (GPa) = 31.89069 91.16350 61.52710
# Shear Modulus (GPa) = 11.76019 24.89730 18.32875
#
# Velocity S-wave (km/s) = 2.62448 3.81867 3.27644
# Velocity P-wave (km/s) = 5.27846 8.53447 7.09575
#
# Compressibility (1/GPa) = 0.03135711
#
# Stress axis : x y z
#
# Youngs Moduli (GPa) = 99.35071 12.81373 75.21635
#
# Poissons Ratio (x) = 0.17079 0.01430
# Poissons Ratio (y) = 1.32419 1.61743
# Poissons Ratio (z) = 0.01889 0.27554
#
# Static dielectric constant tensor:
#      x y z
#    x 1.566750 0.000000 0.000000 
#    y 0.000000 1.573800 0.000000 
#    z 0.000000 0.000000 1.544170 
# 
# From -- ./inp_files/25488.got.cif
#   From: 2010.05.17/outbox.cif.g08.bks.cpg/sg59_13_cif.got.tgz:25488.got - 2010.06.03 14:40:33.
