data_PCOD9450379
_publ_section_title
;
Structure prediction by ZEFSAII (Michael W. Deem and Ramdas Pophale) SiO2 
 PCOD9450379
Probable space group: P M M N
;
_chemical_formula_sum "Si O2"
_cell_formula_units_Z 48
_cell_length_a 9.318479
_cell_length_b 7.766830
_cell_length_c 35.534726
_cell_angle_alpha 90.000000
_cell_angle_beta 90.000000
_cell_angle_gamma 90.000000
_cell_volume 2571.827296
_symmetry_space_group_name_H-M "P M M N"
_symmetry_group_IT_number 59
_space_group.IT_coordinate_system_code '2'
_symmetry_cell_setting 'orthorhombic'
loop_
_space_group_symop_operation_xyz
x,y,z
1/2-x,1/2-y,z
1/2+x,-y,-z
-x,1/2+y,-z
-x,-y,-z
1/2+x,1/2+y,-z
1/2-x,y,z
x,1/2-y,z
loop_
_atom_site_type_symbol
_atom_site_label
_atom_site_fract_x
_atom_site_fract_y
_atom_site_fract_z
Si Si1 0.911594 0.456222 0.388345
Si Si2 0.421802 0.551746 0.961516
Si Si3 0.575373 0.552662 0.767719
Si Si4 0.577557 0.750000 0.096220
Si Si5 0.084914 0.039705 0.316102
Si Si6 0.576220 0.250000 0.823926
Si Si7 0.587860 0.454954 0.537350
O O1 0.750000 0.523954 0.392619
O O2 0.902487 0.250000 0.384120
O O3 0.989426 0.522009 0.350729
O O4 0.004800 0.488434 0.425351
O O5 0.250000 0.538647 0.967253
O O6 0.455907 0.750000 0.952062
O O7 0.460037 0.417623 0.928742
O O8 0.500000 0.500000 0.000000
O O9 0.750000 0.555579 0.766564
O O10 0.527903 0.750000 0.774287
O O11 0.531795 0.493781 0.725714
O O12 0.533735 0.418132 0.799671
O O13 0.750000 0.750000 0.101984
O O14 0.496601 0.750000 0.135605
O O15 0.250000 0.982907 0.320843
O O16 0.086992 0.250000 0.316450
O O17 0.750000 0.250000 0.827473
O O18 0.500000 0.500000 0.500000
O O19 0.750000 0.526218 0.536092
O O20 0.597454 0.250000 0.538751
#
# Coordination Sequence:
#
# PCOD9450379 Si02
#       7
#     8   8   8   4   8   4   8
#     4  10  20  34  54  81 111 140 172 213 261 316
#     4  10  20  35  57  82 109 144 185 229 281 336
#     4   8  15  30  52  77 106 139 179 229 279 322
#     4  10  22  38  52  76 116 150 178 226 284 338
#     4   8  14  28  51  75 101 136 172 210 263 318
#     4  10  20  34  54  80 106 142 192 236 272 326
#     4  11  24  40  57  78 103 135 175 215 259 314
#
# _framework density 18.663772000000002
#
# number of rings (size 3 to 8) (size 9 to 14) (size 15 to 20)
#    0.000    2.500    0.833    2.500    0.000    5.667 
#    1.500    0.833    0.000    1.000    0.000    0.000 
#    0.000    0.000    0.000    0.000    0.000    0.000 
#
# Total GULP energy -267825.278212 kJ/mol
# GULP energy per Si atom -5579.693296 kJ/mol
# Density = 1.862129 g / cm^3
# Si number density = 18.663772 Si / 1000 Ang^3
#
#
#
# Elastic Constant Matrix: (Units=GPa)
#
#
# Indices 1 2 3 4 5 6 
#
# 1 86.6144 35.5619 82.5253 0.0000 0.0000 0.0000
# 2 35.5619 94.8448 71.4844 0.0000 0.0000 0.0000
# 3 82.5253 71.4844 206.8588 0.0000 0.0000 0.0000
# 4 0.0000 0.0000 0.0000 28.7754 0.0000 0.0000
# 5 0.0000 0.0000 0.0000 0.0000 36.3334 0.0000
# 6 0.0000 0.0000 0.0000 0.0000 0.0000 15.2779
#
#
#
# Elastic Compliance Matrix: (Units=1/GPa)
#
#
# Indices 1 2 3 4 5 6 
#
# 1 0.018874 -0.001895 -0.006875 0.000000 0.000000 0.000000
# 2 -0.001895 0.014447 -0.004236 0.000000 0.000000 0.000000
# 3 -0.006875 -0.004236 0.009041 0.000000 0.000000 0.000000
# 4 0.000000 0.000000 0.000000 0.034752 0.000000 0.000000
# 5 0.000000 0.000000 0.000000 0.000000 0.027523 0.000000
# 6 0.000000 0.000000 0.000000 0.000000 0.000000 0.065454
#
#
# Mechanical properties :
#
#
# Convention : Reuss Voigt Hill
#
# Bulk Modulus (GPa) = 61.16576 85.27348 73.21962
# Shear Modulus (GPa) = 24.80742 29.32709 27.06725
#
# Velocity S-wave (km/s) = 3.64974 3.96831 3.81235
# Velocity P-wave (km/s) = 7.11368 8.17222 7.66125
#
# Compressibility (1/GPa) = 0.01634902
#
# Stress axis : x y z
#
# Youngs Moduli (GPa) = 52.98398 69.21778 110.60987
#
# Poissons Ratio (x) = 0.13119 0.76040
# Poissons Ratio (y) = 0.10042 0.46859
# Poissons Ratio (z) = 0.36424 0.29323
#
# Static dielectric constant tensor:
#      x y z
#    x 1.646550 0.000000 0.000000 
#    y 0.000000 1.672610 0.000000 
#    z 0.000000 0.000000 1.648650 
# 
# From -- ./inp_files/32923.got.cif
#   From: 2010.05.17/outbox.cif.g08.bks.cpg/sg59_17_cif.got.tgz:32923.got - 2010.06.03 14:40:33.
