data_PCOD9450761
_publ_section_title
;
Structure prediction by ZEFSAII (Michael W. Deem and Ramdas Pophale) SiO2 
 PCOD9450761
Probable space group: P M M N
;
_chemical_formula_sum "Si O2"
_cell_formula_units_Z 64
_cell_length_a 13.738363
_cell_length_b 13.829632
_cell_length_c 18.346043
_cell_angle_alpha 90.000000
_cell_angle_beta 90.000000
_cell_angle_gamma 90.000000
_cell_volume 3485.684043
_symmetry_space_group_name_H-M "P M M N"
_symmetry_group_IT_number 59
_space_group.IT_coordinate_system_code '2'
_symmetry_cell_setting 'orthorhombic'
loop_
_space_group_symop_operation_xyz
x,y,z
1/2-x,1/2-y,z
1/2+x,-y,-z
-x,1/2+y,-z
-x,-y,-z
1/2+x,1/2+y,-z
1/2-x,y,z
x,1/2-y,z
loop_
_atom_site_type_symbol
_atom_site_label
_atom_site_fract_x
_atom_site_fract_y
_atom_site_fract_z
Si Si1 0.364719 0.053840 0.792592
Si Si2 0.857894 0.862605 0.792045
Si Si3 0.458103 0.635928 0.566532
Si Si4 0.136026 0.472001 0.489334
Si Si5 0.432500 0.638862 0.731476
Si Si6 0.862532 0.981328 0.940899
Si Si7 0.632523 0.641156 0.361263
Si Si8 0.472055 0.134598 0.934586
O O1 0.250000 0.074015 0.801265
O O2 0.400749 0.097804 0.715510
O O3 0.422507 0.099300 0.859469
O O4 0.381367 0.939271 0.782616
O O5 0.750000 0.879835 0.759556
O O6 0.859800 0.750000 0.815968
O O7 0.869457 0.931010 0.861844
O O8 0.951123 0.874878 0.740928
O O9 0.470960 0.750000 0.554223
O O10 0.562307 0.581470 0.564832
O O11 0.394086 0.582499 0.505091
O O12 0.409346 0.624103 0.646179
O O13 0.250000 0.461082 0.472739
O O14 0.112863 0.421132 0.567291
O O15 0.409496 0.750000 0.750510
O O16 0.750000 0.999589 0.957339
O O17 0.906836 0.907367 0.999708
O O18 0.925609 0.078747 0.941536
O O19 0.750000 0.644308 0.356316
O O20 0.595992 0.750000 0.370899
O O21 0.479611 0.250000 0.936974
#
# Coordination Sequence:
#
# PCOD9450761 Si02
#       8
#     8   8   8   8   8   8   8   8
#     4  11  21  35  53  80 114 146 184 226 271 323
#     4   9  17  32  56  80 104 140 184 226 268 318
#     4  10  21  35  54  80 109 144 183 227 278 333
#     4  10  20  35  54  79 109 141 180 228 278 331
#     4  10  20  35  54  80 113 144 180 224 274 331
#     4  10  21  38  59  84 114 148 185 228 276 326
#     4   9  17  30  50  74 102 139 180 221 266 318
#     4  11  23  38  59  86 115 148 187 231 276 325
#
# _framework density 18.360814000000001
#
# number of rings (size 3 to 8) (size 9 to 14) (size 15 to 20)
#    0.000    2.000    2.500    1.500    0.000    4.000 
#    0.000    2.500    0.000    1.500    0.000    0.000 
#    0.000    0.000    0.000    0.000    0.000    0.000 
#
# Total GULP energy -356986.346303 kJ/mol
# GULP energy per Si atom -5577.911661 kJ/mol
# Density = 1.831902 g / cm^3
# Si number density = 18.360814 Si / 1000 Ang^3
#
#
#
# Elastic Constant Matrix: (Units=GPa)
#
#
# Indices 1 2 3 4 5 6 
#
# 1 46.2512 28.1356 -7.1028 0.0000 0.0000 0.0000
# 2 28.1356 119.9576 24.9676 0.0000 0.0000 0.0000
# 3 -7.1028 24.9676 29.5297 0.0000 0.0000 0.0000
# 4 0.0000 0.0000 0.0000 24.8000 0.0000 0.0000
# 5 0.0000 0.0000 0.0000 0.0000 20.8788 0.0000
# 6 0.0000 0.0000 0.0000 0.0000 0.0000 18.2787
#
#
#
# Elastic Compliance Matrix: (Units=1/GPa)
#
#
# Indices 1 2 3 4 5 6 
#
# 1 0.030534 -0.010546 0.016261 0.000000 0.000000 0.000000
# 2 -0.010546 0.013759 -0.014170 0.000000 0.000000 0.000000
# 3 0.016261 -0.014170 0.049757 0.000000 0.000000 0.000000
# 4 0.000000 0.000000 0.000000 0.040323 0.000000 0.000000
# 5 0.000000 0.000000 0.000000 0.000000 0.047895 0.000000
# 6 0.000000 0.000000 0.000000 0.000000 0.000000 0.054709
#
#
# Mechanical properties :
#
#
# Convention : Reuss Voigt Hill
#
# Bulk Modulus (GPa) = 12.96358 31.97102 22.46730
# Shear Modulus (GPa) = 17.88274 22.77405 20.32839
#
# Velocity S-wave (km/s) = 3.12422 3.52570 3.33101
# Velocity P-wave (km/s) = 4.48220 5.83305 5.20167
#
# Compressibility (1/GPa) = 0.07713919
#
# Stress axis : x y z
#
# Youngs Moduli (GPa) = 32.75069 72.67890 20.09785
#
# Poissons Ratio (x) = 0.76648 -0.32681
# Poissons Ratio (y) = 0.34539 0.28479
# Poissons Ratio (z) = -0.53256 1.02987
#
# Static dielectric constant tensor:
#      x y z
#    x 1.635420 0.000000 0.000000 
#    y 0.000000 1.644760 0.000000 
#    z 0.000000 0.000000 1.623970 
# 
# From -- ./inp_files/27681.got.cif
#   From: 2010.05.17/outbox.cif.g08.bks.cpg/sg59_14_cif.got.tgz:27681.got - 2010.06.03 14:40:33.
