data_PCOD9450720
_publ_section_title
;
Structure prediction by ZEFSAII (Michael W. Deem and Ramdas Pophale) SiO2 
 PCOD9450720
Probable space group: P M M N
;
_chemical_formula_sum "Si O2"
_cell_formula_units_Z 48
_cell_length_a 15.933144
_cell_length_b 8.580172
_cell_length_c 19.629906
_cell_angle_alpha 90.000000
_cell_angle_beta 90.000000
_cell_angle_gamma 90.000000
_cell_volume 2683.587097
_symmetry_space_group_name_H-M "P M M N"
_symmetry_group_IT_number 59
_space_group.IT_coordinate_system_code '2'
_symmetry_cell_setting 'orthorhombic'
loop_
_space_group_symop_operation_xyz
x,y,z
1/2-x,1/2-y,z
1/2+x,-y,-z
-x,1/2+y,-z
-x,-y,-z
1/2+x,1/2+y,-z
1/2-x,y,z
x,1/2-y,z
loop_
_atom_site_type_symbol
_atom_site_label
_atom_site_fract_x
_atom_site_fract_y
_atom_site_fract_z
Si Si1 0.250000 0.571961 0.047693
Si Si2 0.495473 0.936390 0.667399
Si Si3 0.570007 0.935333 0.949240
Si Si4 0.431629 0.562525 0.203034
Si Si5 0.656198 0.560394 0.581598
Si Si6 0.654172 0.562288 0.423083
Si Si7 0.750000 0.072061 0.786745
O O1 0.250000 0.750000 0.023479
O O2 0.336693 0.489385 0.028458
O O3 0.250000 0.576718 0.130502
O O4 0.499048 0.750000 0.672376
O O5 0.578313 0.993701 0.626505
O O6 0.500469 0.008845 0.742465
O O7 0.414319 0.986057 0.625072
O O8 0.567009 0.750000 0.947409
O O9 0.555142 0.000428 0.872984
O O10 0.500000 0.000000 0.000000
O O11 0.426447 0.750000 0.199978
O O12 0.340227 0.499616 0.229352
O O13 0.750000 0.507975 0.602928
O O14 0.656943 0.750000 0.583723
O O15 0.642790 0.516774 0.502446
O O16 0.750000 0.522261 0.404167
O O17 0.646021 0.750000 0.419769
O O18 0.750000 0.250000 0.760866
#
# Coordination Sequence:
#
# PCOD9450720 Si02
#       7
#     4   8   8   8   8   8   4
#     4   9  17  33  55  83 113 145 182 221 264 317
#     4  11  21  31  50  79 109 139 174 221 274 323
#     4  11  21  36  59  86 115 149 187 227 275 327
#     4  10  20  35  53  77 110 146 182 221 267 323
#     4   8  16  31  50  75 106 139 175 216 264 323
#     4   9  18  35  56  72  94 137 186 226 270 321
#     4   7  14  29  49  71 101 137 170 207 252 303
#
# _framework density 17.886507000000002
#
# number of rings (size 3 to 8) (size 9 to 14) (size 15 to 20)
#    0.000    2.500    0.000    5.250    1.167    0.333 
#    0.000    1.667    1.833    2.000    0.000    0.000 
#    0.000    0.000    0.000    0.000    0.000    0.000 
#
# Total GULP energy -267734.902829 kJ/mol
# GULP energy per Si atom -5577.810476 kJ/mol
# Density = 1.784580 g / cm^3
# Si number density = 17.886507 Si / 1000 Ang^3
#
#
#
# Elastic Constant Matrix: (Units=GPa)
#
#
# Indices 1 2 3 4 5 6 
#
# 1 122.1020 45.1470 77.8568 0.0000 0.0000 0.0000
# 2 45.1470 74.0371 36.1662 0.0000 0.0000 0.0000
# 3 77.8568 36.1662 90.7356 0.0000 0.0000 0.0000
# 4 0.0000 0.0000 0.0000 19.2495 0.0000 0.0000
# 5 0.0000 0.0000 0.0000 0.0000 28.9277 0.0000
# 6 0.0000 0.0000 0.0000 0.0000 0.0000 27.5074
#
#
#
# Elastic Compliance Matrix: (Units=1/GPa)
#
#
# Indices 1 2 3 4 5 6 
#
# 1 0.019248 -0.004556 -0.014699 0.000000 0.000000 0.000000
# 2 -0.004556 0.017851 -0.003206 0.000000 0.000000 0.000000
# 3 -0.014699 -0.003206 0.024912 0.000000 0.000000 0.000000
# 4 0.000000 0.000000 0.000000 0.051949 0.000000 0.000000
# 5 0.000000 0.000000 0.000000 0.000000 0.034569 0.000000
# 6 0.000000 0.000000 0.000000 0.000000 0.000000 0.036354
#
#
# Mechanical properties :
#
#
# Convention : Reuss Voigt Hill
#
# Bulk Modulus (GPa) = 58.52216 67.24609 62.88413
# Shear Modulus (GPa) = 21.23132 23.65057 22.44094
#
# Velocity S-wave (km/s) = 3.44903 3.64023 3.54592
# Velocity P-wave (km/s) = 6.97500 7.43949 7.21099
#
# Compressibility (1/GPa) = 0.01708754
#
# Stress axis : x y z
#
# Youngs Moduli (GPa) = 51.95473 56.01905 40.14168
#
# Poissons Ratio (x) = 0.25525 0.59006
# Poissons Ratio (y) = 0.23673 0.12868
# Poissons Ratio (z) = 0.76371 0.17957
#
# Static dielectric constant tensor:
#      x y z
#    x 1.630520 0.000000 0.000000 
#    y 0.000000 1.608190 0.000000 
#    z 0.000000 0.000000 1.593300 
# 
# From -- ./inp_files/27426.got.cif
#   From: 2010.05.17/outbox.cif.g08.bks.cpg/sg59_14_cif.got.tgz:27426.got - 2010.06.03 14:40:33.
