data_PCOD9450179
_publ_section_title
;
Structure prediction by ZEFSAII (Michael W. Deem and Ramdas Pophale) SiO2 
 PCOD9450179
Probable space group: P M M N
;
_chemical_formula_sum "Si O2"
_cell_formula_units_Z 64
_cell_length_a 16.595064
_cell_length_b 9.695808
_cell_length_c 21.403693
_cell_angle_alpha 90.000000
_cell_angle_beta 90.000000
_cell_angle_gamma 90.000000
_cell_volume 3443.908875
_symmetry_space_group_name_H-M "P M M N"
_symmetry_group_IT_number 59
_space_group.IT_coordinate_system_code '2'
_symmetry_cell_setting 'orthorhombic'
loop_
_space_group_symop_operation_xyz
x,y,z
1/2-x,1/2-y,z
1/2+x,-y,-z
-x,1/2+y,-z
-x,-y,-z
1/2+x,1/2+y,-z
1/2-x,y,z
x,1/2-y,z
loop_
_atom_site_type_symbol
_atom_site_label
_atom_site_fract_x
_atom_site_fract_y
_atom_site_fract_z
Si Si1 0.656734 0.909436 0.005340
Si Si2 0.425660 0.408585 0.121557
Si Si3 0.346695 0.406301 0.617678
Si Si4 0.578572 0.408318 0.762661
Si Si5 0.379647 0.590668 0.874370
Si Si6 0.651291 0.409461 0.497126
Si Si7 0.884659 0.909085 0.242529
Si Si8 0.156433 0.917744 0.365822
O O1 0.750000 0.909393 0.985948
O O2 0.634335 0.750000 0.021259
O O3 0.647424 0.006765 0.064906
O O4 0.603816 0.956263 0.946420
O O5 0.398669 0.250000 0.128603
O O6 0.394970 0.500858 0.178618
O O7 0.522673 0.409997 0.123826
O O8 0.250000 0.399750 0.611410
O O9 0.379301 0.250000 0.613483
O O10 0.376849 0.500005 0.561111
O O11 0.363748 0.457307 0.687664
O O12 0.606598 0.250000 0.769789
O O13 0.481601 0.406620 0.761962
O O14 0.608679 0.461694 0.695588
O O15 0.353290 0.750000 0.874339
O O16 0.354070 0.508062 0.812207
O O17 0.750000 0.410747 0.498168
O O18 0.627191 0.250000 0.489653
O O19 0.626117 0.462684 0.565779
O O20 0.855886 0.750000 0.235304
O O21 0.250000 0.957452 0.359153
O O22 0.153578 0.750000 0.367997
#
# Coordination Sequence:
#
# PCOD9450179 Si02
#       8
#     8   8   8   8   8   8   8   8
#     4  10  21  36  53  73  99 129 157 189 233 283
#     4   9  19  35  52  71  97 128 159 191 232 281
#     4   9  17  29  45  64  87 117 153 191 228 270
#     4   9  17  30  49  70  92 121 156 192 228 272
#     4  10  20  34  53  74  96 124 159 198 234 273
#     4   8  14  26  44  64  87 117 152 189 230 277
#     4   9  18  32  48  67  93 124 156 189 231 282
#     4   8  14  26  45  68  92 119 153 191 231 276
#
# _framework density 18.583535000000001
#
# number of rings (size 3 to 8) (size 9 to 14) (size 15 to 20)
#    0.000    3.000    0.000    1.500    0.000    2.750 
#    0.000    2.500    0.000    0.750    0.000    0.000 
#    0.000    0.000    0.000    0.000    0.000    0.000 
#
# Total GULP energy -356693.373146 kJ/mol
# GULP energy per Si atom -5573.333955 kJ/mol
# Density = 1.854124 g / cm^3
# Si number density = 18.583535 Si / 1000 Ang^3
#
#
#
# Elastic Constant Matrix: (Units=GPa)
#
#
# Indices 1 2 3 4 5 6 
#
# 1 12.1457 14.5983 23.1691 0.0000 0.0000 0.0000
# 2 14.5983 60.1580 68.7054 0.0000 0.0000 0.0000
# 3 23.1691 68.7054 155.7936 0.0000 0.0000 0.0000
# 4 0.0000 0.0000 0.0000 38.1330 0.0000 0.0000
# 5 0.0000 0.0000 0.0000 0.0000 28.7137 0.0000
# 6 0.0000 0.0000 0.0000 0.0000 0.0000 6.9905
#
#
#
# Elastic Compliance Matrix: (Units=1/GPa)
#
#
# Indices 1 2 3 4 5 6 
#
# 1 0.124110 -0.018209 -0.010427 0.000000 0.000000 0.000000
# 2 -0.018209 0.036163 -0.013240 0.000000 0.000000 0.000000
# 3 -0.010427 -0.013240 0.013808 0.000000 0.000000 0.000000
# 4 0.000000 0.000000 0.000000 0.026224 0.000000 0.000000
# 5 0.000000 0.000000 0.000000 0.000000 0.034827 0.000000
# 6 0.000000 0.000000 0.000000 0.000000 0.000000 0.143052
#
#
# Mechanical properties :
#
#
# Convention : Reuss Voigt Hill
#
# Bulk Modulus (GPa) = 11.07058 49.00478 30.03768
# Shear Modulus (GPa) = 10.16169 22.87573 16.51871
#
# Velocity S-wave (km/s) = 2.34094 3.51232 2.98466
# Velocity P-wave (km/s) = 3.64373 6.54796 5.29871
#
# Compressibility (1/GPa) = 0.09032951
#
# Stress axis : x y z
#
# Youngs Moduli (GPa) = 8.05737 27.65294 72.42046
#
# Poissons Ratio (x) = 0.50352 0.75514
# Poissons Ratio (y) = 0.14671 0.95884
# Poissons Ratio (z) = 0.08402 0.36612
#
# Static dielectric constant tensor:
#      x y z
#    x 1.656460 0.000000 0.000000 
#    y 0.000000 1.642130 0.000000 
#    z 0.000000 0.000000 1.637020 
# 
# From -- ./inp_files/30841.got.cif
#   From: 2010.05.17/outbox.cif.g08.bks.cpg/sg59_16_cif.got.tgz:30841.got - 2010.06.03 14:40:33.
