data_PCOD9450996
_publ_section_title
;
Structure prediction by ZEFSAII (Michael W. Deem and Ramdas Pophale) SiO2 
 PCOD9450996
Probable space group: P M M N
;
_chemical_formula_sum "Si O2"
_cell_formula_units_Z 64
_cell_length_a 8.843115
_cell_length_b 23.502093
_cell_length_c 17.025869
_cell_angle_alpha 90.000000
_cell_angle_beta 90.000000
_cell_angle_gamma 90.000000
_cell_volume 3538.515488
_symmetry_space_group_name_H-M "P M M N"
_symmetry_group_IT_number 59
_space_group.IT_coordinate_system_code '2'
_symmetry_cell_setting 'orthorhombic'
loop_
_space_group_symop_operation_xyz
x,y,z
1/2-x,1/2-y,z
1/2+x,-y,-z
-x,1/2+y,-z
-x,-y,-z
1/2+x,1/2+y,-z
1/2-x,y,z
x,1/2-y,z
loop_
_atom_site_type_symbol
_atom_site_label
_atom_site_fract_x
_atom_site_fract_y
_atom_site_fract_z
Si Si1 0.931105 0.516548 0.916613
Si Si2 0.934031 0.422807 0.788069
Si Si3 0.930059 0.317086 0.363205
Si Si4 0.432616 0.533829 0.383463
Si Si5 0.418467 0.183660 0.203771
Si Si6 0.929211 0.136483 0.061070
Si Si7 0.569377 0.915076 0.540836
Si Si8 0.565627 0.315982 0.889832
O O1 0.750000 0.515210 0.920142
O O2 0.979466 0.471733 0.850111
O O3 0.990903 0.579961 0.906773
O O4 0.000000 0.500000 0.000000
O O5 0.750000 0.421986 0.787447
O O6 0.981898 0.441145 0.700707
O O7 0.982124 0.361278 0.822828
O O8 0.750000 0.321914 0.357540
O O9 0.965214 0.250000 0.375292
O O10 0.004005 0.339473 0.282136
O O11 0.994158 0.357062 0.430835
O O12 0.250000 0.539231 0.388505
O O13 0.468211 0.467217 0.399290
O O14 0.507890 0.566706 0.455857
O O15 0.250000 0.159356 0.190356
O O16 0.401169 0.250000 0.220235
O O17 0.523764 0.180151 0.127930
O O18 0.750000 0.127388 0.056665
O O19 0.979393 0.157840 0.974842
O O20 0.750000 0.909504 0.539093
O O21 0.750000 0.314925 0.889695
O O22 0.515859 0.250000 0.881230
#
# Coordination Sequence:
#
# PCOD9450996 Si02
#       8
#     8   8   8   8   8   8   8   8
#     4  11  21  35  54  78 110 146 182 228 282 334
#     4   9  18  34  54  78 108 141 183 233 281 329
#     4  10  21  37  57  82 113 148 187 232 279 333
#     4   9  19  36  58  81 109 145 183 230 281 335
#     4  10  21  36  53  77 111 149 188 228 273 327
#     4  11  21  34  52  79 110 145 188 231 276 329
#     4  10  20  35  57  84 113 146 182 224 281 341
#     4   9  17  31  53  78 105 140 183 230 278 326
#
# _framework density 18.086682
#
# number of rings (size 3 to 8) (size 9 to 14) (size 15 to 20)
#    0.000    2.125    1.250    2.250    1.750    2.500 
#    0.000    1.875    0.000    2.250    0.000    0.000 
#    0.000    0.000    0.000    0.000    0.000    0.000 
#
# Total GULP energy -356747.709616 kJ/mol
# GULP energy per Si atom -5574.182963 kJ/mol
# Density = 1.804552 g / cm^3
# Si number density = 18.086682 Si / 1000 Ang^3
#
#
#
# Elastic Constant Matrix: (Units=GPa)
#
#
# Indices 1 2 3 4 5 6 
#
# 1 27.7668 27.1696 20.0997 0.0000 0.0000 0.0000
# 2 27.1696 107.4204 62.4239 0.0000 0.0000 0.0000
# 3 20.0997 62.4239 113.6773 0.0000 0.0000 0.0000
# 4 0.0000 0.0000 0.0000 23.7440 0.0000 0.0000
# 5 0.0000 0.0000 0.0000 0.0000 24.7655 0.0000
# 6 0.0000 0.0000 0.0000 0.0000 0.0000 25.2007
#
#
#
# Elastic Compliance Matrix: (Units=1/GPa)
#
#
# Indices 1 2 3 4 5 6 
#
# 1 0.048415 -0.010678 -0.002697 0.000000 0.000000 0.000000
# 2 -0.010678 0.016027 -0.006913 0.000000 0.000000 0.000000
# 3 -0.002697 -0.006913 0.013070 0.000000 0.000000 0.000000
# 4 0.000000 0.000000 0.000000 0.042116 0.000000 0.000000
# 5 0.000000 0.000000 0.000000 0.000000 0.040379 0.000000
# 6 0.000000 0.000000 0.000000 0.000000 0.000000 0.039681
#
#
# Mechanical properties :
#
#
# Convention : Reuss Voigt Hill
#
# Bulk Modulus (GPa) = 27.07384 52.02789 39.55087
# Shear Modulus (GPa) = 19.79599 24.02014 21.90806
#
# Velocity S-wave (km/s) = 3.31192 3.64820 3.48412
# Velocity P-wave (km/s) = 5.44303 6.82453 6.17255
#
# Compressibility (1/GPa) = 0.03693602
#
# Stress axis : x y z
#
# Youngs Moduli (GPa) = 20.65477 62.39307 76.51217
#
# Poissons Ratio (x) = 0.66626 0.20632
# Poissons Ratio (y) = 0.22056 0.52894
# Poissons Ratio (z) = 0.05570 0.43133
#
# Static dielectric constant tensor:
#      x y z
#    x 1.621180 0.000000 0.000000 
#    y 0.000000 1.870290 0.000000 
#    z 0.000000 0.000000 1.550670 
# 
# From -- ./inp_files/21481.got.cif
#   From: 2010.05.17/outbox.cif.g08.bks.cpg/sg59_11_cif.got.tgz:21481.got - 2010.06.03 14:40:33.
