data_PCOD9450562
_publ_section_title
;
Structure prediction by ZEFSAII (Michael W. Deem and Ramdas Pophale) SiO2 
 PCOD9450562
Probable space group: P M M N
;
_chemical_formula_sum "Si O2"
_cell_formula_units_Z 48
_cell_length_a 9.060602
_cell_length_b 30.894686
_cell_length_c 9.679278
_cell_angle_alpha 90.000000
_cell_angle_beta 90.000000
_cell_angle_gamma 90.000000
_cell_volume 2709.466607
_symmetry_space_group_name_H-M "P M M N"
_symmetry_group_IT_number 59
_space_group.IT_coordinate_system_code '2'
_symmetry_cell_setting 'orthorhombic'
loop_
_space_group_symop_operation_xyz
x,y,z
1/2-x,1/2-y,z
1/2+x,-y,-z
-x,1/2+y,-z
-x,-y,-z
1/2+x,1/2+y,-z
1/2-x,y,z
x,1/2-y,z
loop_
_atom_site_type_symbol
_atom_site_label
_atom_site_fract_x
_atom_site_fract_y
_atom_site_fract_z
Si Si1 0.574618 0.677021 0.343188
Si Si2 0.072515 0.499663 0.850674
Si Si3 0.426675 0.076202 0.642936
Si Si4 0.426742 0.921474 0.651096
Si Si5 0.572410 0.750000 0.862083
Si Si6 0.073204 0.170516 0.336958
Si Si7 0.425588 0.750000 0.161467
O O1 0.750000 0.684618 0.323334
O O2 0.544346 0.626190 0.318009
O O3 0.540651 0.684877 0.505304
O O4 0.484682 0.708362 0.244847
O O5 0.250000 0.499186 0.865095
O O6 0.030281 0.457496 0.761101
O O7 0.031829 0.542027 0.761899
O O8 0.000000 0.500000 0.000000
O O9 0.250000 0.072481 0.619875
O O10 0.507851 0.066954 0.499049
O O11 0.250000 0.919453 0.642627
O O12 0.491647 0.874590 0.689166
O O13 0.750000 0.750000 0.882228
O O14 0.534956 0.792271 0.771403
O O15 0.493013 0.750000 0.008369
O O16 0.250000 0.163092 0.331801
O O17 0.250000 0.750000 0.156019
#
# Coordination Sequence:
#
# PCOD9450562 Si02
#       7
#     8   8   8   8   4   8   4
#     4   9  18  36  60  81 102 133 179 227 261 304
#     4  10  22  37  53  78 111 145 180 218 263 315
#     4   9  19  37  59  80 103 138 184 224 258 308
#     4  10  20  34  55  84 113 138 170 218 272 319
#     4  10  21  38  58  78 104 142 183 220 260 310
#     4   9  19  37  61  83 102 134 181 224 263 312
#     4  12  25  36  50  78 114 146 173 210 268 326
#
# _framework density 17.715662999999999
#
# number of rings (size 3 to 8) (size 9 to 14) (size 15 to 20)
#    0.000    2.333    0.000    3.250    0.000    8.000 
#    0.000    5.833    0.000    0.000    0.000    0.000 
#    0.000    0.000    0.000    0.000    0.000    0.000 
#
# Total GULP energy -267999.281052 kJ/mol
# GULP energy per Si atom -5583.318355 kJ/mol
# Density = 1.767534 g / cm^3
# Si number density = 17.715663 Si / 1000 Ang^3
#
#
#
# Elastic Constant Matrix: (Units=GPa)
#
#
# Indices 1 2 3 4 5 6 
#
# 1 48.5729 69.8334 77.3879 0.0000 0.0000 0.0000
# 2 69.8334 138.0728 135.4253 0.0000 0.0000 0.0000
# 3 77.3879 135.4253 177.2724 0.0000 0.0000 0.0000
# 4 0.0000 0.0000 0.0000 -8.3768 0.0000 0.0000
# 5 0.0000 0.0000 0.0000 0.0000 30.2865 0.0000
# 6 0.0000 0.0000 0.0000 0.0000 0.0000 28.1984
#
#
#
# Elastic Compliance Matrix: (Units=1/GPa)
#
#
# Indices 1 2 3 4 5 6 
#
# 1 0.087158 -0.026976 -0.017441 0.000000 0.000000 0.000000
# 2 -0.026976 0.037237 -0.016671 0.000000 0.000000 0.000000
# 3 -0.017441 -0.016671 0.025990 0.000000 0.000000 0.000000
# 4 0.000000 0.000000 0.000000 -0.119377 0.000000 0.000000
# 5 0.000000 0.000000 0.000000 0.000000 0.033018 0.000000
# 6 0.000000 0.000000 0.000000 0.000000 0.000000 0.035463
#
#
# Mechanical properties :
#
#
# Convention : Reuss Voigt Hill
#
# Bulk Modulus (GPa) = 35.44745 103.24572 69.34658
# Shear Modulus (GPa) = 21.63871 15.43971 18.53921
#
# Velocity S-wave (km/s) = 3.49871 2.95537 3.23845
# Velocity P-wave (km/s) = 6.03107 8.36968 7.29470
#
# Compressibility (1/GPa) = 0.02821078
#
# Stress axis : x y z
#
# Youngs Moduli (GPa) = 11.47344 26.85487 38.47590
#
# Poissons Ratio (x) = 0.72443 0.67105
# Poissons Ratio (y) = 0.30950 0.64142
# Poissons Ratio (z) = 0.20011 0.44769
#
# Static dielectric constant tensor:
#      x y z
#    x 1.588680 0.000000 0.000000 
#    y 0.000000 1.599640 0.000000 
#    z 0.000000 0.000000 1.570790 
# 
# From -- ./inp_files/6345.got.cif
#   From: 2010.05.17/outbox.cif.g08.bks.cpg/sg59_4_cif.got.tgz:6345.got - 2010.06.03 14:40:33.
