data_PCOD9450142
_publ_section_title
;
Structure prediction by ZEFSAII (Michael W. Deem and Ramdas Pophale) SiO2 
 PCOD9450142
Probable space group: P M M N
;
_chemical_formula_sum "Si O2"
_cell_formula_units_Z 64
_cell_length_a 8.950275
_cell_length_b 13.935547
_cell_length_c 27.126352
_cell_angle_alpha 90.000000
_cell_angle_beta 90.000000
_cell_angle_gamma 90.000000
_cell_volume 3383.387907
_symmetry_space_group_name_H-M "P M M N"
_symmetry_group_IT_number 59
_space_group.IT_coordinate_system_code '2'
_symmetry_cell_setting 'orthorhombic'
loop_
_space_group_symop_operation_xyz
x,y,z
1/2-x,1/2-y,z
1/2+x,-y,-z
-x,1/2+y,-z
-x,-y,-z
1/2+x,1/2+y,-z
1/2-x,y,z
x,1/2-y,z
loop_
_atom_site_type_symbol
_atom_site_label
_atom_site_fract_x
_atom_site_fract_y
_atom_site_fract_z
Si Si1 0.422126 0.632587 0.976173
Si Si2 0.576678 0.866008 0.874219
Si Si3 0.067959 0.639355 0.677296
Si Si4 0.569589 0.449136 0.426125
Si Si5 0.427112 0.862330 0.178810
Si Si6 0.919756 0.633245 0.076510
Si Si7 0.570157 0.857400 0.478067
Si Si8 0.571003 0.039391 0.221161
O O1 0.250000 0.603026 0.980013
O O2 0.424168 0.750000 0.976341
O O3 0.494346 0.602941 0.924396
O O4 0.514182 0.601629 0.024239
O O5 0.750000 0.895454 0.875437
O O6 0.571734 0.750000 0.872966
O O7 0.497670 0.905231 0.825525
O O8 0.250000 0.639329 0.677180
O O9 0.019164 0.750000 0.676496
O O10 0.019843 0.585279 0.627639
O O11 0.021853 0.587747 0.727699
O O12 0.750000 0.441611 0.428114
O O13 0.501624 0.384222 0.469473
O O14 0.527945 0.558446 0.440001
O O15 0.250000 0.874901 0.183108
O O16 0.462543 0.750000 0.185684
O O17 0.479672 0.890431 0.123641
O O18 0.513342 0.930980 0.216049
O O19 0.750000 0.600024 0.084035
O O20 0.916540 0.750000 0.074676
O O21 0.750000 0.860304 0.483095
O O22 0.526611 0.750000 0.463076
O O23 0.750000 0.042730 0.218252
#
# Coordination Sequence:
#
# PCOD9450142 Si02
#       8
#     8   8   8   8   8   8   8   8
#     4   9  16  27  46  73 104 137 171 207 254 313
#     4  10  20  34  52  75 105 140 176 214 260 316
#     4   9  18  33  54  80 108 138 175 219 263 308
#     4   9  17  31  52  77 106 145 190 227 263 315
#     4  10  21  38  58  77 100 132 169 211 262 319
#     4   9  16  28  49  76 103 131 166 208 255 311
#     4   9  17  29  47  76 114 149 181 223 273 317
#     4  11  22  36  55  78 103 132 172 221 269 316
#
# _framework density 18.915949999999999
#
# number of rings (size 3 to 8) (size 9 to 14) (size 15 to 20)
#    0.000    2.500    0.000    2.625    0.000    5.750 
#    0.000    2.500    0.000    5.250    0.000    0.000 
#    0.000    0.000    0.000    0.000    0.000    0.000 
#
# Total GULP energy -357488.196279 kJ/mol
# GULP energy per Si atom -5585.753067 kJ/mol
# Density = 1.887290 g / cm^3
# Si number density = 18.915950 Si / 1000 Ang^3
#
#
#
# Elastic Constant Matrix: (Units=GPa)
#
#
# Indices 1 2 3 4 5 6 
#
# 1 63.8254 24.9381 40.5801 0.0000 0.0000 0.0000
# 2 24.9381 99.3613 64.1370 0.0000 0.0000 0.0000
# 3 40.5801 64.1370 151.1086 0.0000 0.0000 0.0000
# 4 0.0000 0.0000 0.0000 24.3144 0.0000 0.0000
# 5 0.0000 0.0000 0.0000 0.0000 24.9931 0.0000
# 6 0.0000 0.0000 0.0000 0.0000 0.0000 23.1074
#
#
#
# Elastic Compliance Matrix: (Units=1/GPa)
#
#
# Indices 1 2 3 4 5 6 
#
# 1 0.019193 -0.002052 -0.004283 0.000000 0.000000 0.000000
# 2 -0.002052 0.014082 -0.005426 0.000000 0.000000 0.000000
# 3 -0.004283 -0.005426 0.010071 0.000000 0.000000 0.000000
# 4 0.000000 0.000000 0.000000 0.041128 0.000000 0.000000
# 5 0.000000 0.000000 0.000000 0.000000 0.040011 0.000000
# 6 0.000000 0.000000 0.000000 0.000000 0.000000 0.043276
#
#
# Mechanical properties :
#
#
# Convention : Reuss Voigt Hill
#
# Bulk Modulus (GPa) = 50.44644 63.73400 57.09022
# Shear Modulus (GPa) = 25.26650 26.79232 26.02941
#
# Velocity S-wave (km/s) = 3.65872 3.76758 3.71355
# Velocity P-wave (km/s) = 6.67645 7.25896 6.97379
#
# Compressibility (1/GPa) = 0.01982300
#
# Stress axis : x y z
#
# Youngs Moduli (GPa) = 52.10270 71.01448 99.29621
#
# Poissons Ratio (x) = 0.14575 0.42530
# Poissons Ratio (y) = 0.10694 0.53875
# Poissons Ratio (z) = 0.22316 0.38530
#
# Static dielectric constant tensor:
#      x y z
#    x 1.631190 0.000000 0.000000 
#    y 0.000000 1.717350 0.000000 
#    z 0.000000 0.000000 1.610180 
# 
# From -- ./inp_files/31688.got.cif
#   From: 2010.05.17/outbox.cif.g08.bks.cpg/sg59_16_cif.got.tgz:31688.got - 2010.06.03 14:40:33.
