data_PCOD9450519
_publ_section_title
;
Structure prediction by ZEFSAII (Michael W. Deem and Ramdas Pophale) SiO2 
 PCOD9450519
Probable space group: P M M N
;
_chemical_formula_sum "Si O2"
_cell_formula_units_Z 48
_cell_length_a 8.809371
_cell_length_b 31.297653
_cell_length_c 9.865472
_cell_angle_alpha 90.000000
_cell_angle_beta 90.000000
_cell_angle_gamma 90.000000
_cell_volume 2720.035297
_symmetry_space_group_name_H-M "P M M N"
_symmetry_group_IT_number 59
_space_group.IT_coordinate_system_code '2'
_symmetry_cell_setting 'orthorhombic'
loop_
_space_group_symop_operation_xyz
x,y,z
1/2-x,1/2-y,z
1/2+x,-y,-z
-x,1/2+y,-z
-x,-y,-z
1/2+x,1/2+y,-z
1/2-x,y,z
x,1/2-y,z
loop_
_atom_site_type_symbol
_atom_site_label
_atom_site_fract_x
_atom_site_fract_y
_atom_site_fract_z
Si Si1 0.569521 0.564213 0.288279
Si Si2 0.932312 0.373633 0.497669
Si Si3 0.431101 0.485583 0.144123
Si Si4 0.933005 0.201022 0.701135
Si Si5 0.431665 0.892368 0.807864
Si Si6 0.069356 0.359081 0.922223
O O1 0.750000 0.557114 0.293242
O O2 0.511899 0.587460 0.423587
O O3 0.484457 0.520636 0.253142
O O4 0.537519 0.598127 0.166831
O O5 0.750000 0.378910 0.510697
O O6 0.974972 0.330205 0.576612
O O7 0.970034 0.373506 0.339488
O O8 0.250000 0.484287 0.134037
O O9 0.495022 0.439141 0.179541
O O10 0.500000 0.500000 0.000000
O O11 0.750000 0.199893 0.713186
O O12 0.979923 0.250000 0.681819
O O13 0.004289 0.179891 0.834697
O O14 0.250000 0.896154 0.818314
O O15 0.493140 0.864615 0.932424
O O16 0.250000 0.355565 0.935606
#
# Coordination Sequence:
#
# PCOD9450519 Si02
#       6
#     8   8   8   8   8   8
#     4  10  20  35  55  79 107 146 190 231 274 323
#     4   9  20  37  56  81 112 147 185 227 279 332
#     4  12  23  35  54  79 109 147 191 238 280 325
#     4   9  18  36  62  86 108 138 179 226 274 330
#     4  11  22  36  55  80 113 150 187 231 279 330
#     4  10  20  34  55  81 111 143 180 226 273 327
#
# _framework density 17.646829
#
# number of rings (size 3 to 8) (size 9 to 14) (size 15 to 20)
#    0.000    1.833    1.667    3.000    0.000    3.667 
#    0.000    0.833    0.000    3.000    0.000    0.000 
#    0.000    0.000    0.000    0.000    0.000    0.000 
#
# Total GULP energy -268107.252150 kJ/mol
# GULP energy per Si atom -5585.567753 kJ/mol
# Density = 1.760666 g / cm^3
# Si number density = 17.646829 Si / 1000 Ang^3
#
#
#
# Elastic Constant Matrix: (Units=GPa)
#
#
# Indices 1 2 3 4 5 6 
#
# 1 56.2222 41.2648 57.7147 0.0000 0.0000 0.0000
# 2 41.2648 115.0430 62.4750 0.0000 0.0000 0.0000
# 3 57.7147 62.4750 150.5702 0.0000 0.0000 0.0000
# 4 0.0000 0.0000 0.0000 15.5568 0.0000 0.0000
# 5 0.0000 0.0000 0.0000 0.0000 22.7613 0.0000
# 6 0.0000 0.0000 0.0000 0.0000 0.0000 25.2990
#
#
#
# Elastic Compliance Matrix: (Units=1/GPa)
#
#
# Indices 1 2 3 4 5 6 
#
# 1 0.032537 -0.006322 -0.009848 0.000000 0.000000 0.000000
# 2 -0.006322 0.012449 -0.002742 0.000000 0.000000 0.000000
# 3 -0.009848 -0.002742 0.011554 0.000000 0.000000 0.000000
# 4 0.000000 0.000000 0.000000 0.064281 0.000000 0.000000
# 5 0.000000 0.000000 0.000000 0.000000 0.043934 0.000000
# 6 0.000000 0.000000 0.000000 0.000000 0.000000 0.039527
#
#
# Mechanical properties :
#
#
# Convention : Reuss Voigt Hill
#
# Bulk Modulus (GPa) = 53.43425 71.63827 62.53626
# Shear Modulus (GPa) = 20.13322 23.41547 21.77435
#
# Velocity S-wave (km/s) = 3.38138 3.64661 3.51650
# Velocity P-wave (km/s) = 6.75208 7.64291 7.21126
#
# Compressibility (1/GPa) = 0.01871459
#
# Stress axis : x y z
#
# Youngs Moduli (GPa) = 30.73454 80.32583 86.54951
#
# Poissons Ratio (x) = 0.50785 0.85236
# Poissons Ratio (y) = 0.19432 0.23732
# Poissons Ratio (z) = 0.30268 0.22026
#
# Static dielectric constant tensor:
#      x y z
#    x 1.589030 0.000000 0.000000 
#    y 0.000000 1.580480 0.000000 
#    z 0.000000 0.000000 1.595500 
# 
# From -- ./inp_files/6239.got.cif
#   From: 2010.05.17/outbox.cif.g08.bks.cpg/sg59_4_cif.got.tgz:6239.got - 2010.06.03 14:40:33.
