data_PCOD9450686
_publ_section_title
;
Structure prediction by ZEFSAII (Michael W. Deem and Ramdas Pophale) SiO2 
 PCOD9450686
Probable space group: P M M N
;
_chemical_formula_sum "Si O2"
_cell_formula_units_Z 56
_cell_length_a 15.114810
_cell_length_b 7.558549
_cell_length_c 23.213617
_cell_angle_alpha 90.000000
_cell_angle_beta 90.000000
_cell_angle_gamma 90.000000
_cell_volume 2652.063631
_symmetry_space_group_name_H-M "P M M N"
_symmetry_group_IT_number 59
_space_group.IT_coordinate_system_code '2'
_symmetry_cell_setting 'orthorhombic'
loop_
_space_group_symop_operation_xyz
x,y,z
1/2-x,1/2-y,z
1/2+x,-y,-z
-x,1/2+y,-z
-x,-y,-z
1/2+x,1/2+y,-z
1/2-x,y,z
x,1/2-y,z
loop_
_atom_site_type_symbol
_atom_site_label
_atom_site_fract_x
_atom_site_fract_y
_atom_site_fract_z
Si Si1 0.989415 0.963797 0.710774
Si Si2 0.649754 0.540765 0.617716
Si Si3 0.750000 0.459276 0.877279
Si Si4 0.440743 0.539310 0.158754
Si Si5 0.353926 0.961946 0.507785
Si Si6 0.148031 0.533674 0.633882
Si Si7 0.939160 0.962207 0.055280
Si Si8 0.750000 0.535237 0.013040
O O1 0.989499 0.750000 0.707899
O O2 0.912521 0.030393 0.667895
O O3 0.082414 0.024514 0.683905
O O4 0.971835 0.012517 0.776300
O O5 0.750000 0.466268 0.618319
O O6 0.657209 0.750000 0.627521
O O7 0.609301 0.521725 0.553548
O O8 0.750000 0.250000 0.864031
O O9 0.841876 0.533213 0.852270
O O10 0.750000 0.481617 0.946109
O O11 0.435507 0.750000 0.148300
O O12 0.510369 0.468738 0.111753
O O13 0.250000 0.014006 0.506783
O O14 0.358476 0.750000 0.507476
O O15 0.386253 0.022995 0.570376
O O16 0.250000 0.478170 0.640955
O O17 0.148765 0.750000 0.633231
O O18 0.931816 0.750000 0.060785
O O19 0.840149 0.028499 0.043063
O O20 0.000000 0.000000 0.000000
O O21 0.750000 0.750000 0.013972
#
# Coordination Sequence:
#
# PCOD9450686 Si02
#       8
#     8   8   4   8   8   8   8   4
#     4  10  21  35  52  73  99 137 179 211 250 304
#     4   9  18  31  45  68 103 133 159 203 259 308
#     4  10  20  36  58  82 108 140 173 208 257 308
#     4  10  22  38  54  77 109 141 172 211 255 302
#     4   8  14  27  49  73  94 124 166 209 255 306
#     4   8  15  31  53  73  96 127 169 220 263 301
#     4  10  20  36  58  83 113 142 174 216 262 309
#     4  10  20  34  58  90 112 136 173 216 263 310
#
# _framework density 21.115631
#
# number of rings (size 3 to 8) (size 9 to 14) (size 15 to 20)
#    0.000    2.714    1.429    0.857    1.000    2.286 
#    1.286    0.714    0.000    0.857    0.000    0.000 
#    0.000    0.000    0.000    0.000    0.000    0.000 
#
# Total GULP energy -312473.125750 kJ/mol
# GULP energy per Si atom -5579.877246 kJ/mol
# Density = 2.106757 g / cm^3
# Si number density = 21.115631 Si / 1000 Ang^3
#
#
#
# Elastic Constant Matrix: (Units=GPa)
#
#
# Indices 1 2 3 4 5 6 
#
# 1 166.3237 -1.4880 107.3837 0.0000 0.0000 0.0000
# 2 -1.4880 38.4527 -13.4179 0.0000 0.0000 0.0000
# 3 107.3837 -13.4179 192.5136 0.0000 0.0000 0.0000
# 4 0.0000 0.0000 0.0000 32.0017 0.0000 0.0000
# 5 0.0000 0.0000 0.0000 0.0000 34.9949 0.0000
# 6 0.0000 0.0000 0.0000 0.0000 0.0000 -4.2301
#
#
#
# Elastic Compliance Matrix: (Units=1/GPa)
#
#
# Indices 1 2 3 4 5 6 
#
# 1 0.009482 -0.001515 -0.005394 0.000000 0.000000 0.000000
# 2 -0.001515 0.026896 0.002720 0.000000 0.000000 0.000000
# 3 -0.005394 0.002720 0.008393 0.000000 0.000000 0.000000
# 4 0.000000 0.000000 0.000000 0.031248 0.000000 0.000000
# 5 0.000000 0.000000 0.000000 0.000000 0.028576 0.000000
# 6 0.000000 0.000000 0.000000 0.000000 0.000000 -0.236402
#
#
# Mechanical properties :
#
#
# Convention : Reuss Voigt Hill
#
# Bulk Modulus (GPa) = 27.47917 64.69397 46.08657
# Shear Modulus (GPa) = -44.92508 32.87409 -6.02549
#
# Velocity S-wave (km/s) = -4.61757 3.94999 -1.69108
# Velocity P-wave (km/s) = 3.92267 7.17688 4.24973
#
# Compressibility (1/GPa) = 0.03639121
#
# Stress axis : x y z
#
# Youngs Moduli (GPa) = 105.46687 37.17960 119.14629
#
# Poissons Ratio (x) = 0.05634 0.64273
# Poissons Ratio (y) = 0.15983 -0.32407
# Poissons Ratio (z) = 0.56894 -0.10113
#
# Static dielectric constant tensor:
#      x y z
#    x 1.784880 0.000000 0.000000 
#    y 0.000000 1.787280 0.000000 
#    z 0.000000 0.000000 1.722230 
# 
# From -- ./inp_files/30442.got.cif
#   From: 2010.05.17/outbox.cif.g08.bks.cpg/sg59_16_cif.got.tgz:30442.got - 2010.06.03 14:40:33.
