data_PCOD9450702
_publ_section_title
;
Structure prediction by ZEFSAII (Michael W. Deem and Ramdas Pophale) SiO2 
 PCOD9450702
Probable space group: P M M N
;
_chemical_formula_sum "Si O2"
_cell_formula_units_Z 64
_cell_length_a 8.206121
_cell_length_b 22.385278
_cell_length_c 18.418573
_cell_angle_alpha 90.000000
_cell_angle_beta 90.000000
_cell_angle_gamma 90.000000
_cell_volume 3383.423709
_symmetry_space_group_name_H-M "P M M N"
_symmetry_group_IT_number 59
_space_group.IT_coordinate_system_code '2'
_symmetry_cell_setting 'orthorhombic'
loop_
_space_group_symop_operation_xyz
x,y,z
1/2-x,1/2-y,z
1/2+x,-y,-z
-x,1/2+y,-z
-x,-y,-z
1/2+x,1/2+y,-z
1/2-x,y,z
x,1/2-y,z
loop_
_atom_site_type_symbol
_atom_site_label
_atom_site_fract_x
_atom_site_fract_y
_atom_site_fract_z
Si Si1 0.569279 0.903691 0.761842
Si Si2 0.556204 0.547527 0.063097
Si Si3 0.564360 0.527208 0.225614
Si Si4 0.444905 0.469122 0.617538
Si Si5 0.053838 0.818232 0.637934
Si Si6 0.554359 0.415263 0.472323
Si Si7 0.437564 0.815752 0.864520
Si Si8 0.938899 0.316829 0.961887
O O1 0.750000 0.928782 0.753397
O O2 0.530548 0.855280 0.701105
O O3 0.549943 0.867929 0.836336
O O4 0.440114 0.956357 0.760356
O O5 0.750000 0.539068 0.064780
O O6 0.489805 0.534472 0.145088
O O7 0.519501 0.618526 0.052983
O O8 0.500000 0.500000 0.000000
O O9 0.750000 0.550184 0.220714
O O10 0.490278 0.549152 0.302721
O O11 0.250000 0.474481 0.626148
O O12 0.482614 0.424773 0.551727
O O13 0.504285 0.532746 0.583878
O O14 0.250000 0.821384 0.648546
O O15 0.003874 0.750000 0.637888
O O16 0.016266 0.852241 0.563436
O O17 0.750000 0.421943 0.477540
O O18 0.250000 0.826193 0.840707
O O19 0.486412 0.750000 0.837058
O O20 0.438159 0.813918 0.950841
O O21 0.750000 0.320248 0.937421
O O22 0.002438 0.250000 0.937810
#
# Coordination Sequence:
#
# PCOD9450702 Si02
#       8
#     8   8   8   8   8   8   8   8
#     4  12  23  31  45  73 106 136 172 220 267 306
#     4  11  23  37  57  84 115 150 189 237 287 337
#     4  10  21  38  55  73 103 143 182 215 262 330
#     4   9  17  32  54  75  98 129 167 214 261 306
#     4  10  20  35  53  71 100 145 182 205 244 314
#     4   9  17  31  52  77 101 127 167 213 255 302
#     4   9  18  33  51  68  92 135 181 213 253 318
#     4   9  19  37  59  80 105 141 185 231 283 344
#
# _framework density 18.915752000000001
#
# number of rings (size 3 to 8) (size 9 to 14) (size 15 to 20)
#    0.000    2.125    1.250    3.375    0.000    7.750 
#    0.000    1.250    0.000    0.750    0.000    3.500 
#    0.000    0.000    0.000    0.000    0.000    0.000 
#
# Total GULP energy -356370.944251 kJ/mol
# GULP energy per Si atom -5568.296004 kJ/mol
# Density = 1.887270 g / cm^3
# Si number density = 18.915752 Si / 1000 Ang^3
#
#
#
# Elastic Constant Matrix: (Units=GPa)
#
#
# Indices 1 2 3 4 5 6 
#
# 1 20.6132 7.9485 11.4023 0.0000 0.0000 0.0000
# 2 7.9485 77.5143 39.7213 0.0000 0.0000 0.0000
# 3 11.4023 39.7213 128.2387 0.0000 0.0000 0.0000
# 4 0.0000 0.0000 0.0000 27.5325 0.0000 0.0000
# 5 0.0000 0.0000 0.0000 0.0000 21.1946 0.0000
# 6 0.0000 0.0000 0.0000 0.0000 0.0000 14.7375
#
#
#
# Elastic Compliance Matrix: (Units=1/GPa)
#
#
# Indices 1 2 3 4 5 6 
#
# 1 0.051813 -0.003509 -0.003520 0.000000 0.000000 0.000000
# 2 -0.003509 0.015573 -0.004511 0.000000 0.000000 0.000000
# 3 -0.003520 -0.004511 0.009508 0.000000 0.000000 0.000000
# 4 0.000000 0.000000 0.000000 0.036321 0.000000 0.000000
# 5 0.000000 0.000000 0.000000 0.000000 0.047182 0.000000
# 6 0.000000 0.000000 0.000000 0.000000 0.000000 0.067854
#
#
# Mechanical properties :
#
#
# Convention : Reuss Voigt Hill
#
# Bulk Modulus (GPa) = 18.58307 38.27895 28.43101
# Shear Modulus (GPa) = 18.56876 23.84586 21.20731
#
# Velocity S-wave (km/s) = 3.13654 3.55439 3.35198
# Velocity P-wave (km/s) = 4.79193 6.09306 5.48124
#
# Compressibility (1/GPa) = 0.05381242
#
# Stress axis : x y z
#
# Youngs Moduli (GPa) = 19.30019 64.21553 105.17074
#
# Poissons Ratio (x) = 0.22535 0.37020
# Poissons Ratio (y) = 0.06773 0.47448
# Poissons Ratio (z) = 0.06794 0.28971
#
# Static dielectric constant tensor:
#      x y z
#    x 1.699580 0.000000 0.000000 
#    y 0.000000 1.687480 0.000000 
#    z 0.000000 0.000000 1.706040 
# 
# From -- ./inp_files/26178.got.cif
#   From: 2010.05.17/outbox.cif.g08.bks.cpg/sg59_14_cif.got.tgz:26178.got - 2010.06.03 14:40:33.
