data_PCOD9450748
_publ_section_title
;
Structure prediction by ZEFSAII (Michael W. Deem and Ramdas Pophale) SiO2 
 PCOD9450748
Probable space group: P M M N
;
_chemical_formula_sum "Si O2"
_cell_formula_units_Z 32
_cell_length_a 15.111328
_cell_length_b 8.353934
_cell_length_c 12.876652
_cell_angle_alpha 90.000000
_cell_angle_beta 90.000000
_cell_angle_gamma 90.000000
_cell_volume 1625.536145
_symmetry_space_group_name_H-M "P M M N"
_symmetry_group_IT_number 59
_space_group.IT_coordinate_system_code '2'
_symmetry_cell_setting 'orthorhombic'
loop_
_space_group_symop_operation_xyz
x,y,z
1/2-x,1/2-y,z
1/2+x,-y,-z
-x,1/2+y,-z
-x,-y,-z
1/2+x,1/2+y,-z
1/2-x,y,z
x,1/2-y,z
loop_
_atom_site_type_symbol
_atom_site_label
_atom_site_fract_x
_atom_site_fract_y
_atom_site_fract_z
Si Si1 0.103036 0.559044 0.224592
Si Si2 0.398194 0.058277 0.003288
Si Si3 0.750000 0.559027 0.619892
Si Si4 0.101111 0.445181 0.775640
Si Si5 0.750000 0.553934 0.382899
O O1 0.101981 0.750000 0.227851
O O2 0.138541 0.508290 0.110978
O O3 0.164709 0.496060 0.315569
O O4 0.000987 0.501697 0.234645
O O5 0.394655 0.250000 0.008579
O O6 0.362782 0.008325 0.890033
O O7 0.500000 0.000000 0.000000
O O8 0.750000 0.750000 0.616373
O O9 0.750000 0.498473 0.501508
O O10 0.100038 0.250000 0.775012
O O11 0.164196 0.497606 0.682785
O O12 0.750000 0.750000 0.383771
#
# Coordination Sequence:
#
# PCOD9450748 Si02
#       5
#     8   8   4   8   4
#     4  10  20  35  54  77 109 143 174 216 270 322
#     4   9  16  29  52  82 112 140 174 212 259 319
#     4  11  23  36  53  76 100 135 184 229 266 313
#     4   8  16  31  53  79 107 140 171 209 263 317
#     4   9  18  34  53  76 104 133 176 223 260 313
#
# _framework density 19.685814000000001
#
# number of rings (size 3 to 8) (size 9 to 14) (size 15 to 20)
#    0.000    2.750    0.000    3.375    0.000    2.000 
#    0.000    2.500    0.000   16.500    0.000    0.000 
#    0.000    0.000    0.000    0.000    0.000    0.000 
#
# Total GULP energy -178441.576194 kJ/mol
# GULP energy per Si atom -5576.299256 kJ/mol
# Density = 1.964101 g / cm^3
# Si number density = 19.685814 Si / 1000 Ang^3
#
#
#
# Elastic Constant Matrix: (Units=GPa)
#
#
# Indices 1 2 3 4 5 6 
#
# 1 111.8280 14.2883 96.2029 0.0000 0.0000 0.0000
# 2 14.2883 31.2978 28.3062 0.0000 0.0000 0.0000
# 3 96.2029 28.3062 236.6102 0.0000 0.0000 0.0000
# 4 0.0000 0.0000 0.0000 21.4087 0.0000 0.0000
# 5 0.0000 0.0000 0.0000 0.0000 33.9987 0.0000
# 6 0.0000 0.0000 0.0000 0.0000 0.0000 14.4829
#
#
#
# Elastic Compliance Matrix: (Units=1/GPa)
#
#
# Indices 1 2 3 4 5 6 
#
# 1 0.013805 -0.001375 -0.005449 0.000000 0.000000 0.000000
# 2 -0.001375 0.035964 -0.003744 0.000000 0.000000 0.000000
# 3 -0.005449 -0.003744 0.006890 0.000000 0.000000 0.000000
# 4 0.000000 0.000000 0.000000 0.046710 0.000000 0.000000
# 5 0.000000 0.000000 0.000000 0.000000 0.029413 0.000000
# 6 0.000000 0.000000 0.000000 0.000000 0.000000 0.069047
#
#
# Mechanical properties :
#
#
# Convention : Reuss Voigt Hill
#
# Bulk Modulus (GPa) = 28.14880 73.03676 50.59278
# Shear Modulus (GPa) = 21.29431 30.04064 25.66747
#
# Velocity S-wave (km/s) = 3.29250 3.91065 3.61481
# Velocity P-wave (km/s) = 5.36509 7.58766 6.57103
#
# Compressibility (1/GPa) = 0.03552549
#
# Stress axis : x y z
#
# Youngs Moduli (GPa) = 72.43635 27.80526 145.14763
#
# Poissons Ratio (x) = 0.03822 0.79085
# Poissons Ratio (y) = 0.09958 0.54337
# Poissons Ratio (z) = 0.39468 0.10409
#
# Static dielectric constant tensor:
#      x y z
#    x 1.715080 0.000000 0.000000 
#    y 0.000000 1.672390 0.000000 
#    z 0.000000 0.000000 1.700200 
# 
# From -- ./inp_files/13660.got.cif
#   From: 2010.05.17/outbox.cif.g08.bks.cpg/sg59_7_cif.got.tgz:13660.got - 2010.06.03 14:40:33.
