data_PCOD9450453
_publ_section_title
;
Structure prediction by ZEFSAII (Michael W. Deem and Ramdas Pophale) SiO2 
 PCOD9450453
Probable space group: P M M N
;
_chemical_formula_sum "Si O2"
_cell_formula_units_Z 32
_cell_length_a 20.370981
_cell_length_b 8.842865
_cell_length_c 10.228886
_cell_angle_alpha 90.000000
_cell_angle_beta 90.000000
_cell_angle_gamma 90.000000
_cell_volume 1842.609377
_symmetry_space_group_name_H-M "P M M N"
_symmetry_group_IT_number 59
_space_group.IT_coordinate_system_code '2'
_symmetry_cell_setting 'orthorhombic'
loop_
_space_group_symop_operation_xyz
x,y,z
1/2-x,1/2-y,z
1/2+x,-y,-z
-x,1/2+y,-z
-x,-y,-z
1/2+x,1/2+y,-z
1/2-x,y,z
x,1/2-y,z
loop_
_atom_site_type_symbol
_atom_site_label
_atom_site_fract_x
_atom_site_fract_y
_atom_site_fract_z
Si Si1 0.174529 0.568018 0.675709
Si Si2 0.446541 0.430282 0.182217
Si Si3 0.069473 0.931201 0.454622
Si Si4 0.913211 0.569652 0.109411
O O1 0.250000 0.527233 0.650576
O O2 0.170633 0.750000 0.689925
O O3 0.126063 0.525081 0.557157
O O4 0.146828 0.491734 0.806456
O O5 0.448734 0.250000 0.200749
O O6 0.416872 0.508342 0.309446
O O7 0.520697 0.491061 0.163302
O O8 0.410241 0.463683 0.045382
O O9 0.064135 0.750000 0.453318
O O10 0.000000 0.000000 0.500000
O O11 0.919849 0.750000 0.124695
#
# Coordination Sequence:
#
# PCOD9450453 Si02
#       4
#     8   8   8   8
#     4  10  22  39  57  79 111 150 188 229 280 339
#     4  10  20  34  54  82 113 142 180 229 278 329
#     4  11  21  34  56  84 113 146 187 233 280 330
#     4  10  20  34  55  82 110 143 183 228 278 330
#
# _framework density 17.366676999999999
#
# number of rings (size 3 to 8) (size 9 to 14) (size 15 to 20)
#    0.000    1.750    2.500    2.250    0.000    4.500 
#    0.000    1.250    0.000    4.500    0.000    0.000 
#    0.000    0.000    0.000    0.000    0.000    0.000 
#
# Total GULP energy -178684.475351 kJ/mol
# GULP energy per Si atom -5583.889855 kJ/mol
# Density = 1.732715 g / cm^3
# Si number density = 17.366677 Si / 1000 Ang^3
#
#
#
# Elastic Constant Matrix: (Units=GPa)
#
#
# Indices 1 2 3 4 5 6 
#
# 1 121.8211 45.0062 77.8400 0.0000 0.0000 0.0000
# 2 45.0062 47.0531 53.6952 0.0000 0.0000 0.0000
# 3 77.8400 53.6952 140.8262 0.0000 0.0000 0.0000
# 4 0.0000 0.0000 0.0000 35.5338 0.0000 0.0000
# 5 0.0000 0.0000 0.0000 0.0000 26.3496 0.0000
# 6 0.0000 0.0000 0.0000 0.0000 0.0000 22.8769
#
#
#
# Elastic Compliance Matrix: (Units=1/GPa)
#
#
# Indices 1 2 3 4 5 6 
#
# 1 0.014294 -0.008243 -0.004758 0.000000 0.000000 0.000000
# 2 -0.008243 0.042376 -0.011601 0.000000 0.000000 0.000000
# 3 -0.004758 -0.011601 0.014154 0.000000 0.000000 0.000000
# 4 0.000000 0.000000 0.000000 0.028142 0.000000 0.000000
# 5 0.000000 0.000000 0.000000 0.000000 0.037951 0.000000
# 6 0.000000 0.000000 0.000000 0.000000 0.000000 0.043712
#
#
# Mechanical properties :
#
#
# Convention : Reuss Voigt Hill
#
# Bulk Modulus (GPa) = 46.25319 73.64258 59.94789
# Shear Modulus (GPa) = 21.09342 25.82932 23.46137
#
# Velocity S-wave (km/s) = 3.48888 3.86073 3.67950
# Velocity P-wave (km/s) = 6.55140 7.89748 7.25572
#
# Compressibility (1/GPa) = 0.02162013
#
# Stress axis : x y z
#
# Youngs Moduli (GPa) = 69.95802 23.59853 70.64945
#
# Poissons Ratio (x) = 0.19451 0.33616
# Poissons Ratio (y) = 0.57664 0.81962
# Poissons Ratio (z) = 0.33287 0.27377
#
# Static dielectric constant tensor:
#      x y z
#    x 1.562810 0.000000 0.000000 
#    y 0.000000 1.580820 0.000000 
#    z 0.000000 0.000000 1.604110 
# 
# From -- ./inp_files/5354.got.cif
#   From: 2010.05.17/outbox.cif.g08.bks.cpg/sg59_3_cif.got.tgz:5354.got - 2010.06.03 14:40:33.
