data_PCOD9450822
_publ_section_title
;
Structure prediction by ZEFSAII (Michael W. Deem and Ramdas Pophale) SiO2 
 PCOD9450822
Probable space group: P M M N
;
_chemical_formula_sum "Si O2"
_cell_formula_units_Z 56
_cell_length_a 8.115892
_cell_length_b 23.273490
_cell_length_c 15.252805
_cell_angle_alpha 90.000000
_cell_angle_beta 90.000000
_cell_angle_gamma 90.000000
_cell_volume 2881.028075
_symmetry_space_group_name_H-M "P M M N"
_symmetry_group_IT_number 59
_space_group.IT_coordinate_system_code '2'
_symmetry_cell_setting 'orthorhombic'
loop_
_space_group_symop_operation_xyz
x,y,z
1/2-x,1/2-y,z
1/2+x,-y,-z
-x,1/2+y,-z
-x,-y,-z
1/2+x,1/2+y,-z
1/2-x,y,z
x,1/2-y,z
loop_
_atom_site_type_symbol
_atom_site_label
_atom_site_fract_x
_atom_site_fract_y
_atom_site_fract_z
Si Si1 0.056042 0.976344 0.405654
Si Si2 0.448226 0.551989 0.888104
Si Si3 0.054109 0.686621 0.191750
Si Si4 0.448324 0.813604 0.573654
Si Si5 0.549641 0.414520 0.298167
Si Si6 0.550428 0.076309 0.916040
Si Si7 0.940704 0.650751 0.380476
O O1 0.250000 0.963469 0.408549
O O2 0.963675 0.917938 0.381972
O O3 0.000000 0.000000 0.500000
O O4 0.017511 0.026355 0.337422
O O5 0.250000 0.553312 0.890962
O O6 0.500878 0.588051 0.803373
O O7 0.499253 0.485419 0.877421
O O8 0.507480 0.574526 0.982544
O O9 0.250000 0.688080 0.175353
O O10 0.986729 0.750000 0.168752
O O11 0.988658 0.631640 0.137651
O O12 0.028312 0.675637 0.294907
O O13 0.250000 0.813530 0.579803
O O14 0.509370 0.750000 0.596373
O O15 0.508577 0.862753 0.639784
O O16 0.492221 0.827363 0.473391
O O17 0.750000 0.416273 0.302237
O O18 0.750000 0.077744 0.915233
O O19 0.750000 0.666035 0.374285
#
# Coordination Sequence:
#
# PCOD9450822 Si02
#       7
#     8   8   8   8   8   8   8
#     4  12  23  36  55  81 111 143 179 224 274 325
#     4   9  18  33  55  82 109 138 176 224 277 328
#     4  10  21  37  56  79 110 149 189 230 277 330
#     4  10  21  37  55  74 103 145 186 223 266 320
#     4  10  20  35  55  80 111 144 180 224 272 325
#     4   9  18  34  55  80 108 139 177 222 274 330
#     4  12  24  37  55  80 109 144 184 228 276 327
#
# _framework density 19.437505000000002
#
# number of rings (size 3 to 8) (size 9 to 14) (size 15 to 20)
#    0.000    1.714    1.429    3.857    0.000    5.714 
#    0.000    0.714    0.000    4.286    0.000    0.000 
#    0.000    5.714    0.000    0.000    0.000    0.000 
#
# Total GULP energy -312769.051485 kJ/mol
# GULP energy per Si atom -5585.161634 kJ/mol
# Density = 1.939326 g / cm^3
# Si number density = 19.437505 Si / 1000 Ang^3
#
#
#
# Elastic Constant Matrix: (Units=GPa)
#
#
# Indices 1 2 3 4 5 6 
#
# 1 14.5142 -6.7538 0.3246 0.0000 0.0000 0.0000
# 2 -6.7538 105.9392 53.9322 0.0000 0.0000 0.0000
# 3 0.3246 53.9322 119.6189 0.0000 0.0000 0.0000
# 4 0.0000 0.0000 0.0000 4.2029 0.0000 0.0000
# 5 0.0000 0.0000 0.0000 0.0000 13.8943 0.0000
# 6 0.0000 0.0000 0.0000 0.0000 0.0000 18.8542
#
#
#
# Elastic Compliance Matrix: (Units=1/GPa)
#
#
# Indices 1 2 3 4 5 6 
#
# 1 0.071787 0.006069 -0.002931 0.000000 0.000000 0.000000
# 2 0.006069 0.012764 -0.005772 0.000000 0.000000 0.000000
# 3 -0.002931 -0.005772 0.010970 0.000000 0.000000 0.000000
# 4 0.000000 0.000000 0.000000 0.237933 0.000000 0.000000
# 5 0.000000 0.000000 0.000000 0.000000 0.071972 0.000000
# 6 0.000000 0.000000 0.000000 0.000000 0.000000 0.053039
#
#
# Mechanical properties :
#
#
# Convention : Reuss Voigt Hill
#
# Bulk Modulus (GPa) = 11.07982 37.23090 24.15536
# Shear Modulus (GPa) = 10.12520 20.22823 15.17672
#
# Velocity S-wave (km/s) = 2.28482 3.22946 2.79730
# Velocity P-wave (km/s) = 3.55994 5.75340 4.78408
#
# Compressibility (1/GPa) = 0.09025419
#
# Stress axis : x y z
#
# Youngs Moduli (GPa) = 13.93004 78.34240 91.15744
#
# Poissons Ratio (x) = -0.47544 0.26718
# Poissons Ratio (y) = -0.08454 0.52612
# Poissons Ratio (z) = 0.04083 0.45216
#
# Static dielectric constant tensor:
#      x y z
#    x 1.688200 0.000000 0.000000 
#    y 0.000000 1.680700 0.000000 
#    z 0.000000 0.000000 1.697920 
# 
# From -- ./inp_files/20929.got.cif
#   From: 2010.05.17/outbox.cif.g08.bks.cpg/sg59_11_cif.got.tgz:20929.got - 2010.06.03 14:40:33.
