data_PCOD9450517
_publ_section_title
;
Structure prediction by ZEFSAII (Michael W. Deem and Ramdas Pophale) SiO2 
 PCOD9450517
Probable space group: P M M N
;
_chemical_formula_sum "Si O2"
_cell_formula_units_Z 56
_cell_length_a 21.643601
_cell_length_b 8.806965
_cell_length_c 16.995478
_cell_angle_alpha 90.000000
_cell_angle_beta 90.000000
_cell_angle_gamma 90.000000
_cell_volume 3239.583462
_symmetry_space_group_name_H-M "P M M N"
_symmetry_group_IT_number 59
_space_group.IT_coordinate_system_code '2'
_symmetry_cell_setting 'orthorhombic'
loop_
_space_group_symop_operation_xyz
x,y,z
1/2-x,1/2-y,z
1/2+x,-y,-z
-x,1/2+y,-z
-x,-y,-z
1/2+x,1/2+y,-z
1/2-x,y,z
x,1/2-y,z
loop_
_atom_site_type_symbol
_atom_site_label
_atom_site_fract_x
_atom_site_fract_y
_atom_site_fract_z
Si Si1 0.180366 0.067899 0.049595
Si Si2 0.378985 0.929230 0.199380
Si Si3 0.029382 0.430545 0.622498
Si Si4 0.595919 0.070002 0.522489
Si Si5 0.176467 0.424728 0.352857
Si Si6 0.013640 0.569084 0.793984
Si Si7 0.941918 0.932319 0.048554
O O1 0.250000 0.032848 0.021286
O O2 0.177287 0.250000 0.062685
O O3 0.167167 0.984406 0.131636
O O4 0.123399 0.027995 0.992350
O O5 0.390107 0.750000 0.194517
O O6 0.352006 0.973513 0.283941
O O7 0.443448 0.016715 0.188903
O O8 0.037890 0.250000 0.629622
O O9 0.078039 0.501763 0.561730
O O10 0.962823 0.456297 0.580673
O O11 0.030198 0.506512 0.707763
O O12 0.605630 0.250000 0.517028
O O13 0.652264 0.986424 0.564276
O O14 0.250000 0.430098 0.348360
O O15 0.156081 0.250000 0.341622
O O16 0.017586 0.750000 0.795710
O O17 0.054052 0.496862 0.863476
O O18 0.947799 0.750000 0.049187
O O19 0.000000 0.000000 0.000000
#
# Coordination Sequence:
#
# PCOD9450517 Si02
#       7
#     8   8   8   8   8   8   8
#     4  10  22  40  60  82 112 152 193 233 283 344
#     4  12  23  35  54  82 115 151 190 232 283 340
#     4  10  20  35  56  82 111 142 179 227 279 333
#     4  10  20  34  55  81 110 145 183 226 274 325
#     4  11  23  37  54  78 113 155 192 228 275 333
#     4  12  23  36  57  83 116 151 187 236 287 338
#     4  11  22  37  59  85 115 150 190 237 288 343
#
# _framework density 17.286173000000002
#
# number of rings (size 3 to 8) (size 9 to 14) (size 15 to 20)
#    0.000    1.143    2.857    4.714    0.000    4.857 
#    0.000    0.000    0.000    0.857    0.000    2.000 
#    0.000    0.000    0.000    0.000    0.000    0.000 
#
# Total GULP energy -312970.889355 kJ/mol
# GULP energy per Si atom -5588.765881 kJ/mol
# Density = 1.724683 g / cm^3
# Si number density = 17.286173 Si / 1000 Ang^3
#
#
#
# Elastic Constant Matrix: (Units=GPa)
#
#
# Indices 1 2 3 4 5 6 
#
# 1 73.5382 30.1699 40.5426 0.0000 0.0000 0.0000
# 2 30.1699 70.0938 41.9366 0.0000 0.0000 0.0000
# 3 40.5426 41.9366 107.3228 0.0000 0.0000 0.0000
# 4 0.0000 0.0000 0.0000 33.3366 0.0000 0.0000
# 5 0.0000 0.0000 0.0000 0.0000 22.5621 0.0000
# 6 0.0000 0.0000 0.0000 0.0000 0.0000 21.4364
#
#
#
# Elastic Compliance Matrix: (Units=1/GPa)
#
#
# Indices 1 2 3 4 5 6 
#
# 1 0.018382 -0.004904 -0.005028 0.000000 0.000000 0.000000
# 2 -0.004904 0.019928 -0.005934 0.000000 0.000000 0.000000
# 3 -0.005028 -0.005934 0.013536 0.000000 0.000000 0.000000
# 4 0.000000 0.000000 0.000000 0.029997 0.000000 0.000000
# 5 0.000000 0.000000 0.000000 0.000000 0.044322 0.000000
# 6 0.000000 0.000000 0.000000 0.000000 0.000000 0.046650
#
#
# Mechanical properties :
#
#
# Convention : Reuss Voigt Hill
#
# Bulk Modulus (GPa) = 49.71756 52.91699 51.31728
# Shear Modulus (GPa) = 23.66847 24.68741 24.17794
#
# Velocity S-wave (km/s) = 3.70430 3.78320 3.74396
# Velocity P-wave (km/s) = 6.86438 7.05424 6.95996
#
# Compressibility (1/GPa) = 0.02011362
#
# Stress axis : x y z
#
# Youngs Moduli (GPa) = 54.40041 50.18116 73.87779
#
# Poissons Ratio (x) = 0.24609 0.37145
# Poissons Ratio (y) = 0.26678 0.43841
# Poissons Ratio (z) = 0.27352 0.29779
#
# Static dielectric constant tensor:
#      x y z
#    x 1.587000 0.000000 0.000000 
#    y 0.000000 1.573410 0.000000 
#    z 0.000000 0.000000 1.574110 
# 
# From -- ./inp_files/24232.got.cif
#   From: 2010.05.17/outbox.cif.g08.bks.cpg/sg59_13_cif.got.tgz:24232.got - 2010.06.03 14:40:33.
