data_PCOD9450397
_publ_section_title
;
Structure prediction by ZEFSAII (Michael W. Deem and Ramdas Pophale) SiO2 
 PCOD9450397
Probable space group: P M M N
;
_chemical_formula_sum "Si O2"
_cell_formula_units_Z 48
_cell_length_a 9.405018
_cell_length_b 8.930038
_cell_length_c 31.791781
_cell_angle_alpha 90.000000
_cell_angle_beta 90.000000
_cell_angle_gamma 90.000000
_cell_volume 2670.101656
_symmetry_space_group_name_H-M "P M M N"
_symmetry_group_IT_number 59
_space_group.IT_coordinate_system_code '2'
_symmetry_cell_setting 'orthorhombic'
loop_
_space_group_symop_operation_xyz
x,y,z
1/2-x,1/2-y,z
1/2+x,-y,-z
-x,1/2+y,-z
-x,-y,-z
1/2+x,1/2+y,-z
1/2-x,y,z
x,1/2-y,z
loop_
_atom_site_type_symbol
_atom_site_label
_atom_site_fract_x
_atom_site_fract_y
_atom_site_fract_z
Si Si1 0.413577 0.067478 0.289550
Si Si2 0.916402 0.430843 0.206067
Si Si3 0.919642 0.573098 0.960987
Si Si4 0.083081 0.930207 0.627567
Si Si5 0.582623 0.428938 0.871714
Si Si6 0.418845 0.072322 0.538938
O O1 0.250000 0.018188 0.287601
O O2 0.413960 0.250000 0.289778
O O3 0.501486 0.021427 0.248399
O O4 0.491016 0.020317 0.332473
O O5 0.750000 0.469350 0.208541
O O6 0.927153 0.250000 0.203017
O O7 0.990501 0.502846 0.165712
O O8 0.750000 0.551939 0.966246
O O9 0.948605 0.750000 0.959125
O O10 0.959855 0.497245 0.916747
O O11 0.000000 0.500000 0.000000
O O12 0.250000 0.965983 0.634536
O O13 0.072112 0.750000 0.623890
O O14 0.036660 0.003019 0.583706
O O15 0.750000 0.465638 0.864951
O O16 0.568670 0.250000 0.872892
O O17 0.250000 0.042993 0.534579
O O18 0.441036 0.250000 0.539314
O O19 0.500000 0.000000 0.500000
#
# Coordination Sequence:
#
# PCOD9450397 Si02
#       6
#     8   8   8   8   8   8
#     4   9  17  30  51  78 105 135 174 219 264 311
#     4  10  20  34  54  80 108 140 179 220 262 311
#     4  10  21  37  58  83 110 142 179 219 265 316
#     4   9  17  31  51  74 102 136 173 215 264 316
#     4  10  21  37  56  78 106 141 180 222 268 316
#     4  10  21  36  54  77 105 138 176 217 262 313
#
# _framework density 17.976842999999999
#
# number of rings (size 3 to 8) (size 9 to 14) (size 15 to 20)
#    0.000    2.333    0.000    2.500    0.000    7.333 
#    0.000    2.500    0.000    3.000    0.000    0.000 
#    0.000    0.000    0.000    0.000    0.000    0.000 
#
# Total GULP energy -267975.826723 kJ/mol
# GULP energy per Si atom -5582.829723 kJ/mol
# Density = 1.793593 g / cm^3
# Si number density = 17.976843 Si / 1000 Ang^3
#
#
#
# Elastic Constant Matrix: (Units=GPa)
#
#
# Indices 1 2 3 4 5 6 
#
# 1 107.5671 51.0514 119.1020 0.0000 0.0000 0.0000
# 2 51.0514 35.3772 66.3420 0.0000 0.0000 0.0000
# 3 119.1020 66.3420 228.0622 0.0000 0.0000 0.0000
# 4 0.0000 0.0000 0.0000 32.2529 0.0000 0.0000
# 5 0.0000 0.0000 0.0000 0.0000 42.8438 0.0000
# 6 0.0000 0.0000 0.0000 0.0000 0.0000 22.8141
#
#
#
# Elastic Compliance Matrix: (Units=1/GPa)
#
#
# Indices 1 2 3 4 5 6 
#
# 1 0.034929 -0.035639 -0.007874 0.000000 0.000000 0.000000
# 2 -0.035639 0.098557 -0.010058 0.000000 0.000000 0.000000
# 3 -0.007874 -0.010058 0.011423 0.000000 0.000000 0.000000
# 4 0.000000 0.000000 0.000000 0.031005 0.000000 0.000000
# 5 0.000000 0.000000 0.000000 0.000000 0.023341 0.000000
# 6 0.000000 0.000000 0.000000 0.000000 0.000000 0.043833
#
#
# Mechanical properties :
#
#
# Convention : Reuss Voigt Hill
#
# Bulk Modulus (GPa) = 26.47796 93.77747 60.12771
# Shear Modulus (GPa) = 13.78102 28.54956 21.16529
#
# Velocity S-wave (km/s) = 2.77176 3.98946 3.43500
# Velocity P-wave (km/s) = 5.00044 8.57321 7.01799
#
# Compressibility (1/GPa) = 0.03776726
#
# Stress axis : x y z
#
# Youngs Moduli (GPa) = 28.62925 10.14642 87.54524
#
# Poissons Ratio (x) = 0.36161 0.68934
# Poissons Ratio (y) = 1.02032 0.88051
# Poissons Ratio (z) = 0.22543 0.10205
#
# Static dielectric constant tensor:
#      x y z
#    x 1.604590 0.000000 0.000000 
#    y 0.000000 1.602770 0.000000 
#    z 0.000000 0.000000 1.579850 
# 
# From -- ./inp_files/32788.got.cif
#   From: 2010.05.17/outbox.cif.g08.bks.cpg/sg59_17_cif.got.tgz:32788.got - 2010.06.03 14:40:33.
