data_PCOD9450066
_publ_section_title
;
Structure prediction by ZEFSAII (Michael W. Deem and Ramdas Pophale) SiO2 
 PCOD9450066
Probable space group: P M M N
;
_chemical_formula_sum "Si O2"
_cell_formula_units_Z 48
_cell_length_a 14.583890
_cell_length_b 7.680970
_cell_length_c 20.773583
_cell_angle_alpha 90.000000
_cell_angle_beta 90.000000
_cell_angle_gamma 90.000000
_cell_volume 2327.023978
_symmetry_space_group_name_H-M "P M M N"
_symmetry_group_IT_number 59
_space_group.IT_coordinate_system_code '2'
_symmetry_cell_setting 'orthorhombic'
loop_
_space_group_symop_operation_xyz
x,y,z
1/2-x,1/2-y,z
1/2+x,-y,-z
-x,1/2+y,-z
-x,-y,-z
1/2+x,1/2+y,-z
1/2-x,y,z
x,1/2-y,z
loop_
_atom_site_type_symbol
_atom_site_label
_atom_site_fract_x
_atom_site_fract_y
_atom_site_fract_z
Si Si1 0.250000 0.456370 0.099656
Si Si2 0.934637 0.049945 0.685327
Si Si3 0.449737 0.040220 0.566581
Si Si4 0.250000 0.041179 0.761118
Si Si5 0.250000 0.962647 0.250873
Si Si6 0.250000 0.037247 0.610517
Si Si7 0.448574 0.545241 0.805123
Si Si8 0.049918 0.459298 0.066409
O O1 0.250000 0.250000 0.086177
O O2 0.250000 0.479914 0.176771
O O3 0.154187 0.527534 0.072039
O O4 0.913419 0.250000 0.667866
O O5 0.840143 0.973813 0.711885
O O6 0.986793 0.970533 0.624617
O O7 0.003973 0.047234 0.745031
O O8 0.445243 0.250000 0.572959
O O9 0.344611 0.979164 0.576476
O O10 0.500000 0.000000 0.500000
O O11 0.250000 0.250000 0.760133
O O12 0.250000 0.983562 0.685947
O O13 0.159392 0.979246 0.797443
O O14 0.250000 0.750000 0.249164
O O15 0.250000 0.250000 0.610123
O O16 0.470184 0.750000 0.799309
O O17 0.491028 0.479805 0.872041
O O18 0.054426 0.250000 0.071389
O O19 0.000000 0.500000 0.000000
#
# Coordination Sequence:
#
# PCOD9450066 Si02
#       8
#     4   8   8   4   4   4   8   8
#     4  10  20  39  60  83 115 155 192 234 297 351
#     4  10  20  36  58  85 117 154 196 240 289 350
#     4  10  21  38  58  83 117 153 194 241 290 348
#     4  11  21  38  63  88 117 157 196 238 295 354
#     4  10  20  33  58  92 117 147 197 244 283 343
#     4   9  18  36  59  81 111 153 193 236 289 348
#     4  11  22  37  59  90 120 148 193 250 293 339
#     4  10  23  40  60  85 120 156 194 242 291 347
#
# _framework density 20.627203000000002
#
# number of rings (size 3 to 8) (size 9 to 14) (size 15 to 20)
#    0.000    1.833    3.333    0.750    0.000    4.000 
#    0.000    2.917    0.000    0.000    0.000    0.000 
#    0.000    0.000    0.000    0.000    0.000    0.000 
#
# Total GULP energy -268046.559363 kJ/mol
# GULP energy per Si atom -5584.303320 kJ/mol
# Density = 2.058026 g / cm^3
# Si number density = 20.627203 Si / 1000 Ang^3
#
#
#
# Elastic Constant Matrix: (Units=GPa)
#
#
# Indices 1 2 3 4 5 6 
#
# 1 216.8221 -6.3811 102.3891 0.0000 0.0000 0.0000
# 2 -6.3811 38.3547 -8.9960 0.0000 0.0000 0.0000
# 3 102.3891 -8.9960 168.3676 0.0000 0.0000 0.0000
# 4 0.0000 0.0000 0.0000 20.9036 0.0000 0.0000
# 5 0.0000 0.0000 0.0000 0.0000 29.4960 0.0000
# 6 0.0000 0.0000 0.0000 0.0000 0.0000 3.4395
#
#
#
# Elastic Compliance Matrix: (Units=1/GPa)
#
#
# Indices 1 2 3 4 5 6 
#
# 1 0.006471 0.000156 -0.003927 0.000000 0.000000 0.000000
# 2 0.000156 0.026407 0.001316 0.000000 0.000000 0.000000
# 3 -0.003927 0.001316 0.008398 0.000000 0.000000 0.000000
# 4 0.000000 0.000000 0.000000 0.047839 0.000000 0.000000
# 5 0.000000 0.000000 0.000000 0.000000 0.033903 0.000000
# 6 0.000000 0.000000 0.000000 0.000000 0.000000 0.290736
#
#
# Mechanical properties :
#
#
# Convention : Reuss Voigt Hill
#
# Bulk Modulus (GPa) = 27.49835 66.39650 46.94743
# Shear Modulus (GPa) = 11.60670 33.20332 22.40501
#
# Velocity S-wave (km/s) = 2.37468 4.01644 3.29931
# Velocity P-wave (km/s) = 4.56934 7.33265 6.10928
#
# Compressibility (1/GPa) = 0.03636581
#
# Stress axis : x y z
#
# Youngs Moduli (GPa) = 154.53460 37.86871 119.07904
#
# Poissons Ratio (x) = -0.00589 0.46761
# Poissons Ratio (y) = -0.02404 -0.15675
# Poissons Ratio (z) = 0.60684 -0.04985
#
# Static dielectric constant tensor:
#      x y z
#    x 1.738610 0.000000 0.000000 
#    y 0.000000 1.781940 0.000000 
#    z 0.000000 0.000000 1.687270 
# 
# From -- ./inp_files/25679.got.cif
#   From: 2010.05.17/outbox.cif.g08.bks.cpg/sg59_13_cif.got.tgz:25679.got - 2010.06.03 14:40:33.
