data_PCOD9450522
_publ_section_title
;
Structure prediction by ZEFSAII (Michael W. Deem and Ramdas Pophale) SiO2 
 PCOD9450522
Probable space group: P M M N
;
_chemical_formula_sum "Si O2"
_cell_formula_units_Z 64
_cell_length_a 8.025485
_cell_length_b 29.595560
_cell_length_c 12.941474
_cell_angle_alpha 90.000000
_cell_angle_beta 90.000000
_cell_angle_gamma 90.000000
_cell_volume 3073.842376
_symmetry_space_group_name_H-M "P M M N"
_symmetry_group_IT_number 59
_space_group.IT_coordinate_system_code '2'
_symmetry_cell_setting 'orthorhombic'
loop_
_space_group_symop_operation_xyz
x,y,z
1/2-x,1/2-y,z
1/2+x,-y,-z
-x,1/2+y,-z
-x,-y,-z
1/2+x,1/2+y,-z
1/2-x,y,z
x,1/2-y,z
loop_
_atom_site_type_symbol
_atom_site_label
_atom_site_fract_x
_atom_site_fract_y
_atom_site_fract_z
Si Si1 0.450444 0.449172 0.478003
Si Si2 0.045589 0.121901 0.847129
Si Si3 0.048751 0.198345 0.428846
Si Si4 0.446535 0.299776 0.998071
Si Si5 0.550359 0.980926 0.111524
Si Si6 0.953513 0.866301 0.386937
Si Si7 0.442894 0.839103 0.792594
Si Si8 0.051864 0.064727 0.246576
O O1 0.500000 0.500000 0.500000
O O2 0.250000 0.446645 0.475438
O O3 0.507717 0.414140 0.564584
O O4 0.510848 0.435527 0.364365
O O5 0.250000 0.120918 0.850062
O O6 0.991227 0.070524 0.870908
O O7 0.994440 0.136635 0.731751
O O8 0.985750 0.158777 0.930020
O O9 0.250000 0.198741 0.432279
O O10 0.989131 0.250000 0.427127
O O11 0.991428 0.171615 0.531092
O O12 0.000824 0.173622 0.322643
O O13 0.250000 0.297693 0.974432
O O14 0.518361 0.250000 0.976490
O O15 0.464661 0.311549 0.118523
O O16 0.750000 0.980530 0.118931
O O17 0.484352 0.016783 0.194759
O O18 0.500000 0.000000 0.000000
O O19 0.750000 0.865442 0.386382
O O20 0.250000 0.828258 0.801629
O O21 0.472147 0.892459 0.809881
O O22 0.250000 0.072335 0.246082
#
# Coordination Sequence:
#
# PCOD9450522 Si02
#       8
#     8   8   8   8   8   8   8   8
#     4  10  20  34  55  81 114 153 192 238 290 350
#     4   9  19  35  58  86 120 155 193 246 297 351
#     4  10  20  36  60  87 117 154 194 240 298 362
#     4  10  21  38  61  88 117 153 198 248 305 365
#     4  11  22  37  58  86 120 162 208 253 304 359
#     4   9  17  34  56  83 116 150 190 237 291 348
#     4  12  24  38  59  86 118 155 199 252 305 362
#     4  11  22  38  59  84 118 157 199 248 301 358
#
# _framework density 20.820844999999998
#
# number of rings (size 3 to 8) (size 9 to 14) (size 15 to 20)
#    0.000    1.750    1.250    3.750    0.000    5.500 
#    0.000    3.125    0.000    2.250    0.000    1.750 
#    0.000    0.000    0.000    0.000    0.000    0.000 
#
# Total GULP energy -357591.727773 kJ/mol
# GULP energy per Si atom -5587.370746 kJ/mol
# Density = 2.077346 g / cm^3
# Si number density = 20.820845 Si / 1000 Ang^3
#
#
#
# Elastic Constant Matrix: (Units=GPa)
#
#
# Indices 1 2 3 4 5 6 
#
# 1 13.0356 -3.7792 -6.3881 0.0000 0.0000 0.0000
# 2 -3.7792 158.6790 56.0642 0.0000 0.0000 0.0000
# 3 -6.3881 56.0642 119.9713 0.0000 0.0000 0.0000
# 4 0.0000 0.0000 0.0000 25.4576 0.0000 0.0000
# 5 0.0000 0.0000 0.0000 0.0000 8.5014 0.0000
# 6 0.0000 0.0000 0.0000 0.0000 0.0000 17.9432
#
#
#
# Elastic Compliance Matrix: (Units=1/GPa)
#
#
# Indices 1 2 3 4 5 6 
#
# 1 0.078798 0.000472 0.003975 0.000000 0.000000 0.000000
# 2 0.000472 0.007551 -0.003504 0.000000 0.000000 0.000000
# 3 0.003975 -0.003504 0.010184 0.000000 0.000000 0.000000
# 4 0.000000 0.000000 0.000000 0.039281 0.000000 0.000000
# 5 0.000000 0.000000 0.000000 0.000000 0.117628 0.000000
# 6 0.000000 0.000000 0.000000 0.000000 0.000000 0.055731
#
#
# Mechanical properties :
#
#
# Convention : Reuss Voigt Hill
#
# Bulk Modulus (GPa) = 10.16047 42.60884 26.38466
# Shear Modulus (GPa) = 14.70186 26.76638 20.73412
#
# Velocity S-wave (km/s) = 2.66016 3.58936 3.15911
# Velocity P-wave (km/s) = 3.78495 6.13897 5.09964
#
# Compressibility (1/GPa) = 0.09842061
#
# Stress axis : x y z
#
# Youngs Moduli (GPa) = 12.69071 132.42978 98.19055
#
# Poissons Ratio (x) = -0.06254 -0.39032
# Poissons Ratio (y) = -0.00599 0.34402
# Poissons Ratio (z) = -0.05045 0.46398
#
# Static dielectric constant tensor:
#      x y z
#    x 1.760340 0.000000 0.000000 
#    y 0.000000 1.742900 0.000000 
#    z 0.000000 0.000000 1.730310 
# 
# From -- ./inp_files/15004.got.cif
#   From: 2010.05.17/outbox.cif.g08.bks.cpg/sg59_8_cif.got.tgz:15004.got - 2010.06.03 14:40:33.
