data_PCOD9450097
_publ_section_title
;
Structure prediction by ZEFSAII (Michael W. Deem and Ramdas Pophale) SiO2 
 PCOD9450097
Probable space group: P M M N
;
_chemical_formula_sum "Si O2"
_cell_formula_units_Z 56
_cell_length_a 8.701543
_cell_length_b 14.364509
_cell_length_c 20.738737
_cell_angle_alpha 90.000000
_cell_angle_beta 90.000000
_cell_angle_gamma 90.000000
_cell_volume 2592.205099
_symmetry_space_group_name_H-M "P M M N"
_symmetry_group_IT_number 59
_space_group.IT_coordinate_system_code '2'
_symmetry_cell_setting 'orthorhombic'
loop_
_space_group_symop_operation_xyz
x,y,z
1/2-x,1/2-y,z
1/2+x,-y,-z
-x,1/2+y,-z
-x,-y,-z
1/2+x,1/2+y,-z
1/2-x,y,z
x,1/2-y,z
loop_
_atom_site_type_symbol
_atom_site_label
_atom_site_fract_x
_atom_site_fract_y
_atom_site_fract_z
Si Si1 0.432423 0.957680 0.156942
Si Si2 0.572039 0.638794 0.031426
Si Si3 0.576241 0.617783 0.553360
Si Si4 0.074765 0.895238 0.422244
Si Si5 0.068486 0.650994 0.685003
Si Si6 0.434707 0.058790 0.710408
Si Si7 0.433216 0.857653 0.891210
O O1 0.250000 0.951626 0.159810
O O2 0.495829 0.910424 0.092144
O O3 0.506533 0.910346 0.219918
O O4 0.485539 0.065369 0.152179
O O5 0.750000 0.609097 0.024269
O O6 0.569744 0.750000 0.041609
O O7 0.482116 0.621477 0.964942
O O8 0.750000 0.648651 0.566202
O O9 0.522914 0.643428 0.481767
O O10 0.577884 0.505909 0.561924
O O11 0.461316 0.651739 0.608339
O O12 0.750000 0.138132 0.577255
O O13 0.001234 0.887545 0.351471
O O14 0.250000 0.650170 0.699048
O O15 0.005927 0.750000 0.711007
O O16 0.009101 0.549555 0.705364
O O17 0.250000 0.060335 0.707296
O O18 0.250000 0.866113 0.883863
O O19 0.476073 0.750000 0.877988
#
# Coordination Sequence:
#
# PCOD9450097 Si02
#       7
#     8   8   8   8   8   8   8
#     4  12  24  37  56  83 117 154 192 233 279 337
#     4  10  21  39  63  88 113 143 184 235 287 337
#     4   9  16  26  44  69  93 121 159 204 253 303
#     4   9  16  28  46  68  94 123 160 207 257 308
#     4   9  18  32  49  70  99 136 176 219 268 321
#     4  10  20  34  51  73 103 140 183 225 267 321
#     4  10  21  38  60  86 117 152 190 233 281 332
#
# _framework density 21.603228999999999
#
# number of rings (size 3 to 8) (size 9 to 14) (size 15 to 20)
#    0.000    2.143    0.000    3.857    0.000    6.571 
#    0.000    1.429    0.000    0.857    0.000    0.000 
#    0.000    0.000    0.000    0.000    0.000    0.000 
#
# Total GULP energy -312786.566665 kJ/mol
# GULP energy per Si atom -5585.474405 kJ/mol
# Density = 2.155406 g / cm^3
# Si number density = 21.603229 Si / 1000 Ang^3
#
#
#
# Elastic Constant Matrix: (Units=GPa)
#
#
# Indices 1 2 3 4 5 6 
#
# 1 67.1715 -0.7166 15.5026 0.0000 0.0000 0.0000
# 2 -0.7166 32.1356 3.2544 0.0000 0.0000 0.0000
# 3 15.5026 3.2544 119.0555 0.0000 0.0000 0.0000
# 4 0.0000 0.0000 0.0000 146.0594 0.0000 0.0000
# 5 0.0000 0.0000 0.0000 0.0000 29.9895 0.0000
# 6 0.0000 0.0000 0.0000 0.0000 0.0000 7.1708
#
#
#
# Elastic Compliance Matrix: (Units=1/GPa)
#
#
# Indices 1 2 3 4 5 6 
#
# 1 0.015358 0.000547 -0.002015 0.000000 0.000000 0.000000
# 2 0.000547 0.031224 -0.000925 0.000000 0.000000 0.000000
# 3 -0.002015 -0.000925 0.008687 0.000000 0.000000 0.000000
# 4 0.000000 0.000000 0.000000 0.006847 0.000000 0.000000
# 5 0.000000 0.000000 0.000000 0.000000 0.033345 0.000000
# 6 0.000000 0.000000 0.000000 0.000000 0.000000 0.139455
#
#
# Mechanical properties :
#
#
# Convention : Reuss Voigt Hill
#
# Bulk Modulus (GPa) = 19.80855 28.27149 24.04002
# Shear Modulus (GPa) = 19.49093 49.99875 34.74484
#
# Velocity S-wave (km/s) = 3.00696 4.81605 4.01473
# Velocity P-wave (km/s) = 4.60922 6.63633 5.71340
#
# Compressibility (1/GPa) = 0.05048326
#
# Stress axis : x y z
#
# Youngs Moduli (GPa) = 65.11222 32.02669 115.11356
#
# Poissons Ratio (x) = -0.01750 0.23193
# Poissons Ratio (y) = -0.03558 0.10644
# Poissons Ratio (z) = 0.13119 0.02961
#
# Static dielectric constant tensor:
#      x y z
#    x 1.707190 0.000000 0.000000 
#    y 0.000000 1.882860 0.000000 
#    z 0.000000 0.000000 1.766360 
# 
# From -- ./inp_files/29120.got.cif
#   From: 2010.05.17/outbox.cif.g08.bks.cpg/sg59_15_cif.got.tgz:29120.got - 2010.06.03 14:40:33.
