data_PCOD9450797
_publ_section_title
;
Structure prediction by ZEFSAII (Michael W. Deem and Ramdas Pophale) SiO2 
 PCOD9450797
Probable space group: P M M N
;
_chemical_formula_sum "Si O2"
_cell_formula_units_Z 64
_cell_length_a 8.810531
_cell_length_b 23.399887
_cell_length_c 15.898457
_cell_angle_alpha 90.000000
_cell_angle_beta 90.000000
_cell_angle_gamma 90.000000
_cell_volume 3277.712221
_symmetry_space_group_name_H-M "P M M N"
_symmetry_group_IT_number 59
_space_group.IT_coordinate_system_code '2'
_symmetry_cell_setting 'orthorhombic'
loop_
_space_group_symop_operation_xyz
x,y,z
1/2-x,1/2-y,z
1/2+x,-y,-z
-x,1/2+y,-z
-x,-y,-z
1/2+x,1/2+y,-z
1/2-x,y,z
x,1/2-y,z
loop_
_atom_site_type_symbol
_atom_site_label
_atom_site_fract_x
_atom_site_fract_y
_atom_site_fract_z
Si Si1 0.575779 0.531789 0.878041
Si Si2 0.071090 0.183790 0.328513
Si Si3 0.924418 0.182418 0.512202
Si Si4 0.425759 0.922406 0.719042
Si Si5 0.927605 0.090861 0.966868
Si Si6 0.433440 0.817313 0.172478
Si Si7 0.069596 0.117115 0.666290
Si Si8 0.429390 0.996549 0.407204
O O1 0.750000 0.541824 0.851806
O O2 0.463823 0.541569 0.801204
O O3 0.564212 0.466713 0.910353
O O4 0.528823 0.574793 0.952886
O O5 0.250000 0.171195 0.330562
O O6 0.051780 0.250000 0.306074
O O7 0.998191 0.175621 0.420847
O O8 0.982062 0.141905 0.267107
O O9 0.750000 0.161007 0.512764
O O10 0.920522 0.250000 0.530190
O O11 0.022212 0.152407 0.583486
O O12 0.250000 0.925022 0.697363
O O13 0.524946 0.946911 0.642945
O O14 0.750000 0.097372 0.991818
O O15 0.972511 0.145492 0.910669
O O16 0.250000 0.819544 0.180664
O O17 0.477000 0.750000 0.169016
O O18 0.503776 0.849888 0.252731
O O19 0.250000 0.112061 0.673714
O O20 0.997453 0.055243 0.648007
O O21 0.250000 0.990095 0.413715
O O22 0.500000 0.000000 0.500000
#
# Coordination Sequence:
#
# PCOD9450797 Si02
#       8
#     8   8   8   8   8   8   8   8
#     4  10  20  36  61  89 116 150 192 238 289 345
#     4  10  21  38  59  82 110 145 186 232 281 332
#     4  10  20  35  55  78 107 147 194 239 284 335
#     4  12  24  39  60  87 118 150 189 234 283 340
#     4   9  19  37  60  86 115 147 187 239 293 347
#     4  10  21  38  60  86 119 160 202 245 300 365
#     4  12  24  37  55  82 116 154 198 244 293 348
#     4  12  25  42  61  84 118 157 199 246 299 354
#
# _framework density 19.525814
#
# number of rings (size 3 to 8) (size 9 to 14) (size 15 to 20)
#    0.000    1.375    0.000    6.375    0.000    5.250 
#    0.000    0.625    0.000    2.250    0.000    0.000 
#    0.000    0.000    0.000    0.000    0.000    0.000 
#
# Total GULP energy -357731.711417 kJ/mol
# GULP energy per Si atom -5589.557991 kJ/mol
# Density = 1.948137 g / cm^3
# Si number density = 19.525814 Si / 1000 Ang^3
#
#
#
# Elastic Constant Matrix: (Units=GPa)
#
#
# Indices 1 2 3 4 5 6 
#
# 1 86.9415 37.7976 15.7792 0.0000 0.0000 0.0000
# 2 37.7976 98.4905 23.0773 0.0000 0.0000 0.0000
# 3 15.7792 23.0773 32.9118 0.0000 0.0000 0.0000
# 4 0.0000 0.0000 0.0000 27.1065 0.0000 0.0000
# 5 0.0000 0.0000 0.0000 0.0000 31.2162 0.0000
# 6 0.0000 0.0000 0.0000 0.0000 0.0000 28.6025
#
#
#
# Elastic Compliance Matrix: (Units=1/GPa)
#
#
# Indices 1 2 3 4 5 6 
#
# 1 0.014146 -0.004594 -0.003560 0.000000 0.000000 0.000000
# 2 -0.004594 0.013642 -0.007363 0.000000 0.000000 0.000000
# 3 -0.003560 -0.007363 0.037254 0.000000 0.000000 0.000000
# 4 0.000000 0.000000 0.000000 0.036892 0.000000 0.000000
# 5 0.000000 0.000000 0.000000 0.000000 0.032035 0.000000
# 6 0.000000 0.000000 0.000000 0.000000 0.000000 0.034962
#
#
# Mechanical properties :
#
#
# Convention : Reuss Voigt Hill
#
# Bulk Modulus (GPa) = 29.40643 41.29467 35.35055
# Shear Modulus (GPa) = 23.66313 26.83101 25.24707
#
# Velocity S-wave (km/s) = 3.48500 3.71095 3.59975
# Velocity P-wave (km/s) = 5.59344 6.28937 5.95159
#
# Compressibility (1/GPa) = 0.03400617
#
# Stress axis : x y z
#
# Youngs Moduli (GPa) = 70.69345 73.30539 26.84296
#
# Poissons Ratio (x) = 0.33679 0.09557
# Poissons Ratio (y) = 0.32479 0.19763
# Poissons Ratio (z) = 0.25170 0.53971
#
# Static dielectric constant tensor:
#      x y z
#    x 1.647910 0.000000 0.000000 
#    y 0.000000 1.742670 0.000000 
#    z 0.000000 0.000000 1.664580 
# 
# From -- ./inp_files/21630.got.cif
#   From: 2010.05.17/outbox.cif.g08.bks.cpg/sg59_11_cif.got.tgz:21630.got - 2010.06.03 14:40:33.
