data_PCOD9450857
_publ_section_title
;
Structure prediction by ZEFSAII (Michael W. Deem and Ramdas Pophale) SiO2 
 PCOD9450857
Probable space group: P M M N
;
_chemical_formula_sum "Si O2"
_cell_formula_units_Z 64
_cell_length_a 9.208028
_cell_length_b 17.817120
_cell_length_c 21.184097
_cell_angle_alpha 90.000000
_cell_angle_beta 90.000000
_cell_angle_gamma 90.000000
_cell_volume 3475.474390
_symmetry_space_group_name_H-M "P M M N"
_symmetry_group_IT_number 59
_space_group.IT_coordinate_system_code '2'
_symmetry_cell_setting 'orthorhombic'
loop_
_space_group_symop_operation_xyz
x,y,z
1/2-x,1/2-y,z
1/2+x,-y,-z
-x,1/2+y,-z
-x,-y,-z
1/2+x,1/2+y,-z
1/2-x,y,z
x,1/2-y,z
loop_
_atom_site_type_symbol
_atom_site_label
_atom_site_fract_x
_atom_site_fract_y
_atom_site_fract_z
Si Si1 0.422583 0.431926 0.812046
Si Si2 0.582539 0.340685 0.305931
Si Si3 0.082732 0.341615 0.432741
Si Si4 0.417637 0.840665 0.934150
Si Si5 0.423154 0.090255 0.185772
Si Si6 0.578111 0.838428 0.314320
Si Si7 0.420626 0.161116 0.938910
Si Si8 0.917267 0.158412 0.558901
O O1 0.250000 0.451336 0.811673
O O2 0.520086 0.505319 0.812780
O O3 0.452163 0.383799 0.749244
O O4 0.450117 0.383368 0.874823
O O5 0.750000 0.366028 0.302140
O O6 0.582689 0.250000 0.305157
O O7 0.508391 0.365173 0.371442
O O8 0.492044 0.369286 0.246568
O O9 0.250000 0.365637 0.428782
O O10 0.082113 0.250000 0.433054
O O11 0.007849 0.366267 0.497793
O O12 0.250000 0.864464 0.927544
O O13 0.422354 0.750000 0.931664
O O14 0.512467 0.872405 0.877293
O O15 0.482835 0.863531 0.001825
O O16 0.250000 0.095176 0.186849
O O17 0.750000 0.844749 0.328278
O O18 0.547274 0.750000 0.303964
O O19 0.488784 0.865084 0.375114
O O20 0.250000 0.151407 0.954797
O O21 0.444620 0.250000 0.928349
O O22 0.750000 0.135213 0.554210
O O23 0.920586 0.250000 0.558742
#
# Coordination Sequence:
#
# PCOD9450857 Si02
#       8
#     8   8   8   8   8   8   8   8
#     4  10  21  37  56  78 108 144 179 218 264 314
#     4  10  20  35  56  80 106 137 174 218 268 320
#     4   9  16  27  46  74 106 137 172 216 263 312
#     4  10  21  38  60  84 109 138 173 215 264 316
#     4  12  25  38  54  77 107 143 181 220 261 310
#     4   9  17  31  53  79 105 137 178 221 265 314
#     4   9  18  35  60  87 111 137 173 217 264 314
#     4   9  16  26  43  71 106 140 174 216 265 312
#
# _framework density 18.414753000000001
#
# number of rings (size 3 to 8) (size 9 to 14) (size 15 to 20)
#    0.000    2.250    0.000    3.375    0.000    9.000 
#    0.000    0.000    0.000    4.500    0.000    0.000 
#    0.000    0.000    0.000    0.000    0.000    0.000 
#
# Total GULP energy -357327.059258 kJ/mol
# GULP energy per Si atom -5583.235301 kJ/mol
# Density = 1.837284 g / cm^3
# Si number density = 18.414753 Si / 1000 Ang^3
#
#
#
# Elastic Constant Matrix: (Units=GPa)
#
#
# Indices 1 2 3 4 5 6 
#
# 1 158.4724 41.8975 115.8743 0.0000 0.0000 0.0000
# 2 41.8975 20.1758 36.4075 0.0000 0.0000 0.0000
# 3 115.8743 36.4075 178.0908 0.0000 0.0000 0.0000
# 4 0.0000 0.0000 0.0000 -12.3224 0.0000 0.0000
# 5 0.0000 0.0000 0.0000 0.0000 30.5469 0.0000
# 6 0.0000 0.0000 0.0000 0.0000 0.0000 20.6659
#
#
#
# Elastic Compliance Matrix: (Units=1/GPa)
#
#
# Indices 1 2 3 4 5 6 
#
# 1 0.017532 -0.025072 -0.006282 0.000000 0.000000 0.000000
# 2 -0.025072 0.114391 -0.007072 0.000000 0.000000 0.000000
# 3 -0.006282 -0.007072 0.011148 0.000000 0.000000 0.000000
# 4 0.000000 0.000000 0.000000 -0.081153 0.000000 0.000000
# 5 0.000000 0.000000 0.000000 0.000000 0.032737 0.000000
# 6 0.000000 0.000000 0.000000 0.000000 0.000000 0.048389
#
#
# Mechanical properties :
#
#
# Convention : Reuss Voigt Hill
#
# Bulk Modulus (GPa) = 15.10128 82.78863 48.94495
# Shear Modulus (GPa) = 20.66383 18.61539 19.63961
#
# Velocity S-wave (km/s) = 3.35346 3.18291 3.26930
# Velocity P-wave (km/s) = 4.81796 7.65266 6.39437
#
# Compressibility (1/GPa) = 0.06621954
#
# Stress axis : x y z
#
# Youngs Moduli (GPa) = 57.03889 8.74193 89.70215
#
# Poissons Ratio (x) = 0.21918 0.56347
# Poissons Ratio (y) = 1.43007 0.63440
# Poissons Ratio (z) = 0.35829 0.06183
#
# Static dielectric constant tensor:
#      x y z
#    x 1.619810 0.000000 0.000000 
#    y 0.000000 1.624390 0.000000 
#    z 0.000000 0.000000 1.604620 
# 
# From -- ./inp_files/29566.got.cif
#   From: 2010.05.17/outbox.cif.g08.bks.cpg/sg59_15_cif.got.tgz:29566.got - 2010.06.03 14:40:33.
