data_PCOD9450256
_publ_section_title
;
Structure prediction by ZEFSAII (Michael W. Deem and Ramdas Pophale) SiO2 
 PCOD9450256
Probable space group: P M M N
;
_chemical_formula_sum "Si O2"
_cell_formula_units_Z 40
_cell_length_a 7.740483
_cell_length_b 18.798291
_cell_length_c 13.237405
_cell_angle_alpha 90.000000
_cell_angle_beta 90.000000
_cell_angle_gamma 90.000000
_cell_volume 1926.146366
_symmetry_space_group_name_H-M "P M M N"
_symmetry_group_IT_number 59
_space_group.IT_coordinate_system_code '2'
_symmetry_cell_setting 'orthorhombic'
loop_
_space_group_symop_operation_xyz
x,y,z
1/2-x,1/2-y,z
1/2+x,-y,-z
-x,1/2+y,-z
-x,-y,-z
1/2+x,1/2+y,-z
1/2-x,y,z
x,1/2-y,z
loop_
_atom_site_type_symbol
_atom_site_label
_atom_site_fract_x
_atom_site_fract_y
_atom_site_fract_z
Si Si1 0.542326 0.582655 0.511770
Si Si2 0.455790 0.585276 0.903798
Si Si3 0.041906 0.330627 0.295418
Si Si4 0.962023 0.668069 0.313680
Si Si5 0.953928 0.925509 0.126957
O O1 0.500000 0.500000 0.500000
O O2 0.750000 0.588201 0.513026
O O3 0.477009 0.617398 0.615910
O O4 0.481821 0.627644 0.415086
O O5 0.250000 0.580156 0.913136
O O6 0.498252 0.638564 0.814089
O O7 0.525615 0.506130 0.876453
O O8 0.523322 0.605224 0.014571
O O9 0.250000 0.328706 0.302814
O O10 0.978377 0.250000 0.308736
O O11 0.750000 0.668528 0.313212
O O12 0.017190 0.750000 0.312087
O O13 0.022870 0.624196 0.215726
O O14 0.750000 0.932470 0.146746
#
# Coordination Sequence:
#
# PCOD9450256 Si02
#       5
#     8   8   8   8   8
#     4  10  20  35  56  80 105 134 170 211 256 307
#     4  10  20  34  53  77 106 139 176 219 263 306
#     4  10  21  36  54  77 106 140 177 216 259 311
#     4   9  17  31  53  78 102 131 170 213 253 298
#     4   9  18  33  53  77 105 138 176 215 257 309
#
# _framework density 20.766853000000001
#
# number of rings (size 3 to 8) (size 9 to 14) (size 15 to 20)
#    0.000    2.400    0.000    2.400    0.000    6.800 
#    0.000    3.000    0.000    3.000    0.000    0.000 
#    0.000    0.000    0.000    0.000    0.000    0.000 
#
# Total GULP energy -223383.205454 kJ/mol
# GULP energy per Si atom -5584.580136 kJ/mol
# Density = 2.071959 g / cm^3
# Si number density = 20.766853 Si / 1000 Ang^3
#
#
#
# Elastic Constant Matrix: (Units=GPa)
#
#
# Indices 1 2 3 4 5 6 
#
# 1 23.0475 -14.0845 -22.4805 0.0000 0.0000 0.0000
# 2 -14.0845 71.8125 17.8016 0.0000 0.0000 0.0000
# 3 -22.4805 17.8016 67.5589 0.0000 0.0000 0.0000
# 4 0.0000 0.0000 0.0000 -54.1381 0.0000 0.0000
# 5 0.0000 0.0000 0.0000 0.0000 3.3749 0.0000
# 6 0.0000 0.0000 0.0000 0.0000 0.0000 14.6633
#
#
#
# Elastic Compliance Matrix: (Units=1/GPa)
#
#
# Indices 1 2 3 4 5 6 
#
# 1 0.068611 0.008342 0.020633 0.000000 0.000000 0.000000
# 2 0.008342 0.015913 -0.001417 0.000000 0.000000 0.000000
# 3 0.020633 -0.001417 0.022041 0.000000 0.000000 0.000000
# 4 0.000000 0.000000 0.000000 -0.018471 0.000000 0.000000
# 5 0.000000 0.000000 0.000000 0.000000 0.296306 0.000000
# 6 0.000000 0.000000 0.000000 0.000000 0.000000 0.068197
#
#
# Mechanical properties :
#
#
# Convention : Reuss Voigt Hill
#
# Bulk Modulus (GPa) = 6.18505 13.87691 10.03098
# Shear Modulus (GPa) = 11.07727 4.85885 7.96806
#
# Velocity S-wave (km/s) = 2.31208 1.53127 1.96093
# Velocity P-wave (km/s) = 3.18000 3.13419 3.15718
#
# Compressibility (1/GPa) = 0.16168009
#
# Stress axis : x y z
#
# Youngs Moduli (GPa) = 14.57483 62.84351 45.37027
#
# Poissons Ratio (x) = -0.52425 -0.93611
# Poissons Ratio (y) = -0.12158 0.06429
# Poissons Ratio (z) = -0.30072 0.08905
#
# Static dielectric constant tensor:
#      x y z
#    x 1.777030 0.000000 0.000000 
#    y 0.000000 1.720380 0.000000 
#    z 0.000000 0.000000 1.710130 
# 
# From -- ./inp_files/13815.got.cif
#   From: 2010.05.17/outbox.cif.g08.bks.cpg/sg59_7_cif.got.tgz:13815.got - 2010.06.03 14:40:33.
