data_PCOD9450156
_publ_section_title
;
Structure prediction by ZEFSAII (Michael W. Deem and Ramdas Pophale) SiO2 
 PCOD9450156
Probable space group: P M M N
;
_chemical_formula_sum "Si O2"
_cell_formula_units_Z 64
_cell_length_a 9.682452
_cell_length_b 22.720122
_cell_length_c 16.355905
_cell_angle_alpha 90.000000
_cell_angle_beta 90.000000
_cell_angle_gamma 90.000000
_cell_volume 3598.078143
_symmetry_space_group_name_H-M "P M M N"
_symmetry_group_IT_number 59
_space_group.IT_coordinate_system_code '2'
_symmetry_cell_setting 'orthorhombic'
loop_
_space_group_symop_operation_xyz
x,y,z
1/2-x,1/2-y,z
1/2+x,-y,-z
-x,1/2+y,-z
-x,-y,-z
1/2+x,1/2+y,-z
1/2-x,y,z
x,1/2-y,z
loop_
_atom_site_type_symbol
_atom_site_label
_atom_site_fract_x
_atom_site_fract_y
_atom_site_fract_z
Si Si1 0.594727 0.913990 0.496351
Si Si2 0.901904 0.317474 0.687397
Si Si3 0.409355 0.001646 0.787982
Si Si4 0.591296 0.482558 0.628869
Si Si5 0.084982 0.946246 0.956861
Si Si6 0.900785 0.316800 0.490558
Si Si7 0.084779 0.682199 0.034244
Si Si8 0.409605 0.136209 0.817461
O O1 0.750000 0.904480 0.466723
O O2 0.497419 0.935583 0.422586
O O3 0.526704 0.856531 0.534988
O O4 0.595382 0.962799 0.566672
O O5 0.750000 0.339326 0.713103
O O6 0.913647 0.250000 0.715235
O O7 0.905128 0.315392 0.589479
O O8 0.023886 0.352506 0.729104
O O9 0.250000 0.995345 0.759021
O O10 0.436871 0.955107 0.859641
O O11 0.513906 0.001190 0.712328
O O12 0.418977 0.066086 0.830075
O O13 0.750000 0.463650 0.642532
O O14 0.250000 0.955170 0.972898
O O15 0.052055 0.878359 0.983040
O O16 0.000000 0.000000 0.000000
O O17 0.750000 0.341519 0.467299
O O18 0.909622 0.250000 0.461665
O O19 0.250000 0.680533 0.048270
O O20 0.054530 0.750000 0.004186
O O21 0.000437 0.671291 0.117379
O O22 0.250000 0.153732 0.820868
#
# Coordination Sequence:
#
# PCOD9450156 Si02
#       8
#     8   8   8   8   8   8   8   8
#     4  10  20  34  52  76 107 138 174 220 270 321
#     4   9  18  31  44  62  94 134 173 210 251 306
#     4  10  21  35  52  77 106 135 173 221 271 318
#     4  10  21  35  53  78 105 139 178 217 268 325
#     4  10  20  37  58  80 108 140 178 224 270 318
#     4   9  18  32  50  72  98 133 177 218 259 316
#     4  10  21  36  55  78 104 139 179 216 263 323
#     4  11  21  31  46  72 104 134 170 214 259 311
#
# _framework density 17.787275000000001
#
# number of rings (size 3 to 8) (size 9 to 14) (size 15 to 20)
#    0.000    2.125    1.250    3.000    0.000    7.750 
#    0.000    1.250    0.000    0.750    0.000    1.750 
#    0.000    0.000    0.000    0.000    0.000    0.000 
#
# Total GULP energy -356635.517480 kJ/mol
# GULP energy per Si atom -5572.429961 kJ/mol
# Density = 1.774679 g / cm^3
# Si number density = 17.787275 Si / 1000 Ang^3
#
#
#
# Elastic Constant Matrix: (Units=GPa)
#
#
# Indices 1 2 3 4 5 6 
#
# 1 99.3799 46.7173 30.5356 0.0000 0.0000 0.0000
# 2 46.7173 98.3735 24.9829 0.0000 0.0000 0.0000
# 3 30.5356 24.9829 47.8163 0.0000 0.0000 0.0000
# 4 0.0000 0.0000 0.0000 17.6162 0.0000 0.0000
# 5 0.0000 0.0000 0.0000 0.0000 23.2009 0.0000
# 6 0.0000 0.0000 0.0000 0.0000 0.0000 24.7562
#
#
#
# Elastic Compliance Matrix: (Units=1/GPa)
#
#
# Indices 1 2 3 4 5 6 
#
# 1 0.014537 -0.005242 -0.006545 0.000000 0.000000 0.000000
# 2 -0.005242 0.013610 -0.003764 0.000000 0.000000 0.000000
# 3 -0.006545 -0.003764 0.027060 0.000000 0.000000 0.000000
# 4 0.000000 0.000000 0.000000 0.056766 0.000000 0.000000
# 5 0.000000 0.000000 0.000000 0.000000 0.043102 0.000000
# 6 0.000000 0.000000 0.000000 0.000000 0.000000 0.040394
#
#
# Mechanical properties :
#
#
# Convention : Reuss Voigt Hill
#
# Bulk Modulus (GPa) = 41.48262 50.00461 45.74361
# Shear Modulus (GPa) = 21.31237 22.67025 21.99131
#
# Velocity S-wave (km/s) = 3.46523 3.57392 3.51999
# Velocity P-wave (km/s) = 6.27555 6.72340 6.50333
#
# Compressibility (1/GPa) = 0.02410648
#
# Stress axis : x y z
#
# Youngs Moduli (GPa) = 68.78784 73.47299 36.95554
#
# Poissons Ratio (x) = 0.38512 0.24187
# Poissons Ratio (y) = 0.36056 0.13909
# Poissons Ratio (z) = 0.45022 0.27654
#
# Static dielectric constant tensor:
#      x y z
#    x 1.626450 0.000000 0.000000 
#    y 0.000000 1.673140 0.000000 
#    z 0.000000 0.000000 1.597970 
# 
# From -- ./inp_files/26544.got.cif
#   From: 2010.05.17/outbox.cif.g08.bks.cpg/sg59_14_cif.got.tgz:26544.got - 2010.06.03 14:40:33.
