data_PCOD9450141
_publ_section_title
;
Structure prediction by ZEFSAII (Michael W. Deem and Ramdas Pophale) SiO2 
 PCOD9450141
Probable space group: P M M N
;
_chemical_formula_sum "Si O2"
_cell_formula_units_Z 64
_cell_length_a 8.942748
_cell_length_b 19.104918
_cell_length_c 22.155807
_cell_angle_alpha 90.000000
_cell_angle_beta 90.000000
_cell_angle_gamma 90.000000
_cell_volume 3785.329978
_symmetry_space_group_name_H-M "P M M N"
_symmetry_group_IT_number 59
_space_group.IT_coordinate_system_code '2'
_symmetry_cell_setting 'orthorhombic'
loop_
_space_group_symop_operation_xyz
x,y,z
1/2-x,1/2-y,z
1/2+x,-y,-z
-x,1/2+y,-z
-x,-y,-z
1/2+x,1/2+y,-z
1/2-x,y,z
x,1/2-y,z
loop_
_atom_site_type_symbol
_atom_site_label
_atom_site_fract_x
_atom_site_fract_y
_atom_site_fract_z
Si Si1 0.575354 0.832059 0.995024
Si Si2 0.920982 0.608878 0.519309
Si Si3 0.429859 0.672031 0.633941
Si Si4 0.571901 0.039400 0.057451
Si Si5 0.421028 0.541168 0.411660
Si Si6 0.570847 0.470682 0.300361
Si Si7 0.428761 0.975022 0.177637
Si Si8 0.927651 0.329287 0.874542
O O1 0.750000 0.851832 0.990909
O O2 0.560873 0.750000 0.980949
O O3 0.476526 0.880405 0.952288
O O4 0.518316 0.841415 0.063731
O O5 0.750000 0.630432 0.509548
O O6 0.918924 0.532200 0.551239
O O7 0.001880 0.657670 0.567966
O O8 0.006771 0.597617 0.456564
O O9 0.250000 0.668952 0.629089
O O10 0.472132 0.750000 0.655032
O O11 0.474861 0.607461 0.677117
O O12 0.750000 0.031188 0.057157
O O13 0.501464 0.009468 0.118463
O O14 0.500000 0.000000 0.000000
O O15 0.250000 0.558710 0.396434
O O16 0.515839 0.523913 0.352314
O O17 0.750000 0.472360 0.295755
O O18 0.497084 0.491859 0.237565
O O19 0.250000 0.984745 0.176517
O O20 0.459889 0.891694 0.171641
O O21 0.750000 0.333208 0.889112
O O22 0.958953 0.250000 0.853412
#
# Coordination Sequence:
#
# PCOD9450141 Si02
#       8
#     8   8   8   8   8   8   8   8
#     4  10  20  34  54  80 108 136 169 213 267 326
#     4   9  16  26  45  74 102 128 162 207 258 306
#     4   9  18  33  52  74 103 141 184 226 268 316
#     4  12  23  36  55  79 108 141 177 223 276 329
#     4   9  16  28  47  71 100 131 164 206 255 308
#     4  10  20  34  52  75 104 140 182 227 271 322
#     4  11  22  36  55  79 107 140 179 225 272 329
#     4   9  18  33  54  78 102 130 165 208 262 324
#
# _framework density 16.907375999999999
#
# number of rings (size 3 to 8) (size 9 to 14) (size 15 to 20)
#    0.000    2.125    1.250    3.000    0.000    5.000 
#    0.000    0.625    0.000    3.000    0.000    1.750 
#    0.000    0.000    0.000    0.000    0.000    0.000 
#
# Total GULP energy -356947.979846 kJ/mol
# GULP energy per Si atom -5577.312185 kJ/mol
# Density = 1.686889 g / cm^3
# Si number density = 16.907376 Si / 1000 Ang^3
#
#
#
# Elastic Constant Matrix: (Units=GPa)
#
#
# Indices 1 2 3 4 5 6 
#
# 1 89.1507 48.3561 59.0215 0.0000 0.0000 0.0000
# 2 48.3561 92.1876 61.6878 0.0000 0.0000 0.0000
# 3 59.0215 61.6878 119.2295 0.0000 0.0000 0.0000
# 4 0.0000 0.0000 0.0000 18.3797 0.0000 0.0000
# 5 0.0000 0.0000 0.0000 0.0000 32.5246 0.0000
# 6 0.0000 0.0000 0.0000 0.0000 0.0000 21.6038
#
#
#
# Elastic Compliance Matrix: (Units=1/GPa)
#
#
# Indices 1 2 3 4 5 6 
#
# 1 0.018293 -0.005408 -0.006257 0.000000 0.000000 0.000000
# 2 -0.005408 0.018191 -0.006734 0.000000 0.000000 0.000000
# 3 -0.006257 -0.006734 0.014969 0.000000 0.000000 0.000000
# 4 0.000000 0.000000 0.000000 0.054408 0.000000 0.000000
# 5 0.000000 0.000000 0.000000 0.000000 0.030746 0.000000
# 6 0.000000 0.000000 0.000000 0.000000 0.000000 0.046288
#
#
# Mechanical properties :
#
#
# Convention : Reuss Voigt Hill
#
# Bulk Modulus (GPa) = 68.24676 70.96650 69.60663
# Shear Modulus (GPa) = 22.26390 23.26846 22.76618
#
# Velocity S-wave (km/s) = 3.63273 3.71378 3.67348
# Velocity P-wave (km/s) = 7.61895 7.77524 7.69749
#
# Compressibility (1/GPa) = 0.01465271
#
# Stress axis : x y z
#
# Youngs Moduli (GPa) = 54.66546 54.97324 66.80484
#
# Poissons Ratio (x) = 0.29731 0.41802
# Poissons Ratio (y) = 0.29565 0.44989
# Poissons Ratio (z) = 0.34206 0.37021
#
# Static dielectric constant tensor:
#      x y z
#    x 1.569650 0.000000 0.000000 
#    y 0.000000 1.601490 0.000000 
#    z 0.000000 0.000000 1.534150 
# 
# From -- ./inp_files/29606.got.cif
#   From: 2010.05.17/outbox.cif.g08.bks.cpg/sg59_15_cif.got.tgz:29606.got - 2010.06.03 14:40:33.
