data_PCOD9450277
_publ_section_title
;
Structure prediction by ZEFSAII (Michael W. Deem and Ramdas Pophale) SiO2 
 PCOD9450277
Probable space group: P M M N
;
_chemical_formula_sum "Si O2"
_cell_formula_units_Z 40
_cell_length_a 9.020825
_cell_length_b 14.714992
_cell_length_c 17.068242
_cell_angle_alpha 90.000000
_cell_angle_beta 90.000000
_cell_angle_gamma 90.000000
_cell_volume 2265.661787
_symmetry_space_group_name_H-M "P M M N"
_symmetry_group_IT_number 59
_space_group.IT_coordinate_system_code '2'
_symmetry_cell_setting 'orthorhombic'
loop_
_space_group_symop_operation_xyz
x,y,z
1/2-x,1/2-y,z
1/2+x,-y,-z
-x,1/2+y,-z
-x,-y,-z
1/2+x,1/2+y,-z
1/2-x,y,z
x,1/2-y,z
loop_
_atom_site_type_symbol
_atom_site_label
_atom_site_fract_x
_atom_site_fract_y
_atom_site_fract_z
Si Si1 0.073243 0.750000 0.699654
Si Si2 0.924788 0.890483 0.585079
Si Si3 0.428577 0.250000 0.129959
Si Si4 0.574569 0.105740 0.578435
Si Si5 0.928491 0.750000 0.122815
Si Si6 0.428463 0.400937 0.002053
Si Si7 0.427667 0.750000 0.292008
O O1 0.250000 0.750000 0.701061
O O2 0.012093 0.835988 0.651026
O O3 0.008146 0.750000 0.786992
O O4 0.750000 0.871068 0.590855
O O5 0.985157 0.866136 0.498819
O O6 0.947322 0.998777 0.592734
O O7 0.250000 0.250000 0.140567
O O8 0.466413 0.339010 0.077854
O O9 0.750000 0.121009 0.563267
O O10 0.532781 0.163521 0.654306
O O11 0.750000 0.750000 0.126681
O O12 0.995504 0.750000 0.208608
O O13 0.972344 0.661146 0.072477
O O14 0.250000 0.409815 0.001192
O O15 0.500000 0.500000 0.000000
O O16 0.250000 0.750000 0.280930
#
# Coordination Sequence:
#
# PCOD9450277 Si02
#       7
#     4   8   4   8   4   8   4
#     4  12  24  36  53  78 108 141 180 229 274 311
#     4  10  20  35  55  78 106 143 183 220 267 323
#     4   9  20  39  57  77 108 142 175 214 265 324
#     4   9  19  35  54  78 109 142 179 222 264 311
#     4   9  20  37  53  77 110 138 169 210 257 312
#     4   9  19  37  60  81 105 138 172 211 261 314
#     4  10  20  34  53  78 108 141 174 213 260 307
#
# _framework density 17.654886999999999
#
# number of rings (size 3 to 8) (size 9 to 14) (size 15 to 20)
#    0.000    2.400    0.000    3.300    0.000    5.600 
#    0.000    8.000    0.000    0.000    0.000    0.000 
#    0.000    0.000    0.000    0.000    0.000    0.000 
#
# Total GULP energy -223267.839666 kJ/mol
# GULP energy per Si atom -5581.695992 kJ/mol
# Density = 1.761470 g / cm^3
# Si number density = 17.654887 Si / 1000 Ang^3
#
#
#
# Elastic Constant Matrix: (Units=GPa)
#
#
# Indices 1 2 3 4 5 6 
#
# 1 70.8004 60.9008 81.1522 0.0000 0.0000 0.0000
# 2 60.9008 137.5958 94.2247 0.0000 0.0000 0.0000
# 3 81.1522 94.2247 194.5132 0.0000 0.0000 0.0000
# 4 0.0000 0.0000 0.0000 22.2429 0.0000 0.0000
# 5 0.0000 0.0000 0.0000 0.0000 36.7047 0.0000
# 6 0.0000 0.0000 0.0000 0.0000 0.0000 24.5243
#
#
#
# Elastic Compliance Matrix: (Units=1/GPa)
#
#
# Indices 1 2 3 4 5 6 
#
# 1 0.031373 -0.007366 -0.009521 0.000000 0.000000 0.000000
# 2 -0.007366 0.012605 -0.003033 0.000000 0.000000 0.000000
# 3 -0.009521 -0.003033 0.010582 0.000000 0.000000 0.000000
# 4 0.000000 0.000000 0.000000 0.044958 0.000000 0.000000
# 5 0.000000 0.000000 0.000000 0.000000 0.027244 0.000000
# 6 0.000000 0.000000 0.000000 0.000000 0.000000 0.040776
#
#
# Mechanical properties :
#
#
# Convention : Reuss Voigt Hill
#
# Bulk Modulus (GPa) = 67.93075 97.27387 82.60231
# Shear Modulus (GPa) = 23.55318 27.80316 25.67817
#
# Velocity S-wave (km/s) = 3.65648 3.97270 3.81786
# Velocity P-wave (km/s) = 7.50913 8.73270 8.14393
#
# Compressibility (1/GPa) = 0.01472087
#
# Stress axis : x y z
#
# Youngs Moduli (GPa) = 31.87408 79.33517 94.49742
#
# Poissons Ratio (x) = 0.58440 0.89970
# Poissons Ratio (y) = 0.23479 0.28658
# Poissons Ratio (z) = 0.30347 0.24060
#
# Static dielectric constant tensor:
#      x y z
#    x 1.587950 0.000000 0.000000 
#    y 0.000000 1.605550 0.000000 
#    z 0.000000 0.000000 1.566210 
# 
# From -- ./inp_files/20039.got.cif
#   From: 2010.05.17/outbox.cif.g08.bks.cpg/sg59_11_cif.got.tgz:20039.got - 2010.06.03 14:40:33.
