data_PCOD9450872
_publ_section_title
;
Structure prediction by ZEFSAII (Michael W. Deem and Ramdas Pophale) SiO2 
 PCOD9450872
Probable space group: P M M N
;
_chemical_formula_sum "Si O2"
_cell_formula_units_Z 64
_cell_length_a 25.061982
_cell_length_b 8.728669
_cell_length_c 16.476336
_cell_angle_alpha 90.000000
_cell_angle_beta 90.000000
_cell_angle_gamma 90.000000
_cell_volume 3604.326115
_symmetry_space_group_name_H-M "P M M N"
_symmetry_group_IT_number 59
_space_group.IT_coordinate_system_code '2'
_symmetry_cell_setting 'orthorhombic'
loop_
_space_group_symop_operation_xyz
x,y,z
1/2-x,1/2-y,z
1/2+x,-y,-z
-x,1/2+y,-z
-x,-y,-z
1/2+x,1/2+y,-z
1/2-x,y,z
x,1/2-y,z
loop_
_atom_site_type_symbol
_atom_site_label
_atom_site_fract_x
_atom_site_fract_y
_atom_site_fract_z
Si Si1 0.916296 0.566256 0.547231
Si Si2 0.043170 0.929124 0.941389
Si Si3 0.193122 0.434040 0.843032
Si Si4 0.312315 0.932412 0.366436
Si Si5 0.579166 0.566232 0.222371
Si Si6 0.147209 0.066414 0.014747
Si Si7 0.186166 0.425297 0.193676
Si Si8 0.969233 0.433549 0.385993
O O1 0.912811 0.750000 0.544709
O O2 0.859607 0.502526 0.578658
O O3 0.934641 0.503738 0.459581
O O4 0.968014 0.523974 0.602857
O O5 0.035009 0.750000 0.927984
O O6 0.045511 0.015826 0.855869
O O7 0.098122 0.964516 0.987120
O O8 0.000000 0.000000 0.000000
O O9 0.250000 0.496333 0.814188
O O10 0.193307 0.250000 0.831543
O O11 0.139709 0.488884 0.798125
O O12 0.188019 0.456697 0.940186
O O13 0.250000 0.984715 0.381314
O O14 0.312697 0.750000 0.376175
O O15 0.325994 0.975826 0.273061
O O16 0.579600 0.750000 0.228916
O O17 0.554774 0.493561 0.302389
O O18 0.134171 0.250000 0.013525
O O19 0.164782 0.027050 0.105600
O O20 0.250000 0.423438 0.185908
O O21 0.168075 0.250000 0.209062
O O22 0.966118 0.250000 0.390396
#
# Coordination Sequence:
#
# PCOD9450872 Si02
#       8
#     8   8   8   8   8   8   8   8
#     4  10  21  38  61  85 107 138 179 221 267 321
#     4  11  22  36  52  71 100 137 176 218 266 316
#     4   8  14  27  49  75 102 134 174 218 260 305
#     4  10  21  36  54  79 113 148 179 219 273 326
#     4  10  20  35  56  81 108 140 179 221 267 319
#     4   9  17  30  49  73 100 132 173 218 262 309
#     4   9  17  30  50  75 103 137 176 215 254 304
#     4  10  21  38  60  85 112 140 175 221 270 320
#
# _framework density 17.756440999999999
#
# number of rings (size 3 to 8) (size 9 to 14) (size 15 to 20)
#    0.000    2.375    0.000    3.750    0.000    5.250 
#    0.000    1.875    0.000   14.625    0.000    0.000 
#    0.000    0.000    0.000    0.000    0.000    0.000 
#
# Total GULP energy -356650.062944 kJ/mol
# GULP energy per Si atom -5572.657234 kJ/mol
# Density = 1.771603 g / cm^3
# Si number density = 17.756441 Si / 1000 Ang^3
#
#
#
# Elastic Constant Matrix: (Units=GPa)
#
#
# Indices 1 2 3 4 5 6 
#
# 1 106.1993 38.8907 77.6425 0.0000 0.0000 0.0000
# 2 38.8907 44.1362 31.2213 0.0000 0.0000 0.0000
# 3 77.6425 31.2213 113.7435 0.0000 0.0000 0.0000
# 4 0.0000 0.0000 0.0000 31.9982 0.0000 0.0000
# 5 0.0000 0.0000 0.0000 0.0000 15.7139 0.0000
# 6 0.0000 0.0000 0.0000 0.0000 0.0000 22.1176
#
#
#
# Elastic Compliance Matrix: (Units=1/GPa)
#
#
# Indices 1 2 3 4 5 6 
#
# 1 0.022466 -0.011104 -0.012288 0.000000 0.000000 0.000000
# 2 -0.011104 0.033605 -0.001644 0.000000 0.000000 0.000000
# 3 -0.012288 -0.001644 0.017631 0.000000 0.000000 0.000000
# 4 0.000000 0.000000 0.000000 0.031252 0.000000 0.000000
# 5 0.000000 0.000000 0.000000 0.000000 0.063638 0.000000
# 6 0.000000 0.000000 0.000000 0.000000 0.000000 0.045213
#
#
# Mechanical properties :
#
#
# Convention : Reuss Voigt Hill
#
# Bulk Modulus (GPa) = 42.32015 62.17644 52.24830
# Shear Modulus (GPa) = 18.39909 21.72091 20.06000
#
# Velocity S-wave (km/s) = 3.22249 3.50132 3.36479
# Velocity P-wave (km/s) = 6.14258 7.17203 6.67717
#
# Compressibility (1/GPa) = 0.02362941
#
# Stress axis : x y z
#
# Youngs Moduli (GPa) = 44.51141 29.75782 56.71886
#
# Poissons Ratio (x) = 0.33043 0.69695
# Poissons Ratio (y) = 0.49425 0.09327
# Poissons Ratio (z) = 0.54694 0.04893
#
# Static dielectric constant tensor:
#      x y z
#    x 1.632740 0.000000 0.000000 
#    y 0.000000 1.602670 0.000000 
#    z 0.000000 0.000000 1.582250 
# 
# From -- ./inp_files/24707.got.cif
#   From: 2010.05.17/outbox.cif.g08.bks.cpg/sg59_13_cif.got.tgz:24707.got - 2010.06.03 14:40:33.
