data_PCOD9450433
_publ_section_title
;
Structure prediction by ZEFSAII (Michael W. Deem and Ramdas Pophale) SiO2 
 PCOD9450433
Probable space group: P M M N
;
_chemical_formula_sum "Si O2"
_cell_formula_units_Z 64
_cell_length_a 8.570422
_cell_length_b 19.666974
_cell_length_c 19.846423
_cell_angle_alpha 90.000000
_cell_angle_beta 90.000000
_cell_angle_gamma 90.000000
_cell_volume 3345.199274
_symmetry_space_group_name_H-M "P M M N"
_symmetry_group_IT_number 59
_space_group.IT_coordinate_system_code '2'
_symmetry_cell_setting 'orthorhombic'
loop_
_space_group_symop_operation_xyz
x,y,z
1/2-x,1/2-y,z
1/2+x,-y,-z
-x,1/2+y,-z
-x,-y,-z
1/2+x,1/2+y,-z
1/2-x,y,z
x,1/2-y,z
loop_
_atom_site_type_symbol
_atom_site_label
_atom_site_fract_x
_atom_site_fract_y
_atom_site_fract_z
Si Si1 0.061226 0.948485 0.713426
Si Si2 0.932294 0.168128 0.667826
Si Si3 0.434839 0.564573 0.075928
Si Si4 0.560119 0.173395 0.518813
Si Si5 0.065947 0.415517 0.787902
Si Si6 0.064258 0.587893 0.927692
Si Si7 0.563443 0.828653 0.802096
Si Si8 0.438097 0.545791 0.560977
O O1 0.250000 0.946942 0.712856
O O2 0.007801 0.965853 0.637413
O O3 0.002676 0.877362 0.743317
O O4 0.012459 0.009949 0.762397
O O5 0.750000 0.148550 0.675179
O O6 0.939416 0.250000 0.669705
O O7 0.988823 0.147840 0.592971
O O8 0.029333 0.134910 0.726980
O O9 0.250000 0.552217 0.072883
O O10 0.479100 0.603660 0.143604
O O11 0.518807 0.491354 0.081290
O O12 0.479504 0.600925 0.005912
O O13 0.750000 0.175628 0.521716
O O14 0.504089 0.250000 0.508618
O O15 0.516457 0.122148 0.460513
O O16 0.250000 0.418323 0.800802
O O17 0.250000 0.594595 0.919524
O O18 0.985553 0.635825 0.872507
O O19 0.750000 0.828951 0.797672
O O20 0.509331 0.750000 0.798472
O O21 0.500000 0.500000 0.500000
O O22 0.250000 0.540168 0.560718
#
# Coordination Sequence:
#
# PCOD9450433 Si02
#       8
#     8   8   8   8   8   8   8   8
#     4  10  22  37  54  81 114 149 192 235 282 342
#     4   9  18  33  53  76 103 138 181 228 281 341
#     4  10  20  34  57  85 112 144 182 224 271 326
#     4   8  15  30  52  75  98 132 181 227 268 325
#     4  11  21  33  52  80 113 147 185 229 275 328
#     4  10  20  36  58  85 112 141 182 229 278 330
#     4  11  24  40  59  84 115 154 198 241 287 341
#     4  10  20  34  54  81 111 143 181 231 286 338
#
# _framework density 19.131893000000002
#
# number of rings (size 3 to 8) (size 9 to 14) (size 15 to 20)
#    0.000    2.125    1.250    3.000    0.000    4.250 
#    0.000    1.875    0.000    1.875    0.000    0.000 
#    0.000    0.000    0.000    0.000    0.000    0.000 
#
# Total GULP energy -357113.671742 kJ/mol
# GULP energy per Si atom -5579.901121 kJ/mol
# Density = 1.908835 g / cm^3
# Si number density = 19.131893 Si / 1000 Ang^3
#
#
#
# Elastic Constant Matrix: (Units=GPa)
#
#
# Indices 1 2 3 4 5 6 
#
# 1 14.9196 8.9293 18.1972 0.0000 0.0000 0.0000
# 2 8.9293 41.9150 23.9427 0.0000 0.0000 0.0000
# 3 18.1972 23.9427 125.7974 0.0000 0.0000 0.0000
# 4 0.0000 0.0000 0.0000 27.0900 0.0000 0.0000
# 5 0.0000 0.0000 0.0000 0.0000 22.7769 0.0000
# 6 0.0000 0.0000 0.0000 0.0000 0.0000 22.8141
#
#
#
# Elastic Compliance Matrix: (Units=1/GPa)
#
#
# Indices 1 2 3 4 5 6 
#
# 1 0.087051 -0.012736 -0.010168 0.000000 0.000000 0.000000
# 2 -0.012736 0.028631 -0.003607 0.000000 0.000000 0.000000
# 3 -0.010168 -0.003607 0.010107 0.000000 0.000000 0.000000
# 4 0.000000 0.000000 0.000000 0.036914 0.000000 0.000000
# 5 0.000000 0.000000 0.000000 0.000000 0.043904 0.000000
# 6 0.000000 0.000000 0.000000 0.000000 0.000000 0.043832
#
#
# Mechanical properties :
#
#
# Convention : Reuss Voigt Hill
#
# Bulk Modulus (GPa) = 13.74275 31.64116 22.69196
# Shear Modulus (GPa) = 15.25704 23.30706 19.28205
#
# Velocity S-wave (km/s) = 2.82701 3.49410 3.17811
# Velocity P-wave (km/s) = 4.22549 5.73173 5.03525
#
# Compressibility (1/GPa) = 0.07276561
#
# Stress axis : x y z
#
# Youngs Moduli (GPa) = 11.48758 34.92661 98.94441
#
# Poissons Ratio (x) = 0.44484 1.00609
# Poissons Ratio (y) = 0.14631 0.35689
# Poissons Ratio (z) = 0.11681 0.12598
#
# Static dielectric constant tensor:
#      x y z
#    x 1.651130 0.000000 0.000000 
#    y 0.000000 1.662150 0.000000 
#    z 0.000000 0.000000 1.682820 
# 
# From -- ./inp_files/26293.got.cif
#   From: 2010.05.17/outbox.cif.g08.bks.cpg/sg59_14_cif.got.tgz:26293.got - 2010.06.03 14:40:33.
