data_PCOD9450791
_publ_section_title
;
Structure prediction by ZEFSAII (Michael W. Deem and Ramdas Pophale) SiO2 
 PCOD9450791
Probable space group: P M M N
;
_chemical_formula_sum "Si O2"
_cell_formula_units_Z 64
_cell_length_a 32.145204
_cell_length_b 8.821646
_cell_length_c 12.403950
_cell_angle_alpha 90.000000
_cell_angle_beta 90.000000
_cell_angle_gamma 90.000000
_cell_volume 3517.432883
_symmetry_space_group_name_H-M "P M M N"
_symmetry_group_IT_number 59
_space_group.IT_coordinate_system_code '2'
_symmetry_cell_setting 'orthorhombic'
loop_
_space_group_symop_operation_xyz
x,y,z
1/2-x,1/2-y,z
1/2+x,-y,-z
-x,1/2+y,-z
-x,-y,-z
1/2+x,1/2+y,-z
1/2-x,y,z
x,1/2-y,z
loop_
_atom_site_type_symbol
_atom_site_label
_atom_site_fract_x
_atom_site_fract_y
_atom_site_fract_z
Si Si1 0.631724 0.067681 0.089643
Si Si2 0.122805 0.066882 0.375661
Si Si3 0.553883 0.069227 0.243217
Si Si4 0.608116 0.931028 0.866872
Si Si5 0.017346 0.570194 0.110533
Si Si6 0.453458 0.930944 0.508692
Si Si7 0.702057 0.430189 0.254334
Si Si8 0.797230 0.567471 0.488280
O O1 0.631698 0.250000 0.077098
O O2 0.591235 0.028893 0.161969
O O3 0.671234 0.021355 0.160380
O O4 0.630618 0.993466 0.972795
O O5 0.119736 0.250000 0.384836
O O6 0.126845 0.028953 0.249413
O O7 0.164389 0.015303 0.438117
O O8 0.080665 0.998834 0.427053
O O9 0.546158 0.250000 0.231790
O O10 0.562575 0.040236 0.368827
O O11 0.513582 0.978655 0.205342
O O12 0.605351 0.750000 0.874167
O O13 0.562298 0.001503 0.869283
O O14 0.019631 0.750000 0.100144
O O15 0.000000 0.500000 0.000000
O O16 0.456260 0.750000 0.492948
O O17 0.500000 0.000000 0.500000
O O18 0.750000 0.453833 0.223983
O O19 0.695586 0.250000 0.272314
O O20 0.694461 0.514086 0.366564
O O21 0.750000 0.515407 0.517236
O O22 0.796771 0.750000 0.492147
#
# Coordination Sequence:
#
# PCOD9450791 Si02
#       8
#     8   8   8   8   8   8   8   8
#     4  10  20  35  55  78 106 142 180 221 272 325
#     4  10  22  39  57  80 114 152 190 236 287 337
#     4  10  21  36  54  78 108 140 180 228 274 321
#     4  11  23  38  55  78 109 147 189 233 277 325
#     4  12  23  36  55  79 107 143 185 228 274 326
#     4  11  23  38  57  82 113 149 188 231 280 337
#     4   9  18  34  57  85 115 144 175 219 277 334
#     4   9  18  35  60  87 113 145 186 231 281 337
#
# _framework density 18.195086
#
# number of rings (size 3 to 8) (size 9 to 14) (size 15 to 20)
#    0.000    1.750    1.250    3.375    0.000    7.000 
#    0.000    0.625    0.000    0.750    0.000    0.000 
#    0.000    0.000    0.000    0.000    0.000    0.000 
#
# Total GULP energy -357421.511841 kJ/mol
# GULP energy per Si atom -5584.711123 kJ/mol
# Density = 1.815367 g / cm^3
# Si number density = 18.195086 Si / 1000 Ang^3
#
#
#
# Elastic Constant Matrix: (Units=GPa)
#
#
# Indices 1 2 3 4 5 6 
#
# 1 114.0629 40.8198 78.4029 0.0000 0.0000 0.0000
# 2 40.8198 27.0324 46.1793 0.0000 0.0000 0.0000
# 3 78.4029 46.1793 132.1614 0.0000 0.0000 0.0000
# 4 0.0000 0.0000 0.0000 27.7307 0.0000 0.0000
# 5 0.0000 0.0000 0.0000 0.0000 35.2265 0.0000
# 6 0.0000 0.0000 0.0000 0.0000 0.0000 19.0962
#
#
#
# Elastic Compliance Matrix: (Units=1/GPa)
#
#
# Indices 1 2 3 4 5 6 
#
# 1 0.019603 -0.024151 -0.003191 0.000000 0.000000 0.000000
# 2 -0.024151 0.121525 -0.028136 0.000000 0.000000 0.000000
# 3 -0.003191 -0.028136 0.019290 0.000000 0.000000 0.000000
# 4 0.000000 0.000000 0.000000 0.036061 0.000000 0.000000
# 5 0.000000 0.000000 0.000000 0.000000 0.028388 0.000000
# 6 0.000000 0.000000 0.000000 0.000000 0.000000 0.052366
#
#
# Mechanical properties :
#
#
# Convention : Reuss Voigt Hill
#
# Bulk Modulus (GPa) = 20.21659 67.11785 43.66722
# Shear Modulus (GPa) = 12.35558 23.60101 17.97829
#
# Velocity S-wave (km/s) = 2.60871 3.60545 3.14679
# Velocity P-wave (km/s) = 4.49544 7.36887 6.10366
#
# Compressibility (1/GPa) = 0.04946433
#
# Stress axis : x y z
#
# Youngs Moduli (GPa) = 51.01251 8.22877 51.83955
#
# Poissons Ratio (x) = 0.19873 0.16540
# Poissons Ratio (y) = 1.23199 1.45854
# Poissons Ratio (z) = 0.16276 0.23152
#
# Static dielectric constant tensor:
#      x y z
#    x 1.615820 0.000000 0.000000 
#    y 0.000000 1.614330 0.000000 
#    z 0.000000 0.000000 1.639230 
# 
# From -- ./inp_files/19243.got.cif
#   From: 2010.05.17/outbox.cif.g08.bks.cpg/sg59_10_cif.got.tgz:19243.got - 2010.06.03 14:40:33.
