data_PCOD9450009
_publ_section_title
;
Structure prediction by ZEFSAII (Michael W. Deem and Ramdas Pophale) SiO2 
 PCOD9450009
Probable space group: P M M N
;
_chemical_formula_sum "Si O2"
_cell_formula_units_Z 64
_cell_length_a 19.282141
_cell_length_b 8.337566
_cell_length_c 21.605510
_cell_angle_alpha 90.000000
_cell_angle_beta 90.000000
_cell_angle_gamma 90.000000
_cell_volume 3473.434083
_symmetry_space_group_name_H-M "P M M N"
_symmetry_group_IT_number 59
_space_group.IT_coordinate_system_code '2'
_symmetry_cell_setting 'orthorhombic'
loop_
_space_group_symop_operation_xyz
x,y,z
1/2-x,1/2-y,z
1/2+x,-y,-z
-x,1/2+y,-z
-x,-y,-z
1/2+x,1/2+y,-z
1/2-x,y,z
x,1/2-y,z
loop_
_atom_site_type_symbol
_atom_site_label
_atom_site_fract_x
_atom_site_fract_y
_atom_site_fract_z
Si Si1 0.828188 0.056380 0.378661
Si Si2 0.827463 0.057664 0.749464
Si Si3 0.670242 0.943570 0.119959
Si Si4 0.829577 0.557163 0.887912
Si Si5 0.968380 0.444277 0.691254
Si Si6 0.964696 0.941439 0.437460
Si Si7 0.578841 0.555895 0.003053
Si Si8 0.105142 0.557906 0.751610
O O1 0.750000 0.001209 0.391188
O O2 0.828530 0.250000 0.378865
O O3 0.852507 0.004243 0.309787
O O4 0.886001 0.998481 0.426701
O O5 0.750000 0.994610 0.734953
O O6 0.825158 0.250000 0.742614
O O7 0.891763 0.997820 0.708973
O O8 0.842415 0.018220 0.821025
O O9 0.750000 0.000158 0.113744
O O10 0.671771 0.750000 0.117283
O O11 0.620988 0.999617 0.063813
O O12 0.638578 0.993086 0.185798
O O13 0.750000 0.521562 0.905790
O O14 0.835446 0.750000 0.881828
O O15 0.880826 0.501980 0.941457
O O16 0.968493 0.250000 0.691833
O O17 0.993316 0.499011 0.623465
O O18 0.026444 0.501539 0.739838
O O19 0.965539 0.750000 0.436941
O O20 0.000000 0.000000 0.500000
O O21 0.579981 0.750000 0.003683
O O22 0.500000 0.500000 0.000000
O O23 0.106829 0.750000 0.753467
#
# Coordination Sequence:
#
# PCOD9450009 Si02
#       8
#     8   8   8   8   8   8   8   8
#     4   9  18  34  55  79 108 141 177 218 266 316
#     4   9  18  33  54  78 102 130 169 217 263 307
#     4  10  21  37  55  74 101 139 176 211 259 318
#     4   9  18  34  54  73  96 129 169 212 259 311
#     4   9  19  35  54  77 107 142 177 214 259 314
#     4  10  20  35  55  79 109 145 183 218 257 308
#     4  10  22  37  52  72  99 133 173 215 259 310
#     4  10  20  33  53  81 110 138 172 217 266 313
#
# _framework density 18.42557
#
# number of rings (size 3 to 8) (size 9 to 14) (size 15 to 20)
#    0.000    2.500    0.000    1.500    1.750    5.000 
#    0.000    0.625    0.000    4.500    0.000    0.000 
#    0.000    0.000    0.000    0.000    0.000    0.000 
#
# Total GULP energy -357076.475441 kJ/mol
# GULP energy per Si atom -5579.319929 kJ/mol
# Density = 1.838363 g / cm^3
# Si number density = 18.425570 Si / 1000 Ang^3
#
#
#
# Elastic Constant Matrix: (Units=GPa)
#
#
# Indices 1 2 3 4 5 6 
#
# 1 188.2164 20.2173 98.9221 0.0000 0.0000 0.0000
# 2 20.2173 7.5847 10.6968 0.0000 0.0000 0.0000
# 3 98.9221 10.6968 86.8448 0.0000 0.0000 0.0000
# 4 0.0000 0.0000 0.0000 26.8521 0.0000 0.0000
# 5 0.0000 0.0000 0.0000 0.0000 29.0359 0.0000
# 6 0.0000 0.0000 0.0000 0.0000 0.0000 25.5479
#
#
#
# Elastic Compliance Matrix: (Units=1/GPa)
#
#
# Indices 1 2 3 4 5 6 
#
# 1 0.015328 -0.019646 -0.015039 0.000000 0.000000 0.000000
# 2 -0.019646 0.184745 -0.000377 0.000000 0.000000 0.000000
# 3 -0.015039 -0.000377 0.028692 0.000000 0.000000 0.000000
# 4 0.000000 0.000000 0.000000 0.037241 0.000000 0.000000
# 5 0.000000 0.000000 0.000000 0.000000 0.034440 0.000000
# 6 0.000000 0.000000 0.000000 0.000000 0.000000 0.039142
#
#
# Mechanical properties :
#
#
# Convention : Reuss Voigt Hill
#
# Bulk Modulus (GPa) = 6.30359 60.25756 33.28057
# Shear Modulus (GPa) = 10.80864 26.47449 18.64156
#
# Velocity S-wave (km/s) = 2.42463 3.79467 3.18421
# Velocity P-wave (km/s) = 3.35663 7.20927 5.62319
#
# Compressibility (1/GPa) = 0.15863979
#
# Stress axis : x y z
#
# Youngs Moduli (GPa) = 65.24112 5.41287 34.85274
#
# Poissons Ratio (x) = 0.10634 0.52417
# Poissons Ratio (y) = 1.28176 0.01312
# Poissons Ratio (z) = 0.98119 0.00204
#
# Static dielectric constant tensor:
#      x y z
#    x 1.640100 0.000000 0.000000 
#    y 0.000000 1.644300 0.000000 
#    z 0.000000 0.000000 1.610210 
# 
# From -- ./inp_files/30793.got.cif
#   From: 2010.05.17/outbox.cif.g08.bks.cpg/sg59_16_cif.got.tgz:30793.got - 2010.06.03 14:40:33.
