data_PCOD9450961
_publ_section_title
;
Structure prediction by ZEFSAII (Michael W. Deem and Ramdas Pophale) SiO2 
 PCOD9450961
Probable space group: P M M N
;
_chemical_formula_sum "Si O2"
_cell_formula_units_Z 48
_cell_length_a 8.809361
_cell_length_b 18.435129
_cell_length_c 16.978375
_cell_angle_alpha 90.000000
_cell_angle_beta 90.000000
_cell_angle_gamma 90.000000
_cell_volume 2757.317073
_symmetry_space_group_name_H-M "P M M N"
_symmetry_group_IT_number 59
_space_group.IT_coordinate_system_code '2'
_symmetry_cell_setting 'orthorhombic'
loop_
_space_group_symop_operation_xyz
x,y,z
1/2-x,1/2-y,z
1/2+x,-y,-z
-x,1/2+y,-z
-x,-y,-z
1/2+x,1/2+y,-z
1/2-x,y,z
x,1/2-y,z
loop_
_atom_site_type_symbol
_atom_site_label
_atom_site_fract_x
_atom_site_fract_y
_atom_site_fract_z
Si Si1 0.569461 0.952045 0.733899
Si Si2 0.567387 0.080742 0.993221
Si Si3 0.931682 0.978089 0.416645
Si Si4 0.067372 0.170096 0.664300
Si Si5 0.569763 0.394557 0.817168
Si Si6 0.566777 0.834398 0.859158
O O1 0.750000 0.948239 0.718136
O O2 0.522387 0.881274 0.782540
O O3 0.484390 0.968046 0.652810
O O4 0.544158 0.022019 0.790109
O O5 0.750000 0.076168 0.995149
O O6 0.522817 0.112694 0.907749
O O7 0.507218 0.129376 0.064358
O O8 0.500000 0.000000 0.000000
O O9 0.750000 0.977632 0.421313
O O10 0.984995 0.897734 0.388670
O O11 0.000000 0.000000 0.500000
O O12 0.250000 0.169344 0.662551
O O13 0.014733 0.250000 0.639050
O O14 0.014402 0.154217 0.753257
O O15 0.750000 0.380691 0.811448
O O16 0.750000 0.840633 0.866303
O O17 0.527280 0.750000 0.852328
#
# Coordination Sequence:
#
# PCOD9450961 Si02
#       6
#     8   8   8   8   8   8
#     4   9  17  34  55  75 102 136 174 216 260 314
#     4  11  21  34  53  77 108 145 188 232 273 319
#     4  10  20  35  57  83 106 135 173 214 260 317
#     4   9  19  35  54  78 107 136 170 214 262 314
#     4   9  18  32  51  75 102 136 176 216 260 314
#     4  10  21  37  55  77 108 146 186 227 274 324
#
# _framework density 17.408225999999999
#
# number of rings (size 3 to 8) (size 9 to 14) (size 15 to 20)
#    0.000    2.333    1.667    1.000    0.000    4.000 
#    0.000    4.167    0.000    5.000    0.000    0.000 
#    0.000    0.000    0.000    0.000    0.000    0.000 
#
# Total GULP energy -267771.984944 kJ/mol
# GULP energy per Si atom -5578.583020 kJ/mol
# Density = 1.736860 g / cm^3
# Si number density = 17.408226 Si / 1000 Ang^3
#
#
#
# Elastic Constant Matrix: (Units=GPa)
#
#
# Indices 1 2 3 4 5 6 
#
# 1 24.2154 35.1713 42.7084 0.0000 0.0000 0.0000
# 2 35.1713 123.0702 77.0931 0.0000 0.0000 0.0000
# 3 42.7084 77.0931 159.5856 0.0000 0.0000 0.0000
# 4 0.0000 0.0000 0.0000 16.5578 0.0000 0.0000
# 5 0.0000 0.0000 0.0000 0.0000 33.7722 0.0000
# 6 0.0000 0.0000 0.0000 0.0000 0.0000 22.2556
#
#
#
# Elastic Compliance Matrix: (Units=1/GPa)
#
#
# Indices 1 2 3 4 5 6 
#
# 1 0.096874 -0.016411 -0.017998 0.000000 0.000000 0.000000
# 2 -0.016411 0.014431 -0.002580 0.000000 0.000000 0.000000
# 3 -0.017998 -0.002580 0.012329 0.000000 0.000000 0.000000
# 4 0.000000 0.000000 0.000000 0.060395 0.000000 0.000000
# 5 0.000000 0.000000 0.000000 0.000000 0.029610 0.000000
# 6 0.000000 0.000000 0.000000 0.000000 0.000000 0.044932
#
#
# Mechanical properties :
#
#
# Convention : Reuss Voigt Hill
#
# Bulk Modulus (GPa) = 20.13783 68.53521 44.33652
# Shear Modulus (GPa) = 14.32254 24.64367 19.48311
#
# Velocity S-wave (km/s) = 2.87147 3.76657 3.34906
# Velocity P-wave (km/s) = 4.75256 7.64009 6.36231
#
# Compressibility (1/GPa) = 0.04965779
#
# Stress axis : x y z
#
# Youngs Moduli (GPa) = 10.32271 69.29381 81.11001
#
# Poissons Ratio (x) = 1.13717 1.45979
# Poissons Ratio (y) = 0.16940 0.20923
# Poissons Ratio (z) = 0.18578 0.17875
#
# Static dielectric constant tensor:
#      x y z
#    x 1.582850 0.000000 0.000000 
#    y 0.000000 1.598350 0.000000 
#    z 0.000000 0.000000 1.565130 
# 
# From -- ./inp_files/20341.got.cif
#   From: 2010.05.17/outbox.cif.g08.bks.cpg/sg59_11_cif.got.tgz:20341.got - 2010.06.03 14:40:33.
