data_PCOD9450193
_publ_section_title
;
Structure prediction by ZEFSAII (Michael W. Deem and Ramdas Pophale) SiO2 
 PCOD9450193
Probable space group: P M M N
;
_chemical_formula_sum "Si O2"
_cell_formula_units_Z 48
_cell_length_a 19.583020
_cell_length_b 7.581999
_cell_length_c 15.410531
_cell_angle_alpha 90.000000
_cell_angle_beta 90.000000
_cell_angle_gamma 90.000000
_cell_volume 2288.131573
_symmetry_space_group_name_H-M "P M M N"
_symmetry_group_IT_number 59
_space_group.IT_coordinate_system_code '2'
_symmetry_cell_setting 'orthorhombic'
loop_
_space_group_symop_operation_xyz
x,y,z
1/2-x,1/2-y,z
1/2+x,-y,-z
-x,1/2+y,-z
-x,-y,-z
1/2+x,1/2+y,-z
1/2-x,y,z
x,1/2-y,z
loop_
_atom_site_type_symbol
_atom_site_label
_atom_site_fract_x
_atom_site_fract_y
_atom_site_fract_z
Si Si1 0.587158 0.958841 0.916109
Si Si2 0.433560 0.044266 0.384852
Si Si3 0.172645 0.033134 0.242954
Si Si4 0.566581 0.963603 0.111153
Si Si5 0.584227 0.039402 0.420083
Si Si6 0.672818 0.538695 0.255947
O O1 0.598218 0.750000 0.924362
O O2 0.643884 0.026022 0.850159
O O3 0.512158 0.985359 0.874783
O O4 0.585519 0.029365 0.014301
O O5 0.441297 0.250000 0.362405
O O6 0.380131 0.970396 0.316244
O O7 0.510478 0.969189 0.386688
O O8 0.405738 0.030651 0.482874
O O9 0.250000 0.977087 0.258380
O O10 0.172552 0.250000 0.243712
O O11 0.568423 0.750000 0.110623
O O12 0.618990 0.027956 0.184083
O O13 0.578981 0.250000 0.428033
O O14 0.642037 0.996878 0.350739
O O15 0.750000 0.470589 0.246158
O O16 0.675719 0.750000 0.245229
#
# Coordination Sequence:
#
# PCOD9450193 Si02
#       6
#     8   8   8   8   8   8
#     4   9  17  31  52  76 100 127 162 203 242 283
#     4   9  18  33  52  74 100 130 164 202 245 294
#     4   9  17  29  48  74 100 127 160 197 238 285
#     4   9  18  32  51  74  99 129 164 201 242 288
#     4  10  20  34  53  75  98 127 166 210 250 291
#     4  10  21  35  50  71 101 135 168 204 249 299
#
# _framework density 20.977816000000001
#
# number of rings (size 3 to 8) (size 9 to 14) (size 15 to 20)
#    0.000    2.667    0.000    1.500    0.000    4.333 
#    0.000    5.833    0.000    1.500    0.000    4.667 
#    0.000    0.000    0.000    0.000    0.000    0.000 
#
# Total GULP energy -267937.111427 kJ/mol
# GULP energy per Si atom -5582.023155 kJ/mol
# Density = 2.093007 g / cm^3
# Si number density = 20.977816 Si / 1000 Ang^3
#
#
#
# Elastic Constant Matrix: (Units=GPa)
#
#
# Indices 1 2 3 4 5 6 
#
# 1 51.7377 -12.1604 24.6669 0.0000 0.0000 0.0000
# 2 -12.1604 44.9223 -14.7532 0.0000 0.0000 0.0000
# 3 24.6669 -14.7532 41.0809 0.0000 0.0000 0.0000
# 4 0.0000 0.0000 0.0000 6.9322 0.0000 0.0000
# 5 0.0000 0.0000 0.0000 0.0000 -0.0863 0.0000
# 6 0.0000 0.0000 0.0000 0.0000 0.0000 8.8910
#
#
#
# Elastic Compliance Matrix: (Units=1/GPa)
#
#
# Indices 1 2 3 4 5 6 
#
# 1 0.027284 0.002274 -0.015566 0.000000 0.000000 0.000000
# 2 0.002274 0.025427 0.007766 0.000000 0.000000 0.000000
# 3 -0.015566 0.007766 0.036478 0.000000 0.000000 0.000000
# 4 0.000000 0.000000 0.000000 0.144253 0.000000 0.000000
# 5 0.000000 0.000000 0.000000 0.000000-11.592896 0.000000
# 6 0.000000 0.000000 0.000000 0.000000 0.000000 0.112473
#
#
# Mechanical properties :
#
#
# Convention : Reuss Voigt Hill
#
# Bulk Modulus (GPa) = 12.79822 14.80528 13.80175
# Shear Modulus (GPa) = -0.44603 12.47990 6.01693
#
# Velocity S-wave (km/s) = -0.46161 2.44172 1.69542
# Velocity P-wave (km/s) = 2.41453 3.87586 3.22895
#
# Compressibility (1/GPa) = 0.07813585
#
# Stress axis : x y z
#
# Youngs Moduli (GPa) = 36.65143 39.32884 27.41389
#
# Poissons Ratio (x) = -0.08942 0.42673
# Poissons Ratio (y) = -0.08333 -0.21290
# Poissons Ratio (z) = 0.57052 -0.30543
#
# Static dielectric constant tensor:
#      x y z
#    x 1.732240 0.000000 0.000000 
#    y 0.000000 1.793870 0.000000 
#    z 0.000000 0.000000 1.738230 
# 
# From -- ./inp_files/23637.got.cif
#   From: 2010.05.17/outbox.cif.g08.bks.cpg/sg59_12_cif.got.tgz:23637.got - 2010.06.03 14:40:33.
