data_PCOD9450681
_publ_section_title
;
Structure prediction by ZEFSAII (Michael W. Deem and Ramdas Pophale) SiO2 
 PCOD9450681
Probable space group: P M M N
;
_chemical_formula_sum "Si O2"
_cell_formula_units_Z 48
_cell_length_a 15.270956
_cell_length_b 7.601381
_cell_length_c 20.199614
_cell_angle_alpha 90.000000
_cell_angle_beta 90.000000
_cell_angle_gamma 90.000000
_cell_volume 2344.778360
_symmetry_space_group_name_H-M "P M M N"
_symmetry_group_IT_number 59
_space_group.IT_coordinate_system_code '2'
_symmetry_cell_setting 'orthorhombic'
loop_
_space_group_symop_operation_xyz
x,y,z
1/2-x,1/2-y,z
1/2+x,-y,-z
-x,1/2+y,-z
-x,-y,-z
1/2+x,1/2+y,-z
1/2-x,y,z
x,1/2-y,z
loop_
_atom_site_type_symbol
_atom_site_label
_atom_site_fract_x
_atom_site_fract_y
_atom_site_fract_z
Si Si1 0.651371 0.039836 0.410501
Si Si2 0.938242 0.460057 0.818766
Si Si3 0.750000 0.962911 0.019679
Si Si4 0.560214 0.961362 0.063665
Si Si5 0.849767 0.961844 0.559940
Si Si6 0.512624 0.537404 0.668799
Si Si7 0.250000 0.959547 0.136331
O O1 0.750000 0.967701 0.404149
O O2 0.656670 0.250000 0.402132
O O3 0.580772 0.972417 0.358328
O O4 0.620518 0.008071 0.485776
O O5 0.934030 0.250000 0.829643
O O6 0.966405 0.490267 0.743742
O O7 0.840728 0.530944 0.833747
O O8 0.009004 0.529022 0.871734
O O9 0.750000 0.750000 0.023227
O O10 0.659145 0.027256 0.052019
O O11 0.750000 0.011650 0.942339
O O12 0.566858 0.750000 0.069220
O O13 0.500000 0.000000 0.000000
O O14 0.750000 0.026889 0.567653
O O15 0.847605 0.750000 0.563678
O O16 0.913317 0.026267 0.617514
O O17 0.511892 0.750000 0.664931
O O18 0.250000 0.750000 0.148812
#
# Coordination Sequence:
#
# PCOD9450681 Si02
#       7
#     8   8   4   8   8   8   4
#     4   9  18  34  54  75 101 134 174 218 259 302
#     4  10  22  37  53  77 109 140 172 212 258 312
#     4  10  20  34  58  86 106 133 176 223 266 311
#     4  10  20  36  57  81 109 139 176 220 263 312
#     4   9  18  32  51  77 104 130 167 214 260 308
#     4  10  21  35  52  75 105 140 174 211 257 308
#     4  10  20  36  56  80 108 137 170 213 264 315
#
# _framework density 20.471019999999999
#
# number of rings (size 3 to 8) (size 9 to 14) (size 15 to 20)
#    0.000    2.333    1.667    0.500    1.167    2.667 
#    1.500    0.000    0.000    0.000    0.000    0.000 
#    0.000    0.000    0.000    0.000    0.000    0.000 
#
# Total GULP energy -267999.630505 kJ/mol
# GULP energy per Si atom -5583.325636 kJ/mol
# Density = 2.042443 g / cm^3
# Si number density = 20.471020 Si / 1000 Ang^3
#
#
#
# Elastic Constant Matrix: (Units=GPa)
#
#
# Indices 1 2 3 4 5 6 
#
# 1 190.2984 1.5449 129.1271 0.0000 0.0000 0.0000
# 2 1.5449 36.7203 -10.6295 0.0000 0.0000 0.0000
# 3 129.1271 -10.6295 177.6926 0.0000 0.0000 0.0000
# 4 0.0000 0.0000 0.0000 -71.1125 0.0000 0.0000
# 5 0.0000 0.0000 0.0000 0.0000 -10.4394 0.0000
# 6 0.0000 0.0000 0.0000 0.0000 0.0000 -3.1345
#
#
#
# Elastic Compliance Matrix: (Units=1/GPa)
#
#
# Indices 1 2 3 4 5 6 
#
# 1 0.010629 -0.002730 -0.007887 0.000000 0.000000 0.000000
# 2 -0.002730 0.028414 0.003684 0.000000 0.000000 0.000000
# 3 -0.007887 0.003684 0.011580 0.000000 0.000000 0.000000
# 4 0.000000 0.000000 0.000000 -0.014062 0.000000 0.000000
# 5 0.000000 0.000000 0.000000 0.000000 -0.095791 0.000000
# 6 0.000000 0.000000 0.000000 0.000000 0.000000 -0.319033
#
#
# Mechanical properties :
#
#
# Convention : Reuss Voigt Hill
#
# Bulk Modulus (GPa) = 27.20707 71.64405 49.42556
# Shear Modulus (GPa) = -14.19874 2.04064 -6.07905
#
# Velocity S-wave (km/s) = -2.63649 0.99950 -1.72512
# Velocity P-wave (km/s) = 2.01278 6.03372 4.49761
#
# Compressibility (1/GPa) = 0.03675515
#
# Stress axis : x y z
#
# Youngs Moduli (GPa) = 94.08217 35.19379 86.35820
#
# Poissons Ratio (x) = 0.09609 0.68113
# Poissons Ratio (y) = 0.25688 -0.31813
# Poissons Ratio (z) = 0.74205 -0.12965
#
# Static dielectric constant tensor:
#      x y z
#    x 1.758140 0.000000 0.000000 
#    y 0.000000 1.751900 0.000000 
#    z 0.000000 0.000000 1.667610 
# 
# From -- ./inp_files/25566.got.cif
#   From: 2010.05.17/outbox.cif.g08.bks.cpg/sg59_13_cif.got.tgz:25566.got - 2010.06.03 14:40:33.
