data_PCOD9450582
_publ_section_title
;
Structure prediction by ZEFSAII (Michael W. Deem and Ramdas Pophale) SiO2 
 PCOD9450582
Probable space group: P M M N
;
_chemical_formula_sum "Si O2"
_cell_formula_units_Z 56
_cell_length_a 22.212969
_cell_length_b 8.677587
_cell_length_c 14.989821
_cell_angle_alpha 90.000000
_cell_angle_beta 90.000000
_cell_angle_gamma 90.000000
_cell_volume 2889.362513
_symmetry_space_group_name_H-M "P M M N"
_symmetry_group_IT_number 59
_space_group.IT_coordinate_system_code '2'
_symmetry_cell_setting 'orthorhombic'
loop_
_space_group_symop_operation_xyz
x,y,z
1/2-x,1/2-y,z
1/2+x,-y,-z
-x,1/2+y,-z
-x,-y,-z
1/2+x,1/2+y,-z
1/2-x,y,z
x,1/2-y,z
loop_
_atom_site_type_symbol
_atom_site_label
_atom_site_fract_x
_atom_site_fract_y
_atom_site_fract_z
Si Si1 0.877349 0.066074 0.458668
Si Si2 0.181579 0.064000 0.242315
Si Si3 0.319565 0.565667 0.046100
Si Si4 0.945682 0.435648 0.281438
Si Si5 0.250000 0.434457 0.561340
Si Si6 0.129789 0.065556 0.871530
Si Si7 0.750000 0.937061 0.232139
Si Si8 0.427785 0.064147 0.368628
O O1 0.874172 0.250000 0.458358
O O2 0.900386 0.014778 0.361024
O O3 0.811872 0.996496 0.478865
O O4 0.923130 0.010452 0.534367
O O5 0.250000 0.017123 0.266363
O O6 0.180487 0.250000 0.237202
O O7 0.131187 0.016646 0.312800
O O8 0.167654 0.997700 0.144598
O O9 0.250000 0.518610 0.025072
O O10 0.322121 0.750000 0.046283
O O11 0.363279 0.499599 0.970708
O O12 0.942827 0.250000 0.274503
O O13 0.925289 0.507250 0.188235
O O14 0.012241 0.478077 0.314677
O O15 0.250000 0.250000 0.556536
O O16 0.250000 0.486074 0.665159
O O17 0.129641 0.250000 0.874750
O O18 0.190083 0.011943 0.818820
O O19 0.750000 0.750000 0.232050
O O20 0.427533 0.250000 0.378540
#
# Coordination Sequence:
#
# PCOD9450582 Si02
#       8
#     8   8   8   8   4   8   4   8
#     4  11  23  37  56  85 118 151 190 237 288 336
#     4   9  19  37  60  84 108 140 188 240 284 332
#     4  10  20  34  55  85 117 148 180 225 291 348
#     4  10  22  39  56  81 118 155 192 235 282 337
#     4  11  21  37  57  82 115 150 189 233 284 340
#     4  11  20  34  57  85 115 149 191 231 278 337
#     4   9  18  31  51  80 111 144 183 231 276 326
#     4  10  22  40  61  82 110 153 198 237 283 340
#
# _framework density 19.381437999999999
#
# number of rings (size 3 to 8) (size 9 to 14) (size 15 to 20)
#    0.000    1.857    2.143    1.929    1.000    2.286 
#    0.000    0.714    0.000    0.000    0.000    0.000 
#    0.000    0.000    0.000    0.000    0.000    0.000 
#
# Total GULP energy -312837.943475 kJ/mol
# GULP energy per Si atom -5586.391848 kJ/mol
# Density = 1.933732 g / cm^3
# Si number density = 19.381438 Si / 1000 Ang^3
#
#
#
# Elastic Constant Matrix: (Units=GPa)
#
#
# Indices 1 2 3 4 5 6 
#
# 1 72.3804 17.4765 16.6733 0.0000 0.0000 0.0000
# 2 17.4765 23.0497 14.3646 0.0000 0.0000 0.0000
# 3 16.6733 14.3646 63.5570 0.0000 0.0000 0.0000
# 4 0.0000 0.0000 0.0000 24.8349 0.0000 0.0000
# 5 0.0000 0.0000 0.0000 0.0000 25.9126 0.0000
# 6 0.0000 0.0000 0.0000 0.0000 0.0000 20.1938
#
#
#
# Elastic Compliance Matrix: (Units=1/GPa)
#
#
# Indices 1 2 3 4 5 6 
#
# 1 0.017089 -0.011829 -0.001809 0.000000 0.000000 0.000000
# 2 -0.011829 0.058685 -0.010160 0.000000 0.000000 0.000000
# 3 -0.001809 -0.010160 0.018505 0.000000 0.000000 0.000000
# 4 0.000000 0.000000 0.000000 0.040266 0.000000 0.000000
# 5 0.000000 0.000000 0.000000 0.000000 0.038591 0.000000
# 6 0.000000 0.000000 0.000000 0.000000 0.000000 0.049520
#
#
# Mechanical properties :
#
#
# Convention : Reuss Voigt Hill
#
# Bulk Modulus (GPa) = 21.42194 28.44622 24.93408
# Shear Modulus (GPa) = 17.49382 21.55312 19.52347
#
# Velocity S-wave (km/s) = 3.00760 3.33836 3.17729
# Velocity P-wave (km/s) = 4.81017 5.43769 5.13352
#
# Compressibility (1/GPa) = 0.04668110
#
# Stress axis : x y z
#
# Youngs Moduli (GPa) = 58.51737 17.04000 54.03958
#
# Poissons Ratio (x) = 0.20157 0.09778
# Poissons Ratio (y) = 0.69222 0.54906
# Poissons Ratio (z) = 0.10589 0.17313
#
# Static dielectric constant tensor:
#      x y z
#    x 1.687230 0.000000 0.000000 
#    y 0.000000 1.643260 0.000000 
#    z 0.000000 0.000000 1.654880 
# 
# From -- ./inp_files/21186.got.cif
#   From: 2010.05.17/outbox.cif.g08.bks.cpg/sg59_11_cif.got.tgz:21186.got - 2010.06.03 14:40:33.
