data_PCOD9450524
_publ_section_title
;
Structure prediction by ZEFSAII (Michael W. Deem and Ramdas Pophale) SiO2 
 PCOD9450524
Probable space group: P M M N
;
_chemical_formula_sum "Si O2"
_cell_formula_units_Z 48
_cell_length_a 8.862223
_cell_length_b 9.426080
_cell_length_c 31.822489
_cell_angle_alpha 90.000000
_cell_angle_beta 90.000000
_cell_angle_gamma 90.000000
_cell_volume 2658.324172
_symmetry_space_group_name_H-M "P M M N"
_symmetry_group_IT_number 59
_space_group.IT_coordinate_system_code '2'
_symmetry_cell_setting 'orthorhombic'
loop_
_space_group_symop_operation_xyz
x,y,z
1/2-x,1/2-y,z
1/2+x,-y,-z
-x,1/2+y,-z
-x,-y,-z
1/2+x,1/2+y,-z
1/2-x,y,z
x,1/2-y,z
loop_
_atom_site_type_symbol
_atom_site_label
_atom_site_fract_x
_atom_site_fract_y
_atom_site_fract_z
Si Si1 0.428126 0.580880 0.460900
Si Si2 0.930908 0.916187 0.706936
Si Si3 0.930428 0.582739 0.371063
Si Si4 0.067310 0.415602 0.785411
Si Si5 0.069496 0.917287 0.961278
Si Si6 0.066255 0.585730 0.867761
O O1 0.500000 0.500000 0.500000
O O2 0.250000 0.551422 0.458291
O O3 0.448384 0.750000 0.466628
O O4 0.506703 0.542448 0.416869
O O5 0.750000 0.927077 0.706915
O O6 0.972319 0.750000 0.708545
O O7 0.996045 0.989393 0.665245
O O8 0.997416 0.998048 0.746987
O O9 0.750000 0.567946 0.370232
O O10 0.966447 0.750000 0.364187
O O11 0.250000 0.424678 0.782816
O O12 0.026119 0.250000 0.783525
O O13 0.019037 0.486704 0.829434
O O14 0.250000 0.934536 0.962542
O O15 0.036557 0.750000 0.964963
O O16 0.017176 0.961557 0.914410
O O17 0.000000 0.000000 0.000000
O O18 0.250000 0.585674 0.868347
O O19 0.020218 0.750000 0.861135
#
# Coordination Sequence:
#
# PCOD9450524 Si02
#       6
#     8   8   8   8   8   8
#     4  10  21  37  58  84 114 149 186 224 269 318
#     4  11  24  39  55  78 108 142 178 215 259 313
#     4  10  21  38  60  84 109 140 180 224 269 317
#     4  10  20  34  55  82 106 131 169 215 262 314
#     4   9  18  32  50  74 103 135 173 215 259 310
#     4   8  15  30  51  73 100 135 173 214 259 307
#
# _framework density 18.056488000000002
#
# number of rings (size 3 to 8) (size 9 to 14) (size 15 to 20)
#    0.000    2.333    0.000    3.500    0.000    8.000 
#    0.000    2.500    0.000    1.000    0.000    0.000 
#    0.000    0.000    0.000    0.000    0.000    0.000 
#
# Total GULP energy -267934.083938 kJ/mol
# GULP energy per Si atom -5581.960082 kJ/mol
# Density = 1.801539 g / cm^3
# Si number density = 18.056488 Si / 1000 Ang^3
#
#
#
# Elastic Constant Matrix: (Units=GPa)
#
#
# Indices 1 2 3 4 5 6 
#
# 1 34.5214 54.3945 60.2270 0.0000 0.0000 0.0000
# 2 54.3945 116.8822 122.5531 0.0000 0.0000 0.0000
# 3 60.2270 122.5531 216.5319 0.0000 0.0000 0.0000
# 4 0.0000 0.0000 0.0000 42.9448 0.0000 0.0000
# 5 0.0000 0.0000 0.0000 0.0000 33.2262 0.0000
# 6 0.0000 0.0000 0.0000 0.0000 0.0000 26.9843
#
#
#
# Elastic Compliance Matrix: (Units=1/GPa)
#
#
# Indices 1 2 3 4 5 6 
#
# 1 0.109993 -0.047005 -0.003990 0.000000 0.000000 0.000000
# 2 -0.047005 0.041131 -0.010205 0.000000 0.000000 0.000000
# 3 -0.003990 -0.010205 0.011504 0.000000 0.000000 0.000000
# 4 0.000000 0.000000 0.000000 0.023286 0.000000 0.000000
# 5 0.000000 0.000000 0.000000 0.000000 0.030097 0.000000
# 6 0.000000 0.000000 0.000000 0.000000 0.000000 0.037059
#
#
# Mechanical properties :
#
#
# Convention : Reuss Voigt Hill
#
# Bulk Modulus (GPa) = 24.85842 93.58718 59.22280
# Shear Modulus (GPa) = 12.85748 29.34845 21.10297
#
# Velocity S-wave (km/s) = 2.67136 4.03596 3.42236
# Velocity P-wave (km/s) = 4.82823 8.58262 6.96323
#
# Compressibility (1/GPa) = 0.04022782
#
# Stress axis : x y z
#
# Youngs Moduli (GPa) = 9.09151 24.31245 86.92517
#
# Poissons Ratio (x) = 1.14280 0.34683
# Poissons Ratio (y) = 0.42734 0.88711
# Poissons Ratio (z) = 0.03628 0.24812
#
# Static dielectric constant tensor:
#      x y z
#    x 1.608880 0.000000 0.000000 
#    y 0.000000 1.600970 0.000000 
#    z 0.000000 0.000000 1.595930 
# 
# From -- ./inp_files/32784.got.cif
#   From: 2010.05.17/outbox.cif.g08.bks.cpg/sg59_17_cif.got.tgz:32784.got - 2010.06.03 14:40:33.
