data_PCOD9450058
_publ_section_title
;
Structure prediction by ZEFSAII (Michael W. Deem and Ramdas Pophale) SiO2 
 PCOD9450058
Probable space group: P M M N
;
_chemical_formula_sum "Si O2"
_cell_formula_units_Z 38
_cell_length_a 8.018298
_cell_length_b 19.348302
_cell_length_c 10.941343
_cell_angle_alpha 90.000000
_cell_angle_beta 90.000000
_cell_angle_gamma 90.000000
_cell_volume 1697.444890
_symmetry_space_group_name_H-M "P M M N"
_symmetry_group_IT_number 59
_space_group.IT_coordinate_system_code '2'
_symmetry_cell_setting 'orthorhombic'
loop_
_space_group_symop_operation_xyz
x,y,z
1/2-x,1/2-y,z
1/2+x,-y,-z
-x,1/2+y,-z
-x,-y,-z
1/2+x,1/2+y,-z
1/2-x,y,z
x,1/2-y,z
loop_
_atom_site_type_symbol
_atom_site_label
_atom_site_fract_x
_atom_site_fract_y
_atom_site_fract_z
Si Si1 0.250000 0.101231 0.588059
Si Si2 0.557111 0.250000 0.267901
Si Si3 0.250000 0.325083 0.838542
Si Si4 0.057924 0.522504 0.332982
Si Si5 0.067190 0.891153 0.078177
Si Si6 0.451395 0.397072 0.175013
Si Si7 0.250000 0.250000 0.453432
O O1 0.250000 0.120572 0.730819
O O2 0.421760 0.057939 0.579204
O O3 0.250000 0.174865 0.519988
O O4 0.750000 0.250000 0.308228
O O5 0.520124 0.320231 0.194215
O O6 0.418795 0.250000 0.374196
O O7 0.250000 0.250000 0.782160
O O8 0.416666 0.337251 0.913518
O O9 0.250000 0.525482 0.376784
O O10 0.061139 0.561939 0.199951
O O11 0.010806 0.445075 0.291725
O O12 0.250000 0.858842 0.076324
O O13 0.034634 0.926925 0.947914
O O14 0.250000 0.396960 0.163236
#
# Coordination Sequence:
#
# PCOD9450058 Si02
#       7
#     4   4   4   8   8   8   2
#     4  10  22  42  71  91 119 165 202 273 327 370
#     4  12  28  46  67  91 124 165 209 268 333 382
#     4  10  20  35  54  88 127 166 215 247 298 365
#     4   9  21  38  63  98 134 166 212 251 305 373
#     4  10  20  33  55  92 134 175 207 241 294 364
#     4  11  21  40  64  91 134 173 212 254 304 374
#     4  12  26  52  70  94 118 154 218 270 346 382
#
# _framework density 22.386590000000002
#
# number of rings (size 3 to 8) (size 9 to 14) (size 15 to 20)
#    0.000    1.684    2.632    1.263    4.421    1.263 
#    0.000    1.053    0.000    0.000    0.000    0.000 
#    0.000    0.000    0.000    0.000    0.000    0.000 
#
# Total GULP energy -212167.542700 kJ/mol
# GULP energy per Si atom -5583.356387 kJ/mol
# Density = 2.233564 g / cm^3
# Si number density = 22.386590 Si / 1000 Ang^3
#
#
#
# Elastic Constant Matrix: (Units=GPa)
#
#
# Indices 1 2 3 4 5 6 
#
# 1 175.4595 57.3682 52.7113 0.0000 0.0000 0.0000
# 2 57.3682 110.7231 26.3760 0.0000 0.0000 0.0000
# 3 52.7113 26.3760 87.9625 0.0000 0.0000 0.0000
# 4 0.0000 0.0000 0.0000 35.2333 0.0000 0.0000
# 5 0.0000 0.0000 0.0000 0.0000 32.4463 0.0000
# 6 0.0000 0.0000 0.0000 0.0000 0.0000 12.1169
#
#
#
# Elastic Compliance Matrix: (Units=1/GPa)
#
#
# Indices 1 2 3 4 5 6 
#
# 1 0.007870 -0.003181 -0.003762 0.000000 0.000000 0.000000
# 2 -0.003181 0.011012 -0.001396 0.000000 0.000000 0.000000
# 3 -0.003762 -0.001396 0.014041 0.000000 0.000000 0.000000
# 4 0.000000 0.000000 0.000000 0.028382 0.000000 0.000000
# 5 0.000000 0.000000 0.000000 0.000000 0.030820 0.000000
# 6 0.000000 0.000000 0.000000 0.000000 0.000000 0.082529
#
#
# Mechanical properties :
#
#
# Convention : Reuss Voigt Hill
#
# Bulk Modulus (GPa) = 61.55595 71.89515 66.72555
# Shear Modulus (GPa) = 25.41320 31.80526 28.60923
#
# Velocity S-wave (km/s) = 3.37292 3.77334 3.57874
# Velocity P-wave (km/s) = 6.53646 7.15326 6.85181
#
# Compressibility (1/GPa) = 0.01624538
#
# Stress axis : x y z
#
# Youngs Moduli (GPa) = 127.07090 90.80742 71.21839
#
# Poissons Ratio (x) = 0.28888 0.26792
# Poissons Ratio (y) = 0.40425 0.09940
# Poissons Ratio (z) = 0.47803 0.12674
#
# Static dielectric constant tensor:
#      x y z
#    x 1.816900 0.000000 0.000000 
#    y 0.000000 1.846400 0.000000 
#    z 0.000000 0.000000 1.889940 
# 
# From -- ./inp_files/13923.got.cif
#   From: 2010.05.17/outbox.cif.g08.bks.cpg/sg59_7_cif.got.tgz:13923.got - 2010.06.03 14:40:33.
