data_PCOD9450000
_publ_section_title
;
Structure prediction by ZEFSAII (Michael W. Deem and Ramdas Pophale) SiO2 
 PCOD9450000
Probable space group: P M M N
;
_chemical_formula_sum "Si O2"
_cell_formula_units_Z 40
_cell_length_a 7.596175
_cell_length_b 13.685065
_cell_length_c 15.606658
_cell_angle_alpha 90.000000
_cell_angle_beta 90.000000
_cell_angle_gamma 90.000000
_cell_volume 1622.376845
_symmetry_space_group_name_H-M "P M M N"
_symmetry_group_IT_number 59
_space_group.IT_coordinate_system_code '2'
_symmetry_cell_setting 'orthorhombic'
loop_
_space_group_symop_operation_xyz
x,y,z
1/2-x,1/2-y,z
1/2+x,-y,-z
-x,1/2+y,-z
-x,-y,-z
1/2+x,1/2+y,-z
1/2-x,y,z
x,1/2-y,z
loop_
_atom_site_type_symbol
_atom_site_label
_atom_site_fract_x
_atom_site_fract_y
_atom_site_fract_z
Si Si1 0.456436 0.070183 0.624454
Si Si2 0.957079 0.070660 0.809935
Si Si3 0.047929 0.146802 0.177362
Si Si4 0.959039 0.386031 0.989568
Si Si5 0.537068 0.641175 0.560038
O O1 0.250000 0.088873 0.625396
O O2 0.485599 0.953130 0.615535
O O3 0.527038 0.109763 0.714259
O O4 0.527111 0.117537 0.536837
O O5 0.750000 0.057593 0.829055
O O6 0.021209 0.132338 0.891855
O O7 0.034716 0.959947 0.806811
O O8 0.250000 0.143854 0.209832
O O9 0.969457 0.250000 0.208837
O O10 0.048798 0.154021 0.074157
O O11 0.750000 0.365045 0.997100
O O12 0.000000 0.500000 0.000000
O O13 0.750000 0.641461 0.559220
O O14 0.479127 0.750000 0.585563
#
# Coordination Sequence:
#
# PCOD9450000 Si02
#       5
#     8   8   8   8   8
#     4  10  20  33  53  81 105 127 166 215 254 295
#     4   9  18  32  49  70  99 134 166 198 244 300
#     4   9  18  32  49  70  97 130 168 207 248 296
#     4   9  17  30  48  68  92 125 163 199 238 286
#     4   9  19  37  57  74  99 136 169 200 250 313
#
# _framework density 24.655183999999998
#
# number of rings (size 3 to 8) (size 9 to 14) (size 15 to 20)
#    0.000    2.800    0.000    2.400    0.000    6.400 
#    0.000    3.000    0.000    3.600    0.000    0.000 
#    0.000    0.000    0.000    0.000    0.000    0.000 
#
# Total GULP energy -223026.813329 kJ/mol
# GULP energy per Si atom -5575.670333 kJ/mol
# Density = 2.459907 g / cm^3
# Si number density = 24.655184 Si / 1000 Ang^3
#
#
#
# Elastic Constant Matrix: (Units=GPa)
#
#
# Indices 1 2 3 4 5 6 
#
# 1 63.4262 -7.7139 -6.0322 0.0000 0.0000 0.0000
# 2 -7.7139 76.1066 -3.6570 0.0000 0.0000 0.0000
# 3 -6.0322 -3.6570 167.1764 0.0000 0.0000 0.0000
# 4 0.0000 0.0000 0.0000 -13.4754 0.0000 0.0000
# 5 0.0000 0.0000 0.0000 0.0000 23.5384 0.0000
# 6 0.0000 0.0000 0.0000 0.0000 0.0000 -3.6941
#
#
#
# Elastic Compliance Matrix: (Units=1/GPa)
#
#
# Indices 1 2 3 4 5 6 
#
# 1 0.016026 0.001654 0.000614 0.000000 0.000000 0.000000
# 2 0.001654 0.013324 0.000351 0.000000 0.000000 0.000000
# 3 0.000614 0.000351 0.006012 0.000000 0.000000 0.000000
# 4 0.000000 0.000000 0.000000 -0.074209 0.000000 0.000000
# 5 0.000000 0.000000 0.000000 0.000000 0.042484 0.000000
# 6 0.000000 0.000000 0.000000 0.000000 0.000000 -0.270703
#
#
# Mechanical properties :
#
#
# Convention : Reuss Voigt Hill
#
# Bulk Modulus (GPa) = 24.63033 30.21145 27.42089
# Shear Modulus (GPa) = -19.32198 22.88127 1.77965
#
# Velocity S-wave (km/s) = -2.80248 3.04970 0.85052
# Velocity P-wave (km/s) = 0.67842 4.96800 3.48000
#
# Compressibility (1/GPa) = 0.04060034
#
# Stress axis : x y z
#
# Youngs Moduli (GPa) = 62.39882 75.05270 166.34629
#
# Poissons Ratio (x) = -0.12413 -0.10221
# Poissons Ratio (y) = -0.10320 -0.05841
# Poissons Ratio (z) = -0.03834 -0.02635
#
# Static dielectric constant tensor:
#      x y z
#    x 1.926000 0.000000 0.000000 
#    y 0.000000 1.941340 0.000000 
#    z 0.000000 0.000000 1.992960 
# 
# From -- ./inp_files/19854.got.cif
#   From: 2010.05.17/outbox.cif.g08.bks.cpg/sg59_10_cif.got.tgz:19854.got - 2010.06.03 14:40:33.
