data_PCOD9450468
_publ_section_title
;
Structure prediction by ZEFSAII (Michael W. Deem and Ramdas Pophale) SiO2 
 PCOD9450468
Probable space group: P M M N
;
_chemical_formula_sum "Si O2"
_cell_formula_units_Z 48
_cell_length_a 9.791298
_cell_length_b 7.672224
_cell_length_c 28.998739
_cell_angle_alpha 90.000000
_cell_angle_beta 90.000000
_cell_angle_gamma 90.000000
_cell_volume 2178.415186
_symmetry_space_group_name_H-M "P M M N"
_symmetry_group_IT_number 59
_space_group.IT_coordinate_system_code '2'
_symmetry_cell_setting 'orthorhombic'
loop_
_space_group_symop_operation_xyz
x,y,z
1/2-x,1/2-y,z
1/2+x,-y,-z
-x,1/2+y,-z
-x,-y,-z
1/2+x,1/2+y,-z
1/2-x,y,z
x,1/2-y,z
loop_
_atom_site_type_symbol
_atom_site_label
_atom_site_fract_x
_atom_site_fract_y
_atom_site_fract_z
Si Si1 0.591653 0.963594 0.131474
Si Si2 0.596375 0.454552 0.785424
Si Si3 0.250000 0.955043 0.422382
Si Si4 0.408208 0.540717 0.044609
Si Si5 0.396871 0.954695 0.709256
Si Si6 0.038526 0.038490 0.605518
Si Si7 0.250000 0.460345 0.528983
O O1 0.750000 0.021015 0.128672
O O2 0.595875 0.750000 0.131264
O O3 0.512564 0.024010 0.177453
O O4 0.496327 0.019491 0.088706
O O5 0.750000 0.528899 0.787338
O O6 0.609050 0.250000 0.796198
O O7 0.526017 0.468754 0.735644
O O8 0.250000 0.750000 0.411340
O O9 0.386534 0.029441 0.401053
O O10 0.250000 0.970591 0.477525
O O11 0.250000 0.475949 0.042528
O O12 0.398948 0.750000 0.048160
O O13 0.500000 0.500000 0.000000
O O14 0.250000 0.028108 0.725483
O O15 0.398087 0.750000 0.718813
O O16 0.405021 0.980908 0.654504
O O17 0.042087 0.250000 0.605658
O O18 0.122760 0.984097 0.560480
O O19 0.250000 0.250000 0.525667
#
# Coordination Sequence:
#
# PCOD9450468 Si02
#       7
#     8   8   4   8   8   8   4
#     4   9  17  32  56  84 113 148 191 236 283 338
#     4  10  21  37  60  87 113 144 183 230 283 339
#     4  10  22  36  56  84 114 144 180 226 275 326
#     4  10  20  34  54  82 117 155 197 244 291 341
#     4  11  24  40  58  82 112 147 186 231 283 335
#     4  10  21  38  58  82 112 146 186 229 272 327
#     4  10  20  36  58  82 110 148 186 224 271 324
#
# _framework density 22.034367
#
# number of rings (size 3 to 8) (size 9 to 14) (size 15 to 20)
#    0.000    2.000    0.833    2.500    1.167    6.333 
#    0.000    0.833    0.000    5.000    0.000    0.000 
#    0.000    0.000    0.000    0.000    0.000    0.000 
#
# Total GULP energy -268068.047503 kJ/mol
# GULP energy per Si atom -5584.750990 kJ/mol
# Density = 2.198422 g / cm^3
# Si number density = 22.034367 Si / 1000 Ang^3
#
#
#
# Elastic Constant Matrix: (Units=GPa)
#
#
# Indices 1 2 3 4 5 6 
#
# 1 220.0154 8.7436 55.6647 0.0000 0.0000 0.0000
# 2 8.7436 38.1915 -12.8270 0.0000 0.0000 0.0000
# 3 55.6647 -12.8270 89.6141 0.0000 0.0000 0.0000
# 4 0.0000 0.0000 0.0000 19.6606 0.0000 0.0000
# 5 0.0000 0.0000 0.0000 0.0000 -456.3428 0.0000
# 6 0.0000 0.0000 0.0000 0.0000 0.0000 -3.1975
#
#
#
# Elastic Compliance Matrix: (Units=1/GPa)
#
#
# Indices 1 2 3 4 5 6 
#
# 1 0.005626 -0.002586 -0.003865 0.000000 0.000000 0.000000
# 2 -0.002586 0.028695 0.005713 0.000000 0.000000 0.000000
# 3 -0.003865 0.005713 0.014377 0.000000 0.000000 0.000000
# 4 0.000000 0.000000 0.000000 0.050863 0.000000 0.000000
# 5 0.000000 0.000000 0.000000 0.000000 -0.002191 0.000000
# 6 0.000000 0.000000 0.000000 0.000000 0.000000 -0.312744
#
#
# Mechanical properties :
#
#
# Convention : Reuss Voigt Hill
#
# Bulk Modulus (GPa) = 21.17577 50.10928 35.64253
# Shear Modulus (GPa) = -25.23220 -68.22662 -46.72941
#
# Velocity S-wave (km/s) = -3.38765 -5.57054 -4.61016
# Velocity P-wave (km/s) = 2.38125 4.31089 3.48239
#
# Compressibility (1/GPa) = 0.04722379
#
# Stress axis : x y z
#
# Youngs Moduli (GPa) = 177.75733 34.84955 69.55427
#
# Poissons Ratio (x) = 0.09012 0.26880
# Poissons Ratio (y) = 0.45966 -0.39740
# Poissons Ratio (z) = 0.68695 -0.19911
#
# Static dielectric constant tensor:
#      x y z
#    x 1.908530 0.000000 0.000000 
#    y 0.000000 1.827210 0.000000 
#    z 0.000000 0.000000 1.763090 
# 
# From -- ./inp_files/33064.got.cif
#   From: 2010.05.17/outbox.cif.g08.bks.cpg/sg59_17_cif.got.tgz:33064.got - 2010.06.03 14:40:33.
