data_PCOD9450028
_publ_section_title
;
Structure prediction by ZEFSAII (Michael W. Deem and Ramdas Pophale) SiO2 
 PCOD9450028
Probable space group: P M M N
;
_chemical_formula_sum "Si O2"
_cell_formula_units_Z 48
_cell_length_a 23.231202
_cell_length_b 21.593177
_cell_length_c 5.271334
_cell_angle_alpha 90.000000
_cell_angle_beta 90.000000
_cell_angle_gamma 90.000000
_cell_volume 2644.288039
_symmetry_space_group_name_H-M "P M M N"
_symmetry_group_IT_number 59
_space_group.IT_coordinate_system_code '2'
_symmetry_cell_setting 'orthorhombic'
loop_
_space_group_symop_operation_xyz
x,y,z
1/2-x,1/2-y,z
1/2+x,-y,-z
-x,1/2+y,-z
-x,-y,-z
1/2+x,1/2+y,-z
1/2-x,y,z
x,1/2-y,z
loop_
_atom_site_type_symbol
_atom_site_label
_atom_site_fract_x
_atom_site_fract_y
_atom_site_fract_z
Si Si1 0.966505 0.123602 0.817668
Si Si2 0.750000 0.929023 0.645231
Si Si3 0.750000 0.013293 0.140739
Si Si4 0.127804 0.543704 0.028926
Si Si5 0.376844 0.088018 0.332343
Si Si6 0.480702 0.322091 0.296475
Si Si7 0.046453 0.021169 0.705203
O O1 0.901372 0.097545 0.806066
O O2 0.989247 0.150142 0.550224
O O3 0.007338 0.063867 0.882083
O O4 0.978679 0.168977 0.051077
O O5 0.750000 0.981030 0.418639
O O6 0.810547 0.893529 0.630098
O O7 0.750000 0.960634 0.922519
O O8 0.808412 0.050565 0.080224
O O9 0.123380 0.476338 0.169031
O O10 0.082850 0.536271 0.800412
O O11 0.420994 0.140635 0.243677
O O12 0.404453 0.065894 0.595512
O O13 0.468839 0.250000 0.338076
O O14 0.000000 0.000000 0.500000
#
# Coordination Sequence:
#
# PCOD9450028 Si02
#       7
#     8   4   4   8   8   8   8
#     4  11  22  34  58  80 110 144 179 231 278 344
#     4  10  20  34  49  78 108 154 183 212 273 318
#     4  10  22  32  52  78 122 144 168 218 267 348
#     4  11  19  34  52  86 113 141 179 218 287 338
#     4  10  20  33  54  76 115 147 181 229 269 336
#     4  11  24  39  54  79 108 147 190 236 278 318
#     4  11  18  29  51  81 116 139 178 217 279 336
#
# _framework density 18.152332999999999
#
# number of rings (size 3 to 8) (size 9 to 14) (size 15 to 20)
#    0.000    1.333    5.000    3.000    0.000    0.000 
#    0.000    0.417    0.000    0.000    0.000    7.000 
#    0.000    0.000    0.000    0.000    0.000    0.000 
#
# Total GULP energy -267357.192887 kJ/mol
# GULP energy per Si atom -5569.941518 kJ/mol
# Density = 1.811102 g / cm^3
# Si number density = 18.152333 Si / 1000 Ang^3
#
#
#
# Elastic Constant Matrix: (Units=GPa)
#
#
# Indices 1 2 3 4 5 6 
#
# 1 132.5669 37.8344 29.6690 0.0000 0.0000 0.0000
# 2 37.8344 70.4398 13.0631 0.0000 0.0000 0.0000
# 3 29.6690 13.0631 60.7555 0.0000 0.0000 0.0000
# 4 0.0000 0.0000 0.0000 19.6416 0.0000 0.0000
# 5 0.0000 0.0000 0.0000 0.0000 22.7592 0.0000
# 6 0.0000 0.0000 0.0000 0.0000 0.0000 13.6466
#
#
#
# Elastic Compliance Matrix: (Units=1/GPa)
#
#
# Indices 1 2 3 4 5 6 
#
# 1 0.009667 -0.004496 -0.003754 0.000000 0.000000 0.000000
# 2 -0.004496 0.016877 -0.001433 0.000000 0.000000 0.000000
# 3 -0.003754 -0.001433 0.018601 0.000000 0.000000 0.000000
# 4 0.000000 0.000000 0.000000 0.050912 0.000000 0.000000
# 5 0.000000 0.000000 0.000000 0.000000 0.043938 0.000000
# 6 0.000000 0.000000 0.000000 0.000000 0.000000 0.073278
#
#
# Mechanical properties :
#
#
# Convention : Reuss Voigt Hill
#
# Bulk Modulus (GPa) = 38.79219 47.21058 43.00139
# Shear Modulus (GPa) = 20.72691 23.42254 22.07473
#
# Velocity S-wave (km/s) = 3.38277 3.59602 3.49102
# Velocity P-wave (km/s) = 6.05593 6.58075 6.32378
#
# Compressibility (1/GPa) = 0.02577838
#
# Stress axis : x y z
#
# Youngs Moduli (GPa) = 103.44868 59.25168 53.76133
#
# Poissons Ratio (x) = 0.26639 0.20181
# Poissons Ratio (y) = 0.46510 0.07705
# Poissons Ratio (z) = 0.38833 0.08492
#
# Static dielectric constant tensor:
#      x y z
#    x 1.668020 0.000000 0.000000 
#    y 0.000000 1.637440 0.000000 
#    z 0.000000 0.000000 1.738780 
# 
# From -- ./inp_files/3350.got.cif
#   From: 2010.05.17/outbox.cif.g08.bks.cpg/sg59_2_cif.got.tgz:3350.got - 2010.06.03 14:40:33.
