data_PCOD9450485
_publ_section_title
;
Structure prediction by ZEFSAII (Michael W. Deem and Ramdas Pophale) SiO2 
 PCOD9450485
Probable space group: P M M N
;
_chemical_formula_sum "Si O2"
_cell_formula_units_Z 64
_cell_length_a 8.834724
_cell_length_b 14.960608
_cell_length_c 26.590636
_cell_angle_alpha 90.000000
_cell_angle_beta 90.000000
_cell_angle_gamma 90.000000
_cell_volume 3514.559945
_symmetry_space_group_name_H-M "P M M N"
_symmetry_group_IT_number 59
_space_group.IT_coordinate_system_code '2'
_symmetry_cell_setting 'orthorhombic'
loop_
_space_group_symop_operation_xyz
x,y,z
1/2-x,1/2-y,z
1/2+x,-y,-z
-x,1/2+y,-z
-x,-y,-z
1/2+x,1/2+y,-z
1/2-x,y,z
x,1/2-y,z
loop_
_atom_site_type_symbol
_atom_site_label
_atom_site_fract_x
_atom_site_fract_y
_atom_site_fract_z
Si Si1 0.431125 0.994747 0.788152
Si Si2 0.067242 0.354453 0.868267
Si Si3 0.432576 0.145818 0.135821
Si Si4 0.926995 0.849958 0.600462
Si Si5 0.931528 0.495027 0.944649
Si Si6 0.930778 0.003491 0.677772
Si Si7 0.430062 0.598567 0.497228
Si Si8 0.076248 0.147599 0.607246
O O1 0.250000 0.988656 0.787672
O O2 0.497734 0.909241 0.817699
O O3 0.472429 0.084687 0.819615
O O4 0.493863 0.999442 0.732057
O O5 0.250000 0.356257 0.873244
O O6 0.021356 0.250000 0.865166
O O7 0.995469 0.409284 0.914529
O O8 0.250000 0.144815 0.140457
O O9 0.480027 0.250000 0.132696
O O10 0.471802 0.084530 0.087337
O O11 0.750000 0.868562 0.587747
O O12 0.936315 0.750000 0.620863
O O13 0.020973 0.856527 0.549323
O O14 0.975896 0.920538 0.642120
O O15 0.750000 0.489587 0.946796
O O16 0.000000 0.500000 0.000000
O O17 0.750000 0.002110 0.683327
O O18 0.983791 0.089130 0.646471
O O19 0.500000 0.500000 0.500000
O O20 0.250000 0.596126 0.492329
O O21 0.502237 0.641899 0.447791
O O22 0.250000 0.115013 0.604091
O O23 0.077742 0.250000 0.623512
#
# Coordination Sequence:
#
# PCOD9450485 Si02
#       8
#     8   8   8   8   8   8   8   8
#     4  10  21  37  58  84 114 146 185 238 291 340
#     4   9  19  37  59  81 109 150 195 236 285 341
#     4   9  19  37  59  81 109 150 197 239 283 337
#     4  10  22  40  60  83 112 147 186 229 280 337
#     4  10  20  34  54  84 120 155 192 236 285 335
#     4  11  23  39  60  85 115 152 189 232 282 337
#     4  12  23  37  60  86 114 148 185 228 280 337
#     4  11  24  41  61  85 115 150 186 230 284 338
#
# _framework density 18.209961
#
# number of rings (size 3 to 8) (size 9 to 14) (size 15 to 20)
#    0.000    1.750    1.250    3.000    0.000    6.250 
#    0.000    3.750    0.000    0.000    0.000    0.000 
#    0.000    0.000    0.000    0.000    0.000    0.000 
#
# Total GULP energy -357367.348492 kJ/mol
# GULP energy per Si atom -5583.864820 kJ/mol
# Density = 1.816851 g / cm^3
# Si number density = 18.209961 Si / 1000 Ang^3
#
#
#
# Elastic Constant Matrix: (Units=GPa)
#
#
# Indices 1 2 3 4 5 6 
#
# 1 34.2415 30.5717 36.5360 0.0000 0.0000 0.0000
# 2 30.5717 147.8937 69.6707 0.0000 0.0000 0.0000
# 3 36.5360 69.6707 155.5251 0.0000 0.0000 0.0000
# 4 0.0000 0.0000 0.0000 25.3346 0.0000 0.0000
# 5 0.0000 0.0000 0.0000 0.0000 36.2941 0.0000
# 6 0.0000 0.0000 0.0000 0.0000 0.0000 26.4823
#
#
#
# Elastic Compliance Matrix: (Units=1/GPa)
#
#
# Indices 1 2 3 4 5 6 
#
# 1 0.041790 -0.005087 -0.007538 0.000000 0.000000 0.000000
# 2 -0.005087 0.009190 -0.002922 0.000000 0.000000 0.000000
# 3 -0.007538 -0.002922 0.009509 0.000000 0.000000 0.000000
# 4 0.000000 0.000000 0.000000 0.039472 0.000000 0.000000
# 5 0.000000 0.000000 0.000000 0.000000 0.027553 0.000000
# 6 0.000000 0.000000 0.000000 0.000000 0.000000 0.037761
#
#
# Mechanical properties :
#
#
# Convention : Reuss Voigt Hill
#
# Bulk Modulus (GPa) = 34.01997 67.91302 50.96649
# Shear Modulus (GPa) = 24.25221 31.01433 27.63327
#
# Velocity S-wave (km/s) = 3.65336 4.13140 3.89971
# Velocity P-wave (km/s) = 6.04307 7.75457 6.95169
#
# Compressibility (1/GPa) = 0.02939450
#
# Stress axis : x y z
#
# Youngs Moduli (GPa) = 23.92928 108.81955 105.15821
#
# Poissons Ratio (x) = 0.55360 0.79271
# Poissons Ratio (y) = 0.12174 0.30722
# Poissons Ratio (z) = 0.18039 0.31792
#
# Static dielectric constant tensor:
#      x y z
#    x 1.619410 0.000000 0.000000 
#    y 0.000000 1.339540 0.000000 
#    z 0.000000 0.000000 1.588030 
# 
# From -- ./inp_files/31427.got.cif
#   From: 2010.05.17/outbox.cif.g08.bks.cpg/sg59_16_cif.got.tgz:31427.got - 2010.06.03 14:40:33.
