data_PCOD9450893
_publ_section_title
;
Structure prediction by ZEFSAII (Michael W. Deem and Ramdas Pophale) SiO2 
 PCOD9450893
Probable space group: P M M N
;
_chemical_formula_sum "Si O2"
_cell_formula_units_Z 40
_cell_length_a 7.636515
_cell_length_b 9.839647
_cell_length_c 24.315082
_cell_angle_alpha 90.000000
_cell_angle_beta 90.000000
_cell_angle_gamma 90.000000
_cell_volume 1827.050140
_symmetry_space_group_name_H-M "P M M N"
_symmetry_group_IT_number 59
_space_group.IT_coordinate_system_code '2'
_symmetry_cell_setting 'orthorhombic'
loop_
_space_group_symop_operation_xyz
x,y,z
1/2-x,1/2-y,z
1/2+x,-y,-z
-x,1/2+y,-z
-x,-y,-z
1/2+x,1/2+y,-z
1/2-x,y,z
x,1/2-y,z
loop_
_atom_site_type_symbol
_atom_site_label
_atom_site_fract_x
_atom_site_fract_y
_atom_site_fract_z
Si Si1 0.539842 0.593360 0.552689
Si Si2 0.535539 0.405700 0.654142
Si Si3 0.046211 0.960649 0.870108
Si Si4 0.039492 0.750000 0.085396
Si Si5 0.045224 0.101701 0.253118
Si Si6 0.463623 0.750000 0.959715
O O1 0.500000 0.500000 0.500000
O O2 0.750000 0.602747 0.557070
O O3 0.474133 0.750000 0.549180
O O4 0.478771 0.507690 0.605681
O O5 0.750000 0.399750 0.652900
O O6 0.475411 0.250000 0.647749
O O7 0.476806 0.476344 0.711060
O O8 0.250000 0.925918 0.864815
O O9 0.978695 0.877987 0.923048
O O10 0.965056 0.921980 0.811970
O O11 0.022920 0.117190 0.883380
O O12 0.250000 0.750000 0.084795
O O13 0.974362 0.750000 0.022249
O O14 0.250000 0.109541 0.267655
O O15 0.966800 0.250000 0.266099
O O16 0.250000 0.750000 0.962875
#
# Coordination Sequence:
#
# PCOD9450893 Si02
#       6
#     8   8   8   4   8   4
#     4  10  20  35  57  85 118 156 197 241 287 337
#     4   9  18  33  55  82 112 149 193 240 287 334
#     4  11  22  39  59  84 116 151 185 231 293 348
#     4  11  23  39  59  85 113 147 192 237 278 337
#     4  10  20  35  56  82 110 145 191 238 283 341
#     4   9  20  39  61  83 113 149 188 231 282 345
#
# _framework density 21.893214
#
# number of rings (size 3 to 8) (size 9 to 14) (size 15 to 20)
#    0.000    2.000    1.000    2.700    1.400    3.600 
#    0.000    4.000    0.000    3.600    0.000    0.000 
#    0.000    0.000    0.000    0.000    0.000    0.000 
#
# Total GULP energy -223417.562000 kJ/mol
# GULP energy per Si atom -5585.439050 kJ/mol
# Density = 2.184338 g / cm^3
# Si number density = 21.893214 Si / 1000 Ang^3
#
#
#
# Elastic Constant Matrix: (Units=GPa)
#
#
# Indices 1 2 3 4 5 6 
#
# 1 42.3481 1.7043 -1.3167 0.0000 0.0000 0.0000
# 2 1.7043 214.2311 64.0837 0.0000 0.0000 0.0000
# 3 -1.3167 64.0837 101.2972 0.0000 0.0000 0.0000
# 4 0.0000 0.0000 0.0000 42.6519 0.0000 0.0000
# 5 0.0000 0.0000 0.0000 0.0000 19.8738 0.0000
# 6 0.0000 0.0000 0.0000 0.0000 0.0000 -104.0881
#
#
#
# Elastic Compliance Matrix: (Units=1/GPa)
#
#
# Indices 1 2 3 4 5 6 
#
# 1 0.023644 -0.000345 0.000526 0.000000 0.000000 0.000000
# 2 -0.000345 0.005762 -0.003650 0.000000 0.000000 0.000000
# 3 0.000526 -0.003650 0.012188 0.000000 0.000000 0.000000
# 4 0.000000 0.000000 0.000000 0.023446 0.000000 0.000000
# 5 0.000000 0.000000 0.000000 0.000000 0.050318 0.000000
# 6 0.000000 0.000000 0.000000 0.000000 0.000000 -0.009607
#
#
# Mechanical properties :
#
#
# Convention : Reuss Voigt Hill
#
# Bulk Modulus (GPa) = 28.85565 54.09101 41.47333
# Shear Modulus (GPa) = 40.24431 11.24785 25.74608
#
# Velocity S-wave (km/s) = 4.29209 2.26909 3.43298
# Velocity P-wave (km/s) = 6.14585 5.62365 5.89054
#
# Compressibility (1/GPa) = 0.03465526
#
# Stress axis : x y z
#
# Youngs Moduli (GPa) = 42.29395 173.53769 82.04882
#
# Poissons Ratio (x) = 0.05994 -0.04314
# Poissons Ratio (y) = 0.01461 0.29948
# Poissons Ratio (z) = -0.02224 0.63341
#
# Static dielectric constant tensor:
#      x y z
#    x 1.833830 0.000000 0.000000 
#    y 0.000000 1.794070 0.000000 
#    z 0.000000 0.000000 1.765260 
# 
# From -- ./inp_files/32424.got.cif
#   From: 2010.05.17/outbox.cif.g08.bks.cpg/sg59_17_cif.got.tgz:32424.got - 2010.06.03 14:40:33.
