data_PCOD9450631
_publ_section_title
;
Structure prediction by ZEFSAII (Michael W. Deem and Ramdas Pophale) SiO2 
 PCOD9450631
Probable space group: P M M N
;
_chemical_formula_sum "Si O2"
_cell_formula_units_Z 56
_cell_length_a 9.092398
_cell_length_b 21.767554
_cell_length_c 14.744068
_cell_angle_alpha 90.000000
_cell_angle_beta 90.000000
_cell_angle_gamma 90.000000
_cell_volume 2918.135094
_symmetry_space_group_name_H-M "P M M N"
_symmetry_group_IT_number 59
_space_group.IT_coordinate_system_code '2'
_symmetry_cell_setting 'orthorhombic'
loop_
_space_group_symop_operation_xyz
x,y,z
1/2-x,1/2-y,z
1/2+x,-y,-z
-x,1/2+y,-z
-x,-y,-z
1/2+x,1/2+y,-z
1/2-x,y,z
x,1/2-y,z
loop_
_atom_site_type_symbol
_atom_site_label
_atom_site_fract_x
_atom_site_fract_y
_atom_site_fract_z
Si Si1 0.572965 0.579184 0.749123
Si Si2 0.411678 0.178943 0.756285
Si Si3 0.417398 0.652405 0.420066
Si Si4 0.425303 0.676108 0.064458
Si Si5 0.415571 0.509035 0.407288
Si Si6 0.923552 0.322605 0.372870
Si Si7 0.428613 0.437531 0.041083
O O1 0.750000 0.581709 0.748524
O O2 0.522493 0.525810 0.679756
O O3 0.509228 0.640442 0.703699
O O4 0.530800 0.566425 0.852305
O O5 0.250000 0.148822 0.761597
O O6 0.393529 0.250000 0.779621
O O7 0.475736 0.178494 0.655413
O O8 0.525982 0.157896 0.832860
O O9 0.250000 0.677605 0.415327
O O10 0.409994 0.581290 0.393596
O O11 0.468622 0.659794 0.523997
O O12 0.250000 0.669116 0.054161
O O13 0.457023 0.750000 0.047449
O O14 0.510110 0.625778 0.003502
O O15 0.500000 0.500000 0.500000
O O16 0.250000 0.485595 0.421239
O O17 0.750000 0.337665 0.366393
O O18 0.941872 0.250000 0.362588
O O19 0.250000 0.439973 0.031864
O O20 0.500000 0.500000 0.000000
#
# Coordination Sequence:
#
# PCOD9450631 Si02
#       7
#     8   8   8   8   8   8   8
#     4  10  23  41  60  86 120 155 195 244 301 361
#     4  10  21  36  56  87 123 157 197 243 292 354
#     4  10  20  34  56  84 118 160 199 241 293 347
#     4  10  22  42  67  92 121 161 208 260 320 384
#     4  10  20  36  58  84 114 151 192 238 287 346
#     4  10  21  37  58  86 120 159 205 250 292 349
#     4  11  25  44  66  94 126 162 206 262 320 378
#
# _framework density 19.190338000000001
#
# number of rings (size 3 to 8) (size 9 to 14) (size 15 to 20)
#    0.000    1.857    1.429    1.714    2.000    5.429 
#    0.000    2.857    0.000    0.000    0.000    0.000 
#    0.000    0.000    0.000    0.000    0.000    0.000 
#
# Total GULP energy -312131.743901 kJ/mol
# GULP energy per Si atom -5573.781141 kJ/mol
# Density = 1.914666 g / cm^3
# Si number density = 19.190338 Si / 1000 Ang^3
#
#
#
# Elastic Constant Matrix: (Units=GPa)
#
#
# Indices 1 2 3 4 5 6 
#
# 1 64.0777 35.5459 53.0708 0.0000 0.0000 0.0000
# 2 35.5459 83.5982 54.0327 0.0000 0.0000 0.0000
# 3 53.0708 54.0327 158.8519 0.0000 0.0000 0.0000
# 4 0.0000 0.0000 0.0000 31.8821 0.0000 0.0000
# 5 0.0000 0.0000 0.0000 0.0000 22.0566 0.0000
# 6 0.0000 0.0000 0.0000 0.0000 0.0000 29.9547
#
#
#
# Elastic Compliance Matrix: (Units=1/GPa)
#
#
# Indices 1 2 3 4 5 6 
#
# 1 0.024007 -0.006440 -0.005830 0.000000 0.000000 0.000000
# 2 -0.006440 0.017060 -0.003652 0.000000 0.000000 0.000000
# 3 -0.005830 -0.003652 0.009485 0.000000 0.000000 0.000000
# 4 0.000000 0.000000 0.000000 0.031366 0.000000 0.000000
# 5 0.000000 0.000000 0.000000 0.000000 0.045338 0.000000
# 6 0.000000 0.000000 0.000000 0.000000 0.000000 0.033384
#
#
# Mechanical properties :
#
#
# Convention : Reuss Voigt Hill
#
# Bulk Modulus (GPa) = 53.44803 65.75851 59.60327
# Shear Modulus (GPa) = 25.16125 27.70391 26.43258
#
# Velocity S-wave (km/s) = 3.62490 3.80365 3.71535
# Velocity P-wave (km/s) = 6.74031 7.32333 7.03786
#
# Compressibility (1/GPa) = 0.01870976
#
# Stress axis : x y z
#
# Youngs Moduli (GPa) = 41.65471 58.61596 105.42956
#
# Poissons Ratio (x) = 0.37746 0.61466
# Poissons Ratio (y) = 0.26824 0.38498
# Poissons Ratio (z) = 0.24285 0.21404
#
# Static dielectric constant tensor:
#      x y z
#    x 1.697450 0.000000 0.000000 
#    y 0.000000 1.691260 0.000000 
#    z 0.000000 0.000000 1.660200 
# 
# From -- ./inp_files/21038.got.cif
#   From: 2010.05.17/outbox.cif.g08.bks.cpg/sg59_11_cif.got.tgz:21038.got - 2010.06.03 14:40:33.
