data_PCOD9450005
_publ_section_title
;
Structure prediction by ZEFSAII (Michael W. Deem and Ramdas Pophale) SiO2 
 PCOD9450005
Probable space group: P M M N
;
_chemical_formula_sum "Si O2"
_cell_formula_units_Z 64
_cell_length_a 8.255069
_cell_length_b 15.581197
_cell_length_c 24.327958
_cell_angle_alpha 90.000000
_cell_angle_beta 90.000000
_cell_angle_gamma 90.000000
_cell_volume 3129.155775
_symmetry_space_group_name_H-M "P M M N"
_symmetry_group_IT_number 59
_space_group.IT_coordinate_system_code '2'
_symmetry_cell_setting 'orthorhombic'
loop_
_space_group_symop_operation_xyz
x,y,z
1/2-x,1/2-y,z
1/2+x,-y,-z
-x,1/2+y,-z
-x,-y,-z
1/2+x,1/2+y,-z
1/2-x,y,z
x,1/2-y,z
loop_
_atom_site_type_symbol
_atom_site_label
_atom_site_fract_x
_atom_site_fract_y
_atom_site_fract_z
Si Si1 0.068187 0.651545 0.073358
Si Si2 0.554740 0.652429 0.544891
Si Si3 0.054378 0.521667 0.758224
Si Si4 0.936449 0.915346 0.968818
Si Si5 0.554917 0.019206 0.363683
Si Si6 0.946324 0.349218 0.809121
Si Si7 0.443687 0.651360 0.852907
Si Si8 0.052328 0.346754 0.581364
O O1 0.250000 0.617560 0.062036
O O2 0.087148 0.750000 0.089007
O O3 0.998698 0.615585 0.130181
O O4 0.964834 0.649605 0.018720
O O5 0.750000 0.650413 0.545355
O O6 0.503438 0.750000 0.558194
O O7 0.492511 0.584896 0.588731
O O8 0.503822 0.634728 0.481876
O O9 0.250000 0.524953 0.759897
O O10 0.998553 0.546158 0.696952
O O11 0.993397 0.586853 0.805561
O O12 0.004828 0.422919 0.768513
O O13 0.750000 0.923104 0.955033
O O14 0.024379 0.887669 0.913354
O O15 0.000000 0.000000 0.000000
O O16 0.750000 0.015762 0.361907
O O17 0.496167 0.923861 0.380091
O O18 0.750000 0.348749 0.810507
O O19 0.999812 0.250000 0.798262
O O20 0.250000 0.656251 0.846227
O O21 0.506443 0.750000 0.849956
O O22 0.250000 0.345940 0.582274
O O23 0.999271 0.250000 0.595910
#
# Coordination Sequence:
#
# PCOD9450005 Si02
#       8
#     8   8   8   8   8   8   8   8
#     4   9  18  34  55  78 104 132 162 201 256 319
#     4   9  18  33  53  77 106 142 181 218 263 322
#     4  10  22  37  54  80 109 142 187 231 272 321
#     4  12  24  36  54  81 109 135 171 220 272 328
#     4  10  20  33  53  81 109 139 179 227 274 318
#     4   9  19  36  57  80 108 144 182 221 271 329
#     4  10  22  41  60  77 107 151 191 230 279 329
#     4   8  15  30  52  78 110 145 177 213 264 326
#
# _framework density 20.452801000000001
#
# number of rings (size 3 to 8) (size 9 to 14) (size 15 to 20)
#    0.000    2.375    0.000    4.125    0.000    7.000 
#    0.000    3.750    0.000    1.125    0.000    0.000 
#    0.000    0.000    0.000    0.000    0.000    0.000 
#
# Total GULP energy -356752.513344 kJ/mol
# GULP energy per Si atom -5574.258021 kJ/mol
# Density = 2.040625 g / cm^3
# Si number density = 20.452801 Si / 1000 Ang^3
#
#
#
# Elastic Constant Matrix: (Units=GPa)
#
#
# Indices 1 2 3 4 5 6 
#
# 1 9.0076 8.2779 5.5937 0.0000 0.0000 0.0000
# 2 8.2779 101.4072 43.7174 0.0000 0.0000 0.0000
# 3 5.5937 43.7174 77.9836 0.0000 0.0000 0.0000
# 4 0.0000 0.0000 0.0000 13.8220 0.0000 0.0000
# 5 0.0000 0.0000 0.0000 0.0000 12.2155 0.0000
# 6 0.0000 0.0000 0.0000 0.0000 0.0000 22.3690
#
#
#
# Elastic Compliance Matrix: (Units=1/GPa)
#
#
# Indices 1 2 3 4 5 6 
#
# 1 0.121029 -0.008093 -0.004144 0.000000 0.000000 0.000000
# 2 -0.008093 0.013545 -0.007013 0.000000 0.000000 0.000000
# 3 -0.004144 -0.007013 0.017052 0.000000 0.000000 0.000000
# 4 0.000000 0.000000 0.000000 0.072348 0.000000 0.000000
# 5 0.000000 0.000000 0.000000 0.000000 0.081863 0.000000
# 6 0.000000 0.000000 0.000000 0.000000 0.000000 0.044705
#
#
# Mechanical properties :
#
#
# Convention : Reuss Voigt Hill
#
# Bulk Modulus (GPa) = 8.83975 33.73069 21.28522
# Shear Modulus (GPa) = 11.71644 18.40193 15.05918
#
# Velocity S-wave (km/s) = 2.39603 3.00280 2.71641
# Velocity P-wave (km/s) = 3.46208 5.34324 4.50201
#
# Compressibility (1/GPa) = 0.11312542
#
# Stress axis : x y z
#
# Youngs Moduli (GPa) = 8.26250 73.82704 58.64456
#
# Poissons Ratio (x) = 0.59748 0.24304
# Poissons Ratio (y) = 0.06687 0.41127
# Poissons Ratio (z) = 0.03424 0.51774
#
# Static dielectric constant tensor:
#      x y z
#    x 1.759360 0.000000 0.000000 
#    y 0.000000 1.692650 0.000000 
#    z 0.000000 0.000000 1.756580 
# 
# From -- ./inp_files/31680.got.cif
#   From: 2010.05.17/outbox.cif.g08.bks.cpg/sg59_16_cif.got.tgz:31680.got - 2010.06.03 14:40:33.
