data_PCOD9450694
_publ_section_title
;
Structure prediction by ZEFSAII (Michael W. Deem and Ramdas Pophale) SiO2 
 PCOD9450694
Probable space group: P M M N
;
_chemical_formula_sum "Si O2"
_cell_formula_units_Z 52
_cell_length_a 9.544271
_cell_length_b 13.701737
_cell_length_c 18.591087
_cell_angle_alpha 90.000000
_cell_angle_beta 90.000000
_cell_angle_gamma 90.000000
_cell_volume 2431.213914
_symmetry_space_group_name_H-M "P M M N"
_symmetry_group_IT_number 59
_space_group.IT_coordinate_system_code '2'
_symmetry_cell_setting 'orthorhombic'
loop_
_space_group_symop_operation_xyz
x,y,z
1/2-x,1/2-y,z
1/2+x,-y,-z
-x,1/2+y,-z
-x,-y,-z
1/2+x,1/2+y,-z
1/2-x,y,z
x,1/2-y,z
loop_
_atom_site_type_symbol
_atom_site_label
_atom_site_fract_x
_atom_site_fract_y
_atom_site_fract_z
Si Si1 0.405327 0.362123 0.849576
Si Si2 0.089220 0.866698 0.670553
Si Si3 0.409856 0.131591 0.471337
Si Si4 0.412271 0.864480 0.391316
Si Si5 0.250000 0.506090 0.029811
Si Si6 0.016912 0.363474 0.015314
Si Si7 0.587247 0.491840 0.753221
O O1 0.250000 0.396073 0.827122
O O2 0.423148 0.250000 0.825632
O O3 0.412147 0.361983 0.935533
O O4 0.526443 0.427733 0.817475
O O5 0.250000 0.900452 0.664732
O O6 0.089718 0.750000 0.677077
O O7 0.000889 0.891238 0.598882
O O8 0.009349 0.915935 0.736694
O O9 0.250000 0.095627 0.465630
O O10 0.404218 0.250000 0.473957
O O11 0.487463 0.101696 0.544384
O O12 0.250000 0.870873 0.415215
O O13 0.441280 0.750000 0.377028
O O14 0.427218 0.924110 0.318132
O O15 0.374103 0.429960 0.058305
O O16 0.372178 0.580039 0.996733
O O17 0.001546 0.250000 0.037818
O O18 0.750000 0.515343 0.762416
#
# Coordination Sequence:
#
# PCOD9450694 Si02
#       7
#     8   8   8   8   4   8   8
#     4  10  21  38  60  87 121 159 194 232 279 337
#     4  10  21  38  58  76  98 137 188 239 293 352
#     4   9  17  30  51  77 102 133 177 230 287 346
#     4   9  18  33  50  73 109 143 173 220 283 346
#     4  10  20  34  62  96 126 168 208 248 292 346
#     4  10  20  37  61  95 132 167 205 248 296 346
#     4  11  23  36  55  83 110 145 189 238 286 339
#
# _framework density 21.388491999999999
#
# number of rings (size 3 to 8) (size 9 to 14) (size 15 to 20)
#    0.000    2.154    0.769    2.308    1.077    5.538 
#    0.000    1.538    0.000    5.538    0.000    0.000 
#    0.000    0.000    0.000    0.000    0.000    0.000 
#
# Total GULP energy -289552.336622 kJ/mol
# GULP energy per Si atom -5568.314166 kJ/mol
# Density = 2.133981 g / cm^3
# Si number density = 21.388492 Si / 1000 Ang^3
#
#
#
# Elastic Constant Matrix: (Units=GPa)
#
#
# Indices 1 2 3 4 5 6 
#
# 1 158.6562 31.9735 14.5770 0.0000 0.0000 0.0000
# 2 31.9735 93.1891 -2.5080 0.0000 0.0000 0.0000
# 3 14.5770 -2.5080 36.1890 0.0000 0.0000 0.0000
# 4 0.0000 0.0000 0.0000 30.1064 0.0000 0.0000
# 5 0.0000 0.0000 0.0000 0.0000 4.9322 0.0000
# 6 0.0000 0.0000 0.0000 0.0000 0.0000 29.5614
#
#
#
# Elastic Compliance Matrix: (Units=1/GPa)
#
#
# Indices 1 2 3 4 5 6 
#
# 1 0.007088 -0.002513 -0.003029 0.000000 0.000000 0.000000
# 2 -0.002513 0.011642 0.001819 0.000000 0.000000 0.000000
# 3 -0.003029 0.001819 0.028979 0.000000 0.000000 0.000000
# 4 0.000000 0.000000 0.000000 0.033216 0.000000 0.000000
# 5 0.000000 0.000000 0.000000 0.000000 0.202750 0.000000
# 6 0.000000 0.000000 0.000000 0.000000 0.000000 0.033828
#
#
# Mechanical properties :
#
#
# Convention : Reuss Voigt Hill
#
# Bulk Modulus (GPa) = 24.83714 41.79105 33.31410
# Shear Modulus (GPa) = 14.77672 29.18612 21.98142
#
# Velocity S-wave (km/s) = 2.63130 3.69802 3.20929
# Velocity P-wave (km/s) = 4.56828 6.14941 5.41685
#
# Compressibility (1/GPa) = 0.04026228
#
# Stress axis : x y z
#
# Youngs Moduli (GPa) = 141.08835 85.89465 34.50782
#
# Poissons Ratio (x) = 0.21588 0.10453
# Poissons Ratio (y) = 0.35461 -0.06278
# Poissons Ratio (z) = 0.42738 -0.15626
#
# Static dielectric constant tensor:
#      x y z
#    x 1.761330 0.000000 0.000000 
#    y 0.000000 1.827350 0.000000 
#    z 0.000000 0.000000 1.793480 
# 
# From -- ./inp_files/28915.got.cif
#   From: 2010.05.17/outbox.cif.g08.bks.cpg/sg59_15_cif.got.tgz:28915.got - 2010.06.03 14:40:33.
