data_PCOD9450085
_publ_section_title
;
Structure prediction by ZEFSAII (Michael W. Deem and Ramdas Pophale) SiO2 
 PCOD9450085
Probable space group: P M M N
;
_chemical_formula_sum "Si O2"
_cell_formula_units_Z 64
_cell_length_a 7.540546
_cell_length_b 13.598700
_cell_length_c 24.715960
_cell_angle_alpha 90.000000
_cell_angle_beta 90.000000
_cell_angle_gamma 90.000000
_cell_volume 2534.414650
_symmetry_space_group_name_H-M "P M M N"
_symmetry_group_IT_number 59
_space_group.IT_coordinate_system_code '2'
_symmetry_cell_setting 'orthorhombic'
loop_
_space_group_symop_operation_xyz
x,y,z
1/2-x,1/2-y,z
1/2+x,-y,-z
-x,1/2+y,-z
-x,-y,-z
1/2+x,1/2+y,-z
1/2-x,y,z
x,1/2-y,z
loop_
_atom_site_type_symbol
_atom_site_label
_atom_site_fract_x
_atom_site_fract_y
_atom_site_fract_z
Si Si1 0.538275 0.386955 0.488069
Si Si2 0.964423 0.862245 0.209379
Si Si3 0.464584 0.131847 0.026195
Si Si4 0.546137 0.419249 0.372600
Si Si5 0.465074 0.853602 0.392701
Si Si6 0.961601 0.630842 0.090123
Si Si7 0.953941 0.559520 0.745526
Si Si8 0.036402 0.366980 0.142379
O O1 0.500000 0.500000 0.500000
O O2 0.750000 0.367721 0.487135
O O3 0.463806 0.372182 0.427286
O O4 0.474222 0.344681 0.544746
O O5 0.750000 0.861021 0.208007
O O6 0.023561 0.750000 0.218471
O O7 0.030338 0.897769 0.149642
O O8 0.022065 0.941552 0.253377
O O9 0.250000 0.122122 0.025183
O O10 0.498373 0.250000 0.026645
O O11 0.532630 0.094194 0.084327
O O12 0.534467 0.095099 0.967968
O O13 0.750000 0.395692 0.378050
O O14 0.524724 0.538213 0.374804
O O15 0.499544 0.392512 0.311510
O O16 0.250000 0.857259 0.391089
O O17 0.519986 0.750000 0.365065
O O18 0.750000 0.613916 0.090244
O O19 0.983536 0.750000 0.090010
O O20 0.750000 0.582470 0.752338
O O21 0.042136 0.594158 0.801424
O O22 0.250000 0.383075 0.140444
O O23 0.010135 0.250000 0.142887
#
# Coordination Sequence:
#
# PCOD9450085 Si02
#       8
#     8   8   8   8   8   8   8   8
#     4   8  15  29  49  71  93 119 149 181 221 268
#     4   9  18  33  51  70  96 131 168 206 249 300
#     4   7   9  17  38  66  91 115 149 196 247 299
#     4  10  20  34  51  70  97 133 169 201 234 280
#     4   9  17  31  53  80 106 128 153 191 239 288
#     4   7  10  19  39  66  91 117 153 196 243 297
#     4  11  22  34  50  72  99 133 173 214 252 291
#     4   8  15  29  48  69  94 125 162 206 255 304
#
# _framework density 25.252379000000001
#
# number of rings (size 3 to 8) (size 9 to 14) (size 15 to 20)
#    0.000    3.375    0.000    3.000    0.000    1.500 
#    0.000    1.250    0.000    2.250    0.000    0.875 
#    0.000    6.000    0.000    0.000    0.000    0.000 
#
# Total GULP energy -356751.457461 kJ/mol
# GULP energy per Si atom -5574.241523 kJ/mol
# Density = 2.519490 g / cm^3
# Si number density = 25.252379 Si / 1000 Ang^3
#
#
#
# Elastic Constant Matrix: (Units=GPa)
#
#
# Indices 1 2 3 4 5 6 
#
# 1 61.0091 -9.5421 11.5317 0.0000 0.0000 0.0000
# 2 -9.5421 37.5089 10.0847 0.0000 0.0000 0.0000
# 3 11.5317 10.0847 167.6525 0.0000 0.0000 0.0000
# 4 0.0000 0.0000 0.0000 3.0346 0.0000 0.0000
# 5 0.0000 0.0000 0.0000 0.0000 9.9793 0.0000
# 6 0.0000 0.0000 0.0000 0.0000 0.0000 -8.7710
#
#
#
# Elastic Compliance Matrix: (Units=1/GPa)
#
#
# Indices 1 2 3 4 5 6 
#
# 1 0.017429 0.004834 -0.001490 0.000000 0.000000 0.000000
# 2 0.004834 0.028439 -0.002043 0.000000 0.000000 0.000000
# 3 -0.001490 -0.002043 0.006190 0.000000 0.000000 0.000000
# 4 0.000000 0.000000 0.000000 0.329535 0.000000 0.000000
# 5 0.000000 0.000000 0.000000 0.000000 0.100208 0.000000
# 6 0.000000 0.000000 0.000000 0.000000 0.000000 -0.114012
#
#
# Mechanical properties :
#
#
# Convention : Reuss Voigt Hill
#
# Bulk Modulus (GPa) = 18.29454 32.25768 25.27611
# Shear Modulus (GPa) = 13.04099 17.78833 15.41466
#
# Velocity S-wave (km/s) = 2.27497 2.65697 2.47336
# Velocity P-wave (km/s) = 3.76312 4.71323 4.26471
#
# Compressibility (1/GPa) = 0.05466111
#
# Stress axis : x y z
#
# Youngs Moduli (GPa) = 57.37680 35.16239 161.54878
#
# Poissons Ratio (x) = -0.16998 0.24064
# Poissons Ratio (y) = -0.27737 0.33008
# Poissons Ratio (z) = 0.08547 0.07184
#
# Static dielectric constant tensor:
#      x y z
#    x 1.939210 0.000000 0.000000 
#    y 0.000000 1.968850 0.000000 
#    z 0.000000 0.000000 2.084660 
# 
# From -- ./inp_files/31737.got.cif
#   From: 2010.05.17/outbox.cif.g08.bks.cpg/sg59_16_cif.got.tgz:31737.got - 2010.06.03 14:40:33.
