data_PCOD9450743
_publ_section_title
;
Structure prediction by ZEFSAII (Michael W. Deem and Ramdas Pophale) SiO2 
 PCOD9450743
Probable space group: P M M N
;
_chemical_formula_sum "Si O2"
_cell_formula_units_Z 48
_cell_length_a 35.453708
_cell_length_b 8.132855
_cell_length_c 7.974806
_cell_angle_alpha 90.000000
_cell_angle_beta 90.000000
_cell_angle_gamma 90.000000
_cell_volume 2299.454496
_symmetry_space_group_name_H-M "P M M N"
_symmetry_group_IT_number 59
_space_group.IT_coordinate_system_code '2'
_symmetry_cell_setting 'orthorhombic'
loop_
_space_group_symop_operation_xyz
x,y,z
1/2-x,1/2-y,z
1/2+x,-y,-z
-x,1/2+y,-z
-x,-y,-z
1/2+x,1/2+y,-z
1/2-x,y,z
x,1/2-y,z
loop_
_atom_site_type_symbol
_atom_site_label
_atom_site_fract_x
_atom_site_fract_y
_atom_site_fract_z
Si Si1 0.922563 0.438550 0.349114
Si Si2 0.158110 0.564931 0.723010
Si Si3 0.206370 0.250000 0.726523
Si Si4 0.159334 0.567529 0.311740
Si Si5 0.706736 0.750000 0.683643
Si Si6 0.998362 0.942793 0.189676
Si Si7 0.079532 0.064364 0.297179
O O1 0.919513 0.250000 0.412773
O O2 0.886022 0.461909 0.231668
O O3 0.963517 0.462559 0.272233
O O4 0.918437 0.563524 0.501376
O O5 0.169398 0.750000 0.775574
O O6 0.184330 0.415365 0.779456
O O7 0.158589 0.565235 0.517214
O O8 0.250000 0.250000 0.779309
O O9 0.206050 0.250000 0.521339
O O10 0.171994 0.750000 0.261653
O O11 0.185295 0.414917 0.260722
O O12 0.116993 0.533561 0.246275
O O13 0.750000 0.750000 0.737058
O O14 0.990851 0.750000 0.205362
O O15 0.039522 0.982837 0.260714
O O16 0.000000 0.000000 0.000000
O O17 0.080358 0.250000 0.231032
#
# Coordination Sequence:
#
# PCOD9450743 Si02
#       7
#     8   8   4   8   4   8   8
#     4  10  20  35  54  77 101 136 181 221 259 311
#     4   8  16  27  43  65  95 129 169 212 252 300
#     4   9  16  24  40  64  97 133 169 207 257 311
#     4   9  16  28  44  67  96 132 173 216 257 306
#     4   9  16  26  40  66  99 135 171 211 263 317
#     4  12  25  39  53  74 105 138 170 220 273 320
#     4  11  20  34  55  77 102 138 181 223 261 312
#
# _framework density 20.874514999999999
#
# number of rings (size 3 to 8) (size 9 to 14) (size 15 to 20)
#    0.000    2.167    0.833    5.000    4.667    0.667 
#    0.000    3.333    0.000    0.000    0.000    0.000 
#    0.000    2.667    0.000    4.833    0.000    6.500 
#
# Total GULP energy -267855.345899 kJ/mol
# GULP energy per Si atom -5580.319706 kJ/mol
# Density = 2.082700 g / cm^3
# Si number density = 20.874515 Si / 1000 Ang^3
#
#
#
# Elastic Constant Matrix: (Units=GPa)
#
#
# Indices 1 2 3 4 5 6 
#
# 1 168.7593 88.9359 1.7345 0.0000 0.0000 0.0000
# 2 88.9359 167.1012 1.3550 0.0000 0.0000 0.0000
# 3 1.7345 1.3550 4.5644 0.0000 0.0000 0.0000
# 4 0.0000 0.0000 0.0000 8.9551 0.0000 0.0000
# 5 0.0000 0.0000 0.0000 0.0000 -18.5035 0.0000
# 6 0.0000 0.0000 0.0000 0.0000 0.0000 30.4332
#
#
#
# Elastic Compliance Matrix: (Units=1/GPa)
#
#
# Indices 1 2 3 4 5 6 
#
# 1 0.008251 -0.004376 -0.001836 0.000000 0.000000 0.000000
# 2 -0.004376 0.008320 -0.000807 0.000000 0.000000 0.000000
# 3 -0.001836 -0.000807 0.220024 0.000000 0.000000 0.000000
# 4 0.000000 0.000000 0.000000 0.111668 0.000000 0.000000
# 5 0.000000 0.000000 0.000000 0.000000 -0.054044 0.000000
# 6 0.000000 0.000000 0.000000 0.000000 0.000000 0.032859
#
#
# Mechanical properties :
#
#
# Convention : Reuss Voigt Hill
#
# Bulk Modulus (GPa) = 4.49326 58.27509 31.38417
# Shear Modulus (GPa) = 12.03943 20.73692 16.38818
#
# Velocity S-wave (km/s) = 2.40417 3.15526 2.80497
# Velocity P-wave (km/s) = 3.14069 6.42275 5.05547
#
# Compressibility (1/GPa) = 0.22255559
#
# Stress axis : x y z
#
# Youngs Moduli (GPa) = 121.19970 120.18937 4.54497
#
# Poissons Ratio (x) = 0.52600 0.00835
# Poissons Ratio (y) = 0.53042 0.00367
# Poissons Ratio (z) = 0.22255 0.09698
#
# Static dielectric constant tensor:
#      x y z
#    x 1.820650 0.000000 0.000000 
#    y 0.000000 1.719660 0.000000 
#    z 0.000000 0.000000 1.753260 
# 
# From -- ./inp_files/13063.got.cif
#   From: 2010.05.17/outbox.cif.g08.bks.cpg/sg59_7_cif.got.tgz:13063.got - 2010.06.03 14:40:33.
