data_PCOD9450882
_publ_section_title
;
Structure prediction by ZEFSAII (Michael W. Deem and Ramdas Pophale) SiO2 
 PCOD9450882
Probable space group: P M M N
;
_chemical_formula_sum "Si O2"
_cell_formula_units_Z 48
_cell_length_a 10.031789
_cell_length_b 8.153902
_cell_length_c 29.342992
_cell_angle_alpha 90.000000
_cell_angle_beta 90.000000
_cell_angle_gamma 90.000000
_cell_volume 2400.204644
_symmetry_space_group_name_H-M "P M M N"
_symmetry_group_IT_number 59
_space_group.IT_coordinate_system_code '2'
_symmetry_cell_setting 'orthorhombic'
loop_
_space_group_symop_operation_xyz
x,y,z
1/2-x,1/2-y,z
1/2+x,-y,-z
-x,1/2+y,-z
-x,-y,-z
1/2+x,1/2+y,-z
1/2-x,y,z
x,1/2-y,z
loop_
_atom_site_type_symbol
_atom_site_label
_atom_site_fract_x
_atom_site_fract_y
_atom_site_fract_z
Si Si1 0.898820 0.448124 0.802727
Si Si2 0.250000 0.061824 0.928182
Si Si3 0.538434 0.560159 0.904425
Si Si4 0.596351 0.549210 0.276448
Si Si5 0.250000 0.566224 0.026229
Si Si6 0.096679 0.950144 0.357514
Si Si7 0.098983 0.552529 0.460591
O O1 0.750000 0.493213 0.786237
O O2 0.903928 0.250000 0.804828
O O3 0.918812 0.513749 0.853499
O O4 0.013982 0.502934 0.768256
O O5 0.250000 0.250000 0.912966
O O6 0.116693 0.976695 0.910592
O O7 0.250000 0.051456 0.983005
O O8 0.567408 0.750000 0.912658
O O9 0.622824 0.460203 0.941513
O O10 0.750000 0.495334 0.276889
O O11 0.597404 0.750000 0.276564
O O12 0.510431 0.495729 0.320284
O O13 0.250000 0.750000 0.007430
O O14 0.250000 0.999584 0.347443
O O15 0.096586 0.750000 0.356726
O O16 0.063133 0.002060 0.409196
O O17 0.250000 0.495512 0.469902
O O18 0.100834 0.750000 0.459475
O O19 0.000000 0.500000 0.500000
#
# Coordination Sequence:
#
# PCOD9450882 Si02
#       7
#     8   4   8   8   4   8   8
#     4  10  20  35  56  81 111 148 188 229 279 338
#     4  12  26  44  66  92 124 160 196 242 293 344
#     4  12  25  42  63  91 123 159 199 241 289 344
#     4   9  17  28  47  78 109 138 178 232 285 336
#     4  12  24  44  68  94 124 158 200 242 287 344
#     4   8  14  27  46  69 102 141 181 228 283 339
#     4   9  18  31  48  73 105 143 187 236 286 340
#
# _framework density 19.998296
#
# number of rings (size 3 to 8) (size 9 to 14) (size 15 to 20)
#    0.000    2.000    0.833    5.000    1.167    3.000 
#    0.000    1.667    0.000    1.000    0.000    2.333 
#    0.000    0.000    0.000    0.000    0.000    0.000 
#
# Total GULP energy -268132.561970 kJ/mol
# GULP energy per Si atom -5586.095041 kJ/mol
# Density = 1.995278 g / cm^3
# Si number density = 19.998296 Si / 1000 Ang^3
#
#
#
# Elastic Constant Matrix: (Units=GPa)
#
#
# Indices 1 2 3 4 5 6 
#
# 1 131.1392 8.6928 51.7451 0.0000 0.0000 0.0000
# 2 8.6928 23.1228 4.9571 0.0000 0.0000 0.0000
# 3 51.7451 4.9571 89.5604 0.0000 0.0000 0.0000
# 4 0.0000 0.0000 0.0000 21.9059 0.0000 0.0000
# 5 0.0000 0.0000 0.0000 0.0000 35.0850 0.0000
# 6 0.0000 0.0000 0.0000 0.0000 0.0000 18.0655
#
#
#
# Elastic Compliance Matrix: (Units=1/GPa)
#
#
# Indices 1 2 3 4 5 6 
#
# 1 0.010024 -0.002557 -0.005650 0.000000 0.000000 0.000000
# 2 -0.002557 0.044419 -0.000981 0.000000 0.000000 0.000000
# 3 -0.005650 -0.000981 0.014484 0.000000 0.000000 0.000000
# 4 0.000000 0.000000 0.000000 0.045650 0.000000 0.000000
# 5 0.000000 0.000000 0.000000 0.000000 0.028502 0.000000
# 6 0.000000 0.000000 0.000000 0.000000 0.000000 0.055354
#
#
# Mechanical properties :
#
#
# Convention : Reuss Voigt Hill
#
# Bulk Modulus (GPa) = 19.78207 41.62361 30.70284
# Shear Modulus (GPa) = 21.39846 26.90645 24.15246
#
# Velocity S-wave (km/s) = 3.27466 3.67200 3.47900
# Velocity P-wave (km/s) = 4.92049 6.23192 5.61463
#
# Compressibility (1/GPa) = 0.05055082
#
# Stress axis : x y z
#
# Youngs Moduli (GPa) = 99.75566 22.51283 69.03932
#
# Poissons Ratio (x) = 0.05757 0.39009
# Poissons Ratio (y) = 0.25510 0.06773
# Poissons Ratio (z) = 0.56365 0.02209
#
# Static dielectric constant tensor:
#      x y z
#    x 1.683330 0.000000 0.000000 
#    y 0.000000 1.697440 0.000000 
#    z 0.000000 0.000000 1.676310 
# 
# From -- ./inp_files/33055.got.cif
#   From: 2010.05.17/outbox.cif.g08.bks.cpg/sg59_17_cif.got.tgz:33055.got - 2010.06.03 14:40:33.
