data_PCOD9450302
_publ_section_title
;
Structure prediction by ZEFSAII (Michael W. Deem and Ramdas Pophale) SiO2 
 PCOD9450302
Probable space group: P M M N
;
_chemical_formula_sum "Si O2"
_cell_formula_units_Z 64
_cell_length_a 18.929635
_cell_length_b 8.487255
_cell_length_c 21.159359
_cell_angle_alpha 90.000000
_cell_angle_beta 90.000000
_cell_angle_gamma 90.000000
_cell_volume 3399.476144
_symmetry_space_group_name_H-M "P M M N"
_symmetry_group_IT_number 59
_space_group.IT_coordinate_system_code '2'
_symmetry_cell_setting 'orthorhombic'
loop_
_space_group_symop_operation_xyz
x,y,z
1/2-x,1/2-y,z
1/2+x,-y,-z
-x,1/2+y,-z
-x,-y,-z
1/2+x,1/2+y,-z
1/2-x,y,z
x,1/2-y,z
loop_
_atom_site_type_symbol
_atom_site_label
_atom_site_fract_x
_atom_site_fract_y
_atom_site_fract_z
Si Si1 0.331735 0.561541 0.569872
Si Si2 0.668091 0.940189 0.568461
Si Si3 0.580021 0.561362 0.312519
Si Si4 0.419684 0.440348 0.931374
Si Si5 0.331161 0.057560 0.809580
Si Si6 0.331068 0.059720 0.188520
Si Si7 0.416683 0.938380 0.069373
Si Si8 0.920751 0.940606 0.689988
O O1 0.250000 0.509404 0.579671
O O2 0.333637 0.750000 0.572951
O O3 0.352855 0.507488 0.499616
O O4 0.381455 0.492547 0.623720
O O5 0.750000 0.984829 0.580346
O O6 0.665447 0.750000 0.565188
O O7 0.618930 0.992580 0.626064
O O8 0.577910 0.750000 0.310969
O O9 0.625719 0.506198 0.252163
O O10 0.500780 0.497963 0.308450
O O11 0.418225 0.250000 0.934085
O O12 0.371033 0.492409 0.873354
O O13 0.501391 0.488710 0.920652
O O14 0.396416 0.505018 0.999277
O O15 0.250000 0.005426 0.807687
O O16 0.331029 0.250000 0.809502
O O17 0.250000 0.005203 0.192775
O O18 0.330317 0.250000 0.189956
O O19 0.377105 0.005423 0.248528
O O20 0.367652 0.006309 0.123960
O O21 0.414408 0.750000 0.071809
O O22 0.920408 0.750000 0.690108
#
# Coordination Sequence:
#
# PCOD9450302 Si02
#       8
#     8   8   8   8   8   8   8   8
#     4  10  21  37  57  82 112 144 179 221 268 318
#     4   9  18  35  59  83 107 139 179 222 269 320
#     4  11  22  36  56  81 110 144 181 221 268 324
#     4   9  18  34  55  78 106 141 179 218 264 319
#     4   9  18  33  54  78 102 132 175 223 264 308
#     4  10  21  37  57  80 107 142 182 223 272 330
#     4  10  20  34  53  79 111 143 177 220 267 316
#     4  10  21  37  57  81 109 140 178 225 272 320
#
# _framework density 18.826429000000001
#
# number of rings (size 3 to 8) (size 9 to 14) (size 15 to 20)
#    0.000    2.250    0.000    2.625    0.000    6.500 
#    0.000    2.500    0.000    3.750    0.000    0.000 
#    0.000    0.000    0.000    0.000    0.000    0.000 
#
# Total GULP energy -357413.713770 kJ/mol
# GULP energy per Si atom -5584.589278 kJ/mol
# Density = 1.878358 g / cm^3
# Si number density = 18.826429 Si / 1000 Ang^3
#
#
#
# Elastic Constant Matrix: (Units=GPa)
#
#
# Indices 1 2 3 4 5 6 
#
# 1 154.6942 24.6907 133.2208 0.0000 0.0000 0.0000
# 2 24.6907 12.6381 26.7460 0.0000 0.0000 0.0000
# 3 133.2208 26.7460 192.4965 0.0000 0.0000 0.0000
# 4 0.0000 0.0000 0.0000 6.7634 0.0000 0.0000
# 5 0.0000 0.0000 0.0000 0.0000 42.5612 0.0000
# 6 0.0000 0.0000 0.0000 0.0000 0.0000 25.5629
#
#
#
# Elastic Compliance Matrix: (Units=1/GPa)
#
#
# Indices 1 2 3 4 5 6 
#
# 1 0.017178 -0.011900 -0.010235 0.000000 0.000000 0.000000
# 2 -0.011900 0.120327 -0.008483 0.000000 0.000000 0.000000
# 3 -0.010235 -0.008483 0.013457 0.000000 0.000000 0.000000
# 4 0.000000 0.000000 0.000000 0.147855 0.000000 0.000000
# 5 0.000000 0.000000 0.000000 0.000000 0.023496 0.000000
# 6 0.000000 0.000000 0.000000 0.000000 0.000000 0.039119
#
#
# Mechanical properties :
#
#
# Convention : Reuss Voigt Hill
#
# Bulk Modulus (GPa) = 11.14506 81.01599 46.08053
# Shear Modulus (GPa) = 11.04790 26.65558 18.85174
#
# Velocity S-wave (km/s) = 2.42508 3.76687 3.16784
# Velocity P-wave (km/s) = 3.71135 7.87691 6.15710
#
# Compressibility (1/GPa) = 0.08972582
#
# Stress axis : x y z
#
# Youngs Moduli (GPa) = 58.21460 8.31071 74.31201
#
# Poissons Ratio (x) = 0.09890 0.76057
# Poissons Ratio (y) = 0.69274 0.63039
# Poissons Ratio (z) = 0.59582 0.07050
#
# Static dielectric constant tensor:
#      x y z
#    x 1.633350 0.000000 0.000000 
#    y 0.000000 1.646380 0.000000 
#    z 0.000000 0.000000 1.622920 
# 
# From -- ./inp_files/30825.got.cif
#   From: 2010.05.17/outbox.cif.g08.bks.cpg/sg59_16_cif.got.tgz:30825.got - 2010.06.03 14:40:33.
