data_PCOD9450188
_publ_section_title
;
Structure prediction by ZEFSAII (Michael W. Deem and Ramdas Pophale) SiO2 
 PCOD9450188
Probable space group: P M M N
;
_chemical_formula_sum "Si O2"
_cell_formula_units_Z 64
_cell_length_a 8.760833
_cell_length_b 18.263910
_cell_length_c 22.148623
_cell_angle_alpha 90.000000
_cell_angle_beta 90.000000
_cell_angle_gamma 90.000000
_cell_volume 3543.936170
_symmetry_space_group_name_H-M "P M M N"
_symmetry_group_IT_number 59
_space_group.IT_coordinate_system_code '2'
_symmetry_cell_setting 'orthorhombic'
loop_
_space_group_symop_operation_xyz
x,y,z
1/2-x,1/2-y,z
1/2+x,-y,-z
-x,1/2+y,-z
-x,-y,-z
1/2+x,1/2+y,-z
1/2-x,y,z
x,1/2-y,z
loop_
_atom_site_type_symbol
_atom_site_label
_atom_site_fract_x
_atom_site_fract_y
_atom_site_fract_z
Si Si1 0.566336 0.092037 0.374791
Si Si2 0.934309 0.923037 0.389143
Si Si3 0.434555 0.665939 0.500659
Si Si4 0.566037 0.667465 0.880080
Si Si5 0.934224 0.835141 0.268570
Si Si6 0.932838 0.047473 0.817642
Si Si7 0.432405 0.396576 0.247394
Si Si8 0.568154 0.477415 0.064131
O O1 0.750000 0.092586 0.373262
O O2 0.517067 0.137761 0.433256
O O3 0.506989 0.121206 0.311022
O O4 0.516284 0.007366 0.382216
O O5 0.750000 0.922090 0.392466
O O6 0.980254 0.876030 0.330445
O O7 0.000324 0.886000 0.448860
O O8 0.250000 0.663098 0.498524
O O9 0.482140 0.750000 0.490886
O O10 0.750000 0.657877 0.884791
O O11 0.527293 0.750000 0.898080
O O12 0.526347 0.654002 0.809609
O O13 0.486248 0.604278 0.918224
O O14 0.750000 0.839346 0.264349
O O15 0.978023 0.750000 0.269960
O O16 0.006265 0.879341 0.213200
O O17 0.750000 0.048197 0.822833
O O18 0.975287 0.978916 0.774010
O O19 0.004247 0.029125 0.882440
O O20 0.250000 0.394108 0.254230
O O21 0.750000 0.481184 0.062896
O O22 0.500000 0.500000 0.000000
#
# Coordination Sequence:
#
# PCOD9450188 Si02
#       8
#     8   8   8   8   8   8   8   8
#     4  10  20  34  53  75 102 138 179 226 276 331
#     4  10  20  35  55  76 100 136 183 227 274 334
#     4  10  22  37  50  70 102 137 175 225 283 335
#     4   9  19  37  59  86 122 156 189 233 281 327
#     4  10  20  34  54  81 111 142 180 229 285 338
#     4  10  20  36  57  82 113 146 184 226 272 329
#     4   9  18  32  53  81 109 141 179 220 268 325
#     4  11  22  38  62  89 119 155 196 235 275 326
#
# _framework density 18.059017000000001
#
# number of rings (size 3 to 8) (size 9 to 14) (size 15 to 20)
#    0.000    2.125    1.250    3.000    0.000    5.250 
#    0.000    0.625    0.000    3.750    0.000    0.000 
#    0.000    0.000    0.000    0.000    0.000    0.000 
#
# Total GULP energy -357329.699796 kJ/mol
# GULP energy per Si atom -5583.276559 kJ/mol
# Density = 1.801791 g / cm^3
# Si number density = 18.059017 Si / 1000 Ang^3
#
#
#
# Elastic Constant Matrix: (Units=GPa)
#
#
# Indices 1 2 3 4 5 6 
#
# 1 25.1103 15.8146 28.7878 0.0000 0.0000 0.0000
# 2 15.8146 46.6352 20.3834 0.0000 0.0000 0.0000
# 3 28.7878 20.3834 125.2862 0.0000 0.0000 0.0000
# 4 0.0000 0.0000 0.0000 18.3496 0.0000 0.0000
# 5 0.0000 0.0000 0.0000 0.0000 32.2975 0.0000
# 6 0.0000 0.0000 0.0000 0.0000 0.0000 20.6146
#
#
#
# Elastic Compliance Matrix: (Units=1/GPa)
#
#
# Indices 1 2 3 4 5 6 
#
# 1 0.063957 -0.016434 -0.012022 0.000000 0.000000 0.000000
# 2 -0.016434 0.027307 -0.000667 0.000000 0.000000 0.000000
# 3 -0.012022 -0.000667 0.010853 0.000000 0.000000 0.000000
# 4 0.000000 0.000000 0.000000 0.054497 0.000000 0.000000
# 5 0.000000 0.000000 0.000000 0.000000 0.030962 0.000000
# 6 0.000000 0.000000 0.000000 0.000000 0.000000 0.048509
#
#
# Mechanical properties :
#
#
# Convention : Reuss Voigt Hill
#
# Bulk Modulus (GPa) = 22.79377 36.33371 29.56374
# Shear Modulus (GPa) = 16.18356 23.05542 19.61949
#
# Velocity S-wave (km/s) = 2.99682 3.57693 3.29965
# Velocity P-wave (km/s) = 4.96224 6.10101 5.56085
#
# Compressibility (1/GPa) = 0.04387164
#
# Stress axis : x y z
#
# Youngs Moduli (GPa) = 15.63539 36.62005 92.14400
#
# Poissons Ratio (x) = 0.60182 1.10777
# Poissons Ratio (y) = 0.25695 0.06142
# Poissons Ratio (z) = 0.18797 0.02441
#
# Static dielectric constant tensor:
#      x y z
#    x 1.610320 0.000000 0.000000 
#    y 0.000000 1.612430 0.000000 
#    z 0.000000 0.000000 1.590850 
# 
# From -- ./inp_files/29385.got.cif
#   From: 2010.05.17/outbox.cif.g08.bks.cpg/sg59_15_cif.got.tgz:29385.got - 2010.06.03 14:40:33.
