data_PCOD9450199
_publ_section_title
;
Structure prediction by ZEFSAII (Michael W. Deem and Ramdas Pophale) SiO2 
 PCOD9450199
Probable space group: P M M N
;
_chemical_formula_sum "Si O2"
_cell_formula_units_Z 56
_cell_length_a 14.380867
_cell_length_b 9.330975
_cell_length_c 18.535108
_cell_angle_alpha 90.000000
_cell_angle_beta 90.000000
_cell_angle_gamma 90.000000
_cell_volume 2487.179999
_symmetry_space_group_name_H-M "P M M N"
_symmetry_group_IT_number 59
_space_group.IT_coordinate_system_code '2'
_symmetry_cell_setting 'orthorhombic'
loop_
_space_group_symop_operation_xyz
x,y,z
1/2-x,1/2-y,z
1/2+x,-y,-z
-x,1/2+y,-z
-x,-y,-z
1/2+x,1/2+y,-z
1/2-x,y,z
x,1/2-y,z
loop_
_atom_site_type_symbol
_atom_site_label
_atom_site_fract_x
_atom_site_fract_y
_atom_site_fract_z
Si Si1 0.363839 0.085260 0.533220
Si Si2 0.637746 0.587497 0.185986
Si Si3 0.136313 0.585381 0.390733
Si Si4 0.364329 0.414273 0.247629
Si Si5 0.405303 0.078327 0.979972
Si Si6 0.354903 0.909165 0.113428
Si Si7 0.363878 0.913787 0.675209
O O1 0.250000 0.085971 0.533061
O O2 0.393918 0.250000 0.527871
O O3 0.393100 0.992652 0.464161
O O4 0.392873 0.011638 0.607926
O O5 0.750000 0.592313 0.190918
O O6 0.603238 0.750000 0.198846
O O7 0.606065 0.481038 0.248644
O O8 0.616784 0.547494 0.103316
O O9 0.250000 0.586936 0.391161
O O10 0.105548 0.750000 0.387230
O O11 0.108485 0.496199 0.320309
O O12 0.250000 0.410020 0.246571
O O13 0.395207 0.250000 0.246635
O O14 0.400134 0.499552 0.177322
O O15 0.403537 0.250000 0.989315
O O16 0.345869 0.000709 0.041024
O O17 0.500000 0.000000 0.000000
O O18 0.250000 0.887359 0.139315
O O19 0.396736 0.750000 0.101742
O O20 0.250000 0.912954 0.674944
O O21 0.394250 0.750000 0.666348
#
# Coordination Sequence:
#
# PCOD9450199 Si02
#       7
#     8   8   8   8   8   8   8
#     4   9  15  22  33  51  80 119 158 193 233 283
#     4   9  18  33  52  72  95 126 163 201 243 293
#     4   9  15  22  33  52  82 119 157 196 238 283
#     4   9  16  26  41  62  89 122 160 199 240 288
#     4  11  23  38  55  75 101 131 164 204 251 302
#     4  10  20  34  53  76 101 130 166 207 250 297
#     4   9  16  25  39  61  88 118 154 196 239 283
#
# _framework density 22.515460000000001
#
# number of rings (size 3 to 8) (size 9 to 14) (size 15 to 20)
#    0.000    2.571    0.000    3.000    0.000    9.429 
#    0.000    1.429    0.000    0.000    0.000    0.000 
#    0.000    1.143    0.000    4.286    0.000    9.714 
#
# Total GULP energy -312887.643411 kJ/mol
# GULP energy per Si atom -5587.279347 kJ/mol
# Density = 2.246421 g / cm^3
# Si number density = 22.515460 Si / 1000 Ang^3
#
#
#
# Elastic Constant Matrix: (Units=GPa)
#
#
# Indices 1 2 3 4 5 6 
#
# 1 44.2108 5.7275 2.5900 0.0000 0.0000 0.0000
# 2 5.7275 229.8208 148.5985 0.0000 0.0000 0.0000
# 3 2.5900 148.5985 207.6893 0.0000 0.0000 0.0000
# 4 0.0000 0.0000 0.0000 42.6129 0.0000 0.0000
# 5 0.0000 0.0000 0.0000 0.0000 13.6641 0.0000
# 6 0.0000 0.0000 0.0000 0.0000 0.0000 3.8666
#
#
#
# Elastic Compliance Matrix: (Units=1/GPa)
#
#
# Indices 1 2 3 4 5 6 
#
# 1 0.022698 -0.000712 0.000226 0.000000 0.000000 0.000000
# 2 -0.000712 0.008119 -0.005800 0.000000 0.000000 0.000000
# 3 0.000226 -0.005800 0.008962 0.000000 0.000000 0.000000
# 4 0.000000 0.000000 0.000000 0.023467 0.000000 0.000000
# 5 0.000000 0.000000 0.000000 0.000000 0.073184 0.000000
# 6 0.000000 0.000000 0.000000 0.000000 0.000000 0.258622
#
#
# Mechanical properties :
#
#
# Convention : Reuss Voigt Hill
#
# Bulk Modulus (GPa) = 36.75478 88.39476 62.57477
# Shear Modulus (GPa) = 11.99919 33.68239 22.84079
#
# Velocity S-wave (km/s) = 2.31103 3.87197 3.18850
# Velocity P-wave (km/s) = 4.84570 7.70288 6.43487
#
# Compressibility (1/GPa) = 0.02720735
#
# Stress axis : x y z
#
# Youngs Moduli (GPa) = 44.05692 123.16102 111.57970
#
# Poissons Ratio (x) = 0.08770 -0.02526
# Poissons Ratio (y) = 0.03137 0.64721
# Poissons Ratio (z) = -0.00998 0.71439
#
# Static dielectric constant tensor:
#      x y z
#    x 1.492580 0.000000 0.000000 
#    y 0.000000 1.844180 0.000000 
#    z 0.000000 0.000000 1.824750 
# 
# From -- ./inp_files/28071.got.cif
#   From: 2010.05.17/outbox.cif.g08.bks.cpg/sg59_15_cif.got.tgz:28071.got - 2010.06.03 14:40:33.
