data_PCOD9450946
_publ_section_title
;
Structure prediction by ZEFSAII (Michael W. Deem and Ramdas Pophale) SiO2 
 PCOD9450946
Probable space group: P M M N
;
_chemical_formula_sum "Si O2"
_cell_formula_units_Z 64
_cell_length_a 14.656148
_cell_length_b 24.393721
_cell_length_c 9.726353
_cell_angle_alpha 90.000000
_cell_angle_beta 90.000000
_cell_angle_gamma 90.000000
_cell_volume 3477.346128
_symmetry_space_group_name_H-M "P M M N"
_symmetry_group_IT_number 59
_space_group.IT_coordinate_system_code '2'
_symmetry_cell_setting 'orthorhombic'
loop_
_space_group_symop_operation_xyz
x,y,z
1/2-x,1/2-y,z
1/2+x,-y,-z
-x,1/2+y,-z
-x,-y,-z
1/2+x,1/2+y,-z
1/2-x,y,z
x,1/2-y,z
loop_
_atom_site_type_symbol
_atom_site_label
_atom_site_fract_x
_atom_site_fract_y
_atom_site_fract_z
Si Si1 0.143703 0.062193 0.198244
Si Si2 0.857522 0.587641 0.115777
Si Si3 0.139598 0.537604 0.394756
Si Si4 0.139204 0.981516 0.712739
Si Si5 0.530153 0.377275 0.214561
Si Si6 0.355757 0.844413 0.282914
Si Si7 0.150203 0.688374 0.588002
Si Si8 0.503361 0.814101 0.062538
O O1 0.250000 0.073427 0.224969
O O2 0.075319 0.109787 0.240679
O O3 0.115789 0.009682 0.287041
O O4 0.132233 0.057944 0.033490
O O5 0.750000 0.600898 0.131767
O O6 0.882652 0.542104 0.229510
O O7 0.917424 0.642996 0.109782
O O8 0.250000 0.540086 0.400568
O O9 0.111676 0.525791 0.552096
O O10 0.110917 0.595398 0.330874
O O11 0.250000 0.974884 0.724608
O O12 0.085975 0.934480 0.797774
O O13 0.574120 0.347187 0.342556
O O14 0.533568 0.339034 0.080887
O O15 0.250000 0.847822 0.235865
O O16 0.357013 0.811243 0.424688
O O17 0.421660 0.819295 0.171119
O O18 0.250000 0.663763 0.620709
O O19 0.146992 0.750000 0.641090
O O20 0.531063 0.750000 0.049896
#
# Coordination Sequence:
#
# PCOD9450946 Si02
#       8
#     8   8   8   8   8   8   8   8
#     4   9  20  36  54  80 113 149 185 227 278 336
#     4   9  21  40  61  82 111 149 190 237 290 340
#     4   9  18  34  55  82 116 148 182 221 275 341
#     4  10  20  35  56  88 120 145 181 229 286 351
#     4  11  22  35  58  83 116 149 187 236 285 336
#     4  10  21  37  57  82 115 152 187 227 277 337
#     4  10  20  37  58  79 109 150 193 231 274 334
#     4  11  25  40  56  82 114 149 198 242 279 329
#
# _framework density 18.40484
#
# number of rings (size 3 to 8) (size 9 to 14) (size 15 to 20)
#    0.000    2.125    1.250    1.125    3.500    4.500 
#    0.000    0.000    0.000    1.125    0.000    0.000 
#    0.000    5.000    0.000    0.000    0.000    0.000 
#
# Total GULP energy -356945.904698 kJ/mol
# GULP energy per Si atom -5577.279761 kJ/mol
# Density = 1.836295 g / cm^3
# Si number density = 18.404840 Si / 1000 Ang^3
#
#
#
# Elastic Constant Matrix: (Units=GPa)
#
#
# Indices 1 2 3 4 5 6 
#
# 1 57.8774 39.4639 30.1879 0.0000 0.0000 0.0000
# 2 39.4639 122.1627 52.5148 0.0000 0.0000 0.0000
# 3 30.1879 52.5148 46.5661 0.0000 0.0000 0.0000
# 4 0.0000 0.0000 0.0000 -6.0457 0.0000 0.0000
# 5 0.0000 0.0000 0.0000 0.0000 24.2665 0.0000
# 6 0.0000 0.0000 0.0000 0.0000 0.0000 19.6089
#
#
#
# Elastic Compliance Matrix: (Units=1/GPa)
#
#
# Indices 1 2 3 4 5 6 
#
# 1 0.026427 -0.002276 -0.014566 0.000000 0.000000 0.000000
# 2 -0.002276 0.016084 -0.016664 0.000000 0.000000 0.000000
# 3 -0.014566 -0.016664 0.049710 0.000000 0.000000 0.000000
# 4 0.000000 0.000000 0.000000 -0.165406 0.000000 0.000000
# 5 0.000000 0.000000 0.000000 0.000000 0.041209 0.000000
# 6 0.000000 0.000000 0.000000 0.000000 0.000000 0.050997
#
#
# Mechanical properties :
#
#
# Convention : Reuss Voigt Hill
#
# Bulk Modulus (GPa) = 39.66528 52.32659 45.99593
# Shear Modulus (GPa) = 52.94689 14.52859 33.73774
#
# Velocity S-wave (km/s) = 5.36939 2.81266 4.28611
# Velocity P-wave (km/s) = 7.74847 6.24825 7.03845
#
# Compressibility (1/GPa) = 0.02521097
#
# Stress axis : x y z
#
# Youngs Moduli (GPa) = 37.84049 62.17262 20.11670
#
# Poissons Ratio (x) = 0.14148 0.29301
# Poissons Ratio (y) = 0.08611 0.33522
# Poissons Ratio (z) = 0.55117 1.03603
#
# Static dielectric constant tensor:
#      x y z
#    x 1.641520 0.000000 0.000000 
#    y 0.000000 1.662860 0.000000 
#    z 0.000000 0.000000 1.629890 
# 
# From -- ./inp_files/9597.got.cif
#   From: 2010.05.17/outbox.cif.g08.bks.cpg/sg59_5_cif.got.tgz:9597.got - 2010.06.03 14:40:33.
