data_PCOD9450331
_publ_section_title
;
Structure prediction by ZEFSAII (Michael W. Deem and Ramdas Pophale) SiO2 
 PCOD9450331
Probable space group: P M M N
;
_chemical_formula_sum "Si O2"
_cell_formula_units_Z 64
_cell_length_a 9.019867
_cell_length_b 14.938388
_cell_length_c 26.583174
_cell_angle_alpha 90.000000
_cell_angle_beta 90.000000
_cell_angle_gamma 90.000000
_cell_volume 3581.877287
_symmetry_space_group_name_H-M "P M M N"
_symmetry_group_IT_number 59
_space_group.IT_coordinate_system_code '2'
_symmetry_cell_setting 'orthorhombic'
loop_
_space_group_symop_operation_xyz
x,y,z
1/2-x,1/2-y,z
1/2+x,-y,-z
-x,1/2+y,-z
-x,-y,-z
1/2+x,1/2+y,-z
1/2-x,y,z
x,1/2-y,z
loop_
_atom_site_type_symbol
_atom_site_label
_atom_site_fract_x
_atom_site_fract_y
_atom_site_fract_z
Si Si1 0.571155 0.644942 0.869705
Si Si2 0.571706 0.006423 0.790043
Si Si3 0.577174 0.352088 0.388148
Si Si4 0.426575 0.504840 0.326242
Si Si5 0.427947 0.505909 0.945345
Si Si6 0.579818 0.851593 0.396553
Si Si7 0.071659 0.145744 0.864552
Si Si8 0.073074 0.902693 0.498238
O O1 0.750000 0.641380 0.876316
O O2 0.529565 0.750000 0.866311
O O3 0.534450 0.584896 0.820430
O O4 0.493543 0.590751 0.914912
O O5 0.750000 0.015789 0.792160
O O6 0.526134 0.002017 0.731944
O O7 0.499824 0.090712 0.818578
O O8 0.750000 0.379086 0.382536
O O9 0.561612 0.250000 0.372037
O O10 0.475945 0.416332 0.355657
O O11 0.542949 0.358982 0.447597
O O12 0.250000 0.514349 0.327930
O O13 0.501198 0.585026 0.356792
O O14 0.250000 0.513116 0.948521
O O15 0.463695 0.415807 0.913248
O O16 0.500000 0.500000 0.000000
O O17 0.750000 0.880779 0.404102
O O18 0.578547 0.750000 0.378305
O O19 0.497626 0.855877 0.450035
O O20 0.250000 0.144944 0.859054
O O21 0.024763 0.250000 0.868063
O O22 0.250000 0.907818 0.491851
O O23 0.000000 0.000000 0.500000
#
# Coordination Sequence:
#
# PCOD9450331 Si02
#       8
#     8   8   8   8   8   8   8   8
#     4   9  18  35  58  80 107 146 187 227 275 328
#     4   9  20  37  56  81 109 139 180 229 279 328
#     4  10  22  39  58  81 111 145 179 219 270 329
#     4  11  23  38  58  83 112 145 181 228 281 331
#     4  10  20  34  53  81 117 151 186 229 272 320
#     4  11  24  40  58  81 110 146 187 228 273 330
#     4   9  19  36  57  80 107 144 187 227 272 325
#     4  11  21  36  60  85 111 144 180 220 272 330
#
# _framework density 17.867726000000001
#
# number of rings (size 3 to 8) (size 9 to 14) (size 15 to 20)
#    0.000    2.000    1.250    1.875    0.000    5.750 
#    0.000    5.000    0.000    0.000    0.000    0.000 
#    0.000    0.000    0.000    0.000    0.000    0.000 
#
# Total GULP energy -357188.230657 kJ/mol
# GULP energy per Si atom -5581.066104 kJ/mol
# Density = 1.782706 g / cm^3
# Si number density = 17.867726 Si / 1000 Ang^3
#
#
#
# Elastic Constant Matrix: (Units=GPa)
#
#
# Indices 1 2 3 4 5 6 
#
# 1 59.1794 50.1631 64.8803 0.0000 0.0000 0.0000
# 2 50.1631 144.1917 69.5196 0.0000 0.0000 0.0000
# 3 64.8803 69.5196 157.4069 0.0000 0.0000 0.0000
# 4 0.0000 0.0000 0.0000 27.0030 0.0000 0.0000
# 5 0.0000 0.0000 0.0000 0.0000 28.1267 0.0000
# 6 0.0000 0.0000 0.0000 0.0000 0.0000 19.9463
#
#
#
# Elastic Compliance Matrix: (Units=1/GPa)
#
#
# Indices 1 2 3 4 5 6 
#
# 1 0.035260 -0.006683 -0.011582 0.000000 0.000000 0.000000
# 2 -0.006683 0.010078 -0.001697 0.000000 0.000000 0.000000
# 3 -0.011582 -0.001697 0.011876 0.000000 0.000000 0.000000
# 4 0.000000 0.000000 0.000000 0.037033 0.000000 0.000000
# 5 0.000000 0.000000 0.000000 0.000000 0.035553 0.000000
# 6 0.000000 0.000000 0.000000 0.000000 0.000000 0.050135
#
#
# Mechanical properties :
#
#
# Convention : Reuss Voigt Hill
#
# Bulk Modulus (GPa) = 57.83120 81.10044 69.46582
# Shear Modulus (GPa) = 22.16098 26.76287 24.46193
#
# Velocity S-wave (km/s) = 3.52558 3.87438 3.70409
# Velocity P-wave (km/s) = 7.00068 8.09335 7.56677
#
# Compressibility (1/GPa) = 0.01729170
#
# Stress axis : x y z
#
# Youngs Moduli (GPa) = 28.36068 99.22613 84.20183
#
# Poissons Ratio (x) = 0.66308 0.97524
# Poissons Ratio (y) = 0.18952 0.14286
# Poissons Ratio (z) = 0.32848 0.16834
#
# Static dielectric constant tensor:
#      x y z
#    x 1.603750 0.000000 0.000000 
#    y 0.000000 1.598450 0.000000 
#    z 0.000000 0.000000 1.595550 
# 
# From -- ./inp_files/31565.got.cif
#   From: 2010.05.17/outbox.cif.g08.bks.cpg/sg59_16_cif.got.tgz:31565.got - 2010.06.03 14:40:33.
