data_PCOD9450090
_publ_section_title
;
Structure prediction by ZEFSAII (Michael W. Deem and Ramdas Pophale) SiO2 
 PCOD9450090
Probable space group: P M M N
;
_chemical_formula_sum "Si O2"
_cell_formula_units_Z 56
_cell_length_a 16.051574
_cell_length_b 14.900787
_cell_length_c 12.911531
_cell_angle_alpha 90.000000
_cell_angle_beta 90.000000
_cell_angle_gamma 90.000000
_cell_volume 3088.193996
_symmetry_space_group_name_H-M "P M M N"
_symmetry_group_IT_number 59
_space_group.IT_coordinate_system_code '2'
_symmetry_cell_setting 'orthorhombic'
loop_
_space_group_symop_operation_xyz
x,y,z
1/2-x,1/2-y,z
1/2+x,-y,-z
-x,1/2+y,-z
-x,-y,-z
1/2+x,1/2+y,-z
1/2-x,y,z
x,1/2-y,z
loop_
_atom_site_type_symbol
_atom_site_label
_atom_site_fract_x
_atom_site_fract_y
_atom_site_fract_z
Si Si1 0.350374 0.145992 0.903830
Si Si2 0.604958 0.851950 0.329186
Si Si3 0.917126 0.149673 0.587266
Si Si4 0.851416 0.852877 0.692928
Si Si5 0.150985 0.650884 0.186149
Si Si6 0.345579 0.020653 0.496115
Si Si7 0.351925 0.463701 0.103562
O O1 0.250000 0.137263 0.891028
O O2 0.366297 0.250000 0.932747
O O3 0.391028 0.128493 0.792573
O O4 0.377749 0.080770 0.995825
O O5 0.638493 0.750000 0.343509
O O6 0.511322 0.852795 0.372072
O O7 0.651424 0.925283 0.397312
O O8 0.899263 0.250000 0.547671
O O9 0.863377 0.134517 0.691764
O O10 0.898228 0.070057 0.508695
O O11 0.750000 0.850550 0.692127
O O12 0.880413 0.750000 0.686791
O O13 0.876626 0.911746 0.593903
O O14 0.876892 0.902226 0.798653
O O15 0.250000 0.654728 0.168324
O O16 0.115058 0.750000 0.162333
O O17 0.118490 0.565265 0.123538
O O18 0.250000 0.996979 0.472135
O O19 0.250000 0.464586 0.104007
#
# Coordination Sequence:
#
# PCOD9450090 Si02
#       7
#     8   8   8   8   8   8   8
#     4   9  17  30  49  71  97 130 166 199 234 291
#     4  10  21  35  50  72 102 136 168 199 245 303
#     4  10  20  34  51  72 100 132 166 207 251 298
#     4   9  16  25  41  69  99 122 148 194 254 300
#     4   9  16  28  48  72  96 124 164 210 251 292
#     4  11  20  32  52  75  99 127 164 210 251 295
#     4   9  15  26  45  71  98 122 156 205 252 290
#
# _framework density 18.133576999999999
#
# number of rings (size 3 to 8) (size 9 to 14) (size 15 to 20)
#    0.000    2.429    1.429    2.143    0.000    4.000 
#    0.000    0.714    0.000    0.857    0.000    2.000 
#    0.000    0.000    0.000    0.000    0.000    0.000 
#
# Total GULP energy -312325.697368 kJ/mol
# GULP energy per Si atom -5577.244596 kJ/mol
# Density = 1.809230 g / cm^3
# Si number density = 18.133577 Si / 1000 Ang^3
#
#
#
# Elastic Constant Matrix: (Units=GPa)
#
#
# Indices 1 2 3 4 5 6 
#
# 1 13.6381 12.0630 -0.3786 0.0000 0.0000 0.0000
# 2 12.0630 127.1096 48.0258 0.0000 0.0000 0.0000
# 3 -0.3786 48.0258 60.4123 0.0000 0.0000 0.0000
# 4 0.0000 0.0000 0.0000 23.5561 0.0000 0.0000
# 5 0.0000 0.0000 0.0000 0.0000 7.1451 0.0000
# 6 0.0000 0.0000 0.0000 0.0000 0.0000 11.1963
#
#
#
# Elastic Compliance Matrix: (Units=1/GPa)
#
#
# Indices 1 2 3 4 5 6 
#
# 1 0.083915 -0.011667 0.009801 0.000000 0.000000 0.000000
# 2 -0.011667 0.012867 -0.010302 0.000000 0.000000 0.000000
# 3 0.009801 -0.010302 0.024804 0.000000 0.000000 0.000000
# 4 0.000000 0.000000 0.000000 0.042452 0.000000 0.000000
# 5 0.000000 0.000000 0.000000 0.000000 0.139955 0.000000
# 6 0.000000 0.000000 0.000000 0.000000 0.000000 0.089315
#
#
# Mechanical properties :
#
#
# Convention : Reuss Voigt Hill
#
# Bulk Modulus (GPa) = 10.28278 35.62004 22.95141
# Shear Modulus (GPa) = 11.10962 17.80950 14.45956
#
# Velocity S-wave (km/s) = 2.47787 3.13729 2.82688
# Velocity P-wave (km/s) = 3.72416 5.72794 4.83108
#
# Compressibility (1/GPa) = 0.09724996
#
# Stress axis : x y z
#
# Youngs Moduli (GPa) = 11.91681 77.71984 40.31626
#
# Poissons Ratio (x) = 0.90673 -0.39512
# Poissons Ratio (y) = 0.13903 0.41533
# Poissons Ratio (z) = -0.11679 0.80065
#
# Static dielectric constant tensor:
#      x y z
#    x 1.649770 0.000000 0.000000 
#    y 0.000000 1.645090 0.000000 
#    z 0.000000 0.000000 1.597730 
# 
# From -- ./inp_files/16921.got.cif
#   From: 2010.05.17/outbox.cif.g08.bks.cpg/sg59_9_cif.got.tgz:16921.got - 2010.06.03 14:40:33.
