data_PCOD9450402
_publ_section_title
;
Structure prediction by ZEFSAII (Michael W. Deem and Ramdas Pophale) SiO2 
 PCOD9450402
Probable space group: P M M N
;
_chemical_formula_sum "Si O2"
_cell_formula_units_Z 56
_cell_length_a 18.713963
_cell_length_b 8.010554
_cell_length_c 18.547636
_cell_angle_alpha 90.000000
_cell_angle_beta 90.000000
_cell_angle_gamma 90.000000
_cell_volume 2780.461482
_symmetry_space_group_name_H-M "P M M N"
_symmetry_group_IT_number 59
_space_group.IT_coordinate_system_code '2'
_symmetry_cell_setting 'orthorhombic'
loop_
_space_group_symop_operation_xyz
x,y,z
1/2-x,1/2-y,z
1/2+x,-y,-z
-x,1/2+y,-z
-x,-y,-z
1/2+x,1/2+y,-z
1/2-x,y,z
x,1/2-y,z
loop_
_atom_site_type_symbol
_atom_site_label
_atom_site_fract_x
_atom_site_fract_y
_atom_site_fract_z
Si Si1 0.578444 0.954719 0.354196
Si Si2 0.585705 0.050662 0.076393
Si Si3 0.922122 0.951154 0.916839
Si Si4 0.669177 0.549832 0.217327
Si Si5 0.668519 0.951599 0.780582
Si Si6 0.831465 0.950681 0.492810
Si Si7 0.414775 0.550507 0.363380
O O1 0.577628 0.750000 0.353958
O O2 0.616866 0.011200 0.280733
O O3 0.624598 0.009764 0.423088
O O4 0.496573 0.011609 0.360210
O O5 0.584218 0.250000 0.079567
O O6 0.504198 0.987509 0.088393
O O7 0.636690 0.988108 0.139340
O O8 0.606613 0.998794 0.995588
O O9 0.924142 0.750000 0.913270
O O10 0.874536 0.012978 0.850652
O O11 0.750000 0.484705 0.224876
O O12 0.672476 0.750000 0.225015
O O13 0.750000 0.012990 0.779311
O O14 0.670747 0.750000 0.784628
O O15 0.627384 0.997559 0.707960
O O16 0.750000 0.014668 0.494478
O O17 0.827621 0.750000 0.487170
O O18 0.873590 0.991303 0.565607
O O19 0.417183 0.750000 0.365566
#
# Coordination Sequence:
#
# PCOD9450402 Si02
#       7
#     8   8   8   8   8   8   8
#     4   9  19  36  57  80 104 136 180 221 258 306
#     4  10  20  34  54  80 110 141 173 216 268 319
#     4   9  19  36  56  78 105 140 182 221 259 310
#     4  10  20  35  56  79 104 137 178 222 265 313
#     4  10  21  37  56  77 103 138 180 221 259 305
#     4  10  20  36  58  80 105 139 178 218 258 305
#     4  11  22  35  54  80 110 140 171 214 266 317
#
# _framework density 20.140542
#
# number of rings (size 3 to 8) (size 9 to 14) (size 15 to 20)
#    0.000    2.143    0.000    3.000    0.000    6.000 
#    0.000    3.571    0.000    1.714    0.000    0.000 
#    0.000    0.000    0.000    0.000    0.000    0.000 
#
# Total GULP energy -312843.266565 kJ/mol
# GULP energy per Si atom -5586.486903 kJ/mol
# Density = 2.009470 g / cm^3
# Si number density = 20.140542 Si / 1000 Ang^3
#
#
#
# Elastic Constant Matrix: (Units=GPa)
#
#
# Indices 1 2 3 4 5 6 
#
# 1 121.4300 -0.4675 60.2886 0.0000 0.0000 0.0000
# 2 -0.4675 10.9815 -9.0615 0.0000 0.0000 0.0000
# 3 60.2886 -9.0615 129.1681 0.0000 0.0000 0.0000
# 4 0.0000 0.0000 0.0000 -1.6415 0.0000 0.0000
# 5 0.0000 0.0000 0.0000 0.0000 106.0901 0.0000
# 6 0.0000 0.0000 0.0000 0.0000 0.0000 16.5440
#
#
#
# Elastic Compliance Matrix: (Units=1/GPa)
#
#
# Indices 1 2 3 4 5 6 
#
# 1 0.010879 -0.003956 -0.005355 0.000000 0.000000 0.000000
# 2 -0.003956 0.098096 0.008728 0.000000 0.000000 0.000000
# 3 -0.005355 0.008728 0.010854 0.000000 0.000000 0.000000
# 4 0.000000 0.000000 0.000000 -0.609185 0.000000 0.000000
# 5 0.000000 0.000000 0.000000 0.000000 0.009426 0.000000
# 6 0.000000 0.000000 0.000000 0.000000 0.000000 0.060445
#
#
# Mechanical properties :
#
#
# Convention : Reuss Voigt Hill
#
# Bulk Modulus (GPa) = 8.42728 40.34431 24.38580
# Shear Modulus (GPa) = -13.20075 38.25317 12.52621
#
# Velocity S-wave (km/s) = -2.56292 4.36284 2.49658
# Velocity P-wave (km/s) = 2.13653 6.74196 4.52157
#
# Compressibility (1/GPa) = 0.11866222
#
# Stress axis : x y z
#
# Youngs Moduli (GPa) = 91.92267 10.19414 92.13535
#
# Poissons Ratio (x) = 0.04032 0.49339
# Poissons Ratio (y) = 0.36361 -0.80415
# Poissons Ratio (z) = 0.49225 -0.08897
#
# Static dielectric constant tensor:
#      x y z
#    x 1.709400 0.000000 0.000000 
#    y 0.000000 1.727030 0.000000 
#    z 0.000000 0.000000 1.668350 
# 
# From -- ./inp_files/24310.got.cif
#   From: 2010.05.17/outbox.cif.g08.bks.cpg/sg59_13_cif.got.tgz:24310.got - 2010.06.03 14:40:33.
