data_PCOD9450755
_publ_section_title
;
Structure prediction by ZEFSAII (Michael W. Deem and Ramdas Pophale) SiO2 
 PCOD9450755
Probable space group: P M M N
;
_chemical_formula_sum "Si O2"
_cell_formula_units_Z 48
_cell_length_a 9.064879
_cell_length_b 16.293397
_cell_length_c 18.442428
_cell_angle_alpha 90.000000
_cell_angle_beta 90.000000
_cell_angle_gamma 90.000000
_cell_volume 2723.903687
_symmetry_space_group_name_H-M "P M M N"
_symmetry_group_IT_number 59
_space_group.IT_coordinate_system_code '2'
_symmetry_cell_setting 'orthorhombic'
loop_
_space_group_symop_operation_xyz
x,y,z
1/2-x,1/2-y,z
1/2+x,-y,-z
-x,1/2+y,-z
-x,-y,-z
1/2+x,1/2+y,-z
1/2-x,y,z
x,1/2-y,z
loop_
_atom_site_type_symbol
_atom_site_label
_atom_site_fract_x
_atom_site_fract_y
_atom_site_fract_z
Si Si1 0.073602 0.986727 0.577367
Si Si2 0.573484 0.250000 0.781031
Si Si3 0.425296 0.089778 0.717408
Si Si4 0.077091 0.154854 0.333799
Si Si5 0.074599 0.579116 0.799882
Si Si6 0.070583 0.750000 0.050568
Si Si7 0.427859 0.582859 0.969448
O O1 0.250000 0.984298 0.570963
O O2 0.014273 0.903145 0.612877
O O3 0.036626 0.056752 0.637062
O O4 0.000000 0.000000 0.500000
O O5 0.750000 0.250000 0.779730
O O6 0.512520 0.169218 0.742031
O O7 0.525016 0.250000 0.865423
O O8 0.250000 0.106431 0.719154
O O9 0.453788 0.013671 0.772022
O O10 0.250000 0.133506 0.337735
O O11 0.059357 0.250000 0.351856
O O12 0.016702 0.137187 0.253269
O O13 0.250000 0.594294 0.789723
O O14 0.038668 0.589585 0.883969
O O15 0.250000 0.750000 0.048295
O O16 0.023509 0.834161 0.010888
O O17 0.250000 0.576324 0.976757
O O18 0.500000 0.500000 0.000000
#
# Coordination Sequence:
#
# PCOD9450755 Si02
#       7
#     8   4   8   8   8   4   8
#     4  10  21  39  62  86 114 146 180 222 274 331
#     4  11  21  33  53  79 106 143 192 231 267 324
#     4   9  19  36  55  79 108 142 180 224 275 322
#     4  10  21  36  56  84 115 148 183 224 275 327
#     4   9  19  34  56  80 105 144 191 231 279 338
#     4   9  20  35  51  77 112 147 184 231 287 334
#     4  10  20  35  54  78 109 147 188 234 290 343
#
# _framework density 17.621769
#
# number of rings (size 3 to 8) (size 9 to 14) (size 15 to 20)
#    0.000    2.333    0.000    3.250    1.167    5.333 
#    1.500    1.250    0.000    0.000    0.000    0.000 
#    0.000    0.000    0.000    0.000    0.000    0.000 
#
# Total GULP energy -267897.314215 kJ/mol
# GULP energy per Si atom -5581.194046 kJ/mol
# Density = 1.758166 g / cm^3
# Si number density = 17.621769 Si / 1000 Ang^3
#
#
#
# Elastic Constant Matrix: (Units=GPa)
#
#
# Indices 1 2 3 4 5 6 
#
# 1 47.8294 53.5074 64.8044 0.0000 0.0000 0.0000
# 2 53.5074 114.6572 84.7708 0.0000 0.0000 0.0000
# 3 64.8044 84.7708 162.3956 0.0000 0.0000 0.0000
# 4 0.0000 0.0000 0.0000 10.5311 0.0000 0.0000
# 5 0.0000 0.0000 0.0000 0.0000 27.8895 0.0000
# 6 0.0000 0.0000 0.0000 0.0000 0.0000 31.8919
#
#
#
# Elastic Compliance Matrix: (Units=1/GPa)
#
#
# Indices 1 2 3 4 5 6 
#
# 1 0.060722 -0.016972 -0.015372 0.000000 0.000000 0.000000
# 2 -0.016972 0.018947 -0.003118 0.000000 0.000000 0.000000
# 3 -0.015372 -0.003118 0.013919 0.000000 0.000000 0.000000
# 4 0.000000 0.000000 0.000000 0.094957 0.000000 0.000000
# 5 0.000000 0.000000 0.000000 0.000000 0.035856 0.000000
# 6 0.000000 0.000000 0.000000 0.000000 0.000000 0.031356
#
#
# Mechanical properties :
#
#
# Convention : Reuss Voigt Hill
#
# Bulk Modulus (GPa) = 44.12050 81.22748 62.67399
# Shear Modulus (GPa) = 14.95950 22.18246 18.57098
#
# Velocity S-wave (km/s) = 2.91679 3.55182 3.24985
# Velocity P-wave (km/s) = 6.03617 7.93824 7.05163
#
# Compressibility (1/GPa) = 0.02266520
#
# Stress axis : x y z
#
# Youngs Moduli (GPa) = 16.46849 52.77835 71.84284
#
# Poissons Ratio (x) = 0.89578 1.10434
# Poissons Ratio (y) = 0.27951 0.22397
# Poissons Ratio (z) = 0.25315 0.16454
#
# Static dielectric constant tensor:
#      x y z
#    x 1.594930 0.000000 0.000000 
#    y 0.000000 1.579220 0.000000 
#    z 0.000000 0.000000 1.588230 
# 
# From -- ./inp_files/25597.got.cif
#   From: 2010.05.17/outbox.cif.g08.bks.cpg/sg59_13_cif.got.tgz:25597.got - 2010.06.03 14:40:33.
