data_PCOD9450636
_publ_section_title
;
Structure prediction by ZEFSAII (Michael W. Deem and Ramdas Pophale) SiO2 
 PCOD9450636
Probable space group: P M M N
;
_chemical_formula_sum "Si O2"
_cell_formula_units_Z 64
_cell_length_a 8.686261
_cell_length_b 18.933080
_cell_length_c 21.689390
_cell_angle_alpha 90.000000
_cell_angle_beta 90.000000
_cell_angle_gamma 90.000000
_cell_volume 3566.986639
_symmetry_space_group_name_H-M "P M M N"
_symmetry_group_IT_number 59
_space_group.IT_coordinate_system_code '2'
_symmetry_cell_setting 'orthorhombic'
loop_
_space_group_symop_operation_xyz
x,y,z
1/2-x,1/2-y,z
1/2+x,-y,-z
-x,1/2+y,-z
-x,-y,-z
1/2+x,1/2+y,-z
1/2-x,y,z
x,1/2-y,z
loop_
_atom_site_type_symbol
_atom_site_label
_atom_site_fract_x
_atom_site_fract_y
_atom_site_fract_z
Si Si1 0.434869 0.421028 0.498460
Si Si2 0.933099 0.035607 0.811950
Si Si3 0.565094 0.401441 0.253052
Si Si4 0.064950 0.528849 0.936308
Si Si5 0.936882 0.328523 0.124761
Si Si6 0.567707 0.166925 0.611489
Si Si7 0.936051 0.667606 0.622873
Si Si8 0.566233 0.668225 0.253324
O O1 0.500000 0.500000 0.500000
O O2 0.250000 0.423422 0.499575
O O3 0.496094 0.379447 0.557737
O O4 0.482256 0.377847 0.437036
O O5 0.750000 0.030105 0.814957
O O6 0.984775 0.112856 0.791019
O O7 0.996731 0.978225 0.762828
O O8 0.005296 0.015339 0.877792
O O9 0.750000 0.406376 0.254983
O O10 0.521721 0.352911 0.194030
O O11 0.503549 0.367635 0.315670
O O12 0.250000 0.526684 0.937135
O O13 0.014946 0.609577 0.921646
O O14 0.000000 0.500000 0.000000
O O15 0.750000 0.326848 0.123164
O O16 0.994321 0.250000 0.111316
O O17 0.750000 0.153546 0.616900
O O18 0.545401 0.250000 0.597284
O O19 0.488028 0.153001 0.676965
O O20 0.750000 0.666052 0.626519
O O21 0.983048 0.750000 0.617608
O O22 0.750000 0.660548 0.249103
O O23 0.526144 0.750000 0.240154
#
# Coordination Sequence:
#
# PCOD9450636 Si02
#       8
#     8   8   8   8   8   8   8   8
#     4  11  24  40  57  78 109 148 192 240 289 342
#     4  11  22  37  59  85 117 153 189 233 282 334
#     4  10  20  34  56  85 115 147 185 229 282 342
#     4  10  20  36  58  84 116 154 195 236 283 337
#     4   8  15  30  53  81 110 141 182 231 277 324
#     4  10  21  38  60  84 110 143 185 233 288 351
#     4  10  22  39  57  79 110 147 186 232 288 344
#     4  10  21  38  61  87 114 146 187 237 291 343
#
# _framework density 17.942315000000001
#
# number of rings (size 3 to 8) (size 9 to 14) (size 15 to 20)
#    0.000    2.000    0.000    4.500    1.750    3.750 
#    0.000    0.625    0.000    9.750    0.000    0.000 
#    0.000    0.000    0.000    0.000    0.000    0.000 
#
# Total GULP energy -357428.355910 kJ/mol
# GULP energy per Si atom -5584.818061 kJ/mol
# Density = 1.790148 g / cm^3
# Si number density = 17.942315 Si / 1000 Ang^3
#
#
#
# Elastic Constant Matrix: (Units=GPa)
#
#
# Indices 1 2 3 4 5 6 
#
# 1 62.8988 52.4226 40.5946 0.0000 0.0000 0.0000
# 2 52.4226 135.8642 97.3282 0.0000 0.0000 0.0000
# 3 40.5946 97.3282 104.8536 0.0000 0.0000 0.0000
# 4 0.0000 0.0000 0.0000 24.1688 0.0000 0.0000
# 5 0.0000 0.0000 0.0000 0.0000 33.5172 0.0000
# 6 0.0000 0.0000 0.0000 0.0000 0.0000 27.3197
#
#
#
# Elastic Compliance Matrix: (Units=1/GPa)
#
#
# Indices 1 2 3 4 5 6 
#
# 1 0.023580 -0.007636 -0.002041 0.000000 0.000000 0.000000
# 2 -0.007636 0.024441 -0.019730 0.000000 0.000000 0.000000
# 3 -0.002041 -0.019730 0.028641 0.000000 0.000000 0.000000
# 4 0.000000 0.000000 0.000000 0.041376 0.000000 0.000000
# 5 0.000000 0.000000 0.000000 0.000000 0.029835 0.000000
# 6 0.000000 0.000000 0.000000 0.000000 0.000000 0.036604
#
#
# Mechanical properties :
#
#
# Convention : Reuss Voigt Hill
#
# Bulk Modulus (GPa) = 56.03040 76.03417 66.03228
# Shear Modulus (GPa) = 20.06095 24.55256 22.30675
#
# Velocity S-wave (km/s) = 3.34740 3.70322 3.52980
# Velocity P-wave (km/s) = 6.79970 7.79450 7.31403
#
# Compressibility (1/GPa) = 0.01784745
#
# Stress axis : x y z
#
# Youngs Moduli (GPa) = 42.40857 40.91563 34.91455
#
# Poissons Ratio (x) = 0.31244 0.07126
# Poissons Ratio (y) = 0.32384 0.68887
# Poissons Ratio (z) = 0.08656 0.80727
#
# Static dielectric constant tensor:
#      x y z
#    x 1.603280 0.000000 0.000000 
#    y 0.000000 1.619850 0.000000 
#    z 0.000000 0.000000 1.577630 
# 
# From -- ./inp_files/29483.got.cif
#   From: 2010.05.17/outbox.cif.g08.bks.cpg/sg59_15_cif.got.tgz:29483.got - 2010.06.03 14:40:33.
