data_PCOD9450600
_publ_section_title
;
Structure prediction by ZEFSAII (Michael W. Deem and Ramdas Pophale) SiO2 
 PCOD9450600
Probable space group: P M M N
;
_chemical_formula_sum "Si O2"
_cell_formula_units_Z 64
_cell_length_a 13.755765
_cell_length_b 20.021423
_cell_length_c 10.184196
_cell_angle_alpha 90.000000
_cell_angle_beta 90.000000
_cell_angle_gamma 90.000000
_cell_volume 2804.829316
_symmetry_space_group_name_H-M "P M M N"
_symmetry_group_IT_number 59
_space_group.IT_coordinate_system_code '2'
_symmetry_cell_setting 'orthorhombic'
loop_
_space_group_symop_operation_xyz
x,y,z
1/2-x,1/2-y,z
1/2+x,-y,-z
-x,1/2+y,-z
-x,-y,-z
1/2+x,1/2+y,-z
1/2-x,y,z
x,1/2-y,z
loop_
_atom_site_type_symbol
_atom_site_label
_atom_site_fract_x
_atom_site_fract_y
_atom_site_fract_z
Si Si1 0.632752 0.546324 0.086214
Si Si2 0.136019 0.994832 0.631084
Si Si3 0.991369 0.674577 0.048925
Si Si4 0.434630 0.853768 0.559431
Si Si5 0.133406 0.003717 0.199384
Si Si6 0.862203 0.888414 0.580545
Si Si7 0.855732 0.172265 0.157225
Si Si8 0.364614 0.854798 0.276643
O O1 0.750000 0.549111 0.089471
O O2 0.603177 0.509005 0.220186
O O3 0.590563 0.621127 0.083612
O O4 0.601734 0.511246 0.950683
O O5 0.250000 0.974374 0.631872
O O6 0.132217 0.061381 0.543809
O O7 0.077675 0.934332 0.567559
O O8 0.955491 0.750000 0.020613
O O9 0.067964 0.677985 0.167885
O O10 0.054576 0.646163 0.927026
O O11 0.548982 0.837501 0.565949
O O12 0.379173 0.830372 0.689238
O O13 0.388098 0.831651 0.423314
O O14 0.250000 0.001539 0.194631
O O15 0.107420 0.933394 0.264491
O O16 0.113576 0.067135 0.290912
O O17 0.750000 0.864556 0.589772
O O18 0.750000 0.140604 0.129274
O O19 0.850027 0.250000 0.118648
O O20 0.250000 0.846515 0.249048
#
# Coordination Sequence:
#
# PCOD9450600 Si02
#       8
#     8   8   8   8   8   8   8   8
#     4  10  22  39  61  91 123 156 200 250 300 359
#     4  10  20  34  55  88 124 154 191 240 299 361
#     4  11  25  43  62  85 116 163 212 250 300 356
#     4  12  22  36  63  91 120 162 201 238 296 365
#     4   9  19  35  54  85 124 156 189 237 298 359
#     4  10  20  35  54  82 124 162 192 233 291 354
#     4  10  23  43  63  86 118 155 201 255 301 347
#     4  11  23  38  59  90 126 157 196 249 302 366
#
# _framework density 22.817788
#
# number of rings (size 3 to 8) (size 9 to 14) (size 15 to 20)
#    0.000    1.625    1.250    3.375    3.500    2.000 
#    0.000    0.000    0.000    1.125    0.000    0.000 
#    0.000    0.000    0.000    0.000    0.000    0.000 
#
# Total GULP energy -358028.644606 kJ/mol
# GULP energy per Si atom -5594.197572 kJ/mol
# Density = 2.276585 g / cm^3
# Si number density = 22.817788 Si / 1000 Ang^3
#
#
#
# Elastic Constant Matrix: (Units=GPa)
#
#
# Indices 1 2 3 4 5 6 
#
# 1 83.7809 10.8985 9.0510 0.0000 0.0000 0.0000
# 2 10.8985 50.4425 5.8078 0.0000 0.0000 0.0000
# 3 9.0510 5.8078 142.7814 0.0000 0.0000 0.0000
# 4 0.0000 0.0000 0.0000 -260.0947 0.0000 0.0000
# 5 0.0000 0.0000 0.0000 0.0000 34.0108 0.0000
# 6 0.0000 0.0000 0.0000 0.0000 0.0000 -162.7057
#
#
#
# Elastic Compliance Matrix: (Units=1/GPa)
#
#
# Indices 1 2 3 4 5 6 
#
# 1 0.012346 -0.002589 -0.000677 0.000000 0.000000 0.000000
# 2 -0.002589 0.020461 -0.000668 0.000000 0.000000 0.000000
# 3 -0.000677 -0.000668 0.007074 0.000000 0.000000 0.000000
# 4 0.000000 0.000000 0.000000 -0.003845 0.000000 0.000000
# 5 0.000000 0.000000 0.000000 0.000000 0.029402 0.000000
# 6 0.000000 0.000000 0.000000 0.000000 0.000000 -0.006146
#
#
# Mechanical properties :
#
#
# Convention : Reuss Voigt Hill
#
# Bulk Modulus (GPa) = 31.23932 36.50218 33.87075
# Shear Modulus (GPa) = 64.24067 -61.00808 1.61630
#
# Velocity S-wave (km/s) = 5.31177 -5.17640 0.84255
# Velocity P-wave (km/s) = 7.16522 4.43789 3.97778
#
# Compressibility (1/GPa) = 0.03201094
#
# Stress axis : x y z
#
# Youngs Moduli (GPa) = 80.99850 48.87360 141.36628
#
# Poissons Ratio (x) = 0.12656 0.09575
# Poissons Ratio (y) = 0.20974 0.09445
# Poissons Ratio (z) = 0.05486 0.03265
#
# Static dielectric constant tensor:
#      x y z
#    x 1.869200 0.000000 0.000000 
#    y 0.000000 1.858240 0.000000 
#    z 0.000000 0.000000 1.831120 
# 
# From -- ./inp_files/9610.got.cif
#   From: 2010.05.17/outbox.cif.g08.bks.cpg/sg59_5_cif.got.tgz:9610.got - 2010.06.03 14:40:33.
