data_PCOD9450764
_publ_section_title
;
Structure prediction by ZEFSAII (Michael W. Deem and Ramdas Pophale) SiO2 
 PCOD9450764
Probable space group: P M M N
;
_chemical_formula_sum "Si O2"
_cell_formula_units_Z 32
_cell_length_a 17.915777
_cell_length_b 9.002442
_cell_length_c 11.655022
_cell_angle_alpha 90.000000
_cell_angle_beta 90.000000
_cell_angle_gamma 90.000000
_cell_volume 1879.788887
_symmetry_space_group_name_H-M "P M M N"
_symmetry_group_IT_number 59
_space_group.IT_coordinate_system_code '2'
_symmetry_cell_setting 'orthorhombic'
loop_
_space_group_symop_operation_xyz
x,y,z
1/2-x,1/2-y,z
1/2+x,-y,-z
-x,1/2+y,-z
-x,-y,-z
1/2+x,1/2+y,-z
1/2-x,y,z
x,1/2-y,z
loop_
_atom_site_type_symbol
_atom_site_label
_atom_site_fract_x
_atom_site_fract_y
_atom_site_fract_z
Si Si1 0.334311 0.073679 0.828953
Si Si2 0.750000 0.571074 0.694214
Si Si3 0.952081 0.425685 0.335080
Si Si4 0.602253 0.426186 0.594420
Si Si5 0.250000 0.070187 0.042930
O O1 0.250000 0.051909 0.778803
O O2 0.350205 0.250000 0.823436
O O3 0.396339 0.984414 0.761819
O O4 0.320664 0.029002 0.962350
O O5 0.750000 0.750000 0.691733
O O6 0.676485 0.508938 0.633490
O O7 0.750000 0.519041 0.827421
O O8 0.965030 0.250000 0.323590
O O9 0.914356 0.452474 0.459612
O O10 0.030640 0.510814 0.337975
O O11 0.609403 0.250000 0.612010
O O12 0.250000 0.250000 0.044801
#
# Coordination Sequence:
#
# PCOD9450764 Si02
#       5
#     8   4   8   8   4
#     4   8  16  32  55  78 103 136 171 212 261 306
#     4  11  21  36  57  78 104 139 178 213 256 311
#     4  10  20  35  54  80 108 135 174 218 259 305
#     4  10  22  37  53  76 110 142 171 212 261 313
#     4   7  16  34  53  76 104 137 176 217 254 303
#
# _framework density 17.023187
#
# number of rings (size 3 to 8) (size 9 to 14) (size 15 to 20)
#    0.750    2.000    0.000    1.875    1.750    3.500 
#    0.000    3.750    0.000    0.000    0.000    0.000 
#    0.000    0.000    0.000    0.000    0.000    0.000 
#
# Total GULP energy -178186.015652 kJ/mol
# GULP energy per Si atom -5568.312989 kJ/mol
# Density = 1.698444 g / cm^3
# Si number density = 17.023187 Si / 1000 Ang^3
#
#
#
# Elastic Constant Matrix: (Units=GPa)
#
#
# Indices 1 2 3 4 5 6 
#
# 1 125.2810 63.8154 56.6914 0.0000 0.0000 0.0000
# 2 63.8154 64.4194 46.0397 0.0000 0.0000 0.0000
# 3 56.6914 46.0397 52.5109 0.0000 0.0000 0.0000
# 4 0.0000 0.0000 0.0000 21.2322 0.0000 0.0000
# 5 0.0000 0.0000 0.0000 0.0000 -46.2243 0.0000
# 6 0.0000 0.0000 0.0000 0.0000 0.0000 28.7104
#
#
#
# Elastic Compliance Matrix: (Units=1/GPa)
#
#
# Indices 1 2 3 4 5 6 
#
# 1 0.017922 -0.010513 -0.010131 0.000000 0.000000 0.000000
# 2 -0.010513 0.047742 -0.030508 0.000000 0.000000 0.000000
# 3 -0.010131 -0.030508 0.056729 0.000000 0.000000 0.000000
# 4 0.000000 0.000000 0.000000 0.047098 0.000000 0.000000
# 5 0.000000 0.000000 0.000000 0.000000 -0.021634 0.000000
# 6 0.000000 0.000000 0.000000 0.000000 0.000000 0.034831
#
#
# Mechanical properties :
#
#
# Convention : Reuss Voigt Hill
#
# Bulk Modulus (GPa) = 49.77953 63.92268 56.85111
# Shear Modulus (GPa) = 17.14166 5.78798 11.46482
#
# Velocity S-wave (km/s) = 3.17671 1.84592 2.59797
# Velocity P-wave (km/s) = 6.53919 6.49424 6.51675
#
# Compressibility (1/GPa) = 0.02008858
#
# Stress axis : x y z
#
# Youngs Moduli (GPa) = 55.79879 20.94610 17.62767
#
# Poissons Ratio (x) = 0.22021 0.17858
# Poissons Ratio (y) = 0.58663 0.53778
# Poissons Ratio (z) = 0.56528 0.63902
#
# Static dielectric constant tensor:
#      x y z
#    x 1.550770 0.000000 0.000000 
#    y 0.000000 1.562430 0.000000 
#    z 0.000000 0.000000 1.585100 
# 
# From -- ./inp_files/17427.got.cif
#   From: 2010.05.17/outbox.cif.g08.bks.cpg/sg59_9_cif.got.tgz:17427.got - 2010.06.03 14:40:33.
