data_PCOD9450274
_publ_section_title
;
Structure prediction by ZEFSAII (Michael W. Deem and Ramdas Pophale) SiO2 
 PCOD9450274
Probable space group: P M M N
;
_chemical_formula_sum "Si O2"
_cell_formula_units_Z 48
_cell_length_a 15.404839
_cell_length_b 15.379057
_cell_length_c 11.148917
_cell_angle_alpha 90.000000
_cell_angle_beta 90.000000
_cell_angle_gamma 90.000000
_cell_volume 2641.311077
_symmetry_space_group_name_H-M "P M M N"
_symmetry_group_IT_number 59
_space_group.IT_coordinate_system_code '2'
_symmetry_cell_setting 'orthorhombic'
loop_
_space_group_symop_operation_xyz
x,y,z
1/2-x,1/2-y,z
1/2+x,-y,-z
-x,1/2+y,-z
-x,-y,-z
1/2+x,1/2+y,-z
1/2-x,y,z
x,1/2-y,z
loop_
_atom_site_type_symbol
_atom_site_label
_atom_site_fract_x
_atom_site_fract_y
_atom_site_fract_z
Si Si1 0.844221 0.649360 0.980387
Si Si2 0.847436 0.561913 0.207437
Si Si3 0.487428 0.348184 0.200495
Si Si4 0.645765 0.354291 0.769777
Si Si5 0.150203 0.889355 0.949412
Si Si6 0.488453 0.983882 0.359451
O O1 0.750000 0.608961 0.952382
O O2 0.839398 0.750000 0.947789
O O3 0.923049 0.616008 0.902573
O O4 0.858590 0.644393 0.122234
O O5 0.750000 0.558377 0.257928
O O6 0.853692 0.486587 0.105148
O O7 0.922022 0.552376 0.303199
O O8 0.465793 0.250000 0.240385
O O9 0.580912 0.344018 0.136499
O O10 0.479989 0.420091 0.302207
O O11 0.750000 0.366898 0.750418
O O12 0.628020 0.250000 0.753854
O O13 0.587609 0.417749 0.685651
O O14 0.627784 0.378533 0.910162
O O15 0.250000 0.859144 0.936270
O O16 0.500000 0.000000 0.500000
#
# Coordination Sequence:
#
# PCOD9450274 Si02
#       6
#     8   8   8   8   8   8
#     4   9  17  30  51  79 106 129 158 207 274 340
#     4   9  18  33  52  76 106 139 176 219 271 327
#     4  10  20  34  53  78 107 139 176 219 271 327
#     4  10  21  37  59  86 112 139 174 220 276 331
#     4   9  17  31  54  83 111 136 167 217 281 340
#     4  11  24  38  53  74 105 149 193 230 260 300
#
# _framework density 18.172792999999999
#
# number of rings (size 3 to 8) (size 9 to 14) (size 15 to 20)
#    0.000    2.333    0.000    2.500    0.000    9.000 
#    0.000    0.000    0.000    0.000    0.000    2.333 
#    0.000    0.000    0.000    0.000    0.000    0.000 
#
# Total GULP energy -267215.967622 kJ/mol
# GULP energy per Si atom -5566.999325 kJ/mol
# Density = 1.813143 g / cm^3
# Si number density = 18.172793 Si / 1000 Ang^3
#
#
#
# Elastic Constant Matrix: (Units=GPa)
#
#
# Indices 1 2 3 4 5 6 
#
# 1 98.8212 55.5367 74.0062 0.0000 0.0000 0.0000
# 2 55.5367 83.1764 51.9131 0.0000 0.0000 0.0000
# 3 74.0062 51.9131 118.1580 0.0000 0.0000 0.0000
# 4 0.0000 0.0000 0.0000 4.7834 0.0000 0.0000
# 5 0.0000 0.0000 0.0000 0.0000 7.4716 0.0000
# 6 0.0000 0.0000 0.0000 0.0000 0.0000 24.3958
#
#
#
# Elastic Compliance Matrix: (Units=1/GPa)
#
#
# Indices 1 2 3 4 5 6 
#
# 1 0.022889 -0.008729 -0.010501 0.000000 0.000000 0.000000
# 2 -0.008729 0.019894 -0.003273 0.000000 0.000000 0.000000
# 3 -0.010501 -0.003273 0.016479 0.000000 0.000000 0.000000
# 4 0.000000 0.000000 0.000000 0.209056 0.000000 0.000000
# 5 0.000000 0.000000 0.000000 0.000000 0.133839 0.000000
# 6 0.000000 0.000000 0.000000 0.000000 0.000000 0.040991
#
#
# Mechanical properties :
#
#
# Convention : Reuss Voigt Hill
#
# Bulk Modulus (GPa) = 70.15095 73.67420 71.91257
# Shear Modulus (GPa) = 10.14394 15.24347 12.69370
#
# Velocity S-wave (km/s) = 2.36518 2.89936 2.64578
# Velocity P-wave (km/s) = 6.79299 7.19981 6.99936
#
# Compressibility (1/GPa) = 0.01425497
#
# Stress axis : x y z
#
# Youngs Moduli (GPa) = 43.68921 50.26687 60.68509
#
# Poissons Ratio (x) = 0.43877 0.63726
# Poissons Ratio (y) = 0.38136 0.19864
# Poissons Ratio (z) = 0.45878 0.16454
#
# Static dielectric constant tensor:
#      x y z
#    x 1.744930 0.000000 0.000000 
#    y 0.000000 1.771880 0.000000 
#    z 0.000000 0.000000 1.584290 
# 
# From -- ./inp_files/17022.got.cif
#   From: 2010.05.17/outbox.cif.g08.bks.cpg/sg59_9_cif.got.tgz:17022.got - 2010.06.03 14:40:33.
