data_PCOD9450361
_publ_section_title
;
Structure prediction by ZEFSAII (Michael W. Deem and Ramdas Pophale) SiO2 
 PCOD9450361
Probable space group: P M M N
;
_chemical_formula_sum "Si O2"
_cell_formula_units_Z 48
_cell_length_a 9.953377
_cell_length_b 7.885379
_cell_length_c 30.292548
_cell_angle_alpha 90.000000
_cell_angle_beta 90.000000
_cell_angle_gamma 90.000000
_cell_volume 2377.545465
_symmetry_space_group_name_H-M "P M M N"
_symmetry_group_IT_number 59
_space_group.IT_coordinate_system_code '2'
_symmetry_cell_setting 'orthorhombic'
loop_
_space_group_symop_operation_xyz
x,y,z
1/2-x,1/2-y,z
1/2+x,-y,-z
-x,1/2+y,-z
-x,-y,-z
1/2+x,1/2+y,-z
1/2-x,y,z
x,1/2-y,z
loop_
_atom_site_type_symbol
_atom_site_label
_atom_site_fract_x
_atom_site_fract_y
_atom_site_fract_z
Si Si1 0.906437 0.957631 0.123999
Si Si2 0.907019 0.454278 0.958197
Si Si3 0.504912 0.545487 0.393067
Si Si4 0.903104 0.451856 0.797862
Si Si5 0.750000 0.954854 0.451455
Si Si6 0.750000 0.046036 0.553783
Si Si7 0.597817 0.548369 0.698599
O O1 0.750000 0.013163 0.120214
O O2 0.902325 0.750000 0.123517
O O3 0.005607 0.011099 0.084210
O O4 0.983112 0.014446 0.168543
O O5 0.750000 0.515240 0.959972
O O6 0.898915 0.250000 0.955980
O O7 0.000000 0.500000 0.000000
O O8 0.506116 0.750000 0.394232
O O9 0.625437 0.483234 0.422995
O O10 0.375967 0.480667 0.419138
O O11 0.497176 0.497693 0.341976
O O12 0.750000 0.519747 0.804964
O O13 0.894775 0.250000 0.805021
O O14 0.939643 0.481769 0.746867
O O15 0.750000 0.750000 0.451141
O O16 0.750000 0.004894 0.502329
O O17 0.750000 0.250000 0.556767
O O18 0.750000 0.483490 0.688739
O O19 0.603697 0.750000 0.701670
#
# Coordination Sequence:
#
# PCOD9450361 Si02
#       7
#     8   8   8   8   4   4   8
#     4   9  17  31  52  78 106 138 180 226 270 320
#     4  10  20  34  54  81 113 149 190 234 278 326
#     4  10  20  36  55  77 104 136 173 212 253 305
#     4   9  17  31  53  76  98 129 170 216 264 316
#     4  10  22  36  52  78 108 136 168 210 257 304
#     4  10  20  34  56  78 102 136 174 210 251 304
#     4  10  20  34  54  79 103 132 172 216 261 311
#
# _framework density 20.188887000000001
#
# number of rings (size 3 to 8) (size 9 to 14) (size 15 to 20)
#    0.000    2.333    0.833    2.000    0.000    5.000 
#    1.500    0.833    0.000    3.000    0.000    0.000 
#    0.000    0.000    0.000    0.000    0.000    0.000 
#
# Total GULP energy -267674.011773 kJ/mol
# GULP energy per Si atom -5576.541912 kJ/mol
# Density = 2.014294 g / cm^3
# Si number density = 20.188887 Si / 1000 Ang^3
#
#
#
# Elastic Constant Matrix: (Units=GPa)
#
#
# Indices 1 2 3 4 5 6 
#
# 1 171.5636 9.5334 90.7101 0.0000 0.0000 0.0000
# 2 9.5334 17.7370 -3.9681 0.0000 0.0000 0.0000
# 3 90.7101 -3.9681 160.1351 0.0000 0.0000 0.0000
# 4 0.0000 0.0000 0.0000 22.9837 0.0000 0.0000
# 5 0.0000 0.0000 0.0000 0.0000 38.5296 0.0000
# 6 0.0000 0.0000 0.0000 0.0000 0.0000 5.1165
#
#
#
# Elastic Compliance Matrix: (Units=1/GPa)
#
#
# Indices 1 2 3 4 5 6 
#
# 1 0.008904 -0.005947 -0.005191 0.000000 0.000000 0.000000
# 2 -0.005947 0.060666 0.004872 0.000000 0.000000 0.000000
# 3 -0.005191 0.004872 0.009306 0.000000 0.000000 0.000000
# 4 0.000000 0.000000 0.000000 0.043509 0.000000 0.000000
# 5 0.000000 0.000000 0.000000 0.000000 0.025954 0.000000
# 6 0.000000 0.000000 0.000000 0.000000 0.000000 0.195448
#
#
# Mechanical properties :
#
#
# Convention : Reuss Voigt Hill
#
# Bulk Modulus (GPa) = 15.07306 60.22073 37.64689
# Shear Modulus (GPa) = 13.21237 30.20330 21.70784
#
# Velocity S-wave (km/s) = 2.56097 3.87206 3.28264
# Velocity P-wave (km/s) = 4.02828 7.06285 5.74939
#
# Compressibility (1/GPa) = 0.06634354
#
# Stress axis : x y z
#
# Youngs Moduli (GPa) = 112.31098 16.48375 107.45788
#
# Poissons Ratio (x) = 0.09803 0.55782
# Poissons Ratio (y) = 0.66792 -0.52354
# Poissons Ratio (z) = 0.58301 -0.08031
#
# Static dielectric constant tensor:
#      x y z
#    x 1.707520 0.000000 0.000000 
#    y 0.000000 1.732330 0.000000 
#    z 0.000000 0.000000 1.686620 
# 
# From -- ./inp_files/33102.got.cif
#   From: 2010.05.17/outbox.cif.g08.bks.cpg/sg59_17_cif.got.tgz:33102.got - 2010.06.03 14:40:33.
