data_PCOD9450858
_publ_section_title
;
Structure prediction by ZEFSAII (Michael W. Deem and Ramdas Pophale) SiO2 
 PCOD9450858
Probable space group: P M M N
;
_chemical_formula_sum "Si O2"
_cell_formula_units_Z 48
_cell_length_a 8.888979
_cell_length_b 30.999900
_cell_length_c 10.080936
_cell_angle_alpha 90.000000
_cell_angle_beta 90.000000
_cell_angle_gamma 90.000000
_cell_volume 2777.877120
_symmetry_space_group_name_H-M "P M M N"
_symmetry_group_IT_number 59
_space_group.IT_coordinate_system_code '2'
_symmetry_cell_setting 'orthorhombic'
loop_
_space_group_symop_operation_xyz
x,y,z
1/2-x,1/2-y,z
1/2+x,-y,-z
-x,1/2+y,-z
-x,-y,-z
1/2+x,1/2+y,-z
1/2-x,y,z
x,1/2-y,z
loop_
_atom_site_type_symbol
_atom_site_label
_atom_site_fract_x
_atom_site_fract_y
_atom_site_fract_z
Si Si1 0.429873 0.699951 0.401607
Si Si2 0.570013 0.870467 0.594660
Si Si3 0.930437 0.036267 0.405974
Si Si4 0.930872 0.700461 0.113824
Si Si5 0.429543 0.535512 0.904272
Si Si6 0.430519 0.128022 0.096659
O O1 0.250000 0.695564 0.405082
O O2 0.468167 0.750000 0.432336
O O3 0.504851 0.667007 0.503169
O O4 0.490025 0.691201 0.253460
O O5 0.750000 0.873034 0.580271
O O6 0.497483 0.916730 0.560794
O O7 0.534579 0.861883 0.749727
O O8 0.750000 0.037055 0.418695
O O9 0.967973 0.027513 0.250925
O O10 0.000000 0.000000 0.500000
O O11 0.750000 0.697618 0.131782
O O12 0.965921 0.750000 0.076085
O O13 0.975191 0.666448 0.001386
O O14 0.250000 0.534905 0.916171
O O15 0.491524 0.582943 0.938176
O O16 0.500000 0.500000 0.000000
O O17 0.250000 0.122435 0.087158
#
# Coordination Sequence:
#
# PCOD9450858 Si02
#       6
#     8   8   8   8   8   8
#     4  10  21  36  53  76 107 141 177 217 260 308
#     4  10  20  35  56  80 106 138 175 216 263 313
#     4  10  21  37  56  79 107 139 176 217 261 310
#     4   9  18  34  55  78 105 137 173 214 258 305
#     4  10  21  36  55  78 105 137 173 213 258 309
#     4   9  19  35  55  79 106 135 171 215 260 308
#
# _framework density 17.279381999999998
#
# number of rings (size 3 to 8) (size 9 to 14) (size 15 to 20)
#    0.000    2.333    0.000    2.000    0.000    6.333 
#    0.000    3.333    0.000    2.000    0.000    0.000 
#    0.000    0.000    0.000    0.000    0.000    0.000 
#
# Total GULP energy -267919.569384 kJ/mol
# GULP energy per Si atom -5581.657696 kJ/mol
# Density = 1.724005 g / cm^3
# Si number density = 17.279382 Si / 1000 Ang^3
#
#
#
# Elastic Constant Matrix: (Units=GPa)
#
#
# Indices 1 2 3 4 5 6 
#
# 1 52.9626 72.0891 59.4866 0.0000 0.0000 0.0000
# 2 72.0891 172.9872 129.3789 0.0000 0.0000 0.0000
# 3 59.4866 129.3789 114.8855 0.0000 0.0000 0.0000
# 4 0.0000 0.0000 0.0000 44.6821 0.0000 0.0000
# 5 0.0000 0.0000 0.0000 0.0000 24.0285 0.0000
# 6 0.0000 0.0000 0.0000 0.0000 0.0000 33.6425
#
#
#
# Elastic Compliance Matrix: (Units=1/GPa)
#
#
# Indices 1 2 3 4 5 6 
#
# 1 0.047151 -0.008809 -0.014494 0.000000 0.000000 0.000000
# 2 -0.008809 0.038294 -0.038564 0.000000 0.000000 0.000000
# 3 -0.014494 -0.038564 0.059638 0.000000 0.000000 0.000000
# 4 0.000000 0.000000 0.000000 0.022380 0.000000 0.000000
# 5 0.000000 0.000000 0.000000 0.000000 0.041617 0.000000
# 6 0.000000 0.000000 0.000000 0.000000 0.000000 0.029724
#
#
# Mechanical properties :
#
#
# Convention : Reuss Voigt Hill
#
# Bulk Modulus (GPa) = 46.83981 95.86049 71.35015
# Shear Modulus (GPa) = 13.52613 25.79598 19.66105
#
# Velocity S-wave (km/s) = 2.80087 3.86797 3.37684
# Velocity P-wave (km/s) = 6.13401 8.69169 7.52235
#
# Compressibility (1/GPa) = 0.02134936
#
# Stress axis : x y z
#
# Youngs Moduli (GPa) = 21.20855 26.11364 16.76784
#
# Poissons Ratio (x) = 0.23004 0.24303
# Poissons Ratio (y) = 0.18683 0.64663
# Poissons Ratio (z) = 0.30739 1.00704
#
# Static dielectric constant tensor:
#      x y z
#    x 1.577610 0.000000 0.000000 
#    y 0.000000 1.556780 0.000000 
#    z 0.000000 0.000000 1.565650 
# 
# From -- ./inp_files/6226.got.cif
#   From: 2010.05.17/outbox.cif.g08.bks.cpg/sg59_4_cif.got.tgz:6226.got - 2010.06.03 14:40:33.
