data_PCOD9450138
_publ_section_title
;
Structure prediction by ZEFSAII (Michael W. Deem and Ramdas Pophale) SiO2 
 PCOD9450138
Probable space group: P M M N
;
_chemical_formula_sum "Si O2"
_cell_formula_units_Z 56
_cell_length_a 14.856149
_cell_length_b 8.898081
_cell_length_c 21.681630
_cell_angle_alpha 90.000000
_cell_angle_beta 90.000000
_cell_angle_gamma 90.000000
_cell_volume 2866.121059
_symmetry_space_group_name_H-M "P M M N"
_symmetry_group_IT_number 59
_space_group.IT_coordinate_system_code '2'
_symmetry_cell_setting 'orthorhombic'
loop_
_space_group_symop_operation_xyz
x,y,z
1/2-x,1/2-y,z
1/2+x,-y,-z
-x,1/2+y,-z
-x,-y,-z
1/2+x,1/2+y,-z
1/2-x,y,z
x,1/2-y,z
loop_
_atom_site_type_symbol
_atom_site_label
_atom_site_fract_x
_atom_site_fract_y
_atom_site_fract_z
Si Si1 0.522696 0.070516 0.906399
Si Si2 0.647869 0.415854 0.407054
Si Si3 0.520479 0.570454 0.776493
Si Si4 0.092375 0.430460 0.475437
Si Si5 0.353506 0.432759 0.337012
Si Si6 0.355513 0.931008 0.975547
Si Si7 0.857715 0.926137 0.284282
O O1 0.515723 0.250000 0.902443
O O2 0.598003 0.034005 0.958247
O O3 0.548734 0.001817 0.840840
O O4 0.425727 0.005012 0.927751
O O5 0.750000 0.393478 0.387303
O O6 0.603197 0.250000 0.410126
O O7 0.653765 0.496355 0.472421
O O8 0.610963 0.519218 0.352548
O O9 0.525524 0.750000 0.780135
O O10 0.582687 0.518919 0.719039
O O11 0.418490 0.520263 0.762154
O O12 0.095304 0.250000 0.479059
O O13 0.113657 0.476922 0.405536
O O14 0.000000 0.500000 0.500000
O O15 0.250000 0.480788 0.328556
O O16 0.354549 0.250000 0.337045
O O17 0.250000 0.976944 0.971572
O O18 0.358302 0.750000 0.967759
O O19 0.750000 0.946399 0.276077
O O20 0.876183 0.750000 0.277518
#
# Coordination Sequence:
#
# PCOD9450138 Si02
#       7
#     8   8   8   8   8   8   8
#     4  10  21  37  58  87 121 153 188 231 279 335
#     4  10  20  34  52  75 104 136 174 224 282 345
#     4  11  22  37  59  84 114 153 193 236 285 337
#     4  11  21  34  55  79 105 139 183 238 297 350
#     4   9  20  38  57  79 109 148 195 241 284 336
#     4   9  19  38  63  89 118 152 190 233 280 329
#     4  10  21  37  57  81 110 147 192 241 294 352
#
# _framework density 19.538602000000001
#
# number of rings (size 3 to 8) (size 9 to 14) (size 15 to 20)
#    0.000    2.000    0.000    3.429    0.000    5.429 
#    0.000    2.143    0.000    4.714    0.000    0.000 
#    0.000    0.000    0.000    0.000    0.000    0.000 
#
# Total GULP energy -312266.510476 kJ/mol
# GULP energy per Si atom -5576.187687 kJ/mol
# Density = 1.949413 g / cm^3
# Si number density = 19.538602 Si / 1000 Ang^3
#
#
#
# Elastic Constant Matrix: (Units=GPa)
#
#
# Indices 1 2 3 4 5 6 
#
# 1 90.6908 17.4607 15.2427 0.0000 0.0000 0.0000
# 2 17.4607 40.0561 21.7232 0.0000 0.0000 0.0000
# 3 15.2427 21.7232 92.6106 0.0000 0.0000 0.0000
# 4 0.0000 0.0000 0.0000 32.3473 0.0000 0.0000
# 5 0.0000 0.0000 0.0000 0.0000 15.3776 0.0000
# 6 0.0000 0.0000 0.0000 0.0000 0.0000 23.1328
#
#
#
# Elastic Compliance Matrix: (Units=1/GPa)
#
#
# Indices 1 2 3 4 5 6 
#
# 1 0.012097 -0.004804 -0.000864 0.000000 0.000000 0.000000
# 2 -0.004804 0.030512 -0.006366 0.000000 0.000000 0.000000
# 3 -0.000864 -0.006366 0.012433 0.000000 0.000000 0.000000
# 4 0.000000 0.000000 0.000000 0.030915 0.000000 0.000000
# 5 0.000000 0.000000 0.000000 0.000000 0.065030 0.000000
# 6 0.000000 0.000000 0.000000 0.000000 0.000000 0.043229
#
#
# Mechanical properties :
#
#
# Convention : Reuss Voigt Hill
#
# Bulk Modulus (GPa) = 32.28670 36.91229 34.59949
# Shear Modulus (GPa) = 21.87147 25.43359 23.65253
#
# Velocity S-wave (km/s) = 3.34937 3.61184 3.48308
# Velocity P-wave (km/s) = 5.61410 6.02717 5.82430
#
# Compressibility (1/GPa) = 0.03097251
#
# Stress axis : x y z
#
# Youngs Moduli (GPa) = 82.66717 32.77418 80.42852
#
# Poissons Ratio (x) = 0.15746 0.06949
# Poissons Ratio (y) = 0.39717 0.51203
# Poissons Ratio (z) = 0.07143 0.20865
#
# Static dielectric constant tensor:
#      x y z
#    x 1.630450 0.000000 0.000000 
#    y 0.000000 1.680990 0.000000 
#    z 0.000000 0.000000 1.444770 
# 
# From -- ./inp_files/30410.got.cif
#   From: 2010.05.17/outbox.cif.g08.bks.cpg/sg59_16_cif.got.tgz:30410.got - 2010.06.03 14:40:33.
