data_PCOD9450430
_publ_section_title
;
Structure prediction by ZEFSAII (Michael W. Deem and Ramdas Pophale) SiO2 
 PCOD9450430
Probable space group: P M M N
;
_chemical_formula_sum "Si O2"
_cell_formula_units_Z 48
_cell_length_a 9.266951
_cell_length_b 7.787724
_cell_length_c 31.832150
_cell_angle_alpha 90.000000
_cell_angle_beta 90.000000
_cell_angle_gamma 90.000000
_cell_volume 2297.277139
_symmetry_space_group_name_H-M "P M M N"
_symmetry_group_IT_number 59
_space_group.IT_coordinate_system_code '2'
_symmetry_cell_setting 'orthorhombic'
loop_
_space_group_symop_operation_xyz
x,y,z
1/2-x,1/2-y,z
1/2+x,-y,-z
-x,1/2+y,-z
-x,-y,-z
1/2+x,1/2+y,-z
1/2-x,y,z
x,1/2-y,z
loop_
_atom_site_type_symbol
_atom_site_label
_atom_site_fract_x
_atom_site_fract_y
_atom_site_fract_z
Si Si1 0.916503 0.460473 0.208283
Si Si2 0.085537 0.043221 0.624190
Si Si3 0.913803 0.545436 0.042079
Si Si4 0.086349 0.455499 0.125873
Si Si5 0.414569 0.543082 0.457764
Si Si6 0.585403 0.543159 0.708630
O O1 0.750000 0.515029 0.208550
O O2 0.916504 0.250000 0.208167
O O3 0.998874 0.519503 0.166407
O O4 0.000364 0.517236 0.250045
O O5 0.250000 0.978342 0.625475
O O6 0.092064 0.250000 0.620982
O O7 0.999825 0.979015 0.583262
O O8 0.000262 0.001198 0.666521
O O9 0.750000 0.475514 0.041398
O O10 0.904669 0.750000 0.043835
O O11 0.000249 0.487848 0.083153
O O12 0.000000 0.500000 0.000000
O O13 0.250000 0.523438 0.123914
O O14 0.096225 0.250000 0.130762
O O15 0.500000 0.500000 0.500000
O O16 0.250000 0.478647 0.459067
O O17 0.408392 0.750000 0.454755
O O18 0.750000 0.478764 0.707359
O O19 0.591468 0.750000 0.711347
#
# Coordination Sequence:
#
# PCOD9450430 Si02
#       6
#     8   8   8   8   8   8
#     4   9  17  31  53  80 110 144 180 220 267 316
#     4  10  21  37  56  78 106 141 179 220 268 320
#     4  11  24  40  58  82 111 143 181 224 269 319
#     4  10  20  35  57  84 112 143 180 221 267 320
#     4  10  21  37  57  80 106 138 176 218 266 320
#     4  10  20  34  54  81 111 143 181 224 267 314
#
# _framework density 20.894300999999999
#
# number of rings (size 3 to 8) (size 9 to 14) (size 15 to 20)
#    0.000    2.000    0.000    3.500    0.000   10.000 
#    0.000    0.833    0.000    5.000    0.000    0.000 
#    0.000    0.000    0.000    0.000    0.000    0.000 
#
# Total GULP energy -268307.570243 kJ/mol
# GULP energy per Si atom -5589.741047 kJ/mol
# Density = 2.084675 g / cm^3
# Si number density = 20.894301 Si / 1000 Ang^3
#
#
#
# Elastic Constant Matrix: (Units=GPa)
#
#
# Indices 1 2 3 4 5 6 
#
# 1 269.8228 9.6711 158.9867 0.0000 0.0000 0.0000
# 2 9.6711 27.2015 -1.5938 0.0000 0.0000 0.0000
# 3 158.9867 -1.5938 247.6364 0.0000 0.0000 0.0000
# 4 0.0000 0.0000 0.0000 26.9635 0.0000 0.0000
# 5 0.0000 0.0000 0.0000 0.0000 46.3265 0.0000
# 6 0.0000 0.0000 0.0000 0.0000 0.0000 19.5224
#
#
#
# Elastic Compliance Matrix: (Units=1/GPa)
#
#
# Indices 1 2 3 4 5 6 
#
# 1 0.006115 -0.002405 -0.003941 0.000000 0.000000 0.000000
# 2 -0.002405 0.037722 0.001787 0.000000 0.000000 0.000000
# 3 -0.003941 0.001787 0.006580 0.000000 0.000000 0.000000
# 4 0.000000 0.000000 0.000000 0.037087 0.000000 0.000000
# 5 0.000000 0.000000 0.000000 0.000000 0.021586 0.000000
# 6 0.000000 0.000000 0.000000 0.000000 0.000000 0.051223
#
#
# Mechanical properties :
#
#
# Convention : Reuss Voigt Hill
#
# Bulk Modulus (GPa) = 24.21401 97.64317 60.92859
# Shear Modulus (GPa) = 27.29289 43.73559 35.51424
#
# Velocity S-wave (km/s) = 3.61811 4.58009 4.12723
# Velocity P-wave (km/s) = 5.39150 8.64888 7.20664
#
# Compressibility (1/GPa) = 0.04129841
#
# Stress axis : x y z
#
# Youngs Moduli (GPa) = 163.54463 26.50946 151.97710
#
# Poissons Ratio (x) = 0.06375 0.59896
# Poissons Ratio (y) = 0.39330 -0.27154
# Poissons Ratio (z) = 0.64455 -0.04737
#
# Static dielectric constant tensor:
#      x y z
#    x 1.737870 0.000000 0.000000 
#    y 0.000000 1.782840 0.000000 
#    z 0.000000 0.000000 1.743090 
# 
# From -- ./inp_files/32896.got.cif
#   From: 2010.05.17/outbox.cif.g08.bks.cpg/sg59_17_cif.got.tgz:32896.got - 2010.06.03 14:40:33.
