data_PCOD9450945
_publ_section_title
;
Structure prediction by ZEFSAII (Michael W. Deem and Ramdas Pophale) SiO2 
 PCOD9450945
Probable space group: P M M N
;
_chemical_formula_sum "Si O2"
_cell_formula_units_Z 64
_cell_length_a 17.889793
_cell_length_b 14.289443
_cell_length_c 11.429893
_cell_angle_alpha 90.000000
_cell_angle_beta 90.000000
_cell_angle_gamma 90.000000
_cell_volume 2921.882724
_symmetry_space_group_name_H-M "P M M N"
_symmetry_group_IT_number 59
_space_group.IT_coordinate_system_code '2'
_symmetry_cell_setting 'orthorhombic'
loop_
_space_group_symop_operation_xyz
x,y,z
1/2-x,1/2-y,z
1/2+x,-y,-z
-x,1/2+y,-z
-x,-y,-z
1/2+x,1/2+y,-z
1/2-x,y,z
x,1/2-y,z
loop_
_atom_site_type_symbol
_atom_site_label
_atom_site_fract_x
_atom_site_fract_y
_atom_site_fract_z
Si Si1 0.418061 0.965048 0.623629
Si Si2 0.163523 0.641201 0.436538
Si Si3 0.659597 0.645445 0.392495
Si Si4 0.431440 0.858517 0.038696
Si Si5 0.919802 0.859615 0.900229
Si Si6 0.162281 0.641117 0.828512
Si Si7 0.425754 0.516527 0.265491
Si Si8 0.167225 0.138417 0.874999
O O1 0.396496 0.879706 0.538542
O O2 0.379449 0.931981 0.744903
O O3 0.378474 0.053318 0.558456
O O4 0.502156 0.994912 0.654033
O O5 0.250000 0.621981 0.473244
O O6 0.159828 0.750000 0.403109
O O7 0.137163 0.575289 0.331369
O O8 0.750000 0.640277 0.397552
O O9 0.638203 0.750000 0.433027
O O10 0.636039 0.635609 0.255714
O O11 0.435093 0.750000 0.077307
O O12 0.446387 0.923706 0.149117
O O13 0.494086 0.869932 0.937980
O O14 0.356192 0.875351 0.965235
O O15 0.904850 0.750000 0.883215
O O16 0.899528 0.918013 0.786978
O O17 0.878217 0.897596 0.015680
O O18 0.250000 0.634273 0.805534
O O19 0.139437 0.750000 0.804646
O O20 0.250000 0.096896 0.872663
O O21 0.173283 0.250000 0.896080
#
# Coordination Sequence:
#
# PCOD9450945 Si02
#       8
#     8   8   8   8   8   8   8   8
#     4  12  23  40  67  95 126 162 217 281 338 389
#     4  11  27  51  73  93 123 170 226 281 336 395
#     4   9  18  32  53  86 125 161 202 254 314 380
#     4  10  21  38  60  92 135 178 216 266 329 391
#     4  10  20  35  56  87 130 173 208 254 317 388
#     4  10  21  37  61  95 132 175 228 282 332 381
#     4  12  25  40  65  97 131 171 216 274 331 404
#     4   8  15  28  47  75 114 160 204 241 287 361
#
# _framework density 21.903684999999999
#
# number of rings (size 3 to 8) (size 9 to 14) (size 15 to 20)
#    0.000    1.750    1.250    4.125    1.750    4.500 
#    0.000    1.875    0.000    0.750    0.000    0.000 
#    0.000    0.000    0.000    0.000    0.000    0.000 
#
# Total GULP energy -357282.286708 kJ/mol
# GULP energy per Si atom -5582.535730 kJ/mol
# Density = 2.185383 g / cm^3
# Si number density = 21.903685 Si / 1000 Ang^3
#
#
#
# Elastic Constant Matrix: (Units=GPa)
#
#
# Indices 1 2 3 4 5 6 
#
# 1 47.0508 20.0109 6.9660 0.0000 0.0000 0.0000
# 2 20.0109 111.0370 23.4104 0.0000 0.0000 0.0000
# 3 6.9660 23.4104 47.9218 0.0000 0.0000 0.0000
# 4 0.0000 0.0000 0.0000 43.1424 0.0000 0.0000
# 5 0.0000 0.0000 0.0000 0.0000 23.8940 0.0000
# 6 0.0000 0.0000 0.0000 0.0000 0.0000 23.7638
#
#
#
# Elastic Compliance Matrix: (Units=1/GPa)
#
#
# Indices 1 2 3 4 5 6 
#
# 1 0.023111 -0.003854 -0.001477 0.000000 0.000000 0.000000
# 2 -0.003854 0.010683 -0.004658 0.000000 0.000000 0.000000
# 3 -0.001477 -0.004658 0.023358 0.000000 0.000000 0.000000
# 4 0.000000 0.000000 0.000000 0.023179 0.000000 0.000000
# 5 0.000000 0.000000 0.000000 0.000000 0.041852 0.000000
# 6 0.000000 0.000000 0.000000 0.000000 0.000000 0.042081
#
#
# Mechanical properties :
#
#
# Convention : Reuss Voigt Hill
#
# Bulk Modulus (GPa) = 26.90085 34.08713 30.49399
# Shear Modulus (GPa) = 25.42816 28.53485 26.98151
#
# Velocity S-wave (km/s) = 3.41091 3.61327 3.51354
# Velocity P-wave (km/s) = 5.27451 5.74488 5.51471
#
# Compressibility (1/GPa) = 0.03717355
#
# Stress axis : x y z
#
# Youngs Moduli (GPa) = 43.26895 93.60955 42.81236
#
# Poissons Ratio (x) = 0.36074 0.06323
# Poissons Ratio (y) = 0.16674 0.19944
# Poissons Ratio (z) = 0.06391 0.43607
#
# Static dielectric constant tensor:
#      x y z
#    x 1.840390 0.000000 0.000000 
#    y 0.000000 1.851280 0.000000 
#    z 0.000000 0.000000 1.830230 
# 
# From -- ./inp_files/17821.got.cif
#   From: 2010.05.17/outbox.cif.g08.bks.cpg/sg59_9_cif.got.tgz:17821.got - 2010.06.03 14:40:33.
