data_PCOD9450693
_publ_section_title
;
Structure prediction by ZEFSAII (Michael W. Deem and Ramdas Pophale) SiO2 
 PCOD9450693
Probable space group: P M M N
;
_chemical_formula_sum "Si O2"
_cell_formula_units_Z 40
_cell_length_a 8.893235
_cell_length_b 16.938193
_cell_length_c 14.631775
_cell_angle_alpha 90.000000
_cell_angle_beta 90.000000
_cell_angle_gamma 90.000000
_cell_volume 2204.062268
_symmetry_space_group_name_H-M "P M M N"
_symmetry_group_IT_number 59
_space_group.IT_coordinate_system_code '2'
_symmetry_cell_setting 'orthorhombic'
loop_
_space_group_symop_operation_xyz
x,y,z
1/2-x,1/2-y,z
1/2+x,-y,-z
-x,1/2+y,-z
-x,-y,-z
1/2+x,1/2+y,-z
1/2-x,y,z
x,1/2-y,z
loop_
_atom_site_type_symbol
_atom_site_label
_atom_site_fract_x
_atom_site_fract_y
_atom_site_fract_z
Si Si1 0.574697 0.161750 0.885207
Si Si2 0.570709 0.843545 0.457218
Si Si3 0.572675 0.750000 0.960755
Si Si4 0.069254 0.904088 0.642646
Si Si5 0.568527 0.066405 0.711545
Si Si6 0.070324 0.750000 0.761813
O O1 0.750000 0.147956 0.906655
O O2 0.565262 0.250000 0.840877
O O3 0.523022 0.098257 0.811759
O O4 0.485351 0.175325 0.979037
O O5 0.750000 0.857238 0.453893
O O6 0.544409 0.750000 0.469156
O O7 0.499258 0.889632 0.542558
O O8 0.494670 0.874362 0.364908
O O9 0.750000 0.750000 0.957374
O O10 0.505289 0.750000 0.860380
O O11 0.250000 0.911074 0.636387
O O12 0.031156 0.827568 0.703648
O O13 0.999152 0.981506 0.687960
O O14 0.750000 0.065006 0.708081
O O15 0.250000 0.750000 0.774506
#
# Coordination Sequence:
#
# PCOD9450693 Si02
#       6
#     8   8   4   8   8   4
#     4   8  17  36  58  82 114 150 186 224 278 342
#     4  11  23  38  58  86 119 155 194 237 280 332
#     4  10  20  34  61  90 113 142 185 240 286 336
#     4  11  23  40  60  83 114 152 197 240 283 339
#     4  11  22  37  59  87 119 155 190 233 287 338
#     4  10  22  42  63  80 107 152 193 232 290 348
#
# _framework density 18.148306999999999
#
# number of rings (size 3 to 8) (size 9 to 14) (size 15 to 20)
#    0.600    1.200    1.000    3.600    0.000    5.200 
#    0.000    1.000    0.000    0.000    0.000    0.000 
#    0.000    0.000    0.000    0.000    0.000    0.000 
#
# Total GULP energy -223199.426392 kJ/mol
# GULP energy per Si atom -5579.985660 kJ/mol
# Density = 1.810700 g / cm^3
# Si number density = 18.148307 Si / 1000 Ang^3
#
#
#
# Elastic Constant Matrix: (Units=GPa)
#
#
# Indices 1 2 3 4 5 6 
#
# 1 39.1660 13.0018 20.8461 0.0000 0.0000 0.0000
# 2 13.0018 30.4123 -9.6117 0.0000 0.0000 0.0000
# 3 20.8461 -9.6117 75.8780 0.0000 0.0000 0.0000
# 4 0.0000 0.0000 0.0000 -11.0056 0.0000 0.0000
# 5 0.0000 0.0000 0.0000 0.0000 22.6670 0.0000
# 6 0.0000 0.0000 0.0000 0.0000 0.0000 11.1513
#
#
#
# Elastic Compliance Matrix: (Units=1/GPa)
#
#
# Indices 1 2 3 4 5 6 
#
# 1 0.039908 -0.021382 -0.013672 0.000000 0.000000 0.000000
# 2 -0.021382 0.045709 0.011664 0.000000 0.000000 0.000000
# 3 -0.013672 0.011664 0.018413 0.000000 0.000000 0.000000
# 4 0.000000 0.000000 0.000000 -0.090863 0.000000 0.000000
# 5 0.000000 0.000000 0.000000 0.000000 0.044117 0.000000
# 6 0.000000 0.000000 0.000000 0.000000 0.000000 0.089676
#
#
# Mechanical properties :
#
#
# Convention : Reuss Voigt Hill
#
# Bulk Modulus (GPa) = 17.46748 21.54762 19.50755
# Shear Modulus (GPa) = 23.49367 12.64388 18.06878
#
# Velocity S-wave (km/s) = 3.60187 2.64237 3.15876
# Velocity P-wave (km/s) = 5.19073 4.60525 4.90673
#
# Compressibility (1/GPa) = 0.05724925
#
# Stress axis : x y z
#
# Youngs Moduli (GPa) = 25.05782 21.87745 54.30984
#
# Poissons Ratio (x) = 0.46779 0.74255
# Poissons Ratio (y) = 0.53579 -0.63350
# Poissons Ratio (z) = 0.34260 -0.25519
#
# Static dielectric constant tensor:
#      x y z
#    x 1.603130 0.000000 0.000000 
#    y 0.000000 1.623380 0.000000 
#    z 0.000000 0.000000 1.593660 
# 
# From -- ./inp_files/19964.got.cif
#   From: 2010.05.17/outbox.cif.g08.bks.cpg/sg59_10_cif.got.tgz:19964.got - 2010.06.03 14:40:33.
