data_PCOD9450954
_publ_section_title
;
Structure prediction by ZEFSAII (Michael W. Deem and Ramdas Pophale) SiO2 
 PCOD9450954
Probable space group: P M M N
;
_chemical_formula_sum "Si O2"
_cell_formula_units_Z 56
_cell_length_a 23.349828
_cell_length_b 9.110608
_cell_length_c 15.076440
_cell_angle_alpha 90.000000
_cell_angle_beta 90.000000
_cell_angle_gamma 90.000000
_cell_volume 3207.228114
_symmetry_space_group_name_H-M "P M M N"
_symmetry_group_IT_number 59
_space_group.IT_coordinate_system_code '2'
_symmetry_cell_setting 'orthorhombic'
loop_
_space_group_symop_operation_xyz
x,y,z
1/2-x,1/2-y,z
1/2+x,-y,-z
-x,1/2+y,-z
-x,-y,-z
1/2+x,1/2+y,-z
1/2-x,y,z
x,1/2-y,z
loop_
_atom_site_type_symbol
_atom_site_label
_atom_site_fract_x
_atom_site_fract_y
_atom_site_fract_z
Si Si1 0.998799 0.423474 0.594826
Si Si2 0.182438 0.927190 0.842531
Si Si3 0.577149 0.926599 0.237544
Si Si4 0.817624 0.082745 0.794278
Si Si5 0.482554 0.081489 0.120014
Si Si6 0.093397 0.085807 0.299595
Si Si7 0.883217 0.075584 0.976233
O O1 0.002465 0.250000 0.583820
O O2 0.047171 0.466135 0.668240
O O3 0.000000 0.500000 0.500000
O O4 0.939435 0.472259 0.639142
O O5 0.250000 0.966117 0.839087
O O6 0.178647 0.750000 0.832773
O O7 0.140513 0.006620 0.772872
O O8 0.153219 0.966084 0.937235
O O9 0.577381 0.750000 0.229513
O O10 0.537354 0.995048 0.158989
O O11 0.750000 0.077367 0.796826
O O12 0.836158 0.250000 0.772732
O O13 0.842857 0.049544 0.891204
O O14 0.844194 0.970933 0.724707
O O15 0.497049 0.250000 0.097242
O O16 0.441156 0.086478 0.206568
O O17 0.443099 0.005566 0.045006
O O18 0.091988 0.250000 0.336499
O O19 0.894048 0.250000 0.980472
#
# Coordination Sequence:
#
# PCOD9450954 Si02
#       7
#     8   8   8   8   8   8   8
#     4  10  20  35  57  82 103 123 152 195 249 309
#     4  10  21  36  53  73 100 138 182 221 254 293
#     4  10  21  36  54  77 104 134 167 205 256 312
#     4   9  16  27  45  68  97 135 174 209 246 288
#     4   9  17  30  49  73 101 133 169 211 257 301
#     4   9  17  29  46  71 102 131 160 197 242 292
#     4   9  17  30  48  71 100 135 177 221 258 293
#
# _framework density 17.460560000000001
#
# number of rings (size 3 to 8) (size 9 to 14) (size 15 to 20)
#    0.000    2.571    0.000    2.143    0.000    8.571 
#    0.000    0.000    0.000    3.429    0.000    4.000 
#    0.000    0.000    0.000    0.000    0.000    0.000 
#
# Total GULP energy -312220.554931 kJ/mol
# GULP energy per Si atom -5575.367052 kJ/mol
# Density = 1.742082 g / cm^3
# Si number density = 17.460560 Si / 1000 Ang^3
#
#
#
# Elastic Constant Matrix: (Units=GPa)
#
#
# Indices 1 2 3 4 5 6 
#
# 1 121.4462 46.7550 48.7876 0.0000 0.0000 0.0000
# 2 46.7550 55.2138 38.5913 0.0000 0.0000 0.0000
# 3 48.7876 38.5913 90.7115 0.0000 0.0000 0.0000
# 4 0.0000 0.0000 0.0000 21.8032 0.0000 0.0000
# 5 0.0000 0.0000 0.0000 0.0000 13.7681 0.0000
# 6 0.0000 0.0000 0.0000 0.0000 0.0000 29.7754
#
#
#
# Elastic Compliance Matrix: (Units=1/GPa)
#
#
# Indices 1 2 3 4 5 6 
#
# 1 0.012856 -0.008616 -0.003249 0.000000 0.000000 0.000000
# 2 -0.008616 0.031550 -0.008788 0.000000 0.000000 0.000000
# 3 -0.003249 -0.008788 0.016510 0.000000 0.000000 0.000000
# 4 0.000000 0.000000 0.000000 0.045865 0.000000 0.000000
# 5 0.000000 0.000000 0.000000 0.000000 0.072632 0.000000
# 6 0.000000 0.000000 0.000000 0.000000 0.000000 0.033585
#
#
# Mechanical properties :
#
#
# Convention : Reuss Voigt Hill
#
# Bulk Modulus (GPa) = 50.99474 59.51547 55.25511
# Shear Modulus (GPa) = 19.16876 21.95183 20.56029
#
# Velocity S-wave (km/s) = 3.31695 3.54958 3.43524
# Velocity P-wave (km/s) = 6.62862 7.13856 6.88831
#
# Compressibility (1/GPa) = 0.01960986
#
# Stress axis : x y z
#
# Youngs Moduli (GPa) = 77.78295 31.69588 60.56825
#
# Poissons Ratio (x) = 0.27308 0.19679
# Poissons Ratio (y) = 0.67016 0.53230
# Poissons Ratio (z) = 0.25273 0.27856
#
# Static dielectric constant tensor:
#      x y z
#    x 1.588370 0.000000 0.000000 
#    y 0.000000 1.603150 0.000000 
#    z 0.000000 0.000000 1.605580 
# 
# From -- ./inp_files/24312.got.cif
#   From: 2010.05.17/outbox.cif.g08.bks.cpg/sg59_13_cif.got.tgz:24312.got - 2010.06.03 14:40:33.
