data_PCOD9450368
_publ_section_title
;
Structure prediction by ZEFSAII (Michael W. Deem and Ramdas Pophale) SiO2 
 PCOD9450368
Probable space group: P M M N
;
_chemical_formula_sum "Si O2"
_cell_formula_units_Z 48
_cell_length_a 26.010446
_cell_length_b 8.447976
_cell_length_c 12.197883
_cell_angle_alpha 90.000000
_cell_angle_beta 90.000000
_cell_angle_gamma 90.000000
_cell_volume 2680.309427
_symmetry_space_group_name_H-M "P M M N"
_symmetry_group_IT_number 59
_space_group.IT_coordinate_system_code '2'
_symmetry_cell_setting 'orthorhombic'
loop_
_space_group_symop_operation_xyz
x,y,z
1/2-x,1/2-y,z
1/2+x,-y,-z
-x,1/2+y,-z
-x,-y,-z
1/2+x,1/2+y,-z
1/2-x,y,z
x,1/2-y,z
loop_
_atom_site_type_symbol
_atom_site_label
_atom_site_fract_x
_atom_site_fract_y
_atom_site_fract_z
Si Si1 0.058678 0.558405 0.000150
Si Si2 0.098938 0.558887 0.764914
Si Si3 0.808955 0.560728 0.377738
Si Si4 0.000335 0.439963 0.375985
Si Si5 0.808639 0.441197 0.619434
Si Si6 0.596843 0.441431 0.763923
O O1 0.057693 0.750000 0.999742
O O2 0.086849 0.506328 0.888818
O O3 0.086485 0.505125 0.111713
O O4 0.000000 0.500000 0.000000
O O5 0.100444 0.750000 0.764174
O O6 0.151428 0.497003 0.713244
O O7 0.051174 0.508750 0.688165
O O8 0.750000 0.508485 0.357153
O O9 0.809711 0.750000 0.382407
O O10 0.824140 0.495439 0.497562
O O11 0.001716 0.250000 0.375659
O O12 0.049604 0.503445 0.311006
O O13 0.000000 0.500000 0.500000
O O14 0.750000 0.495981 0.639243
O O15 0.808324 0.250000 0.620242
O O16 0.850008 0.496032 0.708661
O O17 0.597412 0.250000 0.764402
#
# Coordination Sequence:
#
# PCOD9450368 Si02
#       6
#     8   8   8   8   8   8
#     4  10  20  36  55  77 106 141 181 220 262 315
#     4  10  21  36  53  76 106 140 179 217 261 318
#     4  10  21  36  55  80 107 137 176 220 265 314
#     4  11  22  34  50  76 109 139 173 217 266 319
#     4   9  18  34  55  78 106 139 172 212 265 319
#     4  10  20  34  54  79 106 136 176 220 264 314
#
# _framework density 17.908380000000001
#
# number of rings (size 3 to 8) (size 9 to 14) (size 15 to 20)
#    0.000    2.000    1.667    2.000    0.000    7.667 
#    0.000    0.833    0.000    3.000    0.000    2.333 
#    0.000    0.000    0.000    0.000    0.000    0.000 
#
# Total GULP energy -267988.870767 kJ/mol
# GULP energy per Si atom -5583.101474 kJ/mol
# Density = 1.786762 g / cm^3
# Si number density = 17.908380 Si / 1000 Ang^3
#
#
#
# Elastic Constant Matrix: (Units=GPa)
#
#
# Indices 1 2 3 4 5 6 
#
# 1 122.9704 16.1580 104.5063 0.0000 0.0000 0.0000
# 2 16.1580 5.5774 21.3508 0.0000 0.0000 0.0000
# 3 104.5063 21.3508 196.9255 0.0000 0.0000 0.0000
# 4 0.0000 0.0000 0.0000 17.1723 0.0000 0.0000
# 5 0.0000 0.0000 0.0000 0.0000 24.9062 0.0000
# 6 0.0000 0.0000 0.0000 0.0000 0.0000 26.4862
#
#
#
# Elastic Compliance Matrix: (Units=1/GPa)
#
#
# Indices 1 2 3 4 5 6 
#
# 1 0.016565 -0.024511 -0.006134 0.000000 0.000000 0.000000
# 2 -0.024511 0.342779 -0.024157 0.000000 0.000000 0.000000
# 3 -0.006134 -0.024157 0.010952 0.000000 0.000000 0.000000
# 4 0.000000 0.000000 0.000000 0.058233 0.000000 0.000000
# 5 0.000000 0.000000 0.000000 0.000000 0.040151 0.000000
# 6 0.000000 0.000000 0.000000 0.000000 0.000000 0.037755
#
#
# Mechanical properties :
#
#
# Convention : Reuss Voigt Hill
#
# Bulk Modulus (GPa) = 3.83591 67.72264 35.77928
# Shear Modulus (GPa) = 7.11302 25.94350 16.52826
#
# Velocity S-wave (km/s) = 1.99512 3.81028 3.04128
# Velocity P-wave (km/s) = 2.73020 7.56676 5.68814
#
# Compressibility (1/GPa) = 0.26069415
#
# Stress axis : x y z
#
# Youngs Moduli (GPa) = 60.36718 2.91733 91.30607
#
# Poissons Ratio (x) = 0.07151 0.56003
# Poissons Ratio (y) = 1.47965 2.20566
# Poissons Ratio (z) = 0.37027 0.07047
#
# Static dielectric constant tensor:
#      x y z
#    x 1.600780 0.000000 0.000000 
#    y 0.000000 1.619520 0.000000 
#    z 0.000000 0.000000 1.597790 
# 
# From -- ./inp_files/14295.got.cif
#   From: 2010.05.17/outbox.cif.g08.bks.cpg/sg59_8_cif.got.tgz:14295.got - 2010.06.03 14:40:33.
