data_PCOD9450999
_publ_section_title
;
Structure prediction by ZEFSAII (Michael W. Deem and Ramdas Pophale) SiO2 
 PCOD9450999
Probable space group: P M M N
;
_chemical_formula_sum "Si O2"
_cell_formula_units_Z 56
_cell_length_a 14.328814
_cell_length_b 8.510258
_cell_length_c 22.461105
_cell_angle_alpha 90.000000
_cell_angle_beta 90.000000
_cell_angle_gamma 90.000000
_cell_volume 2738.949909
_symmetry_space_group_name_H-M "P M M N"
_symmetry_group_IT_number 59
_space_group.IT_coordinate_system_code '2'
_symmetry_cell_setting 'orthorhombic'
loop_
_space_group_symop_operation_xyz
x,y,z
1/2-x,1/2-y,z
1/2+x,-y,-z
-x,1/2+y,-z
-x,-y,-z
1/2+x,1/2+y,-z
1/2-x,y,z
x,1/2-y,z
loop_
_atom_site_type_symbol
_atom_site_label
_atom_site_fract_x
_atom_site_fract_y
_atom_site_fract_z
Si Si1 0.489892 0.438272 0.066706
Si Si2 0.854654 0.067293 0.279783
Si Si3 0.642639 0.560288 0.827510
Si Si4 0.051255 0.932125 0.293086
Si Si5 0.354758 0.938378 0.535614
Si Si6 0.354769 0.429827 0.848299
Si Si7 0.943135 0.937226 0.582666
O O1 0.491570 0.250000 0.065194
O O2 0.402422 0.485887 0.108911
O O3 0.576149 0.506651 0.103169
O O4 0.500000 0.500000 0.000000
O O5 0.750000 0.026050 0.300654
O O6 0.872233 0.250000 0.295163
O O7 0.855004 0.042793 0.208654
O O8 0.940311 0.961219 0.298706
O O9 0.750000 0.509616 0.823408
O O10 0.639038 0.750000 0.824486
O O11 0.585692 0.497211 0.770546
O O12 0.073927 0.750000 0.296300
O O13 0.089978 0.019862 0.351173
O O14 0.250000 0.997384 0.551268
O O15 0.351636 0.750000 0.541829
O O16 0.448345 0.990014 0.571284
O O17 0.379848 0.983645 0.467834
O O18 0.250000 0.426559 0.872130
O O19 0.378645 0.250000 0.829783
O O20 0.940598 0.750000 0.574533
#
# Coordination Sequence:
#
# PCOD9450999 Si02
#       7
#     8   8   8   8   8   8   8
#     4  11  23  39  62  89 120 157 198 248 305 360
#     4  10  20  35  57  84 115 152 192 236 292 357
#     4  10  23  44  66  87 116 158 206 253 303 359
#     4  12  24  38  60  89 124 161 201 251 305 359
#     4   9  19  38  62  87 118 156 200 250 301 352
#     4  10  20  35  57  85 116 149 187 234 290 351
#     4  10  21  37  59  88 121 159 203 247 298 358
#
# _framework density 20.445792000000001
#
# number of rings (size 3 to 8) (size 9 to 14) (size 15 to 20)
#    0.000    1.714    1.429    3.000    0.000    5.143 
#    0.000    2.857    0.000    0.000    0.000    0.000 
#    0.000    0.000    0.000    0.000    0.000    0.000 
#
# Total GULP energy -312583.450563 kJ/mol
# GULP energy per Si atom -5581.847331 kJ/mol
# Density = 2.039926 g / cm^3
# Si number density = 20.445792 Si / 1000 Ang^3
#
#
#
# Elastic Constant Matrix: (Units=GPa)
#
#
# Indices 1 2 3 4 5 6 
#
# 1 75.7550 15.0136 31.2896 0.0000 0.0000 0.0000
# 2 15.0136 27.4308 5.6864 0.0000 0.0000 0.0000
# 3 31.2896 5.6864 103.3051 0.0000 0.0000 0.0000
# 4 0.0000 0.0000 0.0000 25.2714 0.0000 0.0000
# 5 0.0000 0.0000 0.0000 0.0000 -0.1175 0.0000
# 6 0.0000 0.0000 0.0000 0.0000 0.0000 23.9616
#
#
#
# Elastic Compliance Matrix: (Units=1/GPa)
#
#
# Indices 1 2 3 4 5 6 
#
# 1 0.016733 -0.008201 -0.004617 0.000000 0.000000 0.000000
# 2 -0.008201 0.040896 0.000233 0.000000 0.000000 0.000000
# 3 -0.004617 0.000233 0.011066 0.000000 0.000000 0.000000
# 4 0.000000 0.000000 0.000000 0.039570 0.000000 0.000000
# 5 0.000000 0.000000 0.000000 0.000000 -8.512613 0.000000
# 6 0.000000 0.000000 0.000000 0.000000 0.000000 0.041734
#
#
# Mechanical properties :
#
#
# Convention : Reuss Voigt Hill
#
# Bulk Modulus (GPa) = 22.97573 34.49669 28.73621
# Shear Modulus (GPa) = -0.60075 20.12317 9.76121
#
# Velocity S-wave (km/s) = -0.54264 3.14063 2.18736
# Velocity P-wave (km/s) = 3.29684 5.48273 4.52380
#
# Compressibility (1/GPa) = 0.04352420
#
# Stress axis : x y z
#
# Youngs Moduli (GPa) = 59.76333 24.45235 90.37049
#
# Poissons Ratio (x) = 0.20054 0.41721
# Poissons Ratio (y) = 0.49013 -0.02105
# Poissons Ratio (z) = 0.27591 -0.00570
#
# Static dielectric constant tensor:
#      x y z
#    x 1.746580 0.000000 0.000000 
#    y 0.000000 1.708300 0.000000 
#    z 0.000000 0.000000 1.724480 
# 
# From -- ./inp_files/30322.got.cif
#   From: 2010.05.17/outbox.cif.g08.bks.cpg/sg59_16_cif.got.tgz:30322.got - 2010.06.03 14:40:33.
