data_PCOD9450456
_publ_section_title
;
Structure prediction by ZEFSAII (Michael W. Deem and Ramdas Pophale) SiO2 
 PCOD9450456
Probable space group: P M M N
;
_chemical_formula_sum "Si O2"
_cell_formula_units_Z 56
_cell_length_a 8.773590
_cell_length_b 14.678731
_cell_length_c 24.410645
_cell_angle_alpha 90.000000
_cell_angle_beta 90.000000
_cell_angle_gamma 90.000000
_cell_volume 3143.729005
_symmetry_space_group_name_H-M "P M M N"
_symmetry_group_IT_number 59
_space_group.IT_coordinate_system_code '2'
_symmetry_cell_setting 'orthorhombic'
loop_
_space_group_symop_operation_xyz
x,y,z
1/2-x,1/2-y,z
1/2+x,-y,-z
-x,1/2+y,-z
-x,-y,-z
1/2+x,1/2+y,-z
1/2-x,y,z
x,1/2-y,z
loop_
_atom_site_type_symbol
_atom_site_label
_atom_site_fract_x
_atom_site_fract_y
_atom_site_fract_z
Si Si1 0.435017 0.853837 0.350589
Si Si2 0.066717 0.497650 0.439395
Si Si3 0.430077 0.642036 0.946749
Si Si4 0.932093 0.993698 0.860061
Si Si5 0.067045 0.856441 0.645492
Si Si6 0.934506 0.991079 0.733256
Si Si7 0.569810 0.857845 0.063765
O O1 0.250000 0.850031 0.350282
O O2 0.491511 0.750000 0.349842
O O3 0.478269 0.912542 0.404155
O O4 0.479509 0.915993 0.298554
O O5 0.250000 0.494025 0.440918
O O6 0.000000 0.500000 0.500000
O O7 0.004229 0.411634 0.405323
O O8 0.250000 0.625588 0.952052
O O9 0.455053 0.750000 0.939263
O O10 0.495495 0.586656 0.895939
O O11 0.510595 0.614849 0.003565
O O12 0.750000 0.986527 0.862150
O O13 0.979539 0.991435 0.796626
O O14 0.984824 0.085723 0.889848
O O15 0.250000 0.863546 0.643262
O O16 0.025367 0.750000 0.645021
O O17 0.005808 0.907900 0.699394
O O18 0.750000 0.984312 0.729910
O O19 0.750000 0.874837 0.067063
O O20 0.542081 0.750000 0.069597
#
# Coordination Sequence:
#
# PCOD9450456 Si02
#       7
#     8   8   8   8   8   8   8
#     4   8  15  31  54  76 100 133 172 213 256 302
#     4  10  20  34  54  82 114 145 179 220 265 315
#     4  10  21  37  56  77 103 137 177 220 267 322
#     4  11  22  35  54  80 109 140 175 218 269 325
#     4  10  21  37  57  79 106 144 185 225 271 318
#     4   9  20  36  54  78 105 137 177 220 266 316
#     4  10  21  37  56  78 106 139 175 218 268 321
#
# _framework density 17.813241000000001
#
# number of rings (size 3 to 8) (size 9 to 14) (size 15 to 20)
#    0.000    2.286    0.000    3.429    0.000    5.714 
#    0.000    5.714    0.000   10.286    0.000    0.000 
#    0.000    0.000    0.000    0.000    0.000    0.000 
#
# Total GULP energy -312595.718106 kJ/mol
# GULP energy per Si atom -5582.066395 kJ/mol
# Density = 1.777270 g / cm^3
# Si number density = 17.813241 Si / 1000 Ang^3
#
#
#
# Elastic Constant Matrix: (Units=GPa)
#
#
# Indices 1 2 3 4 5 6 
#
# 1 24.2180 19.1929 17.0908 0.0000 0.0000 0.0000
# 2 19.1929 109.5191 44.5494 0.0000 0.0000 0.0000
# 3 17.0908 44.5494 131.0117 0.0000 0.0000 0.0000
# 4 0.0000 0.0000 0.0000 12.2913 0.0000 0.0000
# 5 0.0000 0.0000 0.0000 0.0000 30.8901 0.0000
# 6 0.0000 0.0000 0.0000 0.0000 0.0000 35.3373
#
#
#
# Elastic Compliance Matrix: (Units=1/GPa)
#
#
# Indices 1 2 3 4 5 6 
#
# 1 0.049773 -0.007058 -0.004093 0.000000 0.000000 0.000000
# 2 -0.007058 0.011597 -0.003023 0.000000 0.000000 0.000000
# 3 -0.004093 -0.003023 0.009195 0.000000 0.000000 0.000000
# 4 0.000000 0.000000 0.000000 0.081358 0.000000 0.000000
# 5 0.000000 0.000000 0.000000 0.000000 0.032373 0.000000
# 6 0.000000 0.000000 0.000000 0.000000 0.000000 0.028299
#
#
# Mechanical properties :
#
#
# Convention : Reuss Voigt Hill
#
# Bulk Modulus (GPa) = 23.68652 47.37946 35.53299
# Shear Modulus (GPa) = 19.60665 27.96478 23.78572
#
# Velocity S-wave (km/s) = 3.32125 3.96648 3.65812
# Velocity P-wave (km/s) = 5.29467 6.90166 6.15087
#
# Compressibility (1/GPa) = 0.04221811
#
# Stress axis : x y z
#
# Youngs Moduli (GPa) = 20.09103 86.22713 108.75745
#
# Poissons Ratio (x) = 0.60856 0.44516
# Poissons Ratio (y) = 0.14180 0.32876
# Poissons Ratio (z) = 0.08224 0.26065
#
# Static dielectric constant tensor:
#      x y z
#    x 1.587570 0.000000 0.000000 
#    y 0.000000 1.608660 0.000000 
#    z 0.000000 0.000000 1.579140 
# 
# From -- ./inp_files/29034.got.cif
#   From: 2010.05.17/outbox.cif.g08.bks.cpg/sg59_15_cif.got.tgz:29034.got - 2010.06.03 14:40:33.
