data_PCOD9450355
_publ_section_title
;
Structure prediction by ZEFSAII (Michael W. Deem and Ramdas Pophale) SiO2 
 PCOD9450355
Probable space group: P M M N
;
_chemical_formula_sum "Si O2"
_cell_formula_units_Z 48
_cell_length_a 8.936721
_cell_length_b 31.176604
_cell_length_c 9.587790
_cell_angle_alpha 90.000000
_cell_angle_beta 90.000000
_cell_angle_gamma 90.000000
_cell_volume 2671.317563
_symmetry_space_group_name_H-M "P M M N"
_symmetry_group_IT_number 59
_space_group.IT_coordinate_system_code '2'
_symmetry_cell_setting 'orthorhombic'
loop_
_space_group_symop_operation_xyz
x,y,z
1/2-x,1/2-y,z
1/2+x,-y,-z
-x,1/2+y,-z
-x,-y,-z
1/2+x,1/2+y,-z
1/2-x,y,z
x,1/2-y,z
loop_
_atom_site_type_symbol
_atom_site_label
_atom_site_fract_x
_atom_site_fract_y
_atom_site_fract_z
Si Si1 0.076788 0.113283 0.787987
Si Si2 0.082571 0.750000 0.837606
Si Si3 0.073598 0.842725 0.472920
Si Si4 0.415160 0.321977 0.031293
Si Si5 0.928572 0.750000 0.541463
Si Si6 0.923799 0.384309 0.223669
Si Si7 0.574112 0.046356 0.002553
O O1 0.250000 0.101274 0.762688
O O2 0.994630 0.127449 0.647716
O O3 0.076094 0.156161 0.882357
O O4 0.998792 0.077285 0.884763
O O5 0.250000 0.750000 0.782458
O O6 0.046194 0.710406 0.935432
O O7 0.973295 0.750000 0.705278
O O8 0.250000 0.835392 0.449223
O O9 0.059317 0.870029 0.616635
O O10 0.995766 0.795485 0.484781
O O11 0.250000 0.303056 0.050281
O O12 0.447407 0.358677 0.143431
O O13 0.750000 0.750000 0.522439
O O14 0.750000 0.371970 0.186417
O O15 0.940413 0.431514 0.156248
O O16 0.750000 0.043058 0.972932
O O17 0.500000 0.000000 0.000000
#
# Coordination Sequence:
#
# PCOD9450355 Si02
#       7
#     8   4   8   8   4   8   8
#     4  10  22  39  58  84 117 151 188 237 291 347
#     4  12  22  33  52  79 110 144 190 240 282 331
#     4  11  22  38  59  85 117 157 197 238 288 345
#     4  10  20  34  54  78 106 143 188 234 282 331
#     4  12  24  37  56  83 116 156 198 242 284 333
#     4   9  19  35  57  82 112 147 187 233 285 344
#     4  10  20  38  63  90 116 148 189 239 295 355
#
# _framework density 17.968661000000001
#
# number of rings (size 3 to 8) (size 9 to 14) (size 15 to 20)
#    0.000    1.667    1.667    3.500    0.000    4.000 
#    0.000    1.667    0.000    0.000    0.000    0.000 
#    0.000    0.000    0.000    0.000    0.000    0.000 
#
# Total GULP energy -267380.328180 kJ/mol
# GULP energy per Si atom -5570.423504 kJ/mol
# Density = 1.792776 g / cm^3
# Si number density = 17.968661 Si / 1000 Ang^3
#
#
#
# Elastic Constant Matrix: (Units=GPa)
#
#
# Indices 1 2 3 4 5 6 
#
# 1 115.4680 55.0019 53.4888 0.0000 0.0000 0.0000
# 2 55.0019 119.5394 44.5909 0.0000 0.0000 0.0000
# 3 53.4888 44.5909 91.1607 0.0000 0.0000 0.0000
# 4 0.0000 0.0000 0.0000 155.7858 0.0000 0.0000
# 5 0.0000 0.0000 0.0000 0.0000 24.7985 0.0000
# 6 0.0000 0.0000 0.0000 0.0000 0.0000 34.3919
#
#
#
# Elastic Compliance Matrix: (Units=1/GPa)
#
#
# Indices 1 2 3 4 5 6 
#
# 1 0.013232 -0.003905 -0.005854 0.000000 0.000000 0.000000
# 2 -0.003905 0.011385 -0.003278 0.000000 0.000000 0.000000
# 3 -0.005854 -0.003278 0.016008 0.000000 0.000000 0.000000
# 4 0.000000 0.000000 0.000000 0.006419 0.000000 0.000000
# 5 0.000000 0.000000 0.000000 0.000000 0.040325 0.000000
# 6 0.000000 0.000000 0.000000 0.000000 0.000000 0.029077
#
#
# Mechanical properties :
#
#
# Convention : Reuss Voigt Hill
#
# Bulk Modulus (GPa) = 68.71991 70.25901 69.48946
# Shear Modulus (GPa) = 33.92850 54.53435 44.23142
#
# Velocity S-wave (km/s) = 4.35006 5.51503 4.96682
# Velocity P-wave (km/s) = 7.97233 8.92972 8.46457
#
# Compressibility (1/GPa) = 0.01455182
#
# Stress axis : x y z
#
# Youngs Moduli (GPa) = 75.57362 87.83740 62.46943
#
# Poissons Ratio (x) = 0.34297 0.36570
# Poissons Ratio (y) = 0.29508 0.20476
# Poissons Ratio (z) = 0.44241 0.28791
#
# Static dielectric constant tensor:
#      x y z
#    x 1.622970 0.000000 0.000000 
#    y 0.000000 1.545440 0.000000 
#    z 0.000000 0.000000 1.611460 
# 
# From -- ./inp_files/6361.got.cif
#   From: 2010.05.17/outbox.cif.g08.bks.cpg/sg59_4_cif.got.tgz:6361.got - 2010.06.03 14:40:33.
