data_PCOD9450734
_publ_section_title
;
Structure prediction by ZEFSAII (Michael W. Deem and Ramdas Pophale) SiO2 
 PCOD9450734
Probable space group: P M M N
;
_chemical_formula_sum "Si O2"
_cell_formula_units_Z 64
_cell_length_a 9.388971
_cell_length_b 19.556915
_cell_length_c 20.556815
_cell_angle_alpha 90.000000
_cell_angle_beta 90.000000
_cell_angle_gamma 90.000000
_cell_volume 3774.628141
_symmetry_space_group_name_H-M "P M M N"
_symmetry_group_IT_number 59
_space_group.IT_coordinate_system_code '2'
_symmetry_cell_setting 'orthorhombic'
loop_
_space_group_symop_operation_xyz
x,y,z
1/2-x,1/2-y,z
1/2+x,-y,-z
-x,1/2+y,-z
-x,-y,-z
1/2+x,1/2+y,-z
1/2-x,y,z
x,1/2-y,z
loop_
_atom_site_type_symbol
_atom_site_label
_atom_site_fract_x
_atom_site_fract_y
_atom_site_fract_z
Si Si1 0.582334 0.170106 0.662584
Si Si2 0.420872 0.443750 0.261746
Si Si3 0.580558 0.669700 0.102452
Si Si4 0.413344 0.833123 0.972955
Si Si5 0.418345 0.902361 0.466423
Si Si6 0.919128 0.829863 0.843974
Si Si7 0.079559 0.418092 0.768981
Si Si8 0.080772 0.054468 0.411868
O O1 0.750000 0.151113 0.671109
O O2 0.566545 0.250000 0.676763
O O3 0.546521 0.154012 0.587554
O O4 0.486091 0.125462 0.709890
O O5 0.250000 0.457279 0.260691
O O6 0.448814 0.377569 0.217650
O O7 0.504589 0.508452 0.233429
O O8 0.462120 0.433826 0.337300
O O9 0.750000 0.666045 0.089601
O O10 0.547102 0.750000 0.115842
O O11 0.548308 0.623254 0.164700
O O12 0.495193 0.646942 0.038585
O O13 0.250000 0.856206 0.973157
O O14 0.414224 0.750000 0.972725
O O15 0.494756 0.853792 0.907423
O O16 0.250000 0.899730 0.479954
O O17 0.502412 0.900926 0.533731
O O18 0.448122 0.975390 0.431362
O O19 0.750000 0.833722 0.857958
O O20 0.953094 0.750000 0.831408
O O21 0.250000 0.424220 0.762655
O O22 0.250000 0.065046 0.416703
#
# Coordination Sequence:
#
# PCOD9450734 Si02
#       8
#     8   8   8   8   8   8   8   8
#     4  10  20  35  54  75 105 144 179 214 260 313
#     4  10  20  36  55  76 105 138 174 214 259 316
#     4   9  18  33  51  72 102 138 173 211 254 301
#     4   9  17  30  51  78 104 131 168 213 256 305
#     4   9  17  31  50  73  99 129 170 212 250 299
#     4   9  18  34  57  80 101 131 169 211 263 319
#     4  11  22  34  51  77 108 139 176 219 262 307
#     4   9  17  31  51  73  99 130 166 210 253 297
#
# _framework density 16.955311999999999
#
# number of rings (size 3 to 8) (size 9 to 14) (size 15 to 20)
#    0.000    2.500    1.250    1.125    0.000    4.750 
#    0.000    2.500    0.000    0.750    0.000    0.000 
#    0.000    0.000    0.000    0.000    0.000    0.000 
#
# Total GULP energy -356867.216166 kJ/mol
# GULP energy per Si atom -5576.050253 kJ/mol
# Density = 1.691672 g / cm^3
# Si number density = 16.955312 Si / 1000 Ang^3
#
#
#
# Elastic Constant Matrix: (Units=GPa)
#
#
# Indices 1 2 3 4 5 6 
#
# 1 51.5903 42.7503 71.9746 0.0000 0.0000 0.0000
# 2 42.7503 62.3869 58.9207 0.0000 0.0000 0.0000
# 3 71.9746 58.9207 157.1177 0.0000 0.0000 0.0000
# 4 0.0000 0.0000 0.0000 24.9981 0.0000 0.0000
# 5 0.0000 0.0000 0.0000 0.0000 28.4416 0.0000
# 6 0.0000 0.0000 0.0000 0.0000 0.0000 17.9568
#
#
#
# Elastic Compliance Matrix: (Units=1/GPa)
#
#
# Indices 1 2 3 4 5 6 
#
# 1 0.080287 -0.031403 -0.025003 0.000000 0.000000 0.000000
# 2 -0.031403 0.037102 0.000472 0.000000 0.000000 0.000000
# 3 -0.025003 0.000472 0.017641 0.000000 0.000000 0.000000
# 4 0.000000 0.000000 0.000000 0.040003 0.000000 0.000000
# 5 0.000000 0.000000 0.000000 0.000000 0.035160 0.000000
# 6 0.000000 0.000000 0.000000 0.000000 0.000000 0.055689
#
#
# Mechanical properties :
#
#
# Convention : Reuss Voigt Hill
#
# Bulk Modulus (GPa) = 43.17216 68.70957 55.94086
# Shear Modulus (GPa) = 12.97115 20.77592 16.87353
#
# Velocity S-wave (km/s) = 2.76890 3.50427 3.15806
# Velocity P-wave (km/s) = 5.97829 7.54885 6.80901
#
# Compressibility (1/GPa) = 0.02316308
#
# Stress axis : x y z
#
# Youngs Moduli (GPa) = 12.45529 26.95267 56.68528
#
# Poissons Ratio (x) = 0.84639 1.41728
# Poissons Ratio (y) = 0.39113 -0.02675
# Poissons Ratio (z) = 0.31142 -0.01272
#
# Static dielectric constant tensor:
#      x y z
#    x 1.567480 0.000000 0.000000 
#    y 0.000000 1.564600 0.000000 
#    z 0.000000 0.000000 1.559380 
# 
# From -- ./inp_files/29610.got.cif
#   From: 2010.05.17/outbox.cif.g08.bks.cpg/sg59_15_cif.got.tgz:29610.got - 2010.06.03 14:40:33.
