data_PCOD9450547
_publ_section_title
;
Structure prediction by ZEFSAII (Michael W. Deem and Ramdas Pophale) SiO2 
 PCOD9450547
Probable space group: P M M N
;
_chemical_formula_sum "Si O2"
_cell_formula_units_Z 64
_cell_length_a 7.559616
_cell_length_b 15.125134
_cell_length_c 24.971961
_cell_angle_alpha 90.000000
_cell_angle_beta 90.000000
_cell_angle_gamma 90.000000
_cell_volume 2855.299140
_symmetry_space_group_name_H-M "P M M N"
_symmetry_group_IT_number 59
_space_group.IT_coordinate_system_code '2'
_symmetry_cell_setting 'orthorhombic'
loop_
_space_group_symop_operation_xyz
x,y,z
1/2-x,1/2-y,z
1/2+x,-y,-z
-x,1/2+y,-z
-x,-y,-z
1/2+x,1/2+y,-z
1/2-x,y,z
x,1/2-y,z
loop_
_atom_site_type_symbol
_atom_site_label
_atom_site_fract_x
_atom_site_fract_y
_atom_site_fract_z
Si Si1 0.036396 0.533649 0.627497
Si Si2 0.043883 0.845264 0.247775
Si Si3 0.532502 0.647506 0.847151
Si Si4 0.963431 0.148594 0.472359
Si Si5 0.449323 0.021603 0.060587
Si Si6 0.456388 0.151865 0.595023
Si Si7 0.460324 0.460275 0.257351
Si Si8 0.037150 0.346086 0.877116
O O1 0.250000 0.530802 0.624445
O O2 0.973911 0.585343 0.574917
O O3 0.966025 0.432877 0.624790
O O4 0.988636 0.578695 0.683656
O O5 0.250000 0.844749 0.263876
O O6 0.966612 0.750000 0.265845
O O7 0.033356 0.845592 0.183236
O O8 0.961871 0.940240 0.261140
O O9 0.750000 0.645781 0.846497
O O10 0.479899 0.750000 0.846989
O O11 0.466368 0.594418 0.899712
O O12 0.474091 0.595793 0.793235
O O13 0.750000 0.142481 0.475661
O O14 0.009421 0.250000 0.459580
O O15 0.033852 0.130190 0.531701
O O16 0.250000 0.052999 0.055938
O O17 0.462876 0.929203 0.091848
O O18 0.500000 0.000000 0.000000
O O19 0.250000 0.157325 0.609708
O O20 0.534999 0.250000 0.602824
O O21 0.250000 0.470176 0.248699
O O22 0.250000 0.353628 0.875208
O O23 0.993325 0.250000 0.901450
#
# Coordination Sequence:
#
# PCOD9450547 Si02
#       8
#     8   8   8   8   8   8   8   8
#     4  10  21  34  49  74 107 141 173 217 273 321
#     4   9  17  32  54  78 104 135 174 222 275 326
#     4   9  19  38  61  82 109 147 187 228 276 326
#     4   9  18  33  52  73 100 134 174 220 271 323
#     4  11  22  38  60  87 117 150 186 231 284 334
#     4   9  18  33  52  74 102 136 174 216 266 324
#     4  10  20  35  54  79 106 140 185 226 268 323
#     4  10  20  34  55  83 112 143 180 222 271 329
#
# _framework density 22.414465
#
# number of rings (size 3 to 8) (size 9 to 14) (size 15 to 20)
#    0.000    2.375    1.250    1.125    0.000    3.750 
#    0.000    1.250    0.000    2.625    0.000    0.000 
#    0.000    0.000    0.000    0.000    0.000    0.000 
#
# Total GULP energy -357151.582531 kJ/mol
# GULP energy per Si atom -5580.493477 kJ/mol
# Density = 2.236345 g / cm^3
# Si number density = 22.414465 Si / 1000 Ang^3
#
#
#
# Elastic Constant Matrix: (Units=GPa)
#
#
# Indices 1 2 3 4 5 6 
#
# 1 53.6878 1.8037 -0.6113 0.0000 0.0000 0.0000
# 2 1.8037 126.8500 76.1871 0.0000 0.0000 0.0000
# 3 -0.6113 76.1871 147.6539 0.0000 0.0000 0.0000
# 4 0.0000 0.0000 0.0000 -3.7798 0.0000 0.0000
# 5 0.0000 0.0000 0.0000 0.0000 13.4759 0.0000
# 6 0.0000 0.0000 0.0000 0.0000 0.0000 -0.1045
#
#
#
# Elastic Compliance Matrix: (Units=1/GPa)
#
#
# Indices 1 2 3 4 5 6 
#
# 1 0.018645 -0.000451 0.000310 0.000000 0.000000 0.000000
# 2 -0.000451 0.011434 -0.005902 0.000000 0.000000 0.000000
# 3 0.000310 -0.005902 0.009819 0.000000 0.000000 0.000000
# 4 0.000000 0.000000 0.000000 -0.264566 0.000000 0.000000
# 5 0.000000 0.000000 0.000000 0.000000 0.074207 0.000000
# 6 0.000000 0.000000 0.000000 0.000000 0.000000 -9.570995
#
#
# Mechanical properties :
#
#
# Convention : Reuss Voigt Hill
#
# Bulk Modulus (GPa) = 35.95543 53.66120 44.80831
# Shear Modulus (GPa) = -0.51546 18.63913 9.06184
#
# Velocity S-wave (km/s) = -0.48007 2.88682 2.01287
# Velocity P-wave (km/s) = 3.97098 5.92487 5.04345
#
# Compressibility (1/GPa) = 0.02781221
#
# Stress axis : x y z
#
# Youngs Moduli (GPa) = 53.63400 87.45499 101.84181
#
# Poissons Ratio (x) = 0.03947 -0.03158
# Poissons Ratio (y) = 0.02421 0.60106
# Poissons Ratio (z) = -0.01663 0.51615
#
# Static dielectric constant tensor:
#      x y z
#    x 1.845330 0.000000 0.000000 
#    y 0.000000 1.853220 0.000000 
#    z 0.000000 0.000000 1.818900 
# 
# From -- ./inp_files/31406.got.cif
#   From: 2010.05.17/outbox.cif.g08.bks.cpg/sg59_16_cif.got.tgz:31406.got - 2010.06.03 14:40:33.
