data_PCOD9450605
_publ_section_title
;
Structure prediction by ZEFSAII (Michael W. Deem and Ramdas Pophale) SiO2 
 PCOD9450605
Probable space group: P M M N
;
_chemical_formula_sum "Si O2"
_cell_formula_units_Z 64
_cell_length_a 15.119781
_cell_length_b 9.021111
_cell_length_c 25.204410
_cell_angle_alpha 90.000000
_cell_angle_beta 90.000000
_cell_angle_gamma 90.000000
_cell_volume 3437.811524
_symmetry_space_group_name_H-M "P M M N"
_symmetry_group_IT_number 59
_space_group.IT_coordinate_system_code '2'
_symmetry_cell_setting 'orthorhombic'
loop_
_space_group_symop_operation_xyz
x,y,z
1/2-x,1/2-y,z
1/2+x,-y,-z
-x,1/2+y,-z
-x,-y,-z
1/2+x,1/2+y,-z
1/2-x,y,z
x,1/2-y,z
loop_
_atom_site_type_symbol
_atom_site_label
_atom_site_fract_x
_atom_site_fract_y
_atom_site_fract_z
Si Si1 0.145772 0.574014 0.732648
Si Si2 0.355706 0.082516 0.625247
Si Si3 0.994915 0.071519 0.920416
Si Si4 0.352124 0.569101 0.288717
Si Si5 0.905700 0.572753 0.492767
Si Si6 0.646871 0.415265 0.597017
Si Si7 0.505338 0.071174 0.798246
Si Si8 0.146103 0.571058 0.989824
O O1 0.250000 0.538002 0.739285
O O2 0.136200 0.750000 0.735812
O O3 0.116205 0.517199 0.674449
O O4 0.085293 0.494833 0.775772
O O5 0.250000 0.092300 0.628675
O O6 0.392346 0.250000 0.631019
O O7 0.374421 0.026830 0.565902
O O8 0.004794 0.250000 0.923241
O O9 0.980649 0.028872 0.859350
O O10 0.083982 0.998587 0.944131
O O11 0.909686 0.032570 0.956785
O O12 0.250000 0.521069 0.280794
O O13 0.351910 0.750000 0.290236
O O14 0.388956 0.523389 0.347067
O O15 0.415819 0.522524 0.241110
O O16 0.905135 0.750000 0.493569
O O17 0.856807 0.512838 0.544631
O O18 0.000000 0.500000 0.500000
O O19 0.750000 0.397949 0.609381
O O20 0.609294 0.250000 0.586048
O O21 0.501238 0.250000 0.795751
O O22 0.250000 0.525169 0.990010
O O23 0.145253 0.750000 0.984868
#
# Coordination Sequence:
#
# PCOD9450605 Si02
#       8
#     8   8   8   8   8   8   8   8
#     4  10  22  38  55  77 106 140 179 223 272 323
#     4   9  19  37  57  73  94 129 172 217 265 320
#     4   9  19  34  52  81 114 143 182 226 267 312
#     4   8  16  32  54  79 105 136 175 216 263 319
#     4  11  23  35  50  75 104 132 168 214 266 326
#     4   9  18  34  54  74  99 131 167 211 264 323
#     4  10  20  34  56  82 110 144 180 222 266 313
#     4   9  18  34  56  80 110 148 185 223 267 313
#
# _framework density 18.616493999999999
#
# number of rings (size 3 to 8) (size 9 to 14) (size 15 to 20)
#    0.000    2.625    0.000    1.875    1.750    4.250 
#    0.000    6.250    0.000    1.125    0.000    1.750 
#    0.000    0.000    0.000    0.000    0.000    0.000 
#
# Total GULP energy -356607.598857 kJ/mol
# GULP energy per Si atom -5571.993732 kJ/mol
# Density = 1.857412 g / cm^3
# Si number density = 18.616494 Si / 1000 Ang^3
#
#
#
# Elastic Constant Matrix: (Units=GPa)
#
#
# Indices 1 2 3 4 5 6 
#
# 1 71.8150 8.8314 17.1960 0.0000 0.0000 0.0000
# 2 8.8314 8.8059 14.4257 0.0000 0.0000 0.0000
# 3 17.1960 14.4257 103.4337 0.0000 0.0000 0.0000
# 4 0.0000 0.0000 0.0000 24.7811 0.0000 0.0000
# 5 0.0000 0.0000 0.0000 0.0000 24.0156 0.0000
# 6 0.0000 0.0000 0.0000 0.0000 0.0000 16.9846
#
#
#
# Elastic Compliance Matrix: (Units=1/GPa)
#
#
# Indices 1 2 3 4 5 6 
#
# 1 0.015907 -0.015062 -0.000544 0.000000 0.000000 0.000000
# 2 -0.015062 0.161450 -0.020013 0.000000 0.000000 0.000000
# 3 -0.000544 -0.020013 0.012550 0.000000 0.000000 0.000000
# 4 0.000000 0.000000 0.000000 0.040353 0.000000 0.000000
# 5 0.000000 0.000000 0.000000 0.000000 0.041640 0.000000
# 6 0.000000 0.000000 0.000000 0.000000 0.000000 0.058877
#
#
# Mechanical properties :
#
#
# Convention : Reuss Voigt Hill
#
# Bulk Modulus (GPa) = 8.42680 29.44009 18.93345
# Shear Modulus (GPa) = 11.32319 22.72968 17.02643
#
# Velocity S-wave (km/s) = 2.46892 3.49799 3.02750
# Velocity P-wave (km/s) = 3.55862 5.67123 4.73427
#
# Compressibility (1/GPa) = 0.11866900
#
# Stress axis : x y z
#
# Youngs Moduli (GPa) = 62.86485 6.19385 79.68354
#
# Poissons Ratio (x) = 0.09329 0.04334
# Poissons Ratio (y) = 0.94688 1.59471
# Poissons Ratio (z) = 0.03419 0.12396
#
# Static dielectric constant tensor:
#      x y z
#    x 1.639350 0.000000 0.000000 
#    y 0.000000 1.643230 0.000000 
#    z 0.000000 0.000000 1.728330 
# 
# From -- ./inp_files/32219.got.cif
#   From: 2010.05.17/outbox.cif.g08.bks.cpg/sg59_17_cif.got.tgz:32219.got - 2010.06.03 14:40:33.
