data_PCOD9450125
_publ_section_title
;
Structure prediction by ZEFSAII (Michael W. Deem and Ramdas Pophale) SiO2 
 PCOD9450125
Probable space group: P M M N
;
_chemical_formula_sum "Si O2"
_cell_formula_units_Z 48
_cell_length_a 14.672489
_cell_length_b 7.929559
_cell_length_c 21.913834
_cell_angle_alpha 90.000000
_cell_angle_beta 90.000000
_cell_angle_gamma 90.000000
_cell_volume 2549.594977
_symmetry_space_group_name_H-M "P M M N"
_symmetry_group_IT_number 59
_space_group.IT_coordinate_system_code '2'
_symmetry_cell_setting 'orthorhombic'
loop_
_space_group_symop_operation_xyz
x,y,z
1/2-x,1/2-y,z
1/2+x,-y,-z
-x,1/2+y,-z
-x,-y,-z
1/2+x,1/2+y,-z
1/2-x,y,z
x,1/2-y,z
loop_
_atom_site_type_symbol
_atom_site_label
_atom_site_fract_x
_atom_site_fract_y
_atom_site_fract_z
Si Si1 0.853255 0.546699 0.664491
Si Si2 0.004084 0.953740 0.236506
Si Si3 0.146412 0.953461 0.999595
Si Si4 0.005112 0.951094 0.570279
Si Si5 0.500515 0.953363 0.097799
Si Si6 0.852844 0.547885 0.331504
O O1 0.750000 0.482762 0.661506
O O2 0.850004 0.750000 0.660530
O O3 0.904864 0.501089 0.726891
O O4 0.918602 0.484383 0.609709
O O5 0.999034 0.750000 0.235091
O O6 0.002014 0.015821 0.167122
O O7 0.919152 0.016366 0.277597
O O8 0.250000 0.016093 0.001135
O O9 0.148995 0.750000 0.002999
O O10 0.083707 0.014661 0.055922
O O11 0.092270 0.000466 0.938307
O O12 0.004434 0.750000 0.574266
O O13 0.095334 0.012429 0.605240
O O14 0.000000 0.000000 0.500000
O O15 0.495001 0.750000 0.099614
O O16 0.750000 0.480996 0.329587
O O17 0.848116 0.750000 0.324773
#
# Coordination Sequence:
#
# PCOD9450125 Si02
#       6
#     8   8   8   8   8   8
#     4   9  19  35  52  71  98 131 163 196 238 288
#     4   9  18  32  51  75  99 125 160 202 245 288
#     4   9  18  32  48  68  97 131 165 201 242 288
#     4  10  20  34  52  74 100 129 163 202 242 286
#     4   9  18  32  50  72  98 127 161 202 245 288
#     4   9  18  33  51  71  98 130 162 199 244 291
#
# _framework density 18.826519000000001
#
# number of rings (size 3 to 8) (size 9 to 14) (size 15 to 20)
#    0.000    2.833    0.000    0.500    0.000    4.333 
#    0.000    5.000    0.000    0.000    0.000    0.000 
#    0.000    0.000    0.000    0.000    0.000    0.000 
#
# Total GULP energy -267671.773619 kJ/mol
# GULP energy per Si atom -5576.495284 kJ/mol
# Density = 1.878367 g / cm^3
# Si number density = 18.826519 Si / 1000 Ang^3
#
#
#
# Elastic Constant Matrix: (Units=GPa)
#
#
# Indices 1 2 3 4 5 6 
#
# 1 179.6558 5.9861 81.3844 0.0000 0.0000 0.0000
# 2 5.9861 14.7367 0.5411 0.0000 0.0000 0.0000
# 3 81.3844 0.5411 163.4831 0.0000 0.0000 0.0000
# 4 0.0000 0.0000 0.0000 15.7320 0.0000 0.0000
# 5 0.0000 0.0000 0.0000 0.0000 6.8937 0.0000
# 6 0.0000 0.0000 0.0000 0.0000 0.0000 22.3523
#
#
#
# Elastic Compliance Matrix: (Units=1/GPa)
#
#
# Indices 1 2 3 4 5 6 
#
# 1 0.007303 -0.002834 -0.003626 0.000000 0.000000 0.000000
# 2 -0.002834 0.068965 0.001182 0.000000 0.000000 0.000000
# 3 -0.003626 0.001182 0.007918 0.000000 0.000000 0.000000
# 4 0.000000 0.000000 0.000000 0.063565 0.000000 0.000000
# 5 0.000000 0.000000 0.000000 0.000000 0.145059 0.000000
# 6 0.000000 0.000000 0.000000 0.000000 0.000000 0.044738
#
#
# Mechanical properties :
#
#
# Convention : Reuss Voigt Hill
#
# Bulk Modulus (GPa) = 13.58107 59.29986 36.44046
# Shear Modulus (GPa) = 13.41748 26.99320 20.20534
#
# Velocity S-wave (km/s) = 2.67252 3.79064 3.27959
# Velocity P-wave (km/s) = 4.09300 7.12215 5.80852
#
# Compressibility (1/GPa) = 0.07363192
#
# Stress axis : x y z
#
# Youngs Moduli (GPa) = 136.92339 14.50001 126.29168
#
# Poissons Ratio (x) = 0.04109 0.45798
# Poissons Ratio (y) = 0.38798 -0.14932
# Poissons Ratio (z) = 0.49653 -0.01714
#
# Static dielectric constant tensor:
#      x y z
#    x 1.650220 0.000000 0.000000 
#    y 0.000000 1.693960 0.000000 
#    z 0.000000 0.000000 1.648310 
# 
# From -- ./inp_files/28819.got.cif
#   From: 2010.05.17/outbox.cif.g08.bks.cpg/sg59_15_cif.got.tgz:28819.got - 2010.06.03 14:40:33.
