data_PCOD9450740
_publ_section_title
;
Structure prediction by ZEFSAII (Michael W. Deem and Ramdas Pophale) SiO2 
 PCOD9450740
Probable space group: P M M N
;
_chemical_formula_sum "Si O2"
_cell_formula_units_Z 48
_cell_length_a 18.559223
_cell_length_b 8.471850
_cell_length_c 17.079217
_cell_angle_alpha 90.000000
_cell_angle_beta 90.000000
_cell_angle_gamma 90.000000
_cell_volume 2685.381572
_symmetry_space_group_name_H-M "P M M N"
_symmetry_group_IT_number 59
_space_group.IT_coordinate_system_code '2'
_symmetry_cell_setting 'orthorhombic'
loop_
_space_group_symop_operation_xyz
x,y,z
1/2-x,1/2-y,z
1/2+x,-y,-z
-x,1/2+y,-z
-x,-y,-z
1/2+x,1/2+y,-z
1/2-x,y,z
x,1/2-y,z
loop_
_atom_site_type_symbol
_atom_site_label
_atom_site_fract_x
_atom_site_fract_y
_atom_site_fract_z
Si Si1 0.918065 0.439732 0.507041
Si Si2 0.604110 0.060013 0.681504
Si Si3 0.047553 0.441109 0.759538
Si Si4 0.167663 0.058689 0.643359
Si Si5 0.474972 0.561068 0.083688
Si Si6 0.830576 0.561586 0.838362
O O1 0.919446 0.250000 0.505374
O O2 0.886110 0.488529 0.591693
O O3 0.871100 0.503401 0.435664
O O4 0.000000 0.500000 0.500000
O O5 0.612000 0.250000 0.686921
O O6 0.521769 0.021107 0.705925
O O7 0.653423 0.984419 0.748152
O O8 0.051359 0.250000 0.762916
O O9 0.119309 0.497281 0.716661
O O10 0.028056 0.497023 0.846582
O O11 0.250000 0.004784 0.647178
O O12 0.167209 0.250000 0.643885
O O13 0.476917 0.750000 0.083367
O O14 0.394830 0.509636 0.109646
O O15 0.500000 0.500000 0.000000
O O16 0.750000 0.507575 0.859882
O O17 0.833630 0.750000 0.845659
#
# Coordination Sequence:
#
# PCOD9450740 Si02
#       6
#     8   8   8   8   8   8
#     4  11  21  34  53  77 108 145 188 233 276 324
#     4   9  18  33  53  74 102 141 182 222 267 326
#     4   8  15  32  53  74 101 135 177 216 258 319
#     4  10  20  35  54  76 106 143 183 227 275 323
#     4  10  20  36  59  84 112 144 182 223 269 331
#     4  10  21  36  55  82 114 143 178 227 279 329
#
# _framework density 17.874555999999998
#
# number of rings (size 3 to 8) (size 9 to 14) (size 15 to 20)
#    0.000    2.333    1.667    2.500    0.000    3.667 
#    0.000    5.000    0.000    3.000    0.000    0.000 
#    0.000    0.000    0.000    0.000    0.000    0.000 
#
# Total GULP energy -267735.216704 kJ/mol
# GULP energy per Si atom -5577.817015 kJ/mol
# Density = 1.783387 g / cm^3
# Si number density = 17.874556 Si / 1000 Ang^3
#
#
#
# Elastic Constant Matrix: (Units=GPa)
#
#
# Indices 1 2 3 4 5 6 
#
# 1 141.7598 25.8587 89.9632 0.0000 0.0000 0.0000
# 2 25.8587 26.3545 25.3952 0.0000 0.0000 0.0000
# 3 89.9632 25.3952 164.4712 0.0000 0.0000 0.0000
# 4 0.0000 0.0000 0.0000 30.0397 0.0000 0.0000
# 5 0.0000 0.0000 0.0000 0.0000 19.6909 0.0000
# 6 0.0000 0.0000 0.0000 0.0000 0.0000 22.6544
#
#
#
# Elastic Compliance Matrix: (Units=1/GPa)
#
#
# Indices 1 2 3 4 5 6 
#
# 1 0.011605 -0.006191 -0.005392 0.000000 0.000000 0.000000
# 2 -0.006191 0.047880 -0.004006 0.000000 0.000000 0.000000
# 3 -0.005392 -0.004006 0.009648 0.000000 0.000000 0.000000
# 4 0.000000 0.000000 0.000000 0.033289 0.000000 0.000000
# 5 0.000000 0.000000 0.000000 0.000000 0.050785 0.000000
# 6 0.000000 0.000000 0.000000 0.000000 0.000000 0.044141
#
#
# Mechanical properties :
#
#
# Convention : Reuss Voigt Hill
#
# Bulk Modulus (GPa) = 26.34790 68.33551 47.34171
# Shear Modulus (GPa) = 20.73148 27.23489 23.98319
#
# Velocity S-wave (km/s) = 3.40933 3.90765 3.66696
# Velocity P-wave (km/s) = 5.50186 7.65985 6.66872
#
# Compressibility (1/GPa) = 0.03795368
#
# Stress axis : x y z
#
# Youngs Moduli (GPa) = 86.16649 20.88576 103.64811
#
# Poissons Ratio (x) = 0.12931 0.55887
# Poissons Ratio (y) = 0.53349 0.41524
# Poissons Ratio (z) = 0.46461 0.08367
#
# Static dielectric constant tensor:
#      x y z
#    x 1.605780 0.000000 0.000000 
#    y 0.000000 1.616190 0.000000 
#    z 0.000000 0.000000 1.606920 
# 
# From -- ./inp_files/23657.got.cif
#   From: 2010.05.17/outbox.cif.g08.bks.cpg/sg59_12_cif.got.tgz:23657.got - 2010.06.03 14:40:33.
