data_PCOD9450672
_publ_section_title
;
Structure prediction by ZEFSAII (Michael W. Deem and Ramdas Pophale) SiO2 
 PCOD9450672
Probable space group: P M M N
;
_chemical_formula_sum "Si O2"
_cell_formula_units_Z 64
_cell_length_a 15.182691
_cell_length_b 17.677375
_cell_length_c 11.865789
_cell_angle_alpha 90.000000
_cell_angle_beta 90.000000
_cell_angle_gamma 90.000000
_cell_volume 3184.660561
_symmetry_space_group_name_H-M "P M M N"
_symmetry_group_IT_number 59
_space_group.IT_coordinate_system_code '2'
_symmetry_cell_setting 'orthorhombic'
loop_
_space_group_symop_operation_xyz
x,y,z
1/2-x,1/2-y,z
1/2+x,-y,-z
-x,1/2+y,-z
-x,-y,-z
1/2+x,1/2+y,-z
1/2-x,y,z
x,1/2-y,z
loop_
_atom_site_type_symbol
_atom_site_label
_atom_site_fract_x
_atom_site_fract_y
_atom_site_fract_z
Si Si1 0.650193 0.996458 0.768155
Si Si2 0.152538 0.340879 0.558633
Si Si3 0.355743 0.873850 0.931756
Si Si4 0.108738 0.667550 0.180836
Si Si5 0.645377 0.958763 0.026723
Si Si6 0.593299 0.835852 0.199728
Si Si7 0.983967 0.567874 0.585916
Si Si8 0.853597 0.336481 0.323973
O O1 0.750000 0.974650 0.733939
O O2 0.649339 0.088194 0.779371
O O3 0.574173 0.965835 0.687754
O O4 0.632846 0.963319 0.892982
O O5 0.250000 0.363400 0.519430
O O6 0.147542 0.250000 0.561748
O O7 0.140270 0.366518 0.688348
O O8 0.077399 0.372427 0.479009
O O9 0.250000 0.874236 0.951891
O O10 0.370126 0.837026 0.811021
O O11 0.387103 0.960715 0.926156
O O12 0.394536 0.837172 0.044215
O O13 0.148196 0.750000 0.210236
O O14 0.009841 0.667175 0.226759
O O15 0.750000 0.954911 0.046947
O O16 0.604625 0.889537 0.093132
O O17 0.624127 0.750000 0.176468
O O18 0.000000 0.500000 0.500000
O O19 0.075430 0.607019 0.622532
O O20 0.750000 0.357854 0.340663
O O21 0.864865 0.250000 0.364941
#
# Coordination Sequence:
#
# PCOD9450672 Si02
#       8
#     8   8   8   8   8   8   8   8
#     4  10  23  41  60  90 126 164 210 262 314 377
#     4  10  22  42  66  87 115 162 216 265 306 359
#     4   9  19  34  58  89 119 157 203 248 305 378
#     4  10  20  34  57  89 126 166 205 250 312 382
#     4   9  19  35  57  85 122 160 196 248 315 378
#     4  10  21  35  56  91 126 158 202 255 312 377
#     4  12  26  42  64  91 123 165 213 264 319 369
#     4  10  23  43  66  94 126 161 207 263 320 377
#
# _framework density 20.096332
#
# number of rings (size 3 to 8) (size 9 to 14) (size 15 to 20)
#    0.000    2.000    0.000    3.375    5.250    4.250 
#    0.000    1.250    0.000    1.500    0.000    0.000 
#    0.000    0.000    0.000    0.000    0.000    0.000 
#
# Total GULP energy -357294.469716 kJ/mol
# GULP energy per Si atom -5582.726089 kJ/mol
# Density = 2.005059 g / cm^3
# Si number density = 20.096332 Si / 1000 Ang^3
#
#
#
# Elastic Constant Matrix: (Units=GPa)
#
#
# Indices 1 2 3 4 5 6 
#
# 1 115.4008 45.0373 50.6792 0.0000 0.0000 0.0000
# 2 45.0373 96.3172 48.1758 0.0000 0.0000 0.0000
# 3 50.6792 48.1758 53.8809 0.0000 0.0000 0.0000
# 4 0.0000 0.0000 0.0000 21.6214 0.0000 0.0000
# 5 0.0000 0.0000 0.0000 0.0000 46.8837 0.0000
# 6 0.0000 0.0000 0.0000 0.0000 0.0000 22.8500
#
#
#
# Elastic Compliance Matrix: (Units=1/GPa)
#
#
# Indices 1 2 3 4 5 6 
#
# 1 0.014764 0.000077 -0.013955 0.000000 0.000000 0.000000
# 2 0.000077 0.018782 -0.016866 0.000000 0.000000 0.000000
# 3 -0.013955 -0.016866 0.046765 0.000000 0.000000 0.000000
# 4 0.000000 0.000000 0.000000 0.046250 0.000000 0.000000
# 5 0.000000 0.000000 0.000000 0.000000 0.021329 0.000000
# 6 0.000000 0.000000 0.000000 0.000000 0.000000 0.043764
#
#
# Mechanical properties :
#
#
# Convention : Reuss Voigt Hill
#
# Bulk Modulus (GPa) = 53.12614 61.48705 57.30660
# Shear Modulus (GPa) = 19.27388 26.38480 22.82934
#
# Velocity S-wave (km/s) = 3.10025 3.62735 3.37411
# Velocity P-wave (km/s) = 6.26965 6.94306 6.61493
#
# Compressibility (1/GPa) = 0.01882313
#
# Stress axis : x y z
#
# Youngs Moduli (GPa) = 67.73155 53.24130 21.38336
#
# Poissons Ratio (x) = -0.00407 0.29841
# Poissons Ratio (y) = -0.00518 0.36064
# Poissons Ratio (z) = 0.94521 0.89795
#
# Static dielectric constant tensor:
#      x y z
#    x 1.712630 0.000000 0.000000 
#    y 0.000000 1.725670 0.000000 
#    z 0.000000 0.000000 1.684430 
# 
# From -- ./inp_files/17210.got.cif
#   From: 2010.05.17/outbox.cif.g08.bks.cpg/sg59_9_cif.got.tgz:17210.got - 2010.06.03 14:40:33.
