data_PCOD9450601
_publ_section_title
;
Structure prediction by ZEFSAII (Michael W. Deem and Ramdas Pophale) SiO2 
 PCOD9450601
Probable space group: P M M N
;
_chemical_formula_sum "Si O2"
_cell_formula_units_Z 48
_cell_length_a 8.990721
_cell_length_b 10.425965
_cell_length_c 29.562085
_cell_angle_alpha 90.000000
_cell_angle_beta 90.000000
_cell_angle_gamma 90.000000
_cell_volume 2771.059461
_symmetry_space_group_name_H-M "P M M N"
_symmetry_group_IT_number 59
_space_group.IT_coordinate_system_code '2'
_symmetry_cell_setting 'orthorhombic'
loop_
_space_group_symop_operation_xyz
x,y,z
1/2-x,1/2-y,z
1/2+x,-y,-z
-x,1/2+y,-z
-x,-y,-z
1/2+x,1/2+y,-z
1/2-x,y,z
x,1/2-y,z
loop_
_atom_site_type_symbol
_atom_site_label
_atom_site_fract_x
_atom_site_fract_y
_atom_site_fract_z
Si Si1 0.426172 0.901935 0.803004
Si Si2 0.928932 0.603823 0.467254
Si Si3 0.428759 0.250000 0.046186
Si Si4 0.429158 0.494814 0.106839
Si Si5 0.071150 0.750000 0.052506
Si Si6 0.571817 0.899387 0.706177
Si Si7 0.570960 0.898112 0.361671
O O1 0.250000 0.923386 0.799176
O O2 0.450978 0.750000 0.812072
O O3 0.494532 0.978833 0.844756
O O4 0.504897 0.930724 0.755462
O O5 0.750000 0.597626 0.470553
O O6 0.974162 0.750000 0.478793
O O7 0.967316 0.581436 0.414532
O O8 0.000000 0.500000 0.500000
O O9 0.250000 0.250000 0.041440
O O10 0.471210 0.375059 0.075013
O O11 0.500055 0.250000 0.996902
O O12 0.250000 0.492140 0.112792
O O13 0.470630 0.624266 0.080873
O O14 0.250000 0.750000 0.047390
O O15 0.750000 0.908004 0.707547
O O16 0.532077 0.750000 0.696109
O O17 0.506638 0.997830 0.669830
O O18 0.750000 0.909230 0.357460
O O19 0.531672 0.750000 0.350220
#
# Coordination Sequence:
#
# PCOD9450601 Si02
#       7
#     8   8   4   8   4   8   8
#     4  10  20  35  57  82 104 134 178 222 264 315
#     4   9  19  35  54  78 110 147 186 229 274 321
#     4  10  20  34  56  78 102 140 178 212 257 312
#     4  10  20  36  55  77 106 139 173 214 263 312
#     4  10  22  36  52  78 110 138 170 214 259 308
#     4  10  21  36  56  82 110 140 177 224 273 325
#     4   9  19  37  57  78 109 147 185 226 273 324
#
# _framework density 17.321895000000001
#
# number of rings (size 3 to 8) (size 9 to 14) (size 15 to 20)
#    0.000    2.333    0.833    2.500    0.000    5.000 
#    1.500    5.000    0.000    0.000    0.000    0.000 
#    0.000    0.000    0.000    0.000    0.000    0.000 
#
# Total GULP energy -267897.548601 kJ/mol
# GULP energy per Si atom -5581.198929 kJ/mol
# Density = 1.728247 g / cm^3
# Si number density = 17.321895 Si / 1000 Ang^3
#
#
#
# Elastic Constant Matrix: (Units=GPa)
#
#
# Indices 1 2 3 4 5 6 
#
# 1 36.0404 53.8012 58.4622 0.0000 0.0000 0.0000
# 2 53.8012 156.3680 118.0292 0.0000 0.0000 0.0000
# 3 58.4622 118.0292 154.1397 0.0000 0.0000 0.0000
# 4 0.0000 0.0000 0.0000 19.2994 0.0000 0.0000
# 5 0.0000 0.0000 0.0000 0.0000 39.7402 0.0000
# 6 0.0000 0.0000 0.0000 0.0000 0.0000 22.0731
#
#
#
# Elastic Compliance Matrix: (Units=1/GPa)
#
#
# Indices 1 2 3 4 5 6 
#
# 1 0.079178 -0.010841 -0.021730 0.000000 0.000000 0.000000
# 2 -0.010841 0.016638 -0.008629 0.000000 0.000000 0.000000
# 3 -0.021730 -0.008629 0.021336 0.000000 0.000000 0.000000
# 4 0.000000 0.000000 0.000000 0.051815 0.000000 0.000000
# 5 0.000000 0.000000 0.000000 0.000000 0.025163 0.000000
# 6 0.000000 0.000000 0.000000 0.000000 0.000000 0.045304
#
#
# Mechanical properties :
#
#
# Convention : Reuss Voigt Hill
#
# Bulk Modulus (GPa) = 28.77322 89.68148 59.22735
# Shear Modulus (GPa) = 14.99622 23.97292 19.48457
#
# Velocity S-wave (km/s) = 2.94553 3.72421 3.35752
# Velocity P-wave (km/s) = 5.31180 8.38921 7.02118
#
# Compressibility (1/GPa) = 0.03475454
#
# Stress axis : x y z
#
# Youngs Moduli (GPa) = 12.62981 60.10284 46.86811
#
# Poissons Ratio (x) = 0.65155 1.01843
# Poissons Ratio (y) = 0.13692 0.40441
# Poissons Ratio (z) = 0.27444 0.51861
#
# Static dielectric constant tensor:
#      x y z
#    x 1.577120 0.000000 0.000000 
#    y 0.000000 1.579370 0.000000 
#    z 0.000000 0.000000 1.551370 
# 
# From -- ./inp_files/33024.got.cif
#   From: 2010.05.17/outbox.cif.g08.bks.cpg/sg59_17_cif.got.tgz:33024.got - 2010.06.03 14:40:33.
