data_PCOD9450387
_publ_section_title
;
Structure prediction by ZEFSAII (Michael W. Deem and Ramdas Pophale) SiO2 
 PCOD9450387
Probable space group: P M M N
;
_chemical_formula_sum "Si O2"
_cell_formula_units_Z 64
_cell_length_a 9.212687
_cell_length_b 25.427370
_cell_length_c 15.773462
_cell_angle_alpha 90.000000
_cell_angle_beta 90.000000
_cell_angle_gamma 90.000000
_cell_volume 3695.002893
_symmetry_space_group_name_H-M "P M M N"
_symmetry_group_IT_number 59
_space_group.IT_coordinate_system_code '2'
_symmetry_cell_setting 'orthorhombic'
loop_
_space_group_symop_operation_xyz
x,y,z
1/2-x,1/2-y,z
1/2+x,-y,-z
-x,1/2+y,-z
-x,-y,-z
1/2+x,1/2+y,-z
1/2-x,y,z
x,1/2-y,z
loop_
_atom_site_type_symbol
_atom_site_label
_atom_site_fract_x
_atom_site_fract_y
_atom_site_fract_z
Si Si1 0.911566 0.552114 0.981221
Si Si2 0.076773 0.689735 0.113245
Si Si3 0.576052 0.553023 0.466626
Si Si4 0.424580 0.808904 0.741271
Si Si5 0.077522 0.649198 0.924369
Si Si6 0.575648 0.475688 0.697340
Si Si7 0.086572 0.407616 0.827562
Si Si8 0.922571 0.904346 0.645632
O O1 0.750000 0.540721 0.948882
O O2 0.993728 0.593909 0.922831
O O3 0.901874 0.578716 0.073402
O O4 0.000000 0.500000 0.000000
O O5 0.250000 0.682183 0.123554
O O6 0.040442 0.750000 0.131610
O O7 0.992137 0.648648 0.171852
O O8 0.045121 0.677990 0.013510
O O9 0.500000 0.500000 0.500000
O O10 0.750000 0.546277 0.457283
O O11 0.498458 0.559596 0.376617
O O12 0.551776 0.593400 0.543893
O O13 0.250000 0.811690 0.732488
O O14 0.471418 0.750000 0.715691
O O15 0.457871 0.817648 0.840993
O O16 0.495206 0.856583 0.689688
O O17 0.250000 0.638829 0.924014
O O18 0.750000 0.471756 0.693697
O O19 0.509768 0.452025 0.782758
O O20 0.537328 0.537374 0.681975
O O21 0.250000 0.406546 0.791916
O O22 0.750000 0.898716 0.659082
#
# Coordination Sequence:
#
# PCOD9450387 Si02
#       8
#     8   8   8   8   8   8   8   8
#     4  10  21  34  48  69 100 137 175 213 258 310
#     4   9  17  32  54  74  96 131 173 216 261 306
#     4   9  17  32  53  78 105 132 165 203 248 304
#     4  10  21  35  52  76 105 138 179 222 260 306
#     4   9  18  33  51  72  98 132 175 219 261 304
#     4  10  20  34  54  80 108 136 170 213 261 315
#     4  10  21  34  49  74 104 135 170 209 258 309
#     4   9  20  35  52  77 105 136 170 208 259 311
#
# _framework density 17.320689999999999
#
# number of rings (size 3 to 8) (size 9 to 14) (size 15 to 20)
#    0.000    2.500    0.000    2.625    1.750    7.000 
#    0.000    0.000    0.000    3.000    0.000    3.500 
#    0.000    0.000    0.000    0.000    0.000    0.000 
#
# Total GULP energy -356624.166409 kJ/mol
# GULP energy per Si atom -5572.252600 kJ/mol
# Density = 1.728127 g / cm^3
# Si number density = 17.320690 Si / 1000 Ang^3
#
#
#
# Elastic Constant Matrix: (Units=GPa)
#
#
# Indices 1 2 3 4 5 6 
#
# 1 62.3640 54.3501 26.9468 0.0000 0.0000 0.0000
# 2 54.3501 120.5980 25.8528 0.0000 0.0000 0.0000
# 3 26.9468 25.8528 47.3063 0.0000 0.0000 0.0000
# 4 0.0000 0.0000 0.0000 18.6308 0.0000 0.0000
# 5 0.0000 0.0000 0.0000 0.0000 27.8064 0.0000
# 6 0.0000 0.0000 0.0000 0.0000 0.0000 27.7847
#
#
#
# Elastic Compliance Matrix: (Units=1/GPa)
#
#
# Indices 1 2 3 4 5 6 
#
# 1 0.030990 -0.011533 -0.011350 0.000000 0.000000 0.000000
# 2 -0.011533 0.013685 -0.000909 0.000000 0.000000 0.000000
# 3 -0.011350 -0.000909 0.028101 0.000000 0.000000 0.000000
# 4 0.000000 0.000000 0.000000 0.053674 0.000000 0.000000
# 5 0.000000 0.000000 0.000000 0.000000 0.035963 0.000000
# 6 0.000000 0.000000 0.000000 0.000000 0.000000 0.035991
#
#
# Mechanical properties :
#
#
# Convention : Reuss Voigt Hill
#
# Bulk Modulus (GPa) = 39.69620 49.39643 44.54631
# Shear Modulus (GPa) = 19.65519 23.05230 21.35374
#
# Velocity S-wave (km/s) = 3.37231 3.65212 3.51500
# Velocity P-wave (km/s) = 6.17506 6.80916 6.49985
#
# Compressibility (1/GPa) = 0.02519133
#
# Stress axis : x y z
#
# Youngs Moduli (GPa) = 32.26803 73.07463 35.58622
#
# Poissons Ratio (x) = 0.84280 0.40390
# Poissons Ratio (y) = 0.37216 0.03235
# Poissons Ratio (z) = 0.36624 0.06642
#
# Static dielectric constant tensor:
#      x y z
#    x 1.599320 0.000000 0.000000 
#    y 0.000000 1.574510 0.000000 
#    z 0.000000 0.000000 1.635270 
# 
# From -- ./inp_files/21508.got.cif
#   From: 2010.05.17/outbox.cif.g08.bks.cpg/sg59_11_cif.got.tgz:21508.got - 2010.06.03 14:40:33.
