data_PCOD9450500
_publ_section_title
;
Structure prediction by ZEFSAII (Michael W. Deem and Ramdas Pophale) SiO2 
 PCOD9450500
Probable space group: P M M N
;
_chemical_formula_sum "Si O2"
_cell_formula_units_Z 56
_cell_length_a 8.825181
_cell_length_b 21.578364
_cell_length_c 16.960334
_cell_angle_alpha 90.000000
_cell_angle_beta 90.000000
_cell_angle_gamma 90.000000
_cell_volume 3229.806742
_symmetry_space_group_name_H-M "P M M N"
_symmetry_group_IT_number 59
_space_group.IT_coordinate_system_code '2'
_symmetry_cell_setting 'orthorhombic'
loop_
_space_group_symop_operation_xyz
x,y,z
1/2-x,1/2-y,z
1/2+x,-y,-z
-x,1/2+y,-z
-x,-y,-z
1/2+x,1/2+y,-z
1/2-x,y,z
x,1/2-y,z
loop_
_atom_site_type_symbol
_atom_site_label
_atom_site_fract_x
_atom_site_fract_y
_atom_site_fract_z
Si Si1 0.569173 0.679490 0.464189
Si Si2 0.572083 0.618608 0.298695
Si Si3 0.923938 0.176323 0.853995
Si Si4 0.430916 0.940796 0.546822
Si Si5 0.570105 0.514729 0.704620
Si Si6 0.069989 0.971008 0.876331
Si Si7 0.929657 0.595610 0.021387
O O1 0.750000 0.675051 0.479633
O O2 0.520325 0.750000 0.482383
O O3 0.548092 0.665188 0.371266
O O4 0.486770 0.623859 0.509533
O O5 0.750000 0.601754 0.296229
O O6 0.522383 0.648662 0.216882
O O7 0.476276 0.556553 0.311398
O O8 0.750000 0.154568 0.845845
O O9 0.926552 0.250000 0.849414
O O10 0.991445 0.152833 0.936111
O O11 0.250000 0.945243 0.543318
O O12 0.489539 0.946131 0.636306
O O13 0.500000 0.000000 0.500000
O O14 0.750000 0.522080 0.700399
O O15 0.509693 0.530101 0.791856
O O16 0.250000 0.963139 0.867264
O O17 0.044171 0.037435 0.919078
O O18 0.002196 0.921956 0.937931
O O19 0.750000 0.603899 0.013709
#
# Coordination Sequence:
#
# PCOD9450500 Si02
#       7
#     8   8   8   8   8   8   8
#     4  10  22  40  61  85 117 156 197 242 293 352
#     4  11  21  35  56  83 116 155 193 232 285 346
#     4  11  23  36  52  78 115 156 194 233 278 334
#     4  12  24  39  60  86 117 155 198 244 294 348
#     4  12  23  36  58  86 118 152 189 239 290 342
#     4  10  20  35  56  82 112 144 180 228 280 335
#     4  10  20  34  55  80 109 146 186 229 276 330
#
# _framework density 17.338498000000001
#
# number of rings (size 3 to 8) (size 9 to 14) (size 15 to 20)
#    0.000    1.143    2.857    4.714    0.000    3.714 
#    0.000    0.000    0.000    0.857    0.000    0.000 
#    0.000    0.000    0.000    0.000    0.000    0.000 
#
# Total GULP energy -312966.966223 kJ/mol
# GULP energy per Si atom -5588.695825 kJ/mol
# Density = 1.729904 g / cm^3
# Si number density = 17.338498 Si / 1000 Ang^3
#
#
#
# Elastic Constant Matrix: (Units=GPa)
#
#
# Indices 1 2 3 4 5 6 
#
# 1 99.1053 43.1593 54.3266 0.0000 0.0000 0.0000
# 2 43.1593 80.3618 44.3835 0.0000 0.0000 0.0000
# 3 54.3266 44.3835 102.4845 0.0000 0.0000 0.0000
# 4 0.0000 0.0000 0.0000 19.0662 0.0000 0.0000
# 5 0.0000 0.0000 0.0000 0.0000 31.7205 0.0000
# 6 0.0000 0.0000 0.0000 0.0000 0.0000 24.8053
#
#
#
# Elastic Compliance Matrix: (Units=1/GPa)
#
#
# Indices 1 2 3 4 5 6 
#
# 1 0.015624 -0.005017 -0.006110 0.000000 0.000000 0.000000
# 2 -0.005017 0.017967 -0.005122 0.000000 0.000000 0.000000
# 3 -0.006110 -0.005122 0.015214 0.000000 0.000000 0.000000
# 4 0.000000 0.000000 0.000000 0.052449 0.000000 0.000000
# 5 0.000000 0.000000 0.000000 0.000000 0.031525 0.000000
# 6 0.000000 0.000000 0.000000 0.000000 0.000000 0.040314
#
#
# Mechanical properties :
#
#
# Convention : Reuss Voigt Hill
#
# Bulk Modulus (GPa) = 61.31534 62.85449 62.08492
# Shear Modulus (GPa) = 23.69381 24.45722 24.07552
#
# Velocity S-wave (km/s) = 3.70069 3.75983 3.73038
# Velocity P-wave (km/s) = 7.32807 7.42823 7.37832
#
# Compressibility (1/GPa) = 0.01630913
#
# Stress axis : x y z
#
# Youngs Moduli (GPa) = 64.00333 55.65859 65.72765
#
# Poissons Ratio (x) = 0.27923 0.40157
# Poissons Ratio (y) = 0.32109 0.33663
# Poissons Ratio (z) = 0.39104 0.28506
#
# Static dielectric constant tensor:
#      x y z
#    x 1.580400 0.000000 0.000000 
#    y 0.000000 1.578800 0.000000 
#    z 0.000000 0.000000 1.580980 
# 
# From -- ./inp_files/20916.got.cif
#   From: 2010.05.17/outbox.cif.g08.bks.cpg/sg59_11_cif.got.tgz:20916.got - 2010.06.03 14:40:33.
