data_PCOD9450980
_publ_section_title
;
Structure prediction by ZEFSAII (Michael W. Deem and Ramdas Pophale) SiO2 
 PCOD9450980
Probable space group: P M M N
;
_chemical_formula_sum "Si O2"
_cell_formula_units_Z 48
_cell_length_a 15.051097
_cell_length_b 8.786271
_cell_length_c 20.310073
_cell_angle_alpha 90.000000
_cell_angle_beta 90.000000
_cell_angle_gamma 90.000000
_cell_volume 2685.865331
_symmetry_space_group_name_H-M "P M M N"
_symmetry_group_IT_number 59
_space_group.IT_coordinate_system_code '2'
_symmetry_cell_setting 'orthorhombic'
loop_
_space_group_symop_operation_xyz
x,y,z
1/2-x,1/2-y,z
1/2+x,-y,-z
-x,1/2+y,-z
-x,-y,-z
1/2+x,1/2+y,-z
1/2-x,y,z
x,1/2-y,z
loop_
_atom_site_type_symbol
_atom_site_label
_atom_site_fract_x
_atom_site_fract_y
_atom_site_fract_z
Si Si1 0.934197 0.069165 0.052709
Si Si2 0.561334 0.432792 0.205961
Si Si3 0.750000 0.065237 0.479500
Si Si4 0.750000 0.434954 0.632393
Si Si5 0.750000 0.575767 0.214011
Si Si6 0.945951 0.434042 0.437999
Si Si7 0.443503 0.933342 0.316933
Si Si8 0.750000 0.576599 0.054423
O O1 0.938793 0.250000 0.051024
O O2 0.949318 0.022739 0.129053
O O3 0.837072 0.011495 0.033732
O O4 0.000000 0.000000 0.000000
O O5 0.560766 0.250000 0.210591
O O6 0.657722 0.492434 0.231156
O O7 0.483342 0.504259 0.249164
O O8 0.750000 0.250000 0.480616
O O9 0.750000 0.014377 0.555977
O O10 0.657653 0.019776 0.445326
O O11 0.750000 0.250000 0.631217
O O12 0.658149 0.481005 0.667400
O O13 0.750000 0.750000 0.237865
O O14 0.750000 0.578702 0.134179
O O15 0.950369 0.250000 0.438226
O O16 0.000000 0.500000 0.500000
O O17 0.993100 0.499911 0.373691
O O18 0.447084 0.750000 0.318170
O O19 0.750000 0.750000 0.031142
#
# Coordination Sequence:
#
# PCOD9450980 Si02
#       8
#     8   8   4   4   4   8   8   4
#     4  10  20  35  57  83 114 151 191 234 283 342
#     4  10  21  37  56  83 117 150 184 230 287 339
#     4   9  18  35  57  79 109 144 179 221 277 333
#     4   9  18  36  58  78 104 145 188 226 276 332
#     4   9  17  32  56  82 108 144 185 224 271 334
#     4  11  21  36  57  81 108 141 181 227 279 335
#     4  11  22  38  59  81 109 146 190 236 281 337
#     4   9  17  31  53  81 111 143 184 231 280 333
#
# _framework density 17.871334999999998
#
# number of rings (size 3 to 8) (size 9 to 14) (size 15 to 20)
#    0.000    2.000    1.667    2.500    0.000    4.667 
#    0.000    7.500    0.000    4.000    0.000    0.000 
#    0.000    0.000    0.000    0.000    0.000    0.000 
#
# Total GULP energy -267856.655372 kJ/mol
# GULP energy per Si atom -5580.346987 kJ/mol
# Density = 1.783066 g / cm^3
# Si number density = 17.871335 Si / 1000 Ang^3
#
#
#
# Elastic Constant Matrix: (Units=GPa)
#
#
# Indices 1 2 3 4 5 6 
#
# 1 194.0186 48.3212 83.7189 0.0000 0.0000 0.0000
# 2 48.3212 59.8033 40.1036 0.0000 0.0000 0.0000
# 3 83.7189 40.1036 90.7851 0.0000 0.0000 0.0000
# 4 0.0000 0.0000 0.0000 29.8041 0.0000 0.0000
# 5 0.0000 0.0000 0.0000 0.0000 38.0096 0.0000
# 6 0.0000 0.0000 0.0000 0.0000 0.0000 31.4776
#
#
#
# Elastic Compliance Matrix: (Units=1/GPa)
#
#
# Indices 1 2 3 4 5 6 
#
# 1 0.008790 -0.002368 -0.007060 0.000000 0.000000 0.000000
# 2 -0.002368 0.024398 -0.008594 0.000000 0.000000 0.000000
# 3 -0.007060 -0.008594 0.021322 0.000000 0.000000 0.000000
# 4 0.000000 0.000000 0.000000 0.033552 0.000000 0.000000
# 5 0.000000 0.000000 0.000000 0.000000 0.026309 0.000000
# 6 0.000000 0.000000 0.000000 0.000000 0.000000 0.031769
#
#
# Mechanical properties :
#
#
# Convention : Reuss Voigt Hill
#
# Bulk Modulus (GPa) = 54.15324 76.54381 65.34853
# Shear Modulus (GPa) = 26.54782 31.35580 28.95181
#
# Velocity S-wave (km/s) = 3.85840 4.19326 4.02931
# Velocity P-wave (km/s) = 7.08641 8.14666 7.63496
#
# Compressibility (1/GPa) = 0.01846611
#
# Stress axis : x y z
#
# Youngs Moduli (GPa) = 113.76100 40.98717 46.90055
#
# Poissons Ratio (x) = 0.09707 0.33112
# Poissons Ratio (y) = 0.26941 0.40305
# Poissons Ratio (z) = 0.80315 0.35223
#
# Static dielectric constant tensor:
#      x y z
#    x 1.600730 0.000000 0.000000 
#    y 0.000000 1.602460 0.000000 
#    z 0.000000 0.000000 1.613700 
# 
# From -- ./inp_files/27521.got.cif
#   From: 2010.05.17/outbox.cif.g08.bks.cpg/sg59_14_cif.got.tgz:27521.got - 2010.06.03 14:40:33.
