data_PCOD9450588
_publ_section_title
;
Structure prediction by ZEFSAII (Michael W. Deem and Ramdas Pophale) SiO2 
 PCOD9450588
Probable space group: P M M N
;
_chemical_formula_sum "Si O2"
_cell_formula_units_Z 64
_cell_length_a 14.277034
_cell_length_b 8.839760
_cell_length_c 26.993130
_cell_angle_alpha 90.000000
_cell_angle_beta 90.000000
_cell_angle_gamma 90.000000
_cell_volume 3406.682928
_symmetry_space_group_name_H-M "P M M N"
_symmetry_group_IT_number 59
_space_group.IT_coordinate_system_code '2'
_symmetry_cell_setting 'orthorhombic'
loop_
_space_group_symop_operation_xyz
x,y,z
1/2-x,1/2-y,z
1/2+x,-y,-z
-x,1/2+y,-z
-x,-y,-z
1/2+x,1/2+y,-z
1/2-x,y,z
x,1/2-y,z
loop_
_atom_site_type_symbol
_atom_site_label
_atom_site_fract_x
_atom_site_fract_y
_atom_site_fract_z
Si Si1 0.857207 0.070551 0.668421
Si Si2 0.451320 0.070233 0.239312
Si Si3 0.356606 0.574810 0.875298
Si Si4 0.008696 0.930681 0.054270
Si Si5 0.141145 0.932317 0.142121
Si Si6 0.642232 0.068288 0.482864
Si Si7 0.854305 0.569056 0.233462
Si Si8 0.961126 0.930363 0.577043
O O1 0.750000 0.040874 0.652724
O O2 0.868161 0.250000 0.675168
O O3 0.878618 0.988812 0.719979
O O4 0.926920 0.010799 0.626534
O O5 0.453569 0.250000 0.237398
O O6 0.420184 0.005913 0.185810
O O7 0.553433 0.007770 0.255479
O O8 0.250000 0.575035 0.893763
O O9 0.384899 0.750000 0.867156
O O10 0.423074 0.492900 0.913510
O O11 0.357000 0.486993 0.823393
O O12 0.005881 0.750000 0.050474
O O13 0.099123 0.971157 0.088089
O O14 0.000000 0.000000 0.000000
O O15 0.250000 0.975851 0.146667
O O16 0.134516 0.750000 0.147625
O O17 0.750000 0.029283 0.472115
O O18 0.637263 0.250000 0.491289
O O19 0.567359 0.032591 0.439801
O O20 0.604781 0.985874 0.531977
O O21 0.750000 0.527400 0.252872
O O22 0.863112 0.750000 0.235764
O O23 0.953463 0.750000 0.582717
#
# Coordination Sequence:
#
# PCOD9450588 Si02
#       8
#     8   8   8   8   8   8   8   8
#     4  11  24  41  60  82 114 157 200 243 296 355
#     4  12  24  38  61  90 119 150 190 240 292 344
#     4  10  20  35  57  84 112 142 179 225 276 329
#     4  11  23  38  58  83 115 152 188 232 286 341
#     4  10  22  41  62  83 112 152 193 233 284 345
#     4   9  18  34  56  82 116 159 200 238 292 358
#     4  10  20  36  60  87 114 146 184 225 273 332
#     4  10  20  34  55  85 118 152 197 252 300 345
#
# _framework density 18.786604000000001
#
# number of rings (size 3 to 8) (size 9 to 14) (size 15 to 20)
#    0.000    1.625    1.250    3.750    0.000    7.500 
#    0.000    1.875    0.000    2.250    0.000    0.000 
#    0.000    0.000    0.000    0.000    0.000    0.000 
#
# Total GULP energy -357394.174479 kJ/mol
# GULP energy per Si atom -5584.283976 kJ/mol
# Density = 1.874384 g / cm^3
# Si number density = 18.786604 Si / 1000 Ang^3
#
#
#
# Elastic Constant Matrix: (Units=GPa)
#
#
# Indices 1 2 3 4 5 6 
#
# 1 119.1530 43.0852 22.8964 0.0000 0.0000 0.0000
# 2 43.0852 64.1101 26.6362 0.0000 0.0000 0.0000
# 3 22.8964 26.6362 59.8421 0.0000 0.0000 0.0000
# 4 0.0000 0.0000 0.0000 33.1979 0.0000 0.0000
# 5 0.0000 0.0000 0.0000 0.0000 19.5229 0.0000
# 6 0.0000 0.0000 0.0000 0.0000 0.0000 26.3176
#
#
#
# Elastic Compliance Matrix: (Units=1/GPa)
#
#
# Indices 1 2 3 4 5 6 
#
# 1 0.011150 -0.007019 -0.001142 0.000000 0.000000 0.000000
# 2 -0.007019 0.023556 -0.007799 0.000000 0.000000 0.000000
# 3 -0.001142 -0.007799 0.020619 0.000000 0.000000 0.000000
# 4 0.000000 0.000000 0.000000 0.030122 0.000000 0.000000
# 5 0.000000 0.000000 0.000000 0.000000 0.051222 0.000000
# 6 0.000000 0.000000 0.000000 0.000000 0.000000 0.037997
#
#
# Mechanical properties :
#
#
# Convention : Reuss Voigt Hill
#
# Bulk Modulus (GPa) = 42.72692 47.59341 45.16016
# Shear Modulus (GPa) = 23.32216 25.84015 24.58115
#
# Velocity S-wave (km/s) = 3.52721 3.71274 3.62116
# Velocity P-wave (km/s) = 6.27542 6.61573 6.44782
#
# Compressibility (1/GPa) = 0.02340445
#
# Stress axis : x y z
#
# Youngs Moduli (GPa) = 89.68592 42.45267 48.49875
#
# Poissons Ratio (x) = 0.29797 0.05538
# Poissons Ratio (y) = 0.62950 0.37825
# Poissons Ratio (z) = 0.10242 0.33110
#
# Static dielectric constant tensor:
#      x y z
#    x 1.684640 0.000000 0.000000 
#    y 0.000000 1.629400 0.000000 
#    z 0.000000 0.000000 1.610290 
# 
# From -- ./inp_files/32101.got.cif
#   From: 2010.05.17/outbox.cif.g08.bks.cpg/sg59_17_cif.got.tgz:32101.got - 2010.06.03 14:40:33.
