data_PCOD9450913
_publ_section_title
;
Structure prediction by ZEFSAII (Michael W. Deem and Ramdas Pophale) SiO2 
 PCOD9450913
Probable space group: P M M N
;
_chemical_formula_sum "Si O2"
_cell_formula_units_Z 56
_cell_length_a 9.079642
_cell_length_b 13.638295
_cell_length_c 23.573410
_cell_angle_alpha 90.000000
_cell_angle_beta 90.000000
_cell_angle_gamma 90.000000
_cell_volume 2919.115070
_symmetry_space_group_name_H-M "P M M N"
_symmetry_group_IT_number 59
_space_group.IT_coordinate_system_code '2'
_symmetry_cell_setting 'orthorhombic'
loop_
_space_group_symop_operation_xyz
x,y,z
1/2-x,1/2-y,z
1/2+x,-y,-z
-x,1/2+y,-z
-x,-y,-z
1/2+x,1/2+y,-z
1/2-x,y,z
x,1/2-y,z
loop_
_atom_site_type_symbol
_atom_site_label
_atom_site_fract_x
_atom_site_fract_y
_atom_site_fract_z
Si Si1 0.572497 0.934122 0.703358
Si Si2 0.574069 0.103405 0.994367
Si Si3 0.072943 0.865332 0.236057
Si Si4 0.574166 0.858725 0.472418
Si Si5 0.925564 0.250000 0.094319
Si Si6 0.413299 0.136922 0.877799
Si Si7 0.927264 0.750000 0.783002
Si Si8 0.074154 0.937926 0.584201
O O1 0.750000 0.931359 0.698195
O O2 0.530705 0.849265 0.748647
O O3 0.499214 0.910399 0.643325
O O4 0.531289 0.045948 0.721484
O O5 0.750000 0.103711 0.988822
O O6 0.503019 0.139599 0.935977
O O7 0.537615 0.160539 0.052147
O O8 0.500000 0.000000 0.000000
O O9 0.250000 0.865205 0.231287
O O10 0.031778 0.750000 0.249301
O O11 0.004704 0.900180 0.175879
O O12 0.750000 0.864017 0.482992
O O13 0.539562 0.750000 0.450362
O O14 0.490683 0.877652 0.531348
O O15 0.537844 0.948157 0.430613
O O16 0.750000 0.250000 0.104126
O O17 0.005952 0.250000 0.154066
O O18 0.250000 0.090989 0.884700
O O19 0.392496 0.250000 0.862950
O O20 0.750000 0.750000 0.787381
O O21 0.250000 0.927110 0.586689
#
# Coordination Sequence:
#
# PCOD9450913 Si02
#       8
#     8   8   8   8   4   8   4   8
#     4  10  22  40  59  83 115 158 203 241 291 353
#     4  11  23  39  59  85 114 149 188 235 295 355
#     4   9  19  36  58  82 111 149 193 245 299 353
#     4   9  19  37  60  85 119 160 194 234 289 347
#     4  10  24  44  62  86 120 152 191 246 301 350
#     4  10  20  35  56  83 112 144 184 231 288 354
#     4  10  24  42  60  82 114 160 207 244 285 348
#     4  10  21  36  57  89 120 151 196 246 291 339
#
# _framework density 19.183897000000002
#
# number of rings (size 3 to 8) (size 9 to 14) (size 15 to 20)
#    0.000    2.143    0.714    1.286    3.000    4.286 
#    0.000    0.000    0.000    0.000    0.000    0.000 
#    0.000    0.000    0.000    0.000    0.000    0.000 
#
# Total GULP energy -312072.572858 kJ/mol
# GULP energy per Si atom -5572.724515 kJ/mol
# Density = 1.914023 g / cm^3
# Si number density = 19.183897 Si / 1000 Ang^3
#
#
#
# Elastic Constant Matrix: (Units=GPa)
#
#
# Indices 1 2 3 4 5 6 
#
# 1 21.5757 17.2826 23.1830 0.0000 0.0000 0.0000
# 2 17.2826 84.3282 12.4628 0.0000 0.0000 0.0000
# 3 23.1830 12.4628 88.8023 0.0000 0.0000 0.0000
# 4 0.0000 0.0000 0.0000 16.2549 0.0000 0.0000
# 5 0.0000 0.0000 0.0000 0.0000 29.0243 0.0000
# 6 0.0000 0.0000 0.0000 0.0000 0.0000 17.4212
#
#
#
# Elastic Compliance Matrix: (Units=1/GPa)
#
#
# Indices 1 2 3 4 5 6 
#
# 1 0.076103 -0.012929 -0.018053 0.000000 0.000000 0.000000
# 2 -0.012929 0.014306 0.001367 0.000000 0.000000 0.000000
# 3 -0.018053 0.001367 0.015782 0.000000 0.000000 0.000000
# 4 0.000000 0.000000 0.000000 0.061520 0.000000 0.000000
# 5 0.000000 0.000000 0.000000 0.000000 0.034454 0.000000
# 6 0.000000 0.000000 0.000000 0.000000 0.000000 0.057401
#
#
# Mechanical properties :
#
#
# Convention : Reuss Voigt Hill
#
# Bulk Modulus (GPa) = 21.29386 33.39586 27.34486
# Shear Modulus (GPa) = 14.94999 21.99193 18.47096
#
# Velocity S-wave (km/s) = 2.79462 3.38949 3.10633
# Velocity P-wave (km/s) = 4.64081 5.72401 5.21063
#
# Compressibility (1/GPa) = 0.04696190
#
# Stress axis : x y z
#
# Youngs Moduli (GPa) = 13.14015 69.90068 63.36312
#
# Poissons Ratio (x) = 0.90373 1.14390
# Poissons Ratio (y) = 0.16989 -0.08665
# Poissons Ratio (z) = 0.23722 -0.09559
#
# Static dielectric constant tensor:
#      x y z
#    x 1.664560 0.000000 0.000000 
#    y 0.000000 1.701070 0.000000 
#    z 0.000000 0.000000 1.634850 
# 
# From -- ./inp_files/29195.got.cif
#   From: 2010.05.17/outbox.cif.g08.bks.cpg/sg59_15_cif.got.tgz:29195.got - 2010.06.03 14:40:33.
