data_PCOD9450146
_publ_section_title
;
Structure prediction by ZEFSAII (Michael W. Deem and Ramdas Pophale) SiO2 
 PCOD9450146
Probable space group: P M M N
;
_chemical_formula_sum "Si O2"
_cell_formula_units_Z 64
_cell_length_a 8.493334
_cell_length_b 22.295854
_cell_length_c 17.991874
_cell_angle_alpha 90.000000
_cell_angle_beta 90.000000
_cell_angle_gamma 90.000000
_cell_volume 3407.051638
_symmetry_space_group_name_H-M "P M M N"
_symmetry_group_IT_number 59
_space_group.IT_coordinate_system_code '2'
_symmetry_cell_setting 'orthorhombic'
loop_
_space_group_symop_operation_xyz
x,y,z
1/2-x,1/2-y,z
1/2+x,-y,-z
-x,1/2+y,-z
-x,-y,-z
1/2+x,1/2+y,-z
1/2-x,y,z
x,1/2-y,z
loop_
_atom_site_type_symbol
_atom_site_label
_atom_site_fract_x
_atom_site_fract_y
_atom_site_fract_z
Si Si1 0.568817 0.682738 0.868854
Si Si2 0.936549 0.966054 0.384596
Si Si3 0.566441 0.409161 0.469214
Si Si4 0.061856 0.451953 0.936353
Si Si5 0.069444 0.319356 0.367724
Si Si6 0.930453 0.019294 0.773941
Si Si7 0.424246 0.897928 0.755574
Si Si8 0.060708 0.817249 0.033534
O O1 0.750000 0.663411 0.858604
O O2 0.554513 0.750000 0.836808
O O3 0.447687 0.638383 0.830897
O O4 0.526521 0.685826 0.954692
O O5 0.750000 0.955846 0.389771
O O6 0.026337 0.928794 0.447524
O O7 0.994034 0.953177 0.300987
O O8 0.963498 0.034843 0.412799
O O9 0.750000 0.393890 0.463014
O O10 0.458168 0.354983 0.443400
O O11 0.250000 0.449356 0.945577
O O12 0.017515 0.473142 0.852833
O O13 0.993911 0.383339 0.938562
O O14 0.000000 0.500000 0.000000
O O15 0.250000 0.325813 0.342374
O O16 0.033995 0.250000 0.375597
O O17 0.956297 0.350935 0.309020
O O18 0.750000 0.038235 0.782118
O O19 0.945984 0.949053 0.755500
O O20 0.250000 0.924820 0.748756
O O21 0.250000 0.819713 0.025476
O O22 0.027555 0.750000 0.069239
#
# Coordination Sequence:
#
# PCOD9450146 Si02
#       8
#     8   8   8   8   8   8   8   8
#     4  10  20  34  52  75 105 145 192 238 286 344
#     4  10  20  36  59  87 116 147 187 238 291 344
#     4  10  20  35  58  85 115 150 190 235 285 341
#     4  12  25  42  63  90 126 163 206 257 313 371
#     4  11  23  37  54  79 114 156 197 238 286 344
#     4  12  24  39  60  85 117 153 195 244 299 356
#     4  12  23  35  51  76 111 151 193 238 290 347
#     4  10  21  39  62  87 116 152 198 249 304 368
#
# _framework density 18.784568
#
# number of rings (size 3 to 8) (size 9 to 14) (size 15 to 20)
#    0.000    1.125    1.250    6.375    0.000    5.000 
#    0.000    0.000    0.000    0.750    0.000    0.000 
#    0.000    0.000    0.000    0.000    0.000    0.000 
#
# Total GULP energy -356981.614714 kJ/mol
# GULP energy per Si atom -5577.837730 kJ/mol
# Density = 1.874181 g / cm^3
# Si number density = 18.784568 Si / 1000 Ang^3
#
#
#
# Elastic Constant Matrix: (Units=GPa)
#
#
# Indices 1 2 3 4 5 6 
#
# 1 75.7475 30.2000 17.5741 0.0000 0.0000 0.0000
# 2 30.2000 70.7323 21.2942 0.0000 0.0000 0.0000
# 3 17.5741 21.2942 89.9725 0.0000 0.0000 0.0000
# 4 0.0000 0.0000 0.0000 11.2199 0.0000 0.0000
# 5 0.0000 0.0000 0.0000 0.0000 29.4694 0.0000
# 6 0.0000 0.0000 0.0000 0.0000 0.0000 26.3353
#
#
#
# Elastic Compliance Matrix: (Units=1/GPa)
#
#
# Indices 1 2 3 4 5 6 
#
# 1 0.016131 -0.006394 -0.001637 0.000000 0.000000 0.000000
# 2 -0.006394 0.017757 -0.002954 0.000000 0.000000 0.000000
# 3 -0.001637 -0.002954 0.012133 0.000000 0.000000 0.000000
# 4 0.000000 0.000000 0.000000 0.089127 0.000000 0.000000
# 5 0.000000 0.000000 0.000000 0.000000 0.033934 0.000000
# 6 0.000000 0.000000 0.000000 0.000000 0.000000 0.037972
#
#
# Mechanical properties :
#
#
# Convention : Reuss Voigt Hill
#
# Bulk Modulus (GPa) = 41.57896 41.62099 41.59997
# Shear Modulus (GPa) = 21.09327 24.56384 22.82855
#
# Velocity S-wave (km/s) = 3.35461 3.62008 3.48987
# Velocity P-wave (km/s) = 6.09813 6.29908 6.19942
#
# Compressibility (1/GPa) = 0.02405063
#
# Stress axis : x y z
#
# Youngs Moduli (GPa) = 61.99222 56.31524 82.41706
#
# Poissons Ratio (x) = 0.36010 0.13495
# Poissons Ratio (y) = 0.39640 0.24343
# Poissons Ratio (z) = 0.10151 0.16634
#
# Static dielectric constant tensor:
#      x y z
#    x 1.734150 0.000000 0.000000 
#    y 0.000000 1.712140 0.000000 
#    z 0.000000 0.000000 1.666990 
# 
# From -- ./inp_files/26237.got.cif
#   From: 2010.05.17/outbox.cif.g08.bks.cpg/sg59_14_cif.got.tgz:26237.got - 2010.06.03 14:40:33.
