data_PCOD9450069
_publ_section_title
;
Structure prediction by ZEFSAII (Michael W. Deem and Ramdas Pophale) SiO2 
 PCOD9450069
Probable space group: P M M N
;
_chemical_formula_sum "Si O2"
_cell_formula_units_Z 64
_cell_length_a 22.065116
_cell_length_b 8.751424
_cell_length_c 19.763034
_cell_angle_alpha 90.000000
_cell_angle_beta 90.000000
_cell_angle_gamma 90.000000
_cell_volume 3816.265299
_symmetry_space_group_name_H-M "P M M N"
_symmetry_group_IT_number 59
_space_group.IT_coordinate_system_code '2'
_symmetry_cell_setting 'orthorhombic'
loop_
_space_group_symop_operation_xyz
x,y,z
1/2-x,1/2-y,z
1/2+x,-y,-z
-x,1/2+y,-z
-x,-y,-z
1/2+x,1/2+y,-z
1/2-x,y,z
x,1/2-y,z
loop_
_atom_site_type_symbol
_atom_site_label
_atom_site_fract_x
_atom_site_fract_y
_atom_site_fract_z
Si Si1 0.179615 0.424719 0.718119
Si Si2 0.489320 0.564828 0.329943
Si Si3 0.938964 0.067675 0.533706
Si Si4 0.989458 0.432568 0.824838
Si Si5 0.442430 0.433060 0.041783
Si Si6 0.619220 0.072296 0.159833
Si Si7 0.611907 0.930910 0.409806
Si Si8 0.818373 0.565925 0.034413
O O1 0.250000 0.428247 0.734239
O O2 0.156559 0.250000 0.730601
O O3 0.144467 0.539963 0.765730
O O4 0.168194 0.456324 0.639365
O O5 0.489860 0.750000 0.326241
O O6 0.440427 0.519817 0.387470
O O7 0.481075 0.512034 0.252920
O O8 0.553973 0.520677 0.363341
O O9 0.942439 0.250000 0.532071
O O10 0.887985 0.011846 0.482005
O O11 0.000000 0.000000 0.500000
O O12 0.982127 0.250000 0.826938
O O13 0.947695 0.509665 0.881221
O O14 0.057705 0.476268 0.846397
O O15 0.447148 0.250000 0.038888
O O16 0.500000 0.500000 0.000000
O O17 0.376881 0.477819 0.010855
O O18 0.606634 0.250000 0.148434
O O19 0.667964 0.010465 0.106526
O O20 0.604814 0.750000 0.422189
O O21 0.750000 0.525310 0.010906
O O22 0.820001 0.750000 0.041633
#
# Coordination Sequence:
#
# PCOD9450069 Si02
#       8
#     8   8   8   8   8   8   8   8
#     4  10  20  34  50  66  93 137 180 211 249 306
#     4   8  15  28  46  66  92 124 158 196 240 293
#     4   9  16  27  43  66  91 120 155 192 236 286
#     4  11  20  34  54  74 102 140 173 207 255 314
#     4  11  22  36  55  80 107 134 170 216 263 312
#     4  12  23  33  49  75 105 134 171 218 259 300
#     4   9  16  29  45  65  92 124 163 203 243 289
#     4  10  22  40  59  75  98 139 180 210 253 316
#
# _framework density 16.770322
#
# number of rings (size 3 to 8) (size 9 to 14) (size 15 to 20)
#    0.000    2.000    2.500    3.375    0.000    3.000 
#    0.000    1.875    0.000    0.000    0.000    0.875 
#    0.000    7.000    0.000    0.000    0.000    0.000 
#
# Total GULP energy -356638.954571 kJ/mol
# GULP energy per Si atom -5572.483665 kJ/mol
# Density = 1.673215 g / cm^3
# Si number density = 16.770322 Si / 1000 Ang^3
#
#
#
# Elastic Constant Matrix: (Units=GPa)
#
#
# Indices 1 2 3 4 5 6 
#
# 1 62.4075 20.9685 37.1628 0.0000 0.0000 0.0000
# 2 20.9685 30.8711 24.1480 0.0000 0.0000 0.0000
# 3 37.1628 24.1480 106.0910 0.0000 0.0000 0.0000
# 4 0.0000 0.0000 0.0000 28.2078 0.0000 0.0000
# 5 0.0000 0.0000 0.0000 0.0000 23.3236 0.0000
# 6 0.0000 0.0000 0.0000 0.0000 0.0000 13.7038
#
#
#
# Elastic Compliance Matrix: (Units=1/GPa)
#
#
# Indices 1 2 3 4 5 6 
#
# 1 0.023136 -0.011406 -0.005508 0.000000 0.000000 0.000000
# 2 -0.011406 0.045033 -0.006255 0.000000 0.000000 0.000000
# 3 -0.005508 -0.006255 0.012779 0.000000 0.000000 0.000000
# 4 0.000000 0.000000 0.000000 0.035451 0.000000 0.000000
# 5 0.000000 0.000000 0.000000 0.000000 0.042875 0.000000
# 6 0.000000 0.000000 0.000000 0.000000 0.000000 0.072972
#
#
# Mechanical properties :
#
#
# Convention : Reuss Voigt Hill
#
# Bulk Modulus (GPa) = 28.89351 40.43645 34.66498
# Shear Modulus (GPa) = 17.23421 20.85308 19.04364
#
# Velocity S-wave (km/s) = 3.20919 3.53009 3.37346
# Velocity P-wave (km/s) = 5.56761 6.38589 5.99074
#
# Compressibility (1/GPa) = 0.03460984
#
# Stress axis : x y z
#
# Youngs Moduli (GPa) = 43.22241 22.20618 78.25338
#
# Poissons Ratio (x) = 0.25328 0.43104
# Poissons Ratio (y) = 0.49300 0.48945
# Poissons Ratio (z) = 0.23808 0.13889
#
# Static dielectric constant tensor:
#      x y z
#    x 1.586090 0.000000 0.000000 
#    y 0.000000 1.579730 0.000000 
#    z 0.000000 0.000000 1.607930 
# 
# From -- ./inp_files/28450.got.cif
#   From: 2010.05.17/outbox.cif.g08.bks.cpg/sg59_15_cif.got.tgz:28450.got - 2010.06.03 14:40:33.
