data_PCOD9450336
_publ_section_title
;
Structure prediction by ZEFSAII (Michael W. Deem and Ramdas Pophale) SiO2 
 PCOD9450336
Probable space group: P M M N
;
_chemical_formula_sum "Si O2"
_cell_formula_units_Z 64
_cell_length_a 8.976253
_cell_length_b 23.440554
_cell_length_c 18.726607
_cell_angle_alpha 90.000000
_cell_angle_beta 90.000000
_cell_angle_gamma 90.000000
_cell_volume 3940.234352
_symmetry_space_group_name_H-M "P M M N"
_symmetry_group_IT_number 59
_space_group.IT_coordinate_system_code '2'
_symmetry_cell_setting 'orthorhombic'
loop_
_space_group_symop_operation_xyz
x,y,z
1/2-x,1/2-y,z
1/2+x,-y,-z
-x,1/2+y,-z
-x,-y,-z
1/2+x,1/2+y,-z
1/2-x,y,z
x,1/2-y,z
loop_
_atom_site_type_symbol
_atom_site_label
_atom_site_fract_x
_atom_site_fract_y
_atom_site_fract_z
Si Si1 0.071846 0.871528 0.632101
Si Si2 0.577758 0.319481 0.064132
Si Si3 0.425299 0.182527 0.504194
Si Si4 0.927969 0.112553 0.632023
Si Si5 0.078029 0.319299 0.919782
Si Si6 0.568454 0.183902 0.220213
Si Si7 0.427693 0.999400 0.578705
Si Si8 0.569606 0.817543 0.239180
O O1 0.250000 0.860580 0.625087
O O2 0.025859 0.853523 0.711808
O O3 0.046825 0.937780 0.614210
O O4 0.985077 0.834812 0.573420
O O5 0.750000 0.336244 0.060726
O O6 0.572374 0.250000 0.064616
O O7 0.515221 0.336280 0.141942
O O8 0.500807 0.339545 0.991651
O O9 0.250000 0.168533 0.510947
O O10 0.443025 0.250000 0.515826
O O11 0.517441 0.147586 0.562638
O O12 0.750000 0.109650 0.633444
O O13 0.991702 0.145320 0.700663
O O14 0.998609 0.050011 0.623683
O O15 0.250000 0.336197 0.923175
O O16 0.072829 0.250000 0.920561
O O17 0.020501 0.335066 0.841037
O O18 0.750000 0.183863 0.216454
O O19 0.523587 0.250000 0.231262
O O20 0.250000 0.008319 0.572578
O O21 0.500000 0.000000 0.500000
O O22 0.750000 0.823320 0.243289
O O23 0.537412 0.750000 0.249163
#
# Coordination Sequence:
#
# PCOD9450336 Si02
#       8
#     8   8   8   8   8   8   8   8
#     4  10  20  34  54  75  94 125 168 207 245 291
#     4   8  13  22  39  64  95 130 161 188 225 275
#     4  11  23  36  51  72 100 131 159 195 247 299
#     4  12  24  36  52  73  96 128 166 205 249 294
#     4   8  14  25  42  65  95 130 162 191 230 283
#     4   8  14  26  45  71 102 130 157 195 239 284
#     4  11  22  37  56  75  95 124 165 213 256 295
#     4   9  18  33  51  72 101 133 162 199 248 295
#
# _framework density 16.242688000000001
#
# number of rings (size 3 to 8) (size 9 to 14) (size 15 to 20)
#    0.000    2.375    1.250    4.125    0.000    4.250 
#    0.000    1.875    0.000    2.250    0.000    0.875 
#    0.000    0.000    0.000    0.000    0.000    0.000 
#
# Total GULP energy -356755.852787 kJ/mol
# GULP energy per Si atom -5574.310200 kJ/mol
# Density = 1.620572 g / cm^3
# Si number density = 16.242688 Si / 1000 Ang^3
#
#
#
# Elastic Constant Matrix: (Units=GPa)
#
#
# Indices 1 2 3 4 5 6 
#
# 1 48.8084 25.0634 33.8671 0.0000 0.0000 0.0000
# 2 25.0634 41.9862 23.4835 0.0000 0.0000 0.0000
# 3 33.8671 23.4835 128.3560 0.0000 0.0000 0.0000
# 4 0.0000 0.0000 0.0000 0.9940 0.0000 0.0000
# 5 0.0000 0.0000 0.0000 0.0000 21.9580 0.0000
# 6 0.0000 0.0000 0.0000 0.0000 0.0000 16.9946
#
#
#
# Elastic Compliance Matrix: (Units=1/GPa)
#
#
# Indices 1 2 3 4 5 6 
#
# 1 0.032865 -0.016452 -0.005662 0.000000 0.000000 0.000000
# 2 -0.016452 0.034768 -0.002020 0.000000 0.000000 0.000000
# 3 -0.005662 -0.002020 0.009654 0.000000 0.000000 0.000000
# 4 0.000000 0.000000 0.000000 1.005986 0.000000 0.000000
# 5 0.000000 0.000000 0.000000 0.000000 0.045542 0.000000
# 6 0.000000 0.000000 0.000000 0.000000 0.000000 0.058842
#
#
# Mechanical properties :
#
#
# Convention : Reuss Voigt Hill
#
# Bulk Modulus (GPa) = 34.45889 42.66427 38.56158
# Shear Modulus (GPa) = 4.01414 17.10510 10.55962
#
# Velocity S-wave (km/s) = 1.57376 3.24866 2.55250
# Velocity P-wave (km/s) = 4.95614 6.35575 5.69907
#
# Compressibility (1/GPa) = 0.02902008
#
# Stress axis : x y z
#
# Youngs Moduli (GPa) = 30.42765 28.76200 103.58146
#
# Poissons Ratio (x) = 0.47319 0.58643
# Poissons Ratio (y) = 0.50059 0.20925
# Poissons Ratio (z) = 0.17227 0.05810
#
# Static dielectric constant tensor:
#      x y z
#    x 1.547320 0.000000 0.000000 
#    y 0.000000 1.522930 0.000000 
#    z 0.000000 0.000000 1.562480 
# 
# From -- ./inp_files/26453.got.cif
#   From: 2010.05.17/outbox.cif.g08.bks.cpg/sg59_14_cif.got.tgz:26453.got - 2010.06.03 14:40:33.
