data_PCOD9450184
_publ_section_title
;
Structure prediction by ZEFSAII (Michael W. Deem and Ramdas Pophale) SiO2 
 PCOD9450184
Probable space group: P M M N
;
_chemical_formula_sum "Si O2"
_cell_formula_units_Z 64
_cell_length_a 19.274109
_cell_length_b 8.996840
_cell_length_c 21.154678
_cell_angle_alpha 90.000000
_cell_angle_beta 90.000000
_cell_angle_gamma 90.000000
_cell_volume 3668.349676
_symmetry_space_group_name_H-M "P M M N"
_symmetry_group_IT_number 59
_space_group.IT_coordinate_system_code '2'
_symmetry_cell_setting 'orthorhombic'
loop_
_space_group_symop_operation_xyz
x,y,z
1/2-x,1/2-y,z
1/2+x,-y,-z
-x,1/2+y,-z
-x,-y,-z
1/2+x,1/2+y,-z
1/2-x,y,z
x,1/2-y,z
loop_
_atom_site_type_symbol
_atom_site_label
_atom_site_fract_x
_atom_site_fract_y
_atom_site_fract_z
Si Si1 0.670047 0.929255 0.993719
Si Si2 0.424340 0.572698 0.112863
Si Si3 0.333620 0.422021 0.636607
Si Si4 0.566608 0.429292 0.742756
Si Si5 0.413708 0.071022 0.881445
Si Si6 0.834411 0.421634 0.492086
Si Si7 0.916245 0.073118 0.252110
Si Si8 0.170312 0.931148 0.368217
O O1 0.750000 0.978033 0.990390
O O2 0.668605 0.750000 0.991156
O O3 0.634588 0.972584 0.060120
O O4 0.624751 0.991980 0.936462
O O5 0.417797 0.750000 0.104390
O O6 0.407603 0.537638 0.186097
O O7 0.505718 0.534046 0.103747
O O8 0.250000 0.432176 0.639068
O O9 0.353455 0.250000 0.644262
O O10 0.356190 0.482294 0.567893
O O11 0.366481 0.517602 0.692338
O O12 0.556740 0.250000 0.739504
O O13 0.492805 0.507628 0.734778
O O14 0.620471 0.475268 0.688753
O O15 0.410258 0.250000 0.872913
O O16 0.394380 0.993690 0.815755
O O17 0.750000 0.421278 0.493549
O O18 0.856377 0.250000 0.483818
O O19 0.855177 0.476905 0.561857
O O20 0.918206 0.250000 0.249084
O O21 0.250000 0.980267 0.358908
O O22 0.171608 0.750000 0.369653
#
# Coordination Sequence:
#
# PCOD9450184 Si02
#       8
#     8   8   8   8   8   8   8   8
#     4  10  21  35  52  76 105 133 161 201 252 301
#     4   9  18  32  52  75  99 133 173 210 244 288
#     4  10  20  34  53  75 100 133 170 207 251 305
#     4   9  18  34  54  76 104 137 173 209 248 299
#     4   9  19  37  56  73  97 132 173 208 245 299
#     4   8  14  27  48  74 102 130 165 210 255 298
#     4  11  22  35  53  77 104 132 166 210 257 302
#     4   8  14  27  51  79 103 132 171 213 255 298
#
# _framework density 17.446536999999999
#
# number of rings (size 3 to 8) (size 9 to 14) (size 15 to 20)
#    0.000    2.750    0.000    3.375    0.000    4.500 
#    0.000    3.750    0.000    1.125    0.000    0.000 
#    0.000    0.000    0.000    0.000    0.000    0.000 
#
# Total GULP energy -356858.614560 kJ/mol
# GULP energy per Si atom -5575.915853 kJ/mol
# Density = 1.740683 g / cm^3
# Si number density = 17.446537 Si / 1000 Ang^3
#
#
#
# Elastic Constant Matrix: (Units=GPa)
#
#
# Indices 1 2 3 4 5 6 
#
# 1 40.0642 27.3361 54.2642 0.0000 0.0000 0.0000
# 2 27.3361 43.2756 46.5406 0.0000 0.0000 0.0000
# 3 54.2642 46.5406 129.5997 0.0000 0.0000 0.0000
# 4 0.0000 0.0000 0.0000 25.7061 0.0000 0.0000
# 5 0.0000 0.0000 0.0000 0.0000 33.6258 0.0000
# 6 0.0000 0.0000 0.0000 0.0000 0.0000 15.2368
#
#
#
# Elastic Compliance Matrix: (Units=1/GPa)
#
#
# Indices 1 2 3 4 5 6 
#
# 1 0.066560 -0.019669 -0.020806 0.000000 0.000000 0.000000
# 2 -0.019669 0.043459 -0.007371 0.000000 0.000000 0.000000
# 3 -0.020806 -0.007371 0.019075 0.000000 0.000000 0.000000
# 4 0.000000 0.000000 0.000000 0.038901 0.000000 0.000000
# 5 0.000000 0.000000 0.000000 0.000000 0.029739 0.000000
# 6 0.000000 0.000000 0.000000 0.000000 0.000000 0.065630
#
#
# Mechanical properties :
#
#
# Convention : Reuss Voigt Hill
#
# Bulk Modulus (GPa) = 29.93785 52.13569 41.03677
# Shear Modulus (GPa) = 13.50652 20.56698 17.03675
#
# Velocity S-wave (km/s) = 2.78540 3.43717 3.12831
# Velocity P-wave (km/s) = 5.24801 6.76019 6.05152
#
# Compressibility (1/GPa) = 0.03340253
#
# Stress axis : x y z
#
# Youngs Moduli (GPa) = 15.02394 23.00999 52.42512
#
# Poissons Ratio (x) = 0.45258 1.09076
# Poissons Ratio (y) = 0.29550 0.38644
# Poissons Ratio (z) = 0.31259 0.16961
#
# Static dielectric constant tensor:
#      x y z
#    x 1.577620 0.000000 0.000000 
#    y 0.000000 1.584970 0.000000 
#    z 0.000000 0.000000 1.590450 
# 
# From -- ./inp_files/30838.got.cif
#   From: 2010.05.17/outbox.cif.g08.bks.cpg/sg59_16_cif.got.tgz:30838.got - 2010.06.03 14:40:33.
