data_PCOD9450338
_publ_section_title
;
Structure prediction by ZEFSAII (Michael W. Deem and Ramdas Pophale) SiO2 
 PCOD9450338
Probable space group: P M M N
;
_chemical_formula_sum "Si O2"
_cell_formula_units_Z 48
_cell_length_a 10.434482
_cell_length_b 8.827893
_cell_length_c 29.697004
_cell_angle_alpha 90.000000
_cell_angle_beta 90.000000
_cell_angle_gamma 90.000000
_cell_volume 2735.524396
_symmetry_space_group_name_H-M "P M M N"
_symmetry_group_IT_number 59
_space_group.IT_coordinate_system_code '2'
_symmetry_cell_setting 'orthorhombic'
loop_
_space_group_symop_operation_xyz
x,y,z
1/2-x,1/2-y,z
1/2+x,-y,-z
-x,1/2+y,-z
-x,-y,-z
1/2+x,1/2+y,-z
1/2-x,y,z
x,1/2-y,z
loop_
_atom_site_type_symbol
_atom_site_label
_atom_site_fract_x
_atom_site_fract_y
_atom_site_fract_z
Si Si1 0.101907 0.432189 0.194203
Si Si2 0.602233 0.068503 0.465641
Si Si3 0.250000 0.433048 0.948961
Si Si4 0.750000 0.067128 0.951392
Si Si5 0.899145 0.932832 0.702404
Si Si6 0.001514 0.932430 0.105736
Si Si7 0.102537 0.431274 0.633424
O O1 0.250000 0.478291 0.185536
O O2 0.096746 0.250000 0.191781
O O3 0.071583 0.475442 0.245675
O O4 0.014560 0.502102 0.155669
O O5 0.750000 0.030404 0.478238
O O6 0.590913 0.250000 0.464759
O O7 0.500000 0.000000 0.500000
O O8 0.580268 0.003208 0.415696
O O9 0.250000 0.250000 0.952509
O O10 0.375078 0.479653 0.920983
O O11 0.250000 0.500400 0.998770
O O12 0.750000 0.250000 0.954365
O O13 0.624755 0.019794 0.923483
O O14 0.750000 0.973987 0.693306
O O15 0.907198 0.750000 0.699229
O O16 0.999117 0.006508 0.668473
O O17 0.002339 0.750000 0.108645
O O18 0.250000 0.469063 0.646593
O O19 0.092732 0.250000 0.630182
#
# Coordination Sequence:
#
# PCOD9450338 Si02
#       7
#     8   8   4   4   8   8   8
#     4   9  18  34  56  80 103 132 174 218 261 311
#     4  10  21  37  58  83 112 149 190 231 276 325
#     4  10  22  36  50  74 106 136 166 208 259 306
#     4  10  20  34  54  76  98 132 176 212 249 308
#     4   9  19  36  57  81 108 139 180 228 273 322
#     4  10  20  35  53  75 104 135 168 209 258 310
#     4  10  21  37  56  81 113 148 186 226 273 328
#
# _framework density 17.54691
#
# number of rings (size 3 to 8) (size 9 to 14) (size 15 to 20)
#    0.000    2.333    0.833    2.500    0.000    5.000 
#    1.500    1.667    0.000    0.000    0.000    0.000 
#    0.000    0.000    0.000    0.000    0.000    0.000 
#
# Total GULP energy -267870.760063 kJ/mol
# GULP energy per Si atom -5580.640835 kJ/mol
# Density = 1.750697 g / cm^3
# Si number density = 17.546910 Si / 1000 Ang^3
#
#
#
# Elastic Constant Matrix: (Units=GPa)
#
#
# Indices 1 2 3 4 5 6 
#
# 1 150.7782 47.8830 114.0069 0.0000 0.0000 0.0000
# 2 47.8830 32.2179 49.4716 0.0000 0.0000 0.0000
# 3 114.0069 49.4716 153.5251 0.0000 0.0000 0.0000
# 4 0.0000 0.0000 0.0000 37.0438 0.0000 0.0000
# 5 0.0000 0.0000 0.0000 0.0000 18.2570 0.0000
# 6 0.0000 0.0000 0.0000 0.0000 0.0000 21.6665
#
#
#
# Elastic Compliance Matrix: (Units=1/GPa)
#
#
# Indices 1 2 3 4 5 6 
#
# 1 0.017098 -0.011709 -0.008924 0.000000 0.000000 0.000000
# 2 -0.011709 0.069457 -0.013687 0.000000 0.000000 0.000000
# 3 -0.008924 -0.013687 0.017551 0.000000 0.000000 0.000000
# 4 0.000000 0.000000 0.000000 0.026995 0.000000 0.000000
# 5 0.000000 0.000000 0.000000 0.000000 0.054774 0.000000
# 6 0.000000 0.000000 0.000000 0.000000 0.000000 0.046154
#
#
# Mechanical properties :
#
#
# Convention : Reuss Voigt Hill
#
# Bulk Modulus (GPa) = 28.19531 84.36048 56.27789
# Shear Modulus (GPa) = 16.00047 23.73744 19.86896
#
# Velocity S-wave (km/s) = 3.02299 3.68203 3.36867
# Velocity P-wave (km/s) = 5.31865 8.13990 6.87554
#
# Compressibility (1/GPa) = 0.03546689
#
# Stress axis : x y z
#
# Youngs Moduli (GPa) = 58.48507 14.39746 56.97644
#
# Poissons Ratio (x) = 0.16857 0.50847
# Poissons Ratio (y) = 0.68477 0.77983
# Poissons Ratio (z) = 0.52193 0.19706
#
# Static dielectric constant tensor:
#      x y z
#    x 1.591350 0.000000 0.000000 
#    y 0.000000 1.588620 0.000000 
#    z 0.000000 0.000000 1.562140 
# 
# From -- ./inp_files/32931.got.cif
#   From: 2010.05.17/outbox.cif.g08.bks.cpg/sg59_17_cif.got.tgz:32931.got - 2010.06.03 14:40:33.
