data_PCOD9450270
_publ_section_title
;
Structure prediction by ZEFSAII (Michael W. Deem and Ramdas Pophale) SiO2 
 PCOD9450270
Probable space group: P M M N
;
_chemical_formula_sum "Si O2"
_cell_formula_units_Z 48
_cell_length_a 9.379465
_cell_length_b 7.575412
_cell_length_c 32.118780
_cell_angle_alpha 90.000000
_cell_angle_beta 90.000000
_cell_angle_gamma 90.000000
_cell_volume 2282.145687
_symmetry_space_group_name_H-M "P M M N"
_symmetry_group_IT_number 59
_space_group.IT_coordinate_system_code '2'
_symmetry_cell_setting 'orthorhombic'
loop_
_space_group_symop_operation_xyz
x,y,z
1/2-x,1/2-y,z
1/2+x,-y,-z
-x,1/2+y,-z
-x,-y,-z
1/2+x,1/2+y,-z
1/2-x,y,z
x,1/2-y,z
loop_
_atom_site_type_symbol
_atom_site_label
_atom_site_fract_x
_atom_site_fract_y
_atom_site_fract_z
Si Si1 0.083581 0.465205 0.132514
Si Si2 0.585664 0.533813 0.704270
Si Si3 0.913984 0.465923 0.213617
Si Si4 0.411171 0.461434 0.040939
Si Si5 0.411312 0.959601 0.624164
Si Si6 0.911942 0.040399 0.541631
O O1 0.250000 0.515000 0.137544
O O2 0.080178 0.250000 0.133380
O O3 0.034768 0.522920 0.086314
O O4 0.988151 0.525658 0.170892
O O5 0.750000 0.477147 0.703405
O O6 0.586714 0.750000 0.703855
O O7 0.505359 0.479530 0.746330
O O8 0.499263 0.471616 0.663740
O O9 0.750000 0.521958 0.216634
O O10 0.914316 0.250000 0.213377
O O11 0.250000 0.528806 0.035954
O O12 0.404154 0.250000 0.044043
O O13 0.500000 0.500000 0.000000
O O14 0.250000 0.030905 0.620944
O O15 0.398644 0.750000 0.630872
O O16 0.499999 0.982352 0.581975
O O17 0.750000 0.967752 0.540534
O O18 0.900731 0.250000 0.544230
O O19 0.000000 0.000000 0.500000
#
# Coordination Sequence:
#
# PCOD9450270 Si02
#       6
#     8   8   8   8   8   8
#     4   8  14  25  39  56  83 118 153 191 237 288
#     4   9  16  26  42  65  95 131 165 197 239 289
#     4   9  15  22  35  59  90 121 155 196 239 284
#     4   9  18  31  46  66  92 122 158 200 245 294
#     4  10  20  34  53  78 107 137 170 208 248 291
#     4  11  24  40  58  81 107 136 172 211 251 297
#
# _framework density 21.032837000000001
#
# number of rings (size 3 to 8) (size 9 to 14) (size 15 to 20)
#    0.000    2.667    0.000    3.500    0.000    9.333 
#    0.000    1.667    0.000    0.000    0.000    1.167 
#    0.000    4.000    0.000    0.000    0.000    0.000 
#
# Total GULP energy -267977.454799 kJ/mol
# GULP energy per Si atom -5582.863642 kJ/mol
# Density = 2.098497 g / cm^3
# Si number density = 21.032837 Si / 1000 Ang^3
#
#
#
# Elastic Constant Matrix: (Units=GPa)
#
#
# Indices 1 2 3 4 5 6 
#
# 1 205.1445 5.9366 149.2986 0.0000 0.0000 0.0000
# 2 5.9366 45.3502 -0.1164 0.0000 0.0000 0.0000
# 3 149.2986 -0.1164 248.5561 0.0000 0.0000 0.0000
# 4 0.0000 0.0000 0.0000 12.4468 0.0000 0.0000
# 5 0.0000 0.0000 0.0000 0.0000 44.1182 0.0000
# 6 0.0000 0.0000 0.0000 0.0000 0.0000 7.9141
#
#
#
# Elastic Compliance Matrix: (Units=1/GPa)
#
#
# Indices 1 2 3 4 5 6 
#
# 1 0.008721 -0.001155 -0.005239 0.000000 0.000000 0.000000
# 2 -0.001155 0.022204 0.000704 0.000000 0.000000 0.000000
# 3 -0.005239 0.000704 0.007170 0.000000 0.000000 0.000000
# 4 0.000000 0.000000 0.000000 0.080342 0.000000 0.000000
# 5 0.000000 0.000000 0.000000 0.000000 0.022666 0.000000
# 6 0.000000 0.000000 0.000000 0.000000 0.000000 0.126357
#
#
# Mechanical properties :
#
#
# Convention : Reuss Voigt Hill
#
# Bulk Modulus (GPa) = 37.43156 89.92095 63.67626
# Shear Modulus (GPa) = 17.37658 35.82462 26.60060
#
# Velocity S-wave (km/s) = 2.87743 4.13155 3.56015
# Velocity P-wave (km/s) = 5.37353 8.09969 6.87313
#
# Compressibility (1/GPa) = 0.02671542
#
# Stress axis : x y z
#
# Youngs Moduli (GPa) = 114.67073 45.03766 139.46488
#
# Poissons Ratio (x) = 0.05202 0.73061
# Poissons Ratio (y) = 0.13245 -0.09821
# Poissons Ratio (z) = 0.60073 -0.03171
#
# Static dielectric constant tensor:
#      x y z
#    x 1.735020 0.000000 0.000000 
#    y 0.000000 1.833980 0.000000 
#    z 0.000000 0.000000 1.565910 
# 
# From -- ./inp_files/32885.got.cif
#   From: 2010.05.17/outbox.cif.g08.bks.cpg/sg59_17_cif.got.tgz:32885.got - 2010.06.03 14:40:33.
