data_PCOD9450102
_publ_section_title
;
Structure prediction by ZEFSAII (Michael W. Deem and Ramdas Pophale) SiO2 
 PCOD9450102
Probable space group: P M M N
;
_chemical_formula_sum "Si O2"
_cell_formula_units_Z 48
_cell_length_a 26.944161
_cell_length_b 8.591956
_cell_length_c 12.125894
_cell_angle_alpha 90.000000
_cell_angle_beta 90.000000
_cell_angle_gamma 90.000000
_cell_volume 2807.181394
_symmetry_space_group_name_H-M "P M M N"
_symmetry_group_IT_number 59
_space_group.IT_coordinate_system_code '2'
_symmetry_cell_setting 'orthorhombic'
loop_
_space_group_symop_operation_xyz
x,y,z
1/2-x,1/2-y,z
1/2+x,-y,-z
-x,1/2+y,-z
-x,-y,-z
1/2+x,1/2+y,-z
1/2-x,y,z
x,1/2-y,z
loop_
_atom_site_type_symbol
_atom_site_label
_atom_site_fract_x
_atom_site_fract_y
_atom_site_fract_z
Si Si1 0.065445 0.934016 0.206785
Si Si2 0.104339 0.063599 0.669511
Si Si3 0.538896 0.067735 0.143527
Si Si4 0.878818 0.934606 0.984150
Si Si5 0.448445 0.435308 0.449580
Si Si6 0.806205 0.560858 0.175384
O O1 0.059716 0.750000 0.202819
O O2 0.112276 0.985438 0.133156
O O3 0.065123 0.989648 0.332948
O O4 0.017201 0.011511 0.150715
O O5 0.096850 0.250000 0.689422
O O6 0.094089 0.036434 0.541333
O O7 0.157187 0.020257 0.723258
O O8 0.063318 0.969631 0.738090
O O9 0.541503 0.250000 0.117782
O O10 0.573098 0.973842 0.058765
O O11 0.875173 0.750000 0.968690
O O12 0.833107 0.988133 0.061507
O O13 0.500000 0.500000 0.500000
O O14 0.453966 0.250000 0.434634
O O15 0.750000 0.503973 0.185836
O O16 0.804870 0.750000 0.172954
#
# Coordination Sequence:
#
# PCOD9450102 Si02
#       6
#     8   8   8   8   8   8
#     4  12  23  34  48  69 102 141 179 213 251 303
#     4   9  18  32  51  76 105 134 170 212 253 301
#     4  11  20  31  49  72 102 137 172 209 252 304
#     4  10  20  34  51  74 103 132 168 212 258 310
#     4  11  21  33  50  73 104 143 180 214 250 300
#     4   8  15  31  57  83 102 124 159 211 268 313
#
# _framework density 17.099003
#
# number of rings (size 3 to 8) (size 9 to 14) (size 15 to 20)
#    0.000    1.833    1.667    5.500    0.000    0.667 
#    0.000    0.000    0.000   13.500    0.000    4.667 
#    0.000    0.000    0.000    0.000    0.000    0.000 
#
# Total GULP energy -267833.020632 kJ/mol
# GULP energy per Si atom -5579.854597 kJ/mol
# Density = 1.706008 g / cm^3
# Si number density = 17.099003 Si / 1000 Ang^3
#
#
#
# Elastic Constant Matrix: (Units=GPa)
#
#
# Indices 1 2 3 4 5 6 
#
# 1 95.6557 4.9008 30.2541 0.0000 0.0000 0.0000
# 2 4.9008 17.0469 -3.1652 0.0000 0.0000 0.0000
# 3 30.2541 -3.1652 72.3338 0.0000 0.0000 0.0000
# 4 0.0000 0.0000 0.0000 27.3010 0.0000 0.0000
# 5 0.0000 0.0000 0.0000 0.0000 11.9107 0.0000
# 6 0.0000 0.0000 0.0000 0.0000 0.0000 13.4423
#
#
#
# Elastic Compliance Matrix: (Units=1/GPa)
#
#
# Indices 1 2 3 4 5 6 
#
# 1 0.012390 -0.004561 -0.005382 0.000000 0.000000 0.000000
# 2 -0.004561 0.060821 0.004569 0.000000 0.000000 0.000000
# 3 -0.005382 0.004569 0.016276 0.000000 0.000000 0.000000
# 4 0.000000 0.000000 0.000000 0.036629 0.000000 0.000000
# 5 0.000000 0.000000 0.000000 0.000000 0.083958 0.000000
# 6 0.000000 0.000000 0.000000 0.000000 0.000000 0.074392
#
#
# Mechanical properties :
#
#
# Convention : Reuss Voigt Hill
#
# Bulk Modulus (GPa) = 12.70013 27.66842 20.18428
# Shear Modulus (GPa) = 15.55404 20.73391 18.14398
#
# Velocity S-wave (km/s) = 3.01931 3.48599 3.26101
# Velocity P-wave (km/s) = 4.42702 5.69379 5.09989
#
# Compressibility (1/GPa) = 0.07873933
#
# Stress axis : x y z
#
# Youngs Moduli (GPa) = 80.71018 16.44163 61.44124
#
# Poissons Ratio (x) = 0.07499 0.33066
# Poissons Ratio (y) = 0.36814 -0.28074
# Poissons Ratio (z) = 0.43437 -0.07513
#
# Static dielectric constant tensor:
#      x y z
#    x 1.571720 0.000000 0.000000 
#    y 0.000000 1.574990 0.000000 
#    z 0.000000 0.000000 1.608610 
# 
# From -- ./inp_files/14510.got.cif
#   From: 2010.05.17/outbox.cif.g08.bks.cpg/sg59_8_cif.got.tgz:14510.got - 2010.06.03 14:40:33.
