data_PCOD9450080
_publ_section_title
;
Structure prediction by ZEFSAII (Michael W. Deem and Ramdas Pophale) SiO2 
 PCOD9450080
Probable space group: P M M N
;
_chemical_formula_sum "Si O2"
_cell_formula_units_Z 64
_cell_length_a 14.669506
_cell_length_b 8.766626
_cell_length_c 25.028507
_cell_angle_alpha 90.000000
_cell_angle_beta 90.000000
_cell_angle_gamma 90.000000
_cell_volume 3218.717877
_symmetry_space_group_name_H-M "P M M N"
_symmetry_group_IT_number 59
_space_group.IT_coordinate_system_code '2'
_symmetry_cell_setting 'orthorhombic'
loop_
_space_group_symop_operation_xyz
x,y,z
1/2-x,1/2-y,z
1/2+x,-y,-z
-x,1/2+y,-z
-x,-y,-z
1/2+x,1/2+y,-z
1/2-x,y,z
x,1/2-y,z
loop_
_atom_site_type_symbol
_atom_site_label
_atom_site_fract_x
_atom_site_fract_y
_atom_site_fract_z
Si Si1 0.967233 0.434009 0.247833
Si Si2 0.353418 0.063526 0.303943
Si Si3 0.644788 0.564541 0.035742
Si Si4 0.526563 0.567932 0.136141
Si Si5 0.643824 0.436021 0.352350
Si Si6 0.138576 0.572430 0.531535
Si Si7 0.138656 0.423803 0.421650
Si Si8 0.643300 0.933489 0.915162
O O1 0.962261 0.250000 0.244499
O O2 0.910013 0.483407 0.299740
O O3 0.071573 0.478615 0.260806
O O4 0.937312 0.503593 0.191931
O O5 0.250000 0.014401 0.292947
O O6 0.352283 0.250000 0.306805
O O7 0.383063 0.009533 0.363315
O O8 0.750000 0.520576 0.044022
O O9 0.641866 0.750000 0.035118
O O10 0.583607 0.511108 0.084726
O O11 0.618166 0.516002 0.975802
O O12 0.530270 0.750000 0.137085
O O13 0.424045 0.511220 0.126085
O O14 0.750000 0.478341 0.347486
O O15 0.639899 0.250000 0.354341
O O16 0.608251 0.489552 0.410527
O O17 0.250000 0.561349 0.532533
O O18 0.115720 0.750000 0.528995
O O19 0.106882 0.498050 0.476523
O O20 0.250000 0.423124 0.422715
O O21 0.106382 0.250000 0.421827
O O22 0.750000 0.967896 0.906998
O O23 0.633369 0.750000 0.911909
#
# Coordination Sequence:
#
# PCOD9450080 Si02
#       8
#     8   8   8   8   8   8   8   8
#     4  10  20  34  51  68  90 128 175 209 235 281
#     4   8  15  29  48  67  87 116 157 201 239 279
#     4   8  16  33  56  80 106 137 170 202 242 296
#     4  11  22  34  51  77 109 138 164 206 259 298
#     4   8  15  29  48  68  91 121 159 204 247 286
#     4   8  13  23  41  64  88 114 145 184 237 298
#     4   8  13  23  41  64  87 110 141 186 238 288
#     4   9  18  35  59  82 103 133 173 207 237 289
#
# _framework density 19.883693000000001
#
# number of rings (size 3 to 8) (size 9 to 14) (size 15 to 20)
#    0.000    3.250    0.000    3.000    0.000    1.250 
#    0.000    3.750    0.000    4.125    0.000    0.000 
#    0.000    0.000    0.000    0.000    0.000    0.000 
#
# Total GULP energy -356758.842574 kJ/mol
# GULP energy per Si atom -5574.356915 kJ/mol
# Density = 1.983844 g / cm^3
# Si number density = 19.883693 Si / 1000 Ang^3
#
#
#
# Elastic Constant Matrix: (Units=GPa)
#
#
# Indices 1 2 3 4 5 6 
#
# 1 33.0606 1.0929 15.2454 0.0000 0.0000 0.0000
# 2 1.0929 4.7815 12.1418 0.0000 0.0000 0.0000
# 3 15.2454 12.1418 81.8180 0.0000 0.0000 0.0000
# 4 0.0000 0.0000 0.0000 27.6598 0.0000 0.0000
# 5 0.0000 0.0000 0.0000 0.0000 26.2647 0.0000
# 6 0.0000 0.0000 0.0000 0.0000 0.0000 9.6024
#
#
#
# Elastic Compliance Matrix: (Units=1/GPa)
#
#
# Indices 1 2 3 4 5 6 
#
# 1 0.033601 0.013189 -0.008218 0.000000 0.000000 0.000000
# 2 0.013189 0.340788 -0.053031 0.000000 0.000000 0.000000
# 3 -0.008218 -0.053031 0.021623 0.000000 0.000000 0.000000
# 4 0.000000 0.000000 0.000000 0.036154 0.000000 0.000000
# 5 0.000000 0.000000 0.000000 0.000000 0.038074 0.000000
# 6 0.000000 0.000000 0.000000 0.000000 0.000000 0.104141
#
#
# Mechanical properties :
#
#
# Convention : Reuss Voigt Hill
#
# Bulk Modulus (GPa) = 3.33452 19.62448 11.47950
# Shear Modulus (GPa) = 6.48958 18.78404 12.63681
#
# Velocity S-wave (km/s) = 1.80855 3.07692 2.52372
# Velocity P-wave (km/s) = 2.45801 4.74493 3.77863
#
# Compressibility (1/GPa) = 0.29989316
#
# Stress axis : x y z
#
# Youngs Moduli (GPa) = 29.76080 2.93437 46.24636
#
# Poissons Ratio (x) = -0.03870 0.38006
# Poissons Ratio (y) = -0.39251 2.45247
# Poissons Ratio (z) = 0.24458 0.15561
#
# Static dielectric constant tensor:
#      x y z
#    x 1.730830 0.000000 0.000000 
#    y 0.000000 1.681070 0.000000 
#    z 0.000000 0.000000 1.711110 
# 
# From -- ./inp_files/32186.got.cif
#   From: 2010.05.17/outbox.cif.g08.bks.cpg/sg59_17_cif.got.tgz:32186.got - 2010.06.03 14:40:33.
