data_PCOD9450587
_publ_section_title
;
Structure prediction by ZEFSAII (Michael W. Deem and Ramdas Pophale) SiO2 
 PCOD9450587
Probable space group: P M M N
;
_chemical_formula_sum "Si O2"
_cell_formula_units_Z 64
_cell_length_a 8.903235
_cell_length_b 14.336071
_cell_length_c 26.876014
_cell_angle_alpha 90.000000
_cell_angle_beta 90.000000
_cell_angle_gamma 90.000000
_cell_volume 3430.384794
_symmetry_space_group_name_H-M "P M M N"
_symmetry_group_IT_number 59
_space_group.IT_coordinate_system_code '2'
_symmetry_cell_setting 'orthorhombic'
loop_
_space_group_symop_operation_xyz
x,y,z
1/2-x,1/2-y,z
1/2+x,-y,-z
-x,1/2+y,-z
-x,-y,-z
1/2+x,1/2+y,-z
1/2-x,y,z
x,1/2-y,z
loop_
_atom_site_type_symbol
_atom_site_label
_atom_site_fract_x
_atom_site_fract_y
_atom_site_fract_z
Si Si1 0.572901 0.024139 0.947341
Si Si2 0.069196 0.357865 0.477153
Si Si3 0.429315 0.027776 0.576779
Si Si4 0.430656 0.644236 0.335881
Si Si5 0.572410 0.354342 0.231434
Si Si6 0.078041 0.352895 0.126512
Si Si7 0.928880 0.452854 0.765439
Si Si8 0.070572 0.359228 0.862534
O O1 0.750000 0.043265 0.953052
O O2 0.495382 0.105073 0.914945
O O3 0.554456 0.932724 0.913031
O O4 0.500000 0.000000 0.000000
O O5 0.250000 0.361248 0.472341
O O6 0.021723 0.250000 0.473736
O O7 0.030798 0.402560 0.530939
O O8 0.996448 0.427091 0.437080
O O9 0.250000 0.021838 0.579479
O O10 0.494962 0.072022 0.626541
O O11 0.250000 0.639117 0.341069
O O12 0.478913 0.750000 0.347109
O O13 0.466626 0.617925 0.279035
O O14 0.750000 0.363614 0.239573
O O15 0.525462 0.250000 0.248659
O O16 0.534337 0.357506 0.172594
O O17 0.486546 0.444958 0.250960
O O18 0.250000 0.362245 0.146198
O O19 0.065955 0.250000 0.103616
O O20 0.750000 0.455137 0.772115
O O21 0.001888 0.418984 0.817061
O O22 0.250000 0.370937 0.862622
O O23 0.035205 0.250000 0.855048
#
# Coordination Sequence:
#
# PCOD9450587 Si02
#       8
#     8   8   8   8   8   8   8   8
#     4  11  23  38  58  84 115 151 185 226 277 332
#     4   9  18  34  56  82 115 156 199 241 289 348
#     4  10  20  34  55  85 118 151 193 245 296 345
#     4  10  22  39  58  82 114 153 196 240 287 342
#     4  10  20  34  56  85 113 141 177 223 273 327
#     4   9  18  34  56  80 105 137 177 218 265 323
#     4  11  22  38  61  87 115 150 192 236 282 338
#     4  11  24  41  61  85 115 151 190 233 282 337
#
# _framework density 18.656798999999999
#
# number of rings (size 3 to 8) (size 9 to 14) (size 15 to 20)
#    0.000    1.875    1.250    2.625    0.000    5.750 
#    0.000    1.875    0.000    0.750    0.000    0.000 
#    0.000    0.000    0.000    0.000    0.000    0.000 
#
# Total GULP energy -357258.434428 kJ/mol
# GULP energy per Si atom -5582.163038 kJ/mol
# Density = 1.861434 g / cm^3
# Si number density = 18.656799 Si / 1000 Ang^3
#
#
#
# Elastic Constant Matrix: (Units=GPa)
#
#
# Indices 1 2 3 4 5 6 
#
# 1 39.6993 35.8968 22.7388 0.0000 0.0000 0.0000
# 2 35.8968 126.5702 29.8080 0.0000 0.0000 0.0000
# 3 22.7388 29.8080 68.6689 0.0000 0.0000 0.0000
# 4 0.0000 0.0000 0.0000 20.6464 0.0000 0.0000
# 5 0.0000 0.0000 0.0000 0.0000 26.5127 0.0000
# 6 0.0000 0.0000 0.0000 0.0000 0.0000 28.8049
#
#
#
# Elastic Compliance Matrix: (Units=1/GPa)
#
#
# Indices 1 2 3 4 5 6 
#
# 1 0.038156 -0.008739 -0.008841 0.000000 0.000000 0.000000
# 2 -0.008739 0.010802 -0.001795 0.000000 0.000000 0.000000
# 3 -0.008841 -0.001795 0.018269 0.000000 0.000000 0.000000
# 4 0.000000 0.000000 0.000000 0.048435 0.000000 0.000000
# 5 0.000000 0.000000 0.000000 0.000000 0.037718 0.000000
# 6 0.000000 0.000000 0.000000 0.000000 0.000000 0.034716
#
#
# Mechanical properties :
#
#
# Convention : Reuss Voigt Hill
#
# Bulk Modulus (GPa) = 35.11718 45.75842 40.43780
# Shear Modulus (GPa) = 21.15607 24.95911 23.05759
#
# Velocity S-wave (km/s) = 3.37109 3.66157 3.51932
# Velocity P-wave (km/s) = 5.83231 6.51581 6.18351
#
# Compressibility (1/GPa) = 0.02847609
#
# Stress axis : x y z
#
# Youngs Moduli (GPa) = 26.20853 92.57495 54.73604
#
# Poissons Ratio (x) = 0.80903 0.48393
# Poissons Ratio (y) = 0.22904 0.09826
# Poissons Ratio (z) = 0.23171 0.16618
#
# Static dielectric constant tensor:
#      x y z
#    x 1.626840 0.000000 0.000000 
#    y 0.000000 1.668490 0.000000 
#    z 0.000000 0.000000 1.615230 
# 
# From -- ./inp_files/31620.got.cif
#   From: 2010.05.17/outbox.cif.g08.bks.cpg/sg59_16_cif.got.tgz:31620.got - 2010.06.03 14:40:33.
