data_PCOD9450910
_publ_section_title
;
Structure prediction by ZEFSAII (Michael W. Deem and Ramdas Pophale) SiO2 
 PCOD9450910
Probable space group: P M M N
;
_chemical_formula_sum "Si O2"
_cell_formula_units_Z 56
_cell_length_a 19.508858
_cell_length_b 15.175686
_cell_length_c 9.400130
_cell_angle_alpha 90.000000
_cell_angle_beta 90.000000
_cell_angle_gamma 90.000000
_cell_volume 2783.005338
_symmetry_space_group_name_H-M "P M M N"
_symmetry_group_IT_number 59
_space_group.IT_coordinate_system_code '2'
_symmetry_cell_setting 'orthorhombic'
loop_
_space_group_symop_operation_xyz
x,y,z
1/2-x,1/2-y,z
1/2+x,-y,-z
-x,1/2+y,-z
-x,-y,-z
1/2+x,1/2+y,-z
1/2-x,y,z
x,1/2-y,z
loop_
_atom_site_type_symbol
_atom_site_label
_atom_site_fract_x
_atom_site_fract_y
_atom_site_fract_z
Si Si1 0.526158 0.515097 0.659449
Si Si2 0.829941 0.970188 0.553679
Si Si3 0.952169 0.146597 0.139615
Si Si4 0.526648 0.852572 0.158750
Si Si5 0.167861 0.845788 0.365605
Si Si6 0.673876 0.853975 0.271207
Si Si7 0.173421 0.856891 0.039493
O O1 0.500000 0.500000 0.500000
O O2 0.605252 0.549143 0.655180
O O3 0.480846 0.588781 0.734942
O O4 0.511507 0.423925 0.743213
O O5 0.750000 0.962815 0.605706
O O6 0.834535 0.912020 0.412936
O O7 0.844582 0.074308 0.528183
O O8 0.946586 0.250000 0.175917
O O9 0.879778 0.112616 0.077940
O O10 0.001777 0.138299 0.002638
O O11 0.512689 0.750000 0.200665
O O12 0.607967 0.868817 0.173436
O O13 0.250000 0.836487 0.362528
O O14 0.137897 0.750000 0.399419
O O15 0.151481 0.872633 0.202707
O O16 0.750000 0.872523 0.210956
O O17 0.672633 0.750000 0.309700
O O18 0.250000 0.890711 0.017982
O O19 0.174833 0.750000 0.030406
#
# Coordination Sequence:
#
# PCOD9450910 Si02
#       7
#     8   8   8   8   8   8   8
#     4  12  24  39  59  90 123 156 197 240 297 356
#     4  10  20  35  56  82 117 154 197 242 290 353
#     4  10  22  39  61  89 122 157 195 246 299 352
#     4  10  21  40  63  86 115 157 202 247 302 355
#     4   8  14  26  49  82 117 151 188 233 285 348
#     4   9  18  35  59  83 109 150 205 256 298 344
#     4   8  14  29  54  84 117 154 195 234 282 348
#
# _framework density 20.122132000000001
#
# number of rings (size 3 to 8) (size 9 to 14) (size 15 to 20)
#    0.000    2.429    1.429    2.143    0.000    2.857 
#    0.000    2.143    0.000    0.857    0.000    0.000 
#    0.000    0.000    0.000    0.000    0.000    0.000 
#
# Total GULP energy -312164.656980 kJ/mol
# GULP energy per Si atom -5574.368875 kJ/mol
# Density = 2.007633 g / cm^3
# Si number density = 20.122132 Si / 1000 Ang^3
#
#
#
# Elastic Constant Matrix: (Units=GPa)
#
#
# Indices 1 2 3 4 5 6 
#
# 1 151.0475 40.0911 33.9804 0.0000 0.0000 0.0000
# 2 40.0911 62.3998 43.4234 0.0000 0.0000 0.0000
# 3 33.9804 43.4234 49.8426 0.0000 0.0000 0.0000
# 4 0.0000 0.0000 0.0000 31.3808 0.0000 0.0000
# 5 0.0000 0.0000 0.0000 0.0000 17.4829 0.0000
# 6 0.0000 0.0000 0.0000 0.0000 0.0000 24.7968
#
#
#
# Elastic Compliance Matrix: (Units=1/GPa)
#
#
# Indices 1 2 3 4 5 6 
#
# 1 0.008103 -0.003459 -0.002511 0.000000 0.000000 0.000000
# 2 -0.003459 0.042178 -0.034388 0.000000 0.000000 0.000000
# 3 -0.002511 -0.034388 0.051735 0.000000 0.000000 0.000000
# 4 0.000000 0.000000 0.000000 0.031867 0.000000 0.000000
# 5 0.000000 0.000000 0.000000 0.000000 0.057199 0.000000
# 6 0.000000 0.000000 0.000000 0.000000 0.000000 0.040328
#
#
# Mechanical properties :
#
#
# Convention : Reuss Voigt Hill
#
# Bulk Modulus (GPa) = 46.94848 55.36442 51.15645
# Shear Modulus (GPa) = 15.66289 24.45178 20.05733
#
# Velocity S-wave (km/s) = 2.79299 3.48971 3.16061
# Velocity P-wave (km/s) = 5.81236 6.61901 6.22876
#
# Compressibility (1/GPa) = 0.02129994
#
# Stress axis : x y z
#
# Youngs Moduli (GPa) = 123.40490 23.70879 19.32942
#
# Poissons Ratio (x) = 0.08201 0.04854
# Poissons Ratio (y) = 0.42684 0.66471
# Poissons Ratio (z) = 0.30989 0.81530
#
# Static dielectric constant tensor:
#      x y z
#    x 1.793790 0.000000 0.000000 
#    y 0.000000 1.849700 0.000000 
#    z 0.000000 0.000000 1.665300 
# 
# From -- ./inp_files/11434.got.cif
#   From: 2010.05.17/outbox.cif.g08.bks.cpg/sg59_6_cif.got.tgz:11434.got - 2010.06.03 14:40:33.
