data_PCOD9450186
_publ_section_title
;
Structure prediction by ZEFSAII (Michael W. Deem and Ramdas Pophale) SiO2 
 PCOD9450186
Probable space group: P M M N
;
_chemical_formula_sum "Si O2"
_cell_formula_units_Z 56
_cell_length_a 16.991562
_cell_length_b 8.926685
_cell_length_c 20.907548
_cell_angle_alpha 90.000000
_cell_angle_beta 90.000000
_cell_angle_gamma 90.000000
_cell_volume 3171.221790
_symmetry_space_group_name_H-M "P M M N"
_symmetry_group_IT_number 59
_space_group.IT_coordinate_system_code '2'
_symmetry_cell_setting 'orthorhombic'
loop_
_space_group_symop_operation_xyz
x,y,z
1/2-x,1/2-y,z
1/2+x,-y,-z
-x,1/2+y,-z
-x,-y,-z
1/2+x,1/2+y,-z
1/2-x,y,z
x,1/2-y,z
loop_
_atom_site_type_symbol
_atom_site_label
_atom_site_fract_x
_atom_site_fract_y
_atom_site_fract_z
Si Si1 0.839574 0.429972 0.846010
Si Si2 0.934161 0.927386 0.586432
Si Si3 0.750000 0.569478 0.228639
Si Si4 0.436601 0.430298 0.267794
Si Si5 0.386040 0.574550 0.540227
Si Si6 0.250000 0.428262 0.622047
Si Si7 0.487841 0.930230 0.069430
Si Si8 0.586791 0.069726 0.184009
O O1 0.750000 0.478261 0.858031
O O2 0.840378 0.250000 0.839301
O O3 0.874605 0.500637 0.781485
O O4 0.901147 0.467028 0.902295
O O5 0.916379 0.750000 0.583247
O O6 0.923899 0.979872 0.659278
O O7 0.025892 0.945782 0.567726
O O8 0.885711 0.011816 0.531867
O O9 0.750000 0.750000 0.222915
O O10 0.750000 0.527550 0.303702
O O11 0.828858 0.501409 0.198186
O O12 0.430194 0.250000 0.266437
O O13 0.523754 0.466824 0.240485
O O14 0.367993 0.750000 0.540065
O O15 0.325625 0.490621 0.585517
O O16 0.250000 0.250000 0.619086
O O17 0.496176 0.750000 0.067903
O O18 0.548867 0.001228 0.119910
O O19 0.500000 0.000000 0.000000
O O20 0.592214 0.250000 0.179268
#
# Coordination Sequence:
#
# PCOD9450186 Si02
#       8
#     8   8   4   8   8   4   8   8
#     4   9  19  36  56  80 109 142 181 226 270 319
#     4   9  18  34  53  75 103 137 176 222 274 327
#     4  11  23  37  55  83 115 146 185 230 277 331
#     4   9  18  33  55  80 106 140 181 223 274 330
#     4  10  20  34  53  75 101 135 181 227 268 327
#     4  11  23  37  53  75 107 144 177 222 283 335
#     4  10  20  37  60  84 115 151 188 228 274 327
#     4  10  20  36  58  84 114 148 186 228 275 328
#
# _framework density 17.658808000000001
#
# number of rings (size 3 to 8) (size 9 to 14) (size 15 to 20)
#    0.000    2.286    0.000    2.571    0.000    4.857 
#    2.571    0.000    0.000    0.000    0.000    0.000 
#    0.000    0.000    0.000    0.000    0.000    0.000 
#
# Total GULP energy -312556.097933 kJ/mol
# GULP energy per Si atom -5581.358892 kJ/mol
# Density = 1.761862 g / cm^3
# Si number density = 17.658808 Si / 1000 Ang^3
#
#
#
# Elastic Constant Matrix: (Units=GPa)
#
#
# Indices 1 2 3 4 5 6 
#
# 1 125.5555 52.6472 74.1118 0.0000 0.0000 0.0000
# 2 52.6472 49.9625 54.1350 0.0000 0.0000 0.0000
# 3 74.1118 54.1350 162.9185 0.0000 0.0000 0.0000
# 4 0.0000 0.0000 0.0000 29.6071 0.0000 0.0000
# 5 0.0000 0.0000 0.0000 0.0000 13.8320 0.0000
# 6 0.0000 0.0000 0.0000 0.0000 0.0000 28.5443
#
#
#
# Elastic Compliance Matrix: (Units=1/GPa)
#
#
# Indices 1 2 3 4 5 6 
#
# 1 0.014862 -0.013025 -0.002433 0.000000 0.000000 0.000000
# 2 -0.013025 0.042689 -0.008260 0.000000 0.000000 0.000000
# 3 -0.002433 -0.008260 0.009989 0.000000 0.000000 0.000000
# 4 0.000000 0.000000 0.000000 0.033776 0.000000 0.000000
# 5 0.000000 0.000000 0.000000 0.000000 0.072296 0.000000
# 6 0.000000 0.000000 0.000000 0.000000 0.000000 0.035033
#
#
# Mechanical properties :
#
#
# Convention : Reuss Voigt Hill
#
# Bulk Modulus (GPa) = 49.73701 77.80274 63.76988
# Shear Modulus (GPa) = 19.02713 24.89953 21.96333
#
# Velocity S-wave (km/s) = 3.28607 3.75912 3.53053
# Velocity P-wave (km/s) = 6.52873 7.93699 7.26706
#
# Compressibility (1/GPa) = 0.02010575
#
# Stress axis : x y z
#
# Youngs Moduli (GPa) = 67.28533 23.42508 100.10569
#
# Poissons Ratio (x) = 0.30510 0.24355
# Poissons Ratio (y) = 0.87636 0.82688
# Poissons Ratio (z) = 0.16370 0.19349
#
# Static dielectric constant tensor:
#      x y z
#    x 1.589870 0.000000 0.000000 
#    y 0.000000 1.588930 0.000000 
#    z 0.000000 0.000000 1.580310 
# 
# From -- ./inp_files/30421.got.cif
#   From: 2010.05.17/outbox.cif.g08.bks.cpg/sg59_16_cif.got.tgz:30421.got - 2010.06.03 14:40:33.
