data_PCOD9450272
_publ_section_title
;
Structure prediction by ZEFSAII (Michael W. Deem and Ramdas Pophale) SiO2 
 PCOD9450272
Probable space group: P M M N
;
_chemical_formula_sum "Si O2"
_cell_formula_units_Z 64
_cell_length_a 8.706299
_cell_length_b 15.453156
_cell_length_c 23.973373
_cell_angle_alpha 90.000000
_cell_angle_beta 90.000000
_cell_angle_gamma 90.000000
_cell_volume 3225.372728
_symmetry_space_group_name_H-M "P M M N"
_symmetry_group_IT_number 59
_space_group.IT_coordinate_system_code '2'
_symmetry_cell_setting 'orthorhombic'
loop_
_space_group_symop_operation_xyz
x,y,z
1/2-x,1/2-y,z
1/2+x,-y,-z
-x,1/2+y,-z
-x,-y,-z
1/2+x,1/2+y,-z
1/2-x,y,z
x,1/2-y,z
loop_
_atom_site_type_symbol
_atom_site_label
_atom_site_fract_x
_atom_site_fract_y
_atom_site_fract_z
Si Si1 0.435021 0.343117 0.091356
Si Si2 0.065022 0.968682 0.135824
Si Si3 0.580131 0.650456 0.582793
Si Si4 0.067556 0.911023 0.475737
Si Si5 0.435328 0.472813 0.746047
Si Si6 0.064407 0.148697 0.642654
Si Si7 0.565628 0.150432 0.302840
Si Si8 0.934481 0.092646 0.981325
O O1 0.250000 0.346377 0.091015
O O2 0.482578 0.250000 0.116598
O O3 0.487672 0.432490 0.120589
O O4 0.493465 0.345629 0.027539
O O5 0.250000 0.970811 0.139226
O O6 0.024833 0.905327 0.084188
O O7 0.996226 0.941982 0.194592
O O8 0.750000 0.609461 0.578439
O O9 0.600484 0.750000 0.597381
O O10 0.493466 0.650506 0.524475
O O11 0.484014 0.617656 0.635376
O O12 0.250000 0.911830 0.474175
O O13 0.002852 0.886657 0.415418
O O14 0.000000 0.000000 0.500000
O O15 0.250000 0.472913 0.746507
O O16 0.483946 0.411216 0.694759
O O17 0.488086 0.572684 0.736921
O O18 0.250000 0.144538 0.638881
O O19 0.021914 0.250000 0.649811
O O20 0.750000 0.153148 0.301635
O O21 0.513283 0.250000 0.291217
O O22 0.750000 0.094983 0.985750
O O23 0.000000 0.000000 0.000000
#
# Coordination Sequence:
#
# PCOD9450272 Si02
#       8
#     8   8   8   8   8   8   8   8
#     4   9  18  33  53  80 113 144 175 217 272 331
#     4   9  19  34  52  75 105 141 179 222 272 326
#     4  10  20  34  53  78 107 138 173 214 264 325
#     4  12  24  37  57  84 111 139 175 221 278 342
#     4  10  21  36  55  78 105 143 190 236 281 329
#     4  10  22  41  61  81 110 148 191 240 288 332
#     4   9  18  33  52  76 109 146 184 230 282 335
#     4   9  17  31  51  75 104 139 178 218 265 320
#
# _framework density 19.842668
#
# number of rings (size 3 to 8) (size 9 to 14) (size 15 to 20)
#    0.000    2.250    0.000    3.750    0.000    7.750 
#    0.000    0.625    0.000    2.250    0.000    0.000 
#    0.000    0.000    0.000    0.000    0.000    0.000 
#
# Total GULP energy -356598.526116 kJ/mol
# GULP energy per Si atom -5571.851971 kJ/mol
# Density = 1.979751 g / cm^3
# Si number density = 19.842668 Si / 1000 Ang^3
#
#
#
# Elastic Constant Matrix: (Units=GPa)
#
#
# Indices 1 2 3 4 5 6 
#
# 1 9.7616 8.4693 2.8131 0.0000 0.0000 0.0000
# 2 8.4693 63.1788 9.0533 0.0000 0.0000 0.0000
# 3 2.8131 9.0533 102.9337 0.0000 0.0000 0.0000
# 4 0.0000 0.0000 0.0000 19.2462 0.0000 0.0000
# 5 0.0000 0.0000 0.0000 0.0000 32.1505 0.0000
# 6 0.0000 0.0000 0.0000 0.0000 0.0000 13.8692
#
#
#
# Elastic Compliance Matrix: (Units=1/GPa)
#
#
# Indices 1 2 3 4 5 6 
#
# 1 0.116264 -0.015323 -0.001830 0.000000 0.000000 0.000000
# 2 -0.015323 0.018050 -0.001169 0.000000 0.000000 0.000000
# 3 -0.001830 -0.001169 0.009868 0.000000 0.000000 0.000000
# 4 0.000000 0.000000 0.000000 0.051958 0.000000 0.000000
# 5 0.000000 0.000000 0.000000 0.000000 0.031104 0.000000
# 6 0.000000 0.000000 0.000000 0.000000 0.000000 0.072102
#
#
# Mechanical properties :
#
#
# Convention : Reuss Voigt Hill
#
# Bulk Modulus (GPa) = 9.29901 24.06059 16.67980
# Shear Modulus (GPa) = 13.44679 23.42240 18.43460
#
# Velocity S-wave (km/s) = 2.60604 3.43943 3.05132
# Velocity P-wave (km/s) = 3.70834 5.28440 4.56490
#
# Compressibility (1/GPa) = 0.10753829
#
# Stress axis : x y z
#
# Youngs Moduli (GPa) = 8.60109 55.40254 101.33982
#
# Poissons Ratio (x) = 0.84895 0.18542
# Poissons Ratio (y) = 0.13180 0.11844
# Poissons Ratio (z) = 0.01574 0.06475
#
# Static dielectric constant tensor:
#      x y z
#    x 1.696680 0.000000 0.000000 
#    y 0.000000 1.845750 0.000000 
#    z 0.000000 0.000000 1.702000 
# 
# From -- ./inp_files/29517.got.cif
#   From: 2010.05.17/outbox.cif.g08.bks.cpg/sg59_15_cif.got.tgz:29517.got - 2010.06.03 14:40:33.
