data_PCOD9450667
_publ_section_title
;
Structure prediction by ZEFSAII (Michael W. Deem and Ramdas Pophale) SiO2 
 PCOD9450667
Probable space group: P M M N
;
_chemical_formula_sum "Si O2"
_cell_formula_units_Z 56
_cell_length_a 21.002004
_cell_length_b 8.666767
_cell_length_c 16.308397
_cell_angle_alpha 90.000000
_cell_angle_beta 90.000000
_cell_angle_gamma 90.000000
_cell_volume 2968.445863
_symmetry_space_group_name_H-M "P M M N"
_symmetry_group_IT_number 59
_space_group.IT_coordinate_system_code '2'
_symmetry_cell_setting 'orthorhombic'
loop_
_space_group_symop_operation_xyz
x,y,z
1/2-x,1/2-y,z
1/2+x,-y,-z
-x,1/2+y,-z
-x,-y,-z
1/2+x,1/2+y,-z
1/2-x,y,z
x,1/2-y,z
loop_
_atom_site_type_symbol
_atom_site_label
_atom_site_fract_x
_atom_site_fract_y
_atom_site_fract_z
Si Si1 0.000418 0.434969 0.408524
Si Si2 0.454697 0.064388 0.118850
Si Si3 0.412561 0.067604 0.935554
Si Si4 0.250000 0.437530 0.354385
Si Si5 0.250000 0.565437 0.539009
Si Si6 0.113005 0.437642 0.286895
Si Si7 0.674442 0.424056 0.191230
Si Si8 0.366816 0.430694 0.644218
O O1 0.001287 0.250000 0.410918
O O2 0.935215 0.492325 0.368270
O O3 0.000000 0.500000 0.500000
O O4 0.062050 0.486355 0.356183
O O5 0.465149 0.250000 0.124026
O O6 0.414140 0.015511 0.197970
O O7 0.522760 0.982163 0.111071
O O8 0.420785 0.033077 0.031903
O O9 0.402883 0.250000 0.926536
O O10 0.356463 0.974150 0.893587
O O11 0.250000 0.250000 0.358373
O O12 0.250000 0.501622 0.446681
O O13 0.184719 0.486748 0.309081
O O14 0.250000 0.750000 0.539371
O O15 0.312547 0.505550 0.586857
O O16 0.113686 0.250000 0.286775
O O17 0.750000 0.425774 0.186325
O O18 0.653712 0.250000 0.213653
O O19 0.653178 0.539141 0.262439
O O20 0.370525 0.250000 0.625419
#
# Coordination Sequence:
#
# PCOD9450667 Si02
#       8
#     8   8   8   4   4   8   8   8
#     4  11  22  37  58  87 123 160 201 251 305 358
#     4   9  18  36  59  85 115 152 197 243 295 353
#     4  10  20  34  57  88 118 150 192 243 296 350
#     4  10  20  38  62  85 112 149 198 247 294 347
#     4  12  24  40  60  85 118 157 196 237 298 367
#     4   9  19  36  59  85 113 151 198 246 295 349
#     4  11  23  39  58  82 117 158 196 236 294 360
#     4  12  24  39  61  88 118 153 198 250 299 353
#
# _framework density 18.865091
#
# number of rings (size 3 to 8) (size 9 to 14) (size 15 to 20)
#    0.000    1.571    0.714    4.929    0.000    3.714 
#    1.286    2.143    0.000    0.000    0.000    0.000 
#    0.000    0.000    0.000    0.000    0.000    0.000 
#
# Total GULP energy -312908.758094 kJ/mol
# GULP energy per Si atom -5587.656395 kJ/mol
# Density = 1.882215 g / cm^3
# Si number density = 18.865091 Si / 1000 Ang^3
#
#
#
# Elastic Constant Matrix: (Units=GPa)
#
#
# Indices 1 2 3 4 5 6 
#
# 1 128.3134 29.6272 59.0925 0.0000 0.0000 0.0000
# 2 29.6272 54.2226 21.8310 0.0000 0.0000 0.0000
# 3 59.0925 21.8310 97.4900 0.0000 0.0000 0.0000
# 4 0.0000 0.0000 0.0000 26.7056 0.0000 0.0000
# 5 0.0000 0.0000 0.0000 0.0000 31.6575 0.0000
# 6 0.0000 0.0000 0.0000 0.0000 0.0000 23.3538
#
#
#
# Elastic Compliance Matrix: (Units=1/GPa)
#
#
# Indices 1 2 3 4 5 6 
#
# 1 0.011488 -0.003818 -0.006108 0.000000 0.000000 0.000000
# 2 -0.003818 0.021539 -0.002509 0.000000 0.000000 0.000000
# 3 -0.006108 -0.002509 0.014522 0.000000 0.000000 0.000000
# 4 0.000000 0.000000 0.000000 0.037445 0.000000 0.000000
# 5 0.000000 0.000000 0.000000 0.000000 0.031588 0.000000
# 6 0.000000 0.000000 0.000000 0.000000 0.000000 0.042820
#
#
# Mechanical properties :
#
#
# Convention : Reuss Voigt Hill
#
# Bulk Modulus (GPa) = 44.09540 55.68085 49.88812
# Shear Modulus (GPa) = 26.06452 27.64172 26.85312
#
# Velocity S-wave (km/s) = 3.72106 3.83199 3.77693
# Velocity P-wave (km/s) = 6.47198 7.01129 6.74702
#
# Compressibility (1/GPa) = 0.02267810
#
# Stress axis : x y z
#
# Youngs Moduli (GPa) = 87.04686 46.42807 68.86148
#
# Poissons Ratio (x) = 0.17725 0.42064
# Poissons Ratio (y) = 0.33232 0.17278
# Poissons Ratio (z) = 0.53172 0.11649
#
# Static dielectric constant tensor:
#      x y z
#    x 1.628040 0.000000 0.000000 
#    y 0.000000 1.644100 0.000000 
#    z 0.000000 0.000000 1.636920 
# 
# From -- ./inp_files/24340.got.cif
#   From: 2010.05.17/outbox.cif.g08.bks.cpg/sg59_13_cif.got.tgz:24340.got - 2010.06.03 14:40:33.
