data_PCOD9450675
_publ_section_title
;
Structure prediction by ZEFSAII (Michael W. Deem and Ramdas Pophale) SiO2 
 PCOD9450675
Probable space group: P M M N
;
_chemical_formula_sum "Si O2"
_cell_formula_units_Z 32
_cell_length_a 16.004364
_cell_length_b 17.603812
_cell_length_c 4.976657
_cell_angle_alpha 90.000000
_cell_angle_beta 90.000000
_cell_angle_gamma 90.000000
_cell_volume 1402.112469
_symmetry_space_group_name_H-M "P M M N"
_symmetry_group_IT_number 59
_space_group.IT_coordinate_system_code '2'
_symmetry_cell_setting 'orthorhombic'
loop_
_space_group_symop_operation_xyz
x,y,z
1/2-x,1/2-y,z
1/2+x,-y,-z
-x,1/2+y,-z
-x,-y,-z
1/2+x,1/2+y,-z
1/2-x,y,z
x,1/2-y,z
loop_
_atom_site_type_symbol
_atom_site_label
_atom_site_fract_x
_atom_site_fract_y
_atom_site_fract_z
Si Si1 0.612068 0.435906 0.378303
Si Si2 0.451287 0.380229 0.176126
Si Si3 0.155434 0.395755 0.654052
Si Si4 0.114559 0.665031 0.090066
O O1 0.515558 0.446191 0.275769
O O2 0.652025 0.516326 0.440850
O O3 0.612196 0.379609 0.630665
O O4 0.654462 0.390512 0.132306
O O5 0.403796 0.352670 0.441923
O O6 0.383354 0.398114 0.951081
O O7 0.520223 0.329184 0.028564
O O8 0.250000 0.367676 0.654489
O O9 0.148731 0.750000 0.113834
#
# Coordination Sequence:
#
# PCOD9450675 Si02
#       4
#     8   8   8   8
#     4  10  20  34  58  80 110 135 184 221 268 311
#     4  10  20  36  55  81 107 140 182 220 268 314
#     4  12  22  34  54  84 116 140 169 220 280 329
#     4  10  20  34  59  81 102 137 188 229 255 302
#
# _framework density 22.822703000000001
#
# number of rings (size 3 to 8) (size 9 to 14) (size 15 to 20)
#    1.500    0.000    2.500    4.500    0.000    0.000 
#    0.000    0.000    0.000    9.000    0.000    0.000 
#    0.000    0.000    0.000    0.000    0.000    0.000 
#
# Total GULP energy -178360.622828 kJ/mol
# GULP energy per Si atom -5573.769463 kJ/mol
# Density = 2.277076 g / cm^3
# Si number density = 22.822703 Si / 1000 Ang^3
#
#
#
# Elastic Constant Matrix: (Units=GPa)
#
#
# Indices 1 2 3 4 5 6 
#
# 1 115.4633 -21.6621 21.1207 0.0000 0.0000 0.0000
# 2 -21.6621 42.1450 5.2266 0.0000 0.0000 0.0000
# 3 21.1207 5.2266 154.8179 0.0000 0.0000 0.0000
# 4 0.0000 0.0000 0.0000 -24.4758 0.0000 0.0000
# 5 0.0000 0.0000 0.0000 0.0000 -15.1759 0.0000
# 6 0.0000 0.0000 0.0000 0.0000 0.0000 -11.0962
#
#
#
# Elastic Compliance Matrix: (Units=1/GPa)
#
#
# Indices 1 2 3 4 5 6 
#
# 1 0.009935 0.005297 -0.001534 0.000000 0.000000 0.000000
# 2 0.005297 0.026651 -0.001622 0.000000 0.000000 0.000000
# 3 -0.001534 -0.001622 0.006723 0.000000 0.000000 0.000000
# 4 0.000000 0.000000 0.000000 -0.040857 0.000000 0.000000
# 5 0.000000 0.000000 0.000000 0.000000 -0.065894 0.000000
# 6 0.000000 0.000000 0.000000 0.000000 0.000000 -0.090121
#
#
# Mechanical properties :
#
#
# Convention : Reuss Voigt Hill
#
# Bulk Modulus (GPa) = 21.01269 35.75517 28.38393
# Shear Modulus (GPa) = -35.21644 10.36649 -12.42497
#
# Velocity S-wave (km/s) = -3.93242 2.13355 -2.33580
# Velocity P-wave (km/s) = 3.37516 4.66582 2.27796
#
# Compressibility (1/GPa) = 0.04759028
#
# Stress axis : x y z
#
# Youngs Moduli (GPa) = 100.65289 37.52160 148.73712
#
# Poissons Ratio (x) = -0.19875 0.22819
# Poissons Ratio (y) = -0.53314 0.24130
# Poissons Ratio (z) = 0.15442 0.06087
#
# Static dielectric constant tensor:
#      x y z
#    x 1.913210 0.000000 0.000000 
#    y 0.000000 1.812770 0.000000 
#    z 0.000000 0.000000 1.835350 
# 
# From -- ./inp_files/2697.got.cif
#   From: 2010.05.17/outbox.cif.g08.bks.cpg/sg59_2_cif.got.tgz:2697.got - 2010.06.03 14:40:33.
