data_PCOD9450027
_publ_section_title
;
Structure prediction by ZEFSAII (Michael W. Deem and Ramdas Pophale) SiO2 
 PCOD9450027
Probable space group: P M M N
;
_chemical_formula_sum "Si O2"
_cell_formula_units_Z 64
_cell_length_a 8.963337
_cell_length_b 34.308425
_cell_length_c 11.023771
_cell_angle_alpha 90.000000
_cell_angle_beta 90.000000
_cell_angle_gamma 90.000000
_cell_volume 3390.007737
_symmetry_space_group_name_H-M "P M M N"
_symmetry_group_IT_number 59
_space_group.IT_coordinate_system_code '2'
_symmetry_cell_setting 'orthorhombic'
loop_
_space_group_symop_operation_xyz
x,y,z
1/2-x,1/2-y,z
1/2+x,-y,-z
-x,1/2+y,-z
-x,-y,-z
1/2+x,1/2+y,-z
1/2-x,y,z
x,1/2-y,z
loop_
_atom_site_type_symbol
_atom_site_label
_atom_site_fract_x
_atom_site_fract_y
_atom_site_fract_z
Si Si1 0.427456 0.592471 0.083884
Si Si2 0.427163 0.019830 0.805735
Si Si3 0.927120 0.439432 0.296355
Si Si4 0.071153 0.205547 0.288060
Si Si5 0.572028 0.627795 0.843766
Si Si6 0.425297 0.364666 0.688201
Si Si7 0.073317 0.795535 0.448912
Si Si8 0.922625 0.558596 0.456845
O O1 0.250000 0.592524 0.079969
O O2 0.485232 0.548313 0.105196
O O3 0.487604 0.617364 0.198028
O O4 0.493609 0.611902 0.963863
O O5 0.250000 0.023261 0.830150
O O6 0.451612 0.036300 0.669080
O O7 0.467482 0.974490 0.795800
O O8 0.750000 0.433094 0.287530
O O9 0.017454 0.400964 0.262393
O O10 0.970516 0.451486 0.432673
O O11 0.250000 0.203156 0.308286
O O12 0.036698 0.250000 0.249391
O O13 0.031393 0.171961 0.192727
O O14 0.990146 0.198225 0.415733
O O15 0.750000 0.625495 0.857346
O O16 0.250000 0.362199 0.718332
O O17 0.490419 0.324068 0.643044
O O18 0.439688 0.396038 0.579313
O O19 0.250000 0.803246 0.447363
O O20 0.048653 0.750000 0.419498
O O21 0.750000 0.551327 0.491303
#
# Coordination Sequence:
#
# PCOD9450027 Si02
#       8
#     8   8   8   8   8   8   8   8
#     4  11  23  39  59  80 104 139 184 232 277 323
#     4   9  20  38  56  77 109 147 184 223 270 325
#     4  11  22  34  53  82 113 144 181 226 272 323
#     4   9  19  37  60  84 110 144 184 221 264 322
#     4  11  23  39  58  79 108 145 184 229 275 324
#     4  10  20  36  57  79 107 145 184 221 268 327
#     4  10  20  33  53  85 120 147 175 219 273 323
#     4   9  18  33  53  78 108 141 179 223 272 327
#
# _framework density 18.879013
#
# number of rings (size 3 to 8) (size 9 to 14) (size 15 to 20)
#    0.000    2.000    0.000    4.500    0.000    8.750 
#    0.000    0.625    0.000    2.250    0.000    0.000 
#    0.000    0.000    0.000    0.000    0.000    0.000 
#
# Total GULP energy -357505.651549 kJ/mol
# GULP energy per Si atom -5586.025805 kJ/mol
# Density = 1.883604 g / cm^3
# Si number density = 18.879013 Si / 1000 Ang^3
#
#
#
# Elastic Constant Matrix: (Units=GPa)
#
#
# Indices 1 2 3 4 5 6 
#
# 1 57.0337 32.1110 12.4066 0.0000 0.0000 0.0000
# 2 32.1110 75.0978 4.3730 0.0000 0.0000 0.0000
# 3 12.4066 4.3730 24.4744 0.0000 0.0000 0.0000
# 4 0.0000 0.0000 0.0000 22.1535 0.0000 0.0000
# 5 0.0000 0.0000 0.0000 0.0000 25.0219 0.0000
# 6 0.0000 0.0000 0.0000 0.0000 0.0000 25.3327
#
#
#
# Elastic Compliance Matrix: (Units=1/GPa)
#
#
# Indices 1 2 3 4 5 6 
#
# 1 0.025827 -0.010389 -0.011236 0.000000 0.000000 0.000000
# 2 -0.010389 0.017635 0.002116 0.000000 0.000000 0.000000
# 3 -0.011236 0.002116 0.046177 0.000000 0.000000 0.000000
# 4 0.000000 0.000000 0.000000 0.045140 0.000000 0.000000
# 5 0.000000 0.000000 0.000000 0.000000 0.039965 0.000000
# 6 0.000000 0.000000 0.000000 0.000000 0.000000 0.039475
#
#
# Mechanical properties :
#
#
# Convention : Reuss Voigt Hill
#
# Bulk Modulus (GPa) = 19.75514 28.26524 24.01019
# Shear Modulus (GPa) = 18.51095 21.68263 20.09679
#
# Velocity S-wave (km/s) = 3.13470 3.39264 3.26621
# Velocity P-wave (km/s) = 4.85681 5.50917 5.19324
#
# Compressibility (1/GPa) = 0.05061974
#
# Stress axis : x y z
#
# Youngs Moduli (GPa) = 38.71933 56.70536 21.65587
#
# Poissons Ratio (x) = 0.58911 0.24333
# Poissons Ratio (y) = 0.40226 -0.04581
# Poissons Ratio (z) = 0.43505 -0.11996
#
# Static dielectric constant tensor:
#      x y z
#    x 1.615410 0.000000 0.000000 
#    y 0.000000 1.670970 0.000000 
#    z 0.000000 0.000000 1.646020 
# 
# From -- ./inp_files/14922.got.cif
#   From: 2010.05.17/outbox.cif.g08.bks.cpg/sg59_8_cif.got.tgz:14922.got - 2010.06.03 14:40:33.
