data_PCOD9450439
_publ_section_title
;
Structure prediction by ZEFSAII (Michael W. Deem and Ramdas Pophale) SiO2 
 PCOD9450439
Probable space group: P M M N
;
_chemical_formula_sum "Si O2"
_cell_formula_units_Z 40
_cell_length_a 7.902116
_cell_length_b 15.360221
_cell_length_c 15.345089
_cell_angle_alpha 90.000000
_cell_angle_beta 90.000000
_cell_angle_gamma 90.000000
_cell_volume 1862.560020
_symmetry_space_group_name_H-M "P M M N"
_symmetry_group_IT_number 59
_space_group.IT_coordinate_system_code '2'
_symmetry_cell_setting 'orthorhombic'
loop_
_space_group_symop_operation_xyz
x,y,z
1/2-x,1/2-y,z
1/2+x,-y,-z
-x,1/2+y,-z
-x,-y,-z
1/2+x,1/2+y,-z
1/2-x,y,z
x,1/2-y,z
loop_
_atom_site_type_symbol
_atom_site_label
_atom_site_fract_x
_atom_site_fract_y
_atom_site_fract_z
Si Si1 0.455288 0.938767 0.729755
Si Si2 0.549670 0.116085 0.654694
Si Si3 0.060102 0.250000 0.512379
Si Si4 0.442782 0.750000 0.675787
Si Si5 0.044323 0.750000 0.199692
Si Si6 0.957495 0.250000 0.000250
Si Si7 0.953351 0.066616 0.075564
O O1 0.250000 0.938508 0.726683
O O2 0.517413 0.841919 0.706326
O O3 0.513249 0.959491 0.828277
O O4 0.513307 0.014705 0.665386
O O5 0.750000 0.130178 0.646889
O O6 0.468043 0.166296 0.573818
O O7 0.492023 0.166504 0.742818
O O8 0.250000 0.250000 0.478144
O O9 0.942215 0.250000 0.428662
O O10 0.250000 0.750000 0.710609
O O11 0.250000 0.750000 0.195909
O O12 0.984955 0.750000 0.100449
O O13 0.750000 0.250000 0.999772
O O14 0.013339 0.162744 0.048775
O O15 0.750000 0.070208 0.079957
O O16 0.000000 0.000000 0.000000
#
# Coordination Sequence:
#
# PCOD9450439 Si02
#       7
#     8   8   4   4   4   4   8
#     4  10  21  37  57  82 112 149 192 239 287 333
#     4  10  20  36  59  85 114 148 186 229 282 343
#     4  11  23  40  62  89 116 141 177 228 283 340
#     4  10  22  41  61  81 112 151 192 235 280 337
#     4   8  15  28  49  78 107 140 183 226 270 324
#     4   9  16  29  50  74 105 146 186 223 269 327
#     4  10  20  34  54  81 112 148 191 235 279 329
#
# _framework density 21.475819000000001
#
# number of rings (size 3 to 8) (size 9 to 14) (size 15 to 20)
#    0.000    2.200    0.000    3.900    0.000    6.400 
#    0.000    0.500    0.000    6.000    0.000    0.000 
#    0.000    0.000    0.000    0.000    0.000    0.000 
#
# Total GULP energy -223448.967257 kJ/mol
# GULP energy per Si atom -5586.224181 kJ/mol
# Density = 2.142694 g / cm^3
# Si number density = 21.475819 Si / 1000 Ang^3
#
#
#
# Elastic Constant Matrix: (Units=GPa)
#
#
# Indices 1 2 3 4 5 6 
#
# 1 32.5651 -2.7853 -8.0413 0.0000 0.0000 0.0000
# 2 -2.7853 145.7503 21.8013 0.0000 0.0000 0.0000
# 3 -8.0413 21.8013 72.3159 0.0000 0.0000 0.0000
# 4 0.0000 0.0000 0.0000 6.4268 0.0000 0.0000
# 5 0.0000 0.0000 0.0000 0.0000 17.1643 0.0000
# 6 0.0000 0.0000 0.0000 0.0000 0.0000 11.1363
#
#
#
# Elastic Compliance Matrix: (Units=1/GPa)
#
#
# Indices 1 2 3 4 5 6 
#
# 1 0.031576 0.000082 0.003486 0.000000 0.000000 0.000000
# 2 0.000082 0.007185 -0.002157 0.000000 0.000000 0.000000
# 3 0.003486 -0.002157 0.014866 0.000000 0.000000 0.000000
# 4 0.000000 0.000000 0.000000 0.155598 0.000000 0.000000
# 5 0.000000 0.000000 0.000000 0.000000 0.058261 0.000000
# 6 0.000000 0.000000 0.000000 0.000000 0.000000 0.089796
#
#
# Mechanical properties :
#
#
# Convention : Reuss Voigt Hill
#
# Bulk Modulus (GPa) = 17.71491 30.28675 24.00083
# Shear Modulus (GPa) = 13.39493 22.92258 18.15876
#
# Velocity S-wave (km/s) = 2.50015 3.27060 2.91098
# Velocity P-wave (km/s) = 4.07443 5.32877 4.74325
#
# Compressibility (1/GPa) = 0.05644963
#
# Stress axis : x y z
#
# Youngs Moduli (GPa) = 31.66998 139.17364 67.26672
#
# Poissons Ratio (x) = -0.01140 -0.23452
# Poissons Ratio (y) = -0.00259 0.14510
# Poissons Ratio (z) = -0.11041 0.30021
#
# Static dielectric constant tensor:
#      x y z
#    x 1.791730 0.000000 0.000000 
#    y 0.000000 1.768730 0.000000 
#    z 0.000000 0.000000 1.747450 
# 
# From -- ./inp_files/20051.got.cif
#   From: 2010.05.17/outbox.cif.g08.bks.cpg/sg59_11_cif.got.tgz:20051.got - 2010.06.03 14:40:33.
