data_PCOD9450804
_publ_section_title
;
Structure prediction by ZEFSAII (Michael W. Deem and Ramdas Pophale) SiO2 
 PCOD9450804
Probable space group: P M M N
;
_chemical_formula_sum "Si O2"
_cell_formula_units_Z 48
_cell_length_a 10.418854
_cell_length_b 8.719819
_cell_length_c 29.842549
_cell_angle_alpha 90.000000
_cell_angle_beta 90.000000
_cell_angle_gamma 90.000000
_cell_volume 2711.211127
_symmetry_space_group_name_H-M "P M M N"
_symmetry_group_IT_number 59
_space_group.IT_coordinate_system_code '2'
_symmetry_cell_setting 'orthorhombic'
loop_
_space_group_symop_operation_xyz
x,y,z
1/2-x,1/2-y,z
1/2+x,-y,-z
-x,1/2+y,-z
-x,-y,-z
1/2+x,1/2+y,-z
1/2-x,y,z
x,1/2-y,z
loop_
_atom_site_type_symbol
_atom_site_label
_atom_site_fract_x
_atom_site_fract_y
_atom_site_fract_z
Si Si1 0.897384 0.934957 0.133289
Si Si2 0.897474 0.433669 0.034578
Si Si3 0.492639 0.565848 0.396450
Si Si4 0.898496 0.435127 0.791619
Si Si5 0.750000 0.936348 0.446968
Si Si6 0.750000 0.934567 0.550602
Si Si7 0.598993 0.567032 0.694111
O O1 0.750000 0.974519 0.145906
O O2 0.904213 0.750000 0.129398
O O3 0.001504 0.983532 0.170149
O O4 0.923615 0.006308 0.084715
O O5 0.750000 0.479356 0.023365
O O6 0.903698 0.250000 0.034059
O O7 0.000000 0.500000 0.000000
O O8 0.485621 0.750000 0.397235
O O9 0.623138 0.514996 0.420615
O O10 0.374233 0.497189 0.424039
O O11 0.481280 0.508737 0.345558
O O12 0.750000 0.477710 0.801860
O O13 0.903282 0.250000 0.788324
O O14 0.932697 0.504973 0.743398
O O15 0.750000 0.750000 0.447468
O O16 0.750000 0.985259 0.498721
O O17 0.750000 0.750000 0.552448
O O18 0.750000 0.529806 0.686151
O O19 0.585568 0.750000 0.692733
#
# Coordination Sequence:
#
# PCOD9450804 Si02
#       7
#     8   8   8   8   4   4   8
#     4   9  18  34  54  77 108 144 180 222 275 328
#     4  10  21  36  55  80 111 148 189 232 277 327
#     4  11  21  37  59  81 107 143 183 221 267 323
#     4   9  18  33  54  78 103 135 179 224 266 319
#     4   9  22  39  55  81 113 141 177 225 268 317
#     4  11  21  37  59  83 111 141 177 221 270 323
#     4  10  20  35  55  79 108 139 177 224 273 319
#
# _framework density 17.704263999999998
#
# number of rings (size 3 to 8) (size 9 to 14) (size 15 to 20)
#    0.000    2.167    0.833    2.250    0.000    3.000 
#    1.500    5.833    0.000    0.000    0.000    0.000 
#    0.000    0.000    0.000    0.000    0.000    0.000 
#
# Total GULP energy -267950.286388 kJ/mol
# GULP energy per Si atom -5582.297633 kJ/mol
# Density = 1.766397 g / cm^3
# Si number density = 17.704264 Si / 1000 Ang^3
#
#
#
# Elastic Constant Matrix: (Units=GPa)
#
#
# Indices 1 2 3 4 5 6 
#
# 1 145.9534 40.3984 117.8252 0.0000 0.0000 0.0000
# 2 40.3984 33.9438 45.7225 0.0000 0.0000 0.0000
# 3 117.8252 45.7225 168.6099 0.0000 0.0000 0.0000
# 4 0.0000 0.0000 0.0000 32.5106 0.0000 0.0000
# 5 0.0000 0.0000 0.0000 0.0000 28.6521 0.0000
# 6 0.0000 0.0000 0.0000 0.0000 0.0000 4.3641
#
#
#
# Elastic Compliance Matrix: (Units=1/GPa)
#
#
# Indices 1 2 3 4 5 6 
#
# 1 0.016582 -0.006502 -0.009825 0.000000 0.000000 0.000000
# 2 -0.006502 0.048964 -0.008734 0.000000 0.000000 0.000000
# 3 -0.009825 -0.008734 0.015165 0.000000 0.000000 0.000000
# 4 0.000000 0.000000 0.000000 0.030759 0.000000 0.000000
# 5 0.000000 0.000000 0.000000 0.000000 0.034901 0.000000
# 6 0.000000 0.000000 0.000000 0.000000 0.000000 0.229144
#
#
# Mechanical properties :
#
#
# Convention : Reuss Voigt Hill
#
# Bulk Modulus (GPa) = 32.69085 84.04438 58.36761
# Shear Modulus (GPa) = 11.47226 22.74274 17.10750
#
# Velocity S-wave (km/s) = 2.54833 3.58801 3.11190
# Velocity P-wave (km/s) = 5.21188 8.04608 6.77876
#
# Compressibility (1/GPa) = 0.03058960
#
# Stress axis : x y z
#
# Youngs Moduli (GPa) = 60.30469 20.42336 65.94143
#
# Poissons Ratio (x) = 0.13278 0.64786
# Poissons Ratio (y) = 0.39208 0.57595
# Poissons Ratio (z) = 0.59248 0.17838
#
# Static dielectric constant tensor:
#      x y z
#    x 1.596130 0.000000 0.000000 
#    y 0.000000 1.597570 0.000000 
#    z 0.000000 0.000000 1.573270 
# 
# From -- ./inp_files/33101.got.cif
#   From: 2010.05.17/outbox.cif.g08.bks.cpg/sg59_17_cif.got.tgz:33101.got - 2010.06.03 14:40:33.
