data_PCOD9450321
_publ_section_title
;
Structure prediction by ZEFSAII (Michael W. Deem and Ramdas Pophale) SiO2 
 PCOD9450321
Probable space group: P M M N
;
_chemical_formula_sum "Si O2"
_cell_formula_units_Z 64
_cell_length_a 9.157893
_cell_length_b 28.919824
_cell_length_c 12.759502
_cell_angle_alpha 90.000000
_cell_angle_beta 90.000000
_cell_angle_gamma 90.000000
_cell_volume 3379.285889
_symmetry_space_group_name_H-M "P M M N"
_symmetry_group_IT_number 59
_space_group.IT_coordinate_system_code '2'
_symmetry_cell_setting 'orthorhombic'
loop_
_space_group_symop_operation_xyz
x,y,z
1/2-x,1/2-y,z
1/2+x,-y,-z
-x,1/2+y,-z
-x,-y,-z
1/2+x,1/2+y,-z
1/2-x,y,z
x,1/2-y,z
loop_
_atom_site_type_symbol
_atom_site_label
_atom_site_fract_x
_atom_site_fract_y
_atom_site_fract_z
Si Si1 0.574988 0.134878 0.882999
Si Si2 0.074817 0.502961 0.328739
Si Si3 0.918789 0.565001 0.489396
Si Si4 0.576840 0.805355 0.937095
Si Si5 0.573752 0.474138 0.902872
Si Si6 0.918234 0.674346 0.517332
Si Si7 0.086356 0.805180 0.728292
Si Si8 0.425379 0.198282 0.716962
O O1 0.750000 0.138694 0.880511
O O2 0.538037 0.080649 0.896580
O O3 0.507205 0.158286 0.779447
O O4 0.508551 0.165076 0.977208
O O5 0.250000 0.505505 0.326422
O O6 0.033035 0.459481 0.402063
O O7 0.026385 0.503567 0.208454
O O8 0.012864 0.546278 0.393338
O O9 0.750000 0.551070 0.471119
O O10 0.923468 0.619499 0.500076
O O11 0.750000 0.812890 0.946168
O O12 0.551259 0.750000 0.950693
O O13 0.518597 0.820223 0.822741
O O14 0.750000 0.477980 0.911873
O O15 0.500000 0.500000 0.000000
O O16 0.750000 0.687926 0.540519
O O17 0.960457 0.696377 0.406399
O O18 0.018767 0.685702 0.615092
O O19 0.250000 0.824627 0.738751
O O20 0.096146 0.750000 0.738886
O O21 0.250000 0.191737 0.726754
O O22 0.460181 0.250000 0.757679
#
# Coordination Sequence:
#
# PCOD9450321 Si02
#       8
#     8   8   8   8   8   8   8   8
#     4  11  23  38  57  83 113 144 185 237 290 341
#     4   9  18  35  55  76 106 139 174 219 270 323
#     4   9  18  32  54  82 106 136 180 224 267 317
#     4  10  21  38  60  83 108 143 187 231 280 342
#     4  10  23  40  57  80 111 147 185 229 283 339
#     4  10  20  34  53  80 114 148 185 228 271 322
#     4  10  21  36  54  78 109 143 179 222 271 321
#     4  10  21  36  55  81 114 153 194 233 277 335
#
# _framework density 18.938912999999999
#
# number of rings (size 3 to 8) (size 9 to 14) (size 15 to 20)
#    0.000    2.125    0.000    2.625    0.000    7.250 
#    0.000    1.250    0.000    0.000    0.000    0.000 
#    0.000    0.000    0.000    0.000    0.000    0.000 
#
# Total GULP energy -357231.169771 kJ/mol
# GULP energy per Si atom -5581.737028 kJ/mol
# Density = 1.889581 g / cm^3
# Si number density = 18.938913 Si / 1000 Ang^3
#
#
#
# Elastic Constant Matrix: (Units=GPa)
#
#
# Indices 1 2 3 4 5 6 
#
# 1 36.3744 29.0660 41.0524 0.0000 0.0000 0.0000
# 2 29.0660 68.6494 39.2017 0.0000 0.0000 0.0000
# 3 41.0524 39.2017 134.7906 0.0000 0.0000 0.0000
# 4 0.0000 0.0000 0.0000 12.2314 0.0000 0.0000
# 5 0.0000 0.0000 0.0000 0.0000 26.7385 0.0000
# 6 0.0000 0.0000 0.0000 0.0000 0.0000 24.8293
#
#
#
# Elastic Compliance Matrix: (Units=1/GPa)
#
#
# Indices 1 2 3 4 5 6 
#
# 1 0.053340 -0.015957 -0.011605 0.000000 0.000000 0.000000
# 2 -0.015957 0.022242 -0.001609 0.000000 0.000000 0.000000
# 3 -0.011605 -0.001609 0.011421 0.000000 0.000000 0.000000
# 4 0.000000 0.000000 0.000000 0.081757 0.000000 0.000000
# 5 0.000000 0.000000 0.000000 0.000000 0.037399 0.000000
# 6 0.000000 0.000000 0.000000 0.000000 0.000000 0.040275
#
#
# Mechanical properties :
#
#
# Convention : Reuss Voigt Hill
#
# Bulk Modulus (GPa) = 34.88966 50.93941 42.91453
# Shear Modulus (GPa) = 15.90692 21.45946 18.68319
#
# Velocity S-wave (km/s) = 2.90126 3.36979 3.14426
# Velocity P-wave (km/s) = 5.44842 6.48812 5.99087
#
# Compressibility (1/GPa) = 0.02866179
#
# Stress axis : x y z
#
# Youngs Moduli (GPa) = 18.74765 44.96075 87.55738
#
# Poissons Ratio (x) = 0.71745 1.01606
# Poissons Ratio (y) = 0.29916 0.14084
# Poissons Ratio (z) = 0.21756 0.07232
#
# Static dielectric constant tensor:
#      x y z
#    x 1.652330 0.000000 0.000000 
#    y 0.000000 1.649050 0.000000 
#    z 0.000000 0.000000 1.656970 
# 
# From -- ./inp_files/14936.got.cif
#   From: 2010.05.17/outbox.cif.g08.bks.cpg/sg59_8_cif.got.tgz:14936.got - 2010.06.03 14:40:33.
