data_PCOD9450898
_publ_section_title
;
Structure prediction by ZEFSAII (Michael W. Deem and Ramdas Pophale) SiO2 
 PCOD9450898
Probable space group: P M M N
;
_chemical_formula_sum "Si O2"
_cell_formula_units_Z 56
_cell_length_a 23.373771
_cell_length_b 7.626649
_cell_length_c 15.020866
_cell_angle_alpha 90.000000
_cell_angle_beta 90.000000
_cell_angle_gamma 90.000000
_cell_volume 2677.672856
_symmetry_space_group_name_H-M "P M M N"
_symmetry_group_IT_number 59
_space_group.IT_coordinate_system_code '2'
_symmetry_cell_setting 'orthorhombic'
loop_
_space_group_symop_operation_xyz
x,y,z
1/2-x,1/2-y,z
1/2+x,-y,-z
-x,1/2+y,-z
-x,-y,-z
1/2+x,1/2+y,-z
1/2-x,y,z
x,1/2-y,z
loop_
_atom_site_type_symbol
_atom_site_label
_atom_site_fract_x
_atom_site_fract_y
_atom_site_fract_z
Si Si1 0.250000 0.458781 0.812894
Si Si2 0.397424 0.959217 0.329928
Si Si3 0.974407 0.541993 0.904742
Si Si4 0.150381 0.548161 0.148104
Si Si5 0.978204 0.544963 0.282656
Si Si6 0.186614 0.038799 0.487685
Si Si7 0.250000 0.962555 0.021665
Si Si8 0.649348 0.534850 0.315195
O O1 0.250000 0.250000 0.799102
O O2 0.250000 0.487754 0.918316
O O3 0.192940 0.524337 0.762147
O O4 0.402541 0.750000 0.314431
O O5 0.360405 0.030731 0.246289
O O6 0.462782 0.028514 0.325347
O O7 0.363170 0.986471 0.420117
O O8 0.968947 0.750000 0.893660
O O9 0.912008 0.458721 0.895413
O O10 0.012084 0.471367 0.823151
O O11 0.000000 0.500000 0.000000
O O12 0.168443 0.750000 0.162138
O O13 0.195597 0.472806 0.078694
O O14 0.976053 0.750000 0.307753
O O15 0.915970 0.471155 0.305747
O O16 0.250000 0.976196 0.460188
O O17 0.187863 0.250000 0.488072
O O18 0.173607 0.983216 0.588540
O O19 0.250000 0.750000 0.020152
O O20 0.648052 0.750000 0.312215
#
# Coordination Sequence:
#
# PCOD9450898 Si02
#       8
#     4   8   8   8   8   8   4   8
#     4  10  20  36  57  82 110 144 189 232 275 338
#     4   9  19  35  56  81 111 144 184 227 275 334
#     4  11  22  36  56  81 111 146 187 232 277 329
#     4   9  20  39  58  80 113 150 185 225 277 336
#     4   9  19  37  58  80 108 146 187 229 281 336
#     4  10  20  35  56  82 111 146 185 227 275 330
#     4  10  22  38  57  82 114 148 183 228 283 332
#     4   9  18  36  60  81 109 146 186 229 278 333
#
# _framework density 20.913682999999999
#
# number of rings (size 3 to 8) (size 9 to 14) (size 15 to 20)
#    0.000    2.429    0.714    2.143    3.000    3.714 
#    0.000    1.429    0.000    0.000    0.000    0.000 
#    0.000    0.000    0.000    0.000    0.000    0.000 
#
# Total GULP energy -312415.535655 kJ/mol
# GULP energy per Si atom -5578.848851 kJ/mol
# Density = 2.086608 g / cm^3
# Si number density = 20.913683 Si / 1000 Ang^3
#
#
#
# Elastic Constant Matrix: (Units=GPa)
#
#
# Indices 1 2 3 4 5 6 
#
# 1 145.9822 6.5956 80.9704 0.0000 0.0000 0.0000
# 2 6.5956 42.7385 -1.5639 0.0000 0.0000 0.0000
# 3 80.9704 -1.5639 85.5732 0.0000 0.0000 0.0000
# 4 0.0000 0.0000 0.0000 15.9142 0.0000 0.0000
# 5 0.0000 0.0000 0.0000 0.0000 29.1458 0.0000
# 6 0.0000 0.0000 0.0000 0.0000 0.0000 7.9120
#
#
#
# Elastic Compliance Matrix: (Units=1/GPa)
#
#
# Indices 1 2 3 4 5 6 
#
# 1 0.014741 -0.002787 -0.013999 0.000000 0.000000 0.000000
# 2 -0.002787 0.023941 0.003075 0.000000 0.000000 0.000000
# 3 -0.013999 0.003075 0.024988 0.000000 0.000000 0.000000
# 4 0.000000 0.000000 0.000000 0.062837 0.000000 0.000000
# 5 0.000000 0.000000 0.000000 0.000000 0.034310 0.000000
# 6 0.000000 0.000000 0.000000 0.000000 0.000000 0.126390
#
#
# Mechanical properties :
#
#
# Convention : Reuss Voigt Hill
#
# Bulk Modulus (GPa) = 27.58847 49.58868 38.58858
# Shear Modulus (GPa) = 15.30409 23.14719 19.22564
#
# Velocity S-wave (km/s) = 2.70807 3.33046 3.03526
# Velocity P-wave (km/s) = 4.79566 6.20902 5.54754
#
# Compressibility (1/GPa) = 0.03624702
#
# Stress axis : x y z
#
# Youngs Moduli (GPa) = 67.84024 41.76982 40.01965
#
# Poissons Ratio (x) = 0.11642 0.56022
# Poissons Ratio (y) = 0.18908 -0.12305
# Poissons Ratio (z) = 0.94967 -0.12843
#
# Static dielectric constant tensor:
#      x y z
#    x 1.777350 0.000000 0.000000 
#    y 0.000000 1.803800 0.000000 
#    z 0.000000 0.000000 1.718090 
# 
# From -- ./inp_files/24356.got.cif
#   From: 2010.05.17/outbox.cif.g08.bks.cpg/sg59_13_cif.got.tgz:24356.got - 2010.06.03 14:40:33.
