data_PCOD9450288
_publ_section_title
;
Structure prediction by ZEFSAII (Michael W. Deem and Ramdas Pophale) SiO2 
 PCOD9450288
Probable space group: P M M N
;
_chemical_formula_sum "Si O2"
_cell_formula_units_Z 64
_cell_length_a 12.469141
_cell_length_b 13.755197
_cell_length_c 20.479913
_cell_angle_alpha 90.000000
_cell_angle_beta 90.000000
_cell_angle_gamma 90.000000
_cell_volume 3512.622331
_symmetry_space_group_name_H-M "P M M N"
_symmetry_group_IT_number 59
_space_group.IT_coordinate_system_code '2'
_symmetry_cell_setting 'orthorhombic'
loop_
_space_group_symop_operation_xyz
x,y,z
1/2-x,1/2-y,z
1/2+x,-y,-z
-x,1/2+y,-z
-x,-y,-z
1/2+x,1/2+y,-z
1/2-x,y,z
x,1/2-y,z
loop_
_atom_site_type_symbol
_atom_site_label
_atom_site_fract_x
_atom_site_fract_y
_atom_site_fract_z
Si Si1 0.025932 0.639868 0.015432
Si Si2 0.872202 0.366119 0.290060
Si Si3 0.127811 0.362300 0.860149
Si Si4 0.128713 0.040844 0.079149
Si Si5 0.374310 0.861163 0.327102
Si Si6 0.629366 0.064523 0.438874
Si Si7 0.469755 0.997591 0.217177
Si Si8 0.971275 0.639584 0.452462
O O1 0.066896 0.750000 0.013062
O O2 0.933892 0.633707 0.071071
O O3 0.111388 0.559745 0.038641
O O4 0.964519 0.609652 0.949622
O O5 0.750000 0.391760 0.268182
O O6 0.879417 0.250000 0.291798
O O7 0.884548 0.407330 0.363352
O O8 0.965490 0.411754 0.246346
O O9 0.250000 0.395052 0.867276
O O10 0.127494 0.250000 0.838993
O O11 0.061449 0.425965 0.810077
O O12 0.250000 0.076625 0.069628
O O13 0.104527 0.022454 0.155262
O O14 0.250000 0.873454 0.345879
O O15 0.386655 0.750000 0.301549
O O16 0.406397 0.939559 0.272949
O O17 0.450549 0.870187 0.389815
O O18 0.750000 0.092087 0.458469
O O19 0.543307 0.118857 0.483772
O O20 0.611969 0.948865 0.447505
O O21 0.928772 0.750000 0.453578
#
# Coordination Sequence:
#
# PCOD9450288 Si02
#       8
#     8   8   8   8   8   8   8   8
#     4   9  19  36  56  78 106 137 176 222 269 319
#     4  10  21  37  56  77 105 145 191 233 273 319
#     4   9  17  30  51  76 102 133 169 214 270 327
#     4  10  21  35  55  82 110 142 179 221 268 321
#     4  10  20  34  53  78 109 143 178 220 272 330
#     4  10  20  36  58  83 110 145 184 231 282 327
#     4  11  20  34  51  77 110 145 181 219 266 321
#     4  10  20  35  57  85 112 141 181 230 279 330
#
# _framework density 18.220006000000001
#
# number of rings (size 3 to 8) (size 9 to 14) (size 15 to 20)
#    0.000    2.125    1.250    2.250    0.000    3.500 
#    0.000    0.625    0.000    1.125    0.000    0.000 
#    0.000    0.000    0.000    0.000    0.000    0.000 
#
# Total GULP energy -357053.059493 kJ/mol
# GULP energy per Si atom -5578.954055 kJ/mol
# Density = 1.817854 g / cm^3
# Si number density = 18.220006 Si / 1000 Ang^3
#
#
#
# Elastic Constant Matrix: (Units=GPa)
#
#
# Indices 1 2 3 4 5 6 
#
# 1 39.2356 -7.2326 3.3712 0.0000 0.0000 0.0000
# 2 -7.2326 55.6051 8.0109 0.0000 0.0000 0.0000
# 3 3.3712 8.0109 45.9708 0.0000 0.0000 0.0000
# 4 0.0000 0.0000 0.0000 21.6564 0.0000 0.0000
# 5 0.0000 0.0000 0.0000 0.0000 7.9122 0.0000
# 6 0.0000 0.0000 0.0000 0.0000 0.0000 21.4520
#
#
#
# Elastic Compliance Matrix: (Units=1/GPa)
#
#
# Indices 1 2 3 4 5 6 
#
# 1 0.026413 0.003810 -0.002601 0.000000 0.000000 0.000000
# 2 0.003810 0.018997 -0.003590 0.000000 0.000000 0.000000
# 3 -0.002601 -0.003590 0.022569 0.000000 0.000000 0.000000
# 4 0.000000 0.000000 0.000000 0.046176 0.000000 0.000000
# 5 0.000000 0.000000 0.000000 0.000000 0.126388 0.000000
# 6 0.000000 0.000000 0.000000 0.000000 0.000000 0.046616
#
#
# Mechanical properties :
#
#
# Convention : Reuss Voigt Hill
#
# Bulk Modulus (GPa) = 15.81828 16.56783 16.19305
# Shear Modulus (GPa) = 15.97487 19.31491 17.64489
#
# Velocity S-wave (km/s) = 2.96425 3.25944 3.11534
# Velocity P-wave (km/s) = 4.51845 4.82475 4.67411
#
# Compressibility (1/GPa) = 0.06321798
#
# Stress axis : x y z
#
# Youngs Moduli (GPa) = 37.86025 52.64058 44.30815
#
# Poissons Ratio (x) = -0.20057 0.11524
# Poissons Ratio (y) = -0.14426 0.15906
# Poissons Ratio (z) = 0.09847 0.18897
#
# Static dielectric constant tensor:
#      x y z
#    x 1.599440 0.000000 0.000000 
#    y 0.000000 1.633590 0.000000 
#    z 0.000000 0.000000 1.614220 
# 
# From -- ./inp_files/27089.got.cif
#   From: 2010.05.17/outbox.cif.g08.bks.cpg/sg59_14_cif.got.tgz:27089.got - 2010.06.03 14:40:33.
