data_PCOD9450592
_publ_section_title
;
Structure prediction by ZEFSAII (Michael W. Deem and Ramdas Pophale) SiO2 
 PCOD9450592
Probable space group: P M M N
;
_chemical_formula_sum "Si O2"
_cell_formula_units_Z 64
_cell_length_a 14.935150
_cell_length_b 8.782859
_cell_length_c 24.905576
_cell_angle_alpha 90.000000
_cell_angle_beta 90.000000
_cell_angle_gamma 90.000000
_cell_volume 3266.947006
_symmetry_space_group_name_H-M "P M M N"
_symmetry_group_IT_number 59
_space_group.IT_coordinate_system_code '2'
_symmetry_cell_setting 'orthorhombic'
loop_
_space_group_symop_operation_xyz
x,y,z
1/2-x,1/2-y,z
1/2+x,-y,-z
-x,1/2+y,-z
-x,-y,-z
1/2+x,1/2+y,-z
1/2-x,y,z
x,1/2-y,z
loop_
_atom_site_type_symbol
_atom_site_label
_atom_site_fract_x
_atom_site_fract_y
_atom_site_fract_z
Si Si1 0.524491 0.067815 0.180084
Si Si2 0.653285 0.428634 0.083883
Si Si3 0.964937 0.932038 0.380525
Si Si4 0.906721 0.570162 0.979786
Si Si5 0.648543 0.932312 0.596089
Si Si6 0.146114 0.433567 0.725835
Si Si7 0.647870 0.432154 0.865255
Si Si8 0.353331 0.930554 0.522895
O O1 0.520295 0.250000 0.183085
O O2 0.575521 0.026974 0.124582
O O3 0.584900 0.004470 0.227882
O O4 0.425679 0.999298 0.175108
O O5 0.750000 0.441889 0.111668
O O6 0.641358 0.250000 0.069269
O O7 0.653845 0.527555 0.030492
O O8 0.968217 0.750000 0.385944
O O9 0.900134 0.971317 0.330940
O O10 0.921691 0.003133 0.433972
O O11 0.065325 0.994757 0.372681
O O12 0.914297 0.750000 0.971828
O O13 0.873533 0.495750 0.924744
O O14 0.000000 0.500000 0.000000
O O15 0.750000 0.976279 0.613216
O O16 0.642181 0.750000 0.598071
O O17 0.638198 0.988408 0.534577
O O18 0.250000 0.483329 0.728175
O O19 0.144969 0.250000 0.731272
O O20 0.750000 0.473239 0.851379
O O21 0.640171 0.250000 0.866537
O O22 0.250000 0.954113 0.541134
O O23 0.367682 0.750000 0.516063
#
# Coordination Sequence:
#
# PCOD9450592 Si02
#       8
#     8   8   8   8   8   8   8   8
#     4  11  23  40  64  90 117 152 194 243 295 347
#     4  10  21  37  57  84 118 153 188 231 287 347
#     4  11  22  37  59  86 118 157 200 247 298 353
#     4  12  23  36  57  86 120 159 198 237 287 345
#     4  10  21  37  57  83 118 159 201 246 296 351
#     4  10  23  43  65  89 119 155 195 240 293 353
#     4  11  24  42  64  89 120 158 198 243 294 349
#     4  10  20  34  55  85 121 160 201 245 294 353
#
# _framework density 19.590157000000001
#
# number of rings (size 3 to 8) (size 9 to 14) (size 15 to 20)
#    0.000    1.375    1.250    4.500    0.000    7.000 
#    0.000    0.625    0.000    0.750    0.000    0.000 
#    0.000    0.000    0.000    0.000    0.000    0.000 
#
# Total GULP energy -357689.594412 kJ/mol
# GULP energy per Si atom -5588.899913 kJ/mol
# Density = 1.954557 g / cm^3
# Si number density = 19.590157 Si / 1000 Ang^3
#
#
#
# Elastic Constant Matrix: (Units=GPa)
#
#
# Indices 1 2 3 4 5 6 
#
# 1 178.9647 50.3555 49.3138 0.0000 0.0000 0.0000
# 2 50.3555 48.6589 22.6087 0.0000 0.0000 0.0000
# 3 49.3138 22.6087 50.1318 0.0000 0.0000 0.0000
# 4 0.0000 0.0000 0.0000 28.1974 0.0000 0.0000
# 5 0.0000 0.0000 0.0000 0.0000 31.4971 0.0000
# 6 0.0000 0.0000 0.0000 0.0000 0.0000 30.0267
#
#
#
# Elastic Compliance Matrix: (Units=1/GPa)
#
#
# Indices 1 2 3 4 5 6 
#
# 1 0.009099 -0.006651 -0.005951 0.000000 0.000000 0.000000
# 2 -0.006651 0.030861 -0.007375 0.000000 0.000000 0.000000
# 3 -0.005951 -0.007375 0.029127 0.000000 0.000000 0.000000
# 4 0.000000 0.000000 0.000000 0.035464 0.000000 0.000000
# 5 0.000000 0.000000 0.000000 0.000000 0.031749 0.000000
# 6 0.000000 0.000000 0.000000 0.000000 0.000000 0.033304
#
#
# Mechanical properties :
#
#
# Convention : Reuss Voigt Hill
#
# Bulk Modulus (GPa) = 34.32564 58.03461 46.18012
# Shear Modulus (GPa) = 22.80295 28.30939 25.55617
#
# Velocity S-wave (km/s) = 3.41545 3.80555 3.61576
# Velocity P-wave (km/s) = 5.75444 6.99988 6.40749
#
# Compressibility (1/GPa) = 0.02913274
#
# Stress axis : x y z
#
# Youngs Moduli (GPa) = 109.90336 32.40318 34.33204
#
# Poissons Ratio (x) = 0.21552 0.20430
# Poissons Ratio (y) = 0.73099 0.25321
# Poissons Ratio (z) = 0.65402 0.23898
#
# Static dielectric constant tensor:
#      x y z
#    x 1.763170 0.000000 0.000000 
#    y 0.000000 1.643290 0.000000 
#    z 0.000000 0.000000 1.659930 
# 
# From -- ./inp_files/32112.got.cif
#   From: 2010.05.17/outbox.cif.g08.bks.cpg/sg59_17_cif.got.tgz:32112.got - 2010.06.03 14:40:33.
