data_PCOD9450598
_publ_section_title
;
Structure prediction by ZEFSAII (Michael W. Deem and Ramdas Pophale) SiO2 
 PCOD9450598
Probable space group: P M M N
;
_chemical_formula_sum "Si O2"
_cell_formula_units_Z 56
_cell_length_a 8.716386
_cell_length_b 14.639561
_cell_length_c 23.271707
_cell_angle_alpha 90.000000
_cell_angle_beta 90.000000
_cell_angle_gamma 90.000000
_cell_volume 2969.564402
_symmetry_space_group_name_H-M "P M M N"
_symmetry_group_IT_number 59
_space_group.IT_coordinate_system_code '2'
_symmetry_cell_setting 'orthorhombic'
loop_
_space_group_symop_operation_xyz
x,y,z
1/2-x,1/2-y,z
1/2+x,-y,-z
-x,1/2+y,-z
-x,-y,-z
1/2+x,1/2+y,-z
1/2-x,y,z
x,1/2-y,z
loop_
_atom_site_type_symbol
_atom_site_label
_atom_site_fract_x
_atom_site_fract_y
_atom_site_fract_z
Si Si1 0.933898 0.462756 0.414706
Si Si2 0.069155 0.905458 0.023007
Si Si3 0.066757 0.353267 0.853368
Si Si4 0.935081 0.143058 0.532515
Si Si5 0.064950 0.471266 0.193672
Si Si6 0.564206 0.643583 0.694740
Si Si7 0.929123 0.848529 0.910882
O O1 0.750000 0.467080 0.411688
O O2 0.975077 0.398633 0.469659
O O3 0.997328 0.565578 0.424947
O O4 0.000398 0.413079 0.358926
O O5 0.250000 0.911833 0.031707
O O6 0.994447 0.874137 0.082440
O O7 0.025896 0.844531 0.968527
O O8 0.000000 0.000000 0.000000
O O9 0.250000 0.360073 0.854427
O O10 0.022214 0.250000 0.838334
O O11 0.999909 0.427237 0.809489
O O12 0.750000 0.141972 0.537603
O O13 0.983920 0.250000 0.538767
O O14 0.250000 0.473992 0.193211
O O15 0.016841 0.409314 0.247193
O O16 0.016511 0.423585 0.133957
O O17 0.750000 0.642915 0.692718
O O18 0.515181 0.750000 0.694082
O O19 0.750000 0.866113 0.925972
O O20 0.933316 0.750000 0.880983
#
# Coordination Sequence:
#
# PCOD9450598 Si02
#       7
#     8   8   8   8   8   8   8
#     4  10  20  34  55  86 121 155 194 240 289 340
#     4  12  23  36  56  82 111 143 180 224 276 335
#     4  11  24  41  60  82 110 145 183 228 284 341
#     4   9  18  34  56  83 118 158 198 240 287 339
#     4  10  21  38  60  83 109 144 186 231 274 325
#     4  10  21  38  60  86 116 152 192 232 279 337
#     4  10  20  35  56  82 111 141 173 217 275 332
#
# _framework density 18.857983000000001
#
# number of rings (size 3 to 8) (size 9 to 14) (size 15 to 20)
#    0.000    1.714    1.429    3.429    0.000    7.143 
#    0.000    0.714    0.000    3.429    0.000    0.000 
#    0.000    0.000    0.000    0.000    0.000    0.000 
#
# Total GULP energy -312518.730470 kJ/mol
# GULP energy per Si atom -5580.691616 kJ/mol
# Density = 1.881506 g / cm^3
# Si number density = 18.857983 Si / 1000 Ang^3
#
#
#
# Elastic Constant Matrix: (Units=GPa)
#
#
# Indices 1 2 3 4 5 6 
#
# 1 20.8415 35.6226 22.4692 0.0000 0.0000 0.0000
# 2 35.6226 195.3007 70.5089 0.0000 0.0000 0.0000
# 3 22.4692 70.5089 96.9505 0.0000 0.0000 0.0000
# 4 0.0000 0.0000 0.0000 28.0039 0.0000 0.0000
# 5 0.0000 0.0000 0.0000 0.0000 27.0189 0.0000
# 6 0.0000 0.0000 0.0000 0.0000 0.0000 27.3743
#
#
#
# Elastic Compliance Matrix: (Units=1/GPa)
#
#
# Indices 1 2 3 4 5 6 
#
# 1 0.076613 -0.010257 -0.010296 0.000000 0.000000 0.000000
# 2 -0.010257 0.008317 -0.003671 0.000000 0.000000 0.000000
# 3 -0.010296 -0.003671 0.015371 0.000000 0.000000 0.000000
# 4 0.000000 0.000000 0.000000 0.035709 0.000000 0.000000
# 5 0.000000 0.000000 0.000000 0.000000 0.037011 0.000000
# 6 0.000000 0.000000 0.000000 0.000000 0.000000 0.036531
#
#
# Mechanical properties :
#
#
# Convention : Reuss Voigt Hill
#
# Bulk Modulus (GPa) = 19.28594 63.36602 41.32598
# Shear Modulus (GPa) = 18.16310 28.77888 23.47099
#
# Velocity S-wave (km/s) = 3.10684 3.91075 3.53174
# Velocity P-wave (km/s) = 4.80823 7.35300 6.21231
#
# Compressibility (1/GPa) = 0.05185126
#
# Stress axis : x y z
#
# Youngs Moduli (GPa) = 13.05269 120.24215 65.05848
#
# Poissons Ratio (x) = 1.23330 0.66986
# Poissons Ratio (y) = 0.13388 0.23885
# Poissons Ratio (z) = 0.13439 0.44144
#
# Static dielectric constant tensor:
#      x y z
#    x 1.643570 0.000000 0.000000 
#    y 0.000000 1.803050 0.000000 
#    z 0.000000 0.000000 1.648140 
# 
# From -- ./inp_files/29140.got.cif
#   From: 2010.05.17/outbox.cif.g08.bks.cpg/sg59_15_cif.got.tgz:29140.got - 2010.06.03 14:40:33.
