data_PCOD9450374
_publ_section_title
;
Structure prediction by ZEFSAII (Michael W. Deem and Ramdas Pophale) SiO2 
 PCOD9450374
Probable space group: P M M N
;
_chemical_formula_sum "Si O2"
_cell_formula_units_Z 48
_cell_length_a 30.755212
_cell_length_b 8.909128
_cell_length_c 9.608569
_cell_angle_alpha 90.000000
_cell_angle_beta 90.000000
_cell_angle_gamma 90.000000
_cell_volume 2632.768280
_symmetry_space_group_name_H-M "P M M N"
_symmetry_group_IT_number 59
_space_group.IT_coordinate_system_code '2'
_symmetry_cell_setting 'orthorhombic'
loop_
_space_group_symop_operation_xyz
x,y,z
1/2-x,1/2-y,z
1/2+x,-y,-z
-x,1/2+y,-z
-x,-y,-z
1/2+x,1/2+y,-z
1/2-x,y,z
x,1/2-y,z
loop_
_atom_site_type_symbol
_atom_site_label
_atom_site_fract_x
_atom_site_fract_y
_atom_site_fract_z
Si Si1 0.155354 0.571912 0.513066
Si Si2 0.376445 0.573293 0.817236
Si Si3 0.953588 0.071051 0.967495
Si Si4 0.750000 0.080452 0.811142
Si Si5 0.679456 0.916071 0.971180
Si Si6 0.750000 0.928247 0.518566
Si Si7 0.395884 0.080470 0.257825
O O1 0.161302 0.750000 0.488488
O O2 0.126544 0.552064 0.652285
O O3 0.203779 0.499747 0.530302
O O4 0.128560 0.500164 0.385337
O O5 0.367309 0.750000 0.844448
O O6 0.420370 0.538165 0.903603
O O7 0.339462 0.469614 0.883449
O O8 0.956874 0.250000 0.956893
O O9 0.934106 0.007147 0.822542
O O10 0.000000 0.000000 0.000000
O O11 0.750000 0.250000 0.758454
O O12 0.750000 0.965170 0.683567
O O13 0.709678 0.043255 0.908120
O O14 0.699428 0.750000 0.978874
O O15 0.640115 0.907497 0.862778
O O16 0.750000 0.750000 0.493869
O O17 0.409179 0.250000 0.297603
#
# Coordination Sequence:
#
# PCOD9450374 Si02
#       7
#     8   8   8   4   8   4   8
#     4  11  22  38  59  84 115 156 197 237 286 341
#     4   9  21  39  58  82 115 150 188 233 288 348
#     4  10  20  38  63  89 116 147 189 239 291 352
#     4  12  22  33  54  79 108 146 192 240 282 331
#     4  10  20  34  54  79 109 143 186 235 283 331
#     4  12  24  37  54  81 116 154 196 240 282 333
#     4  10  20  35  57  84 114 148 187 234 284 342
#
# _framework density 18.231760999999999
#
# number of rings (size 3 to 8) (size 9 to 14) (size 15 to 20)
#    0.000    1.667    1.667    3.500    0.000    4.000 
#    0.000    1.667    0.000    0.000    0.000    0.000 
#    0.000    0.000    0.000    0.000    0.000    0.000 
#
# Total GULP energy -267590.767679 kJ/mol
# GULP energy per Si atom -5574.807660 kJ/mol
# Density = 1.819026 g / cm^3
# Si number density = 18.231761 Si / 1000 Ang^3
#
#
#
# Elastic Constant Matrix: (Units=GPa)
#
#
# Indices 1 2 3 4 5 6 
#
# 1 83.3334 42.8960 32.2224 0.0000 0.0000 0.0000
# 2 42.8960 100.2101 48.0438 0.0000 0.0000 0.0000
# 3 32.2224 48.0438 97.6330 0.0000 0.0000 0.0000
# 4 0.0000 0.0000 0.0000 22.0231 0.0000 0.0000
# 5 0.0000 0.0000 0.0000 0.0000 40.0923 0.0000
# 6 0.0000 0.0000 0.0000 0.0000 0.0000 28.4585
#
#
#
# Elastic Compliance Matrix: (Units=1/GPa)
#
#
# Indices 1 2 3 4 5 6 
#
# 1 0.015835 -0.005592 -0.002474 0.000000 0.000000 0.000000
# 2 -0.005592 0.015035 -0.005553 0.000000 0.000000 0.000000
# 3 -0.002474 -0.005553 0.013792 0.000000 0.000000 0.000000
# 4 0.000000 0.000000 0.000000 0.045407 0.000000 0.000000
# 5 0.000000 0.000000 0.000000 0.000000 0.024942 0.000000
# 6 0.000000 0.000000 0.000000 0.000000 0.000000 0.035139
#
#
# Mechanical properties :
#
#
# Convention : Reuss Voigt Hill
#
# Bulk Modulus (GPa) = 57.39540 58.61121 58.00331
# Shear Modulus (GPa) = 27.29304 28.64907 27.97105
#
# Velocity S-wave (km/s) = 3.87331 3.96837 3.92113
# Velocity P-wave (km/s) = 7.18002 7.29485 7.23767
#
# Compressibility (1/GPa) = 0.01742300
#
# Stress axis : x y z
#
# Youngs Moduli (GPa) = 63.14979 66.51108 72.50794
#
# Poissons Ratio (x) = 0.37194 0.17941
# Poissons Ratio (y) = 0.35315 0.40263
# Poissons Ratio (z) = 0.15626 0.36933
#
# Static dielectric constant tensor:
#      x y z
#    x 1.624170 0.000000 0.000000 
#    y 0.000000 1.637810 0.000000 
#    z 0.000000 0.000000 1.598320 
# 
# From -- ./inp_files/6434.got.cif
#   From: 2010.05.17/outbox.cif.g08.bks.cpg/sg59_4_cif.got.tgz:6434.got - 2010.06.03 14:40:33.
