data_PCOD9450855
_publ_section_title
;
Structure prediction by ZEFSAII (Michael W. Deem and Ramdas Pophale) SiO2 
 PCOD9450855
Probable space group: P M M N
;
_chemical_formula_sum "Si O2"
_cell_formula_units_Z 64
_cell_length_a 7.475774
_cell_length_b 25.579879
_cell_length_c 13.571012
_cell_angle_alpha 90.000000
_cell_angle_beta 90.000000
_cell_angle_gamma 90.000000
_cell_volume 2595.176405
_symmetry_space_group_name_H-M "P M M N"
_symmetry_group_IT_number 59
_space_group.IT_coordinate_system_code '2'
_symmetry_cell_setting 'orthorhombic'
loop_
_space_group_symop_operation_xyz
x,y,z
1/2-x,1/2-y,z
1/2+x,-y,-z
-x,1/2+y,-z
-x,-y,-z
1/2+x,1/2+y,-z
1/2-x,y,z
x,1/2-y,z
loop_
_atom_site_type_symbol
_atom_site_label
_atom_site_fract_x
_atom_site_fract_y
_atom_site_fract_z
Si Si1 0.033315 0.585014 0.861496
Si Si2 0.957060 0.193669 0.054933
Si Si3 0.455927 0.193667 0.445642
Si Si4 0.466218 0.972844 0.362155
Si Si5 0.536654 0.858238 0.134801
Si Si6 0.538779 0.915202 0.629153
Si Si7 0.537826 0.357562 0.634711
Si Si8 0.960934 0.527432 0.126787
O O1 0.250000 0.584174 0.869550
O O2 0.967343 0.529399 0.906195
O O3 0.983364 0.584702 0.746827
O O4 0.963567 0.639688 0.904079
O O5 0.750000 0.194446 0.086739
O O6 0.036299 0.250000 0.082118
O O7 0.963216 0.185522 0.937463
O O8 0.250000 0.194425 0.411020
O O9 0.535925 0.250000 0.419638
O O10 0.539922 0.139767 0.406813
O O11 0.457105 0.185419 0.563212
O O12 0.250000 0.973171 0.367315
O O13 0.529108 0.915761 0.396871
O O14 0.534872 0.028089 0.404854
O O15 0.516207 0.973234 0.246055
O O16 0.750000 0.859046 0.124322
O O17 0.497240 0.850657 0.249725
O O18 0.463286 0.915455 0.100611
O O19 0.750000 0.915202 0.605796
O O20 0.750000 0.356434 0.620966
O O21 0.750000 0.528239 0.106835
#
# Coordination Sequence:
#
# PCOD9450855 Si02
#       8
#     8   8   8   8   8   8   8   8
#     4   9  18  34  55  78 106 138 170 209 257 306
#     4  10  22  38  53  73 104 141 179 215 253 301
#     4  10  22  38  53  73 104 141 179 215 253 301
#     4   8  15  29  50  77 105 131 163 204 254 310
#     4  10  20  35  56  80 105 134 169 212 261 310
#     4   9  18  34  55  78 106 138 170 209 257 306
#     4  10  20  35  56  80 105 134 169 212 261 310
#     4   8  15  29  50  77 105 131 163 204 254 310
#
# _framework density 24.661137
#
# number of rings (size 3 to 8) (size 9 to 14) (size 15 to 20)
#    0.000    2.750    0.000    0.750    0.000    4.500 
#    0.000    0.000    0.000    0.000    0.000    0.000 
#    0.000    0.000    0.000    0.000    0.000    0.000 
#
# Total GULP energy -357402.083018 kJ/mol
# GULP energy per Si atom -5584.407547 kJ/mol
# Density = 2.460501 g / cm^3
# Si number density = 24.661137 Si / 1000 Ang^3
#
#
#
# Elastic Constant Matrix: (Units=GPa)
#
#
# Indices 1 2 3 4 5 6 
#
# 1 101.3057 9.2025 -5.3729 0.0000 0.0000 0.0000
# 2 9.2025 168.5058 19.2726 0.0000 0.0000 0.0000
# 3 -5.3729 19.2726 46.0899 0.0000 0.0000 0.0000
# 4 0.0000 0.0000 0.0000 11.6944 0.0000 0.0000
# 5 0.0000 0.0000 0.0000 0.0000 21.1051 0.0000
# 6 0.0000 0.0000 0.0000 0.0000 0.0000 0.4396
#
#
#
# Elastic Compliance Matrix: (Units=1/GPa)
#
#
# Indices 1 2 3 4 5 6 
#
# 1 0.010014 -0.000715 0.001466 0.000000 0.000000 0.000000
# 2 -0.000715 0.006284 -0.002711 0.000000 0.000000 0.000000
# 3 0.001466 -0.002711 0.023001 0.000000 0.000000 0.000000
# 4 0.000000 0.000000 0.000000 0.085511 0.000000 0.000000
# 5 0.000000 0.000000 0.000000 0.000000 0.047382 0.000000
# 6 0.000000 0.000000 0.000000 0.000000 0.000000 2.274944
#
#
# Mechanical properties :
#
#
# Convention : Reuss Voigt Hill
#
# Bulk Modulus (GPa) = 28.26445 40.23396 34.24921
# Shear Modulus (GPa) = 2.03017 26.16776 14.09897
#
# Velocity S-wave (km/s) = 0.90830 3.26098 2.39364
# Velocity P-wave (km/s) = 3.54768 5.52528 4.64299
#
# Compressibility (1/GPa) = 0.03538013
#
# Stress axis : x y z
#
# Youngs Moduli (GPa) = 99.86235 159.14488 43.47603
#
# Poissons Ratio (x) = 0.11372 -0.06374
# Poissons Ratio (y) = 0.07136 0.11785
# Poissons Ratio (z) = -0.14641 0.43141
#
# Static dielectric constant tensor:
#      x y z
#    x 1.893070 0.000000 0.000000 
#    y 0.000000 2.009740 0.000000 
#    z 0.000000 0.000000 1.995580 
# 
# From -- ./inp_files/21412.got.cif
#   From: 2010.05.17/outbox.cif.g08.bks.cpg/sg59_11_cif.got.tgz:21412.got - 2010.06.03 14:40:33.
