data_PCOD9450612
_publ_section_title
;
Structure prediction by ZEFSAII (Michael W. Deem and Ramdas Pophale) SiO2 
 PCOD9450612
Probable space group: P M M N
;
_chemical_formula_sum "Si O2"
_cell_formula_units_Z 56
_cell_length_a 13.914667
_cell_length_b 18.848144
_cell_length_c 11.463198
_cell_angle_alpha 90.000000
_cell_angle_beta 90.000000
_cell_angle_gamma 90.000000
_cell_volume 3006.403044
_symmetry_space_group_name_H-M "P M M N"
_symmetry_group_IT_number 59
_space_group.IT_coordinate_system_code '2'
_symmetry_cell_setting 'orthorhombic'
loop_
_space_group_symop_operation_xyz
x,y,z
1/2-x,1/2-y,z
1/2+x,-y,-z
-x,1/2+y,-z
-x,-y,-z
1/2+x,1/2+y,-z
1/2-x,y,z
x,1/2-y,z
loop_
_atom_site_type_symbol
_atom_site_label
_atom_site_fract_x
_atom_site_fract_y
_atom_site_fract_z
Si Si1 0.364136 0.601823 0.910108
Si Si2 0.634039 0.171022 0.341461
Si Si3 0.365758 0.522865 0.564905
Si Si4 0.364550 0.328741 0.185606
Si Si5 0.044330 0.465462 0.799373
Si Si6 0.635879 0.973291 0.694707
Si Si7 0.978833 0.832182 0.055722
O O1 0.250000 0.594878 0.923502
O O2 0.383624 0.647847 0.792491
O O3 0.411628 0.525086 0.885676
O O4 0.415930 0.641704 0.015334
O O5 0.750000 0.173925 0.353518
O O6 0.596960 0.250000 0.366212
O O7 0.601389 0.104769 0.419947
O O8 0.250000 0.522270 0.576282
O O9 0.407082 0.479834 0.674216
O O10 0.388832 0.491955 0.438535
O O11 0.250000 0.330558 0.166792
O O12 0.390385 0.250000 0.228354
O O13 0.387231 0.391832 0.274013
O O14 0.416013 0.339969 0.062176
O O15 0.931640 0.481213 0.779266
O O16 0.058708 0.387439 0.849245
O O17 0.750000 0.985128 0.711805
O O18 0.977808 0.750000 0.090698
#
# Coordination Sequence:
#
# PCOD9450612 Si02
#       7
#     8   8   8   8   8   8   8
#     4  10  20  34  56  83 111 145 187 234 283 334
#     4   8  14  27  48  75 106 138 176 224 275 325
#     4   9  19  35  56  82 110 145 189 236 282 337
#     4   9  19  36  57  81 109 143 187 237 282 330
#     4  11  21  37  56  83 111 149 184 234 281 339
#     4  10  20  36  58  81 109 147 190 236 285 336
#     4  11  23  38  55  81 117 152 187 227 283 341
#
# _framework density 18.626909999999999
#
# number of rings (size 3 to 8) (size 9 to 14) (size 15 to 20)
#    0.000    2.286    1.429    2.571    0.000    2.571 
#    0.000    1.429    0.000    1.714    0.000    0.000 
#    0.000    0.000    0.000    0.000    0.000    0.000 
#
# Total GULP energy -312571.867020 kJ/mol
# GULP energy per Si atom -5581.640482 kJ/mol
# Density = 1.858451 g / cm^3
# Si number density = 18.626910 Si / 1000 Ang^3
#
#
#
# Elastic Constant Matrix: (Units=GPa)
#
#
# Indices 1 2 3 4 5 6 
#
# 1 61.6286 38.3047 23.0753 0.0000 0.0000 0.0000
# 2 38.3047 188.2741 83.9469 0.0000 0.0000 0.0000
# 3 23.0753 83.9469 52.9595 0.0000 0.0000 0.0000
# 4 0.0000 0.0000 0.0000 25.6210 0.0000 0.0000
# 5 0.0000 0.0000 0.0000 0.0000 19.4757 0.0000
# 6 0.0000 0.0000 0.0000 0.0000 0.0000 17.6940
#
#
#
# Elastic Compliance Matrix: (Units=1/GPa)
#
#
# Indices 1 2 3 4 5 6 
#
# 1 0.019410 -0.000607 -0.007494 0.000000 0.000000 0.000000
# 2 -0.000607 0.018132 -0.028477 0.000000 0.000000 0.000000
# 3 -0.007494 -0.028477 0.067287 0.000000 0.000000 0.000000
# 4 0.000000 0.000000 0.000000 0.039031 0.000000 0.000000
# 5 0.000000 0.000000 0.000000 0.000000 0.051346 0.000000
# 6 0.000000 0.000000 0.000000 0.000000 0.000000 0.056516
#
#
# Mechanical properties :
#
#
# Convention : Reuss Voigt Hill
#
# Bulk Modulus (GPa) = 31.57408 65.94621 48.76014
# Shear Modulus (GPa) = 14.90599 23.06049 18.98324
#
# Velocity S-wave (km/s) = 2.83192 3.52237 3.19584
# Velocity P-wave (km/s) = 5.26124 7.21272 6.31284
#
# Compressibility (1/GPa) = 0.03167155
#
# Stress axis : x y z
#
# Youngs Moduli (GPa) = 51.52029 55.15090 14.86180
#
# Poissons Ratio (x) = 0.03350 0.11138
# Poissons Ratio (y) = 0.03129 0.42322
# Poissons Ratio (z) = 0.38611 1.57052
#
# Static dielectric constant tensor:
#      x y z
#    x 1.690020 0.000000 0.000000 
#    y 0.000000 1.645800 0.000000 
#    z 0.000000 0.000000 1.611620 
# 
# From -- ./inp_files/16958.got.cif
#   From: 2010.05.17/outbox.cif.g08.bks.cpg/sg59_9_cif.got.tgz:16958.got - 2010.06.03 14:40:33.
