data_PCOD9450785
_publ_section_title
;
Structure prediction by ZEFSAII (Michael W. Deem and Ramdas Pophale) SiO2 
 PCOD9450785
Probable space group: P M M N
;
_chemical_formula_sum "Si O2"
_cell_formula_units_Z 56
_cell_length_a 8.753351
_cell_length_b 15.748035
_cell_length_c 21.354243
_cell_angle_alpha 90.000000
_cell_angle_beta 90.000000
_cell_angle_gamma 90.000000
_cell_volume 2943.641353
_symmetry_space_group_name_H-M "P M M N"
_symmetry_group_IT_number 59
_space_group.IT_coordinate_system_code '2'
_symmetry_cell_setting 'orthorhombic'
loop_
_space_group_symop_operation_xyz
x,y,z
1/2-x,1/2-y,z
1/2+x,-y,-z
-x,1/2+y,-z
-x,-y,-z
1/2+x,1/2+y,-z
1/2-x,y,z
x,1/2-y,z
loop_
_atom_site_type_symbol
_atom_site_label
_atom_site_fract_x
_atom_site_fract_y
_atom_site_fract_z
Si Si1 0.933126 0.153584 0.855071
Si Si2 0.568834 0.490240 0.209551
Si Si3 0.932471 0.655485 0.876455
Si Si4 0.066623 0.086300 0.471647
Si Si5 0.433283 0.016930 0.344231
Si Si6 0.565381 0.843063 0.399797
Si Si7 0.068053 0.407234 0.986073
O O1 0.750000 0.147834 0.853896
O O2 0.978190 0.250000 0.838350
O O3 0.991192 0.132599 0.925036
O O4 0.000672 0.081219 0.810451
O O5 0.750000 0.496173 0.209921
O O6 0.515303 0.419732 0.159850
O O7 0.507272 0.465280 0.277672
O O8 0.750000 0.646261 0.866379
O O9 0.978874 0.750000 0.855944
O O10 0.958223 0.645891 0.950735
O O11 0.250000 0.082253 0.470635
O O12 0.018965 0.083632 0.399004
O O13 0.026784 0.153118 0.525683
O O14 0.000000 0.000000 0.500000
O O15 0.250000 0.017725 0.338777
O O16 0.486999 0.923137 0.366742
O O17 0.750000 0.852295 0.394063
O O18 0.522345 0.750000 0.375009
O O19 0.250000 0.413570 0.975492
O O20 0.000000 0.500000 0.000000
#
# Coordination Sequence:
#
# PCOD9450785 Si02
#       7
#     8   8   8   8   8   8   8
#     4  11  24  41  61  86 118 155 196 244 297 353
#     4  12  25  40  60  84 115 156 199 246 294 348
#     4  10  22  41  64  87 115 152 193 239 291 348
#     4   8  15  29  50  75 101 134 173 214 262 316
#     4  10  20  35  55  77 108 148 189 230 276 337
#     4   9  17  31  53  82 113 141 177 226 277 333
#     4  11  21  36  62  92 121 153 190 236 293 350
#
# _framework density 19.024058
#
# number of rings (size 3 to 8) (size 9 to 14) (size 15 to 20)
#    0.000    1.857    1.429    3.000    0.000    4.000 
#    0.000    0.714    0.000    2.571    0.000    0.000 
#    0.000    0.000    0.000    0.000    0.000    0.000 
#
# Total GULP energy -312477.286095 kJ/mol
# GULP energy per Si atom -5579.951537 kJ/mol
# Density = 1.898076 g / cm^3
# Si number density = 19.024058 Si / 1000 Ang^3
#
#
#
# Elastic Constant Matrix: (Units=GPa)
#
#
# Indices 1 2 3 4 5 6 
#
# 1 46.6526 15.6514 19.0372 0.0000 0.0000 0.0000
# 2 15.6514 55.1946 -15.1116 0.0000 0.0000 0.0000
# 3 19.0372 -15.1116 65.3813 0.0000 0.0000 0.0000
# 4 0.0000 0.0000 0.0000 10.1911 0.0000 0.0000
# 5 0.0000 0.0000 0.0000 0.0000 32.0180 0.0000
# 6 0.0000 0.0000 0.0000 0.0000 0.0000 14.1845
#
#
#
# Elastic Compliance Matrix: (Units=1/GPa)
#
#
# Indices 1 2 3 4 5 6 
#
# 1 0.030000 -0.011635 -0.011424 0.000000 0.000000 0.000000
# 2 -0.011635 0.023854 0.008901 0.000000 0.000000 0.000000
# 3 -0.011424 0.008901 0.020679 0.000000 0.000000 0.000000
# 4 0.000000 0.000000 0.000000 0.098125 0.000000 0.000000
# 5 0.000000 0.000000 0.000000 0.000000 0.031232 0.000000
# 6 0.000000 0.000000 0.000000 0.000000 0.000000 0.070499
#
#
# Mechanical properties :
#
#
# Convention : Reuss Voigt Hill
#
# Bulk Modulus (GPa) = 21.63727 22.93140 22.28434
# Shear Modulus (GPa) = 15.71772 21.12215 18.41993
#
# Velocity S-wave (km/s) = 2.87749 3.33571 3.11504
# Velocity P-wave (km/s) = 4.73691 5.18806 4.96761
#
# Compressibility (1/GPa) = 0.04621655
#
# Stress axis : x y z
#
# Youngs Moduli (GPa) = 33.33297 41.92161 48.35886
#
# Poissons Ratio (x) = 0.48776 0.55247
# Poissons Ratio (y) = 0.38783 -0.43045
# Poissons Ratio (z) = 0.38081 -0.37315
#
# Static dielectric constant tensor:
#      x y z
#    x 1.637430 0.000000 0.000000 
#    y 0.000000 1.661910 0.000000 
#    z 0.000000 0.000000 1.674560 
# 
# From -- ./inp_files/29123.got.cif
#   From: 2010.05.17/outbox.cif.g08.bks.cpg/sg59_15_cif.got.tgz:29123.got - 2010.06.03 14:40:33.
