data_PCOD9450834
_publ_section_title
;
Structure prediction by ZEFSAII (Michael W. Deem and Ramdas Pophale) SiO2 
 PCOD9450834
Probable space group: P M M N
;
_chemical_formula_sum "Si O2"
_cell_formula_units_Z 56
_cell_length_a 14.776127
_cell_length_b 7.816459
_cell_length_c 22.423167
_cell_angle_alpha 90.000000
_cell_angle_beta 90.000000
_cell_angle_gamma 90.000000
_cell_volume 2589.808314
_symmetry_space_group_name_H-M "P M M N"
_symmetry_group_IT_number 59
_space_group.IT_coordinate_system_code '2'
_symmetry_cell_setting 'orthorhombic'
loop_
_space_group_symop_operation_xyz
x,y,z
1/2-x,1/2-y,z
1/2+x,-y,-z
-x,1/2+y,-z
-x,-y,-z
1/2+x,1/2+y,-z
1/2-x,y,z
x,1/2-y,z
loop_
_atom_site_type_symbol
_atom_site_label
_atom_site_fract_x
_atom_site_fract_y
_atom_site_fract_z
Si Si1 0.652115 0.955315 0.146843
Si Si2 0.148219 0.045054 0.168971
Si Si3 0.957122 0.545285 0.714036
Si Si4 0.846489 0.448033 0.282276
Si Si5 0.454697 0.545915 0.413512
Si Si6 0.013513 0.953439 0.068555
Si Si7 0.854015 0.044236 0.467190
O O1 0.750000 0.980468 0.117600
O O2 0.642264 0.750000 0.157605
O O3 0.571640 0.020084 0.106374
O O4 0.653402 0.046460 0.210344
O O5 0.250000 0.976925 0.170479
O O6 0.152323 0.250000 0.175875
O O7 0.091181 0.979226 0.226204
O O8 0.100695 0.011190 0.105774
O O9 0.967191 0.750000 0.722317
O O10 0.914352 0.515072 0.649543
O O11 0.057490 0.468380 0.705210
O O12 0.750000 0.524256 0.302079
O O13 0.846807 0.250000 0.302922
O O14 0.451951 0.750000 0.414786
O O15 0.560534 0.494572 0.423745
O O16 0.393649 0.482062 0.468932
O O17 0.011767 0.750000 0.071836
O O18 0.000000 0.000000 0.000000
O O19 0.750000 0.983519 0.455225
O O20 0.848297 0.250000 0.468754
#
# Coordination Sequence:
#
# PCOD9450834 Si02
#       7
#     8   8   8   8   8   8   8
#     4   9  18  33  53  77 104 134 170 217 275 331
#     4  10  22  41  62  84 115 155 198 243 288 336
#     4  10  20  35  55  81 116 154 191 230 283 347
#     4   9  17  30  51  77 103 135 176 221 270 329
#     4  10  21  35  55  86 117 147 191 241 286 335
#     4  11  23  38  59  85 114 148 190 237 289 346
#     4   9  19  38  60  80 110 153 195 237 288 341
#
# _framework density 21.623222999999999
#
# number of rings (size 3 to 8) (size 9 to 14) (size 15 to 20)
#    0.000    2.286    1.429    0.857    0.000    4.571 
#    0.000    2.857    0.000    0.000    0.000    0.000 
#    0.000    0.000    0.000    0.000    0.000    0.000 
#
# Total GULP energy -312215.854284 kJ/mol
# GULP energy per Si atom -5575.283112 kJ/mol
# Density = 2.157401 g / cm^3
# Si number density = 21.623223 Si / 1000 Ang^3
#
#
#
# Elastic Constant Matrix: (Units=GPa)
#
#
# Indices 1 2 3 4 5 6 
#
# 1 117.8730 11.0604 52.6772 0.0000 0.0000 0.0000
# 2 11.0604 31.6008 -6.8552 0.0000 0.0000 0.0000
# 3 52.6772 -6.8552 131.7255 0.0000 0.0000 0.0000
# 4 0.0000 0.0000 0.0000 23.8173 0.0000 0.0000
# 5 0.0000 0.0000 0.0000 0.0000 2.3192 0.0000
# 6 0.0000 0.0000 0.0000 0.0000 0.0000 15.5601
#
#
#
# Elastic Compliance Matrix: (Units=1/GPa)
#
#
# Indices 1 2 3 4 5 6 
#
# 1 0.011024 -0.004870 -0.004662 0.000000 0.000000 0.000000
# 2 -0.004870 0.034157 0.003725 0.000000 0.000000 0.000000
# 3 -0.004662 0.003725 0.009650 0.000000 0.000000 0.000000
# 4 0.000000 0.000000 0.000000 0.041986 0.000000 0.000000
# 5 0.000000 0.000000 0.000000 0.000000 0.431188 0.000000
# 6 0.000000 0.000000 0.000000 0.000000 0.000000 0.064267
#
#
# Mechanical properties :
#
#
# Convention : Reuss Voigt Hill
#
# Bulk Modulus (GPa) = 23.13869 43.88490 33.51179
# Shear Modulus (GPa) = 8.08680 23.29377 15.69029
#
# Velocity S-wave (km/s) = 1.93597 3.28572 2.69666
# Velocity P-wave (km/s) = 3.96502 5.89355 5.02272
#
# Compressibility (1/GPa) = 0.04321765
#
# Stress axis : x y z
#
# Youngs Moduli (GPa) = 90.71048 29.27632 103.62975
#
# Poissons Ratio (x) = 0.14257 0.48312
# Poissons Ratio (y) = 0.44174 -0.38603
# Poissons Ratio (z) = 0.42289 -0.10906
#
# Static dielectric constant tensor:
#      x y z
#    x 1.839650 0.000000 0.000000 
#    y 0.000000 1.790060 0.000000 
#    z 0.000000 0.000000 1.838980 
# 
# From -- ./inp_files/30312.got.cif
#   From: 2010.05.17/outbox.cif.g08.bks.cpg/sg59_16_cif.got.tgz:30312.got - 2010.06.03 14:40:33.
