data_PCOD9450835
_publ_section_title
;
Structure prediction by ZEFSAII (Michael W. Deem and Ramdas Pophale) SiO2 
 PCOD9450835
Probable space group: P M M N
;
_chemical_formula_sum "Si O2"
_cell_formula_units_Z 56
_cell_length_a 7.663873
_cell_length_b 14.704826
_cell_length_c 22.274080
_cell_angle_alpha 90.000000
_cell_angle_beta 90.000000
_cell_angle_gamma 90.000000
_cell_volume 2510.197914
_symmetry_space_group_name_H-M "P M M N"
_symmetry_group_IT_number 59
_space_group.IT_coordinate_system_code '2'
_symmetry_cell_setting 'orthorhombic'
loop_
_space_group_symop_operation_xyz
x,y,z
1/2-x,1/2-y,z
1/2+x,-y,-z
-x,1/2+y,-z
-x,-y,-z
1/2+x,1/2+y,-z
1/2-x,y,z
x,1/2-y,z
loop_
_atom_site_type_symbol
_atom_site_label
_atom_site_fract_x
_atom_site_fract_y
_atom_site_fract_z
Si Si1 0.039865 0.651824 0.352319
Si Si2 0.543030 0.986032 0.569328
Si Si3 0.040138 0.956503 0.789241
Si Si4 0.951515 0.653414 0.214661
Si Si5 0.458501 0.448427 0.081513
Si Si6 0.545769 0.353627 0.959560
Si Si7 0.458158 0.648130 0.671155
O O1 0.250000 0.643399 0.343604
O O2 0.008191 0.750000 0.381225
O O3 0.972008 0.570759 0.392541
O O4 0.955246 0.652168 0.287079
O O5 0.750000 0.989007 0.573655
O O6 0.486929 0.897745 0.606542
O O7 0.500000 0.000000 0.500000
O O8 0.250000 0.965375 0.782662
O O9 0.974258 0.911039 0.727775
O O10 0.003412 0.910198 0.852730
O O11 0.963176 0.057489 0.799190
O O12 0.750000 0.653654 0.194408
O O13 0.031462 0.750000 0.195251
O O14 0.250000 0.451683 0.074382
O O15 0.526729 0.553566 0.072342
O O16 0.529810 0.383542 0.029201
O O17 0.750000 0.349084 0.943393
O O18 0.474293 0.250000 0.950113
O O19 0.250000 0.652889 0.679515
O O20 0.529345 0.750000 0.673204
#
# Coordination Sequence:
#
# PCOD9450835 Si02
#       7
#     8   8   8   8   8   8   8
#     4   9  18  33  53  77 104 135 172 217 273 332
#     4  11  23  38  59  85 114 147 188 235 288 344
#     4  10  20  35  55  81 116 154 191 230 284 348
#     4   9  17  30  51  78 106 137 176 223 272 327
#     4  10  21  35  55  86 117 147 191 241 286 333
#     4   9  19  38  60  80 110 153 195 235 284 341
#     4  10  22  41  62  83 112 153 198 241 286 338
#
# _framework density 22.308997000000002
#
# number of rings (size 3 to 8) (size 9 to 14) (size 15 to 20)
#    0.000    2.286    1.429    0.857    0.000    4.571 
#    0.000    2.857    0.000    0.000    0.000    0.000 
#    0.000    0.000    0.000    0.000    0.000    0.000 
#
# Total GULP energy -312328.134275 kJ/mol
# GULP energy per Si atom -5577.288112 kJ/mol
# Density = 2.225822 g / cm^3
# Si number density = 22.308997 Si / 1000 Ang^3
#
#
#
# Elastic Constant Matrix: (Units=GPa)
#
#
# Indices 1 2 3 4 5 6 
#
# 1 51.1670 8.7205 -11.1922 0.0000 0.0000 0.0000
# 2 8.7205 108.6696 44.2106 0.0000 0.0000 0.0000
# 3 -11.1922 44.2106 132.3539 0.0000 0.0000 0.0000
# 4 0.0000 0.0000 0.0000 1.1702 0.0000 0.0000
# 5 0.0000 0.0000 0.0000 0.0000 15.6728 0.0000
# 6 0.0000 0.0000 0.0000 0.0000 0.0000 10.7895
#
#
#
# Elastic Compliance Matrix: (Units=1/GPa)
#
#
# Indices 1 2 3 4 5 6 
#
# 1 0.020590 -0.002732 0.002654 0.000000 0.000000 0.000000
# 2 -0.002732 0.011012 -0.003909 0.000000 0.000000 0.000000
# 3 0.002654 -0.003909 0.009086 0.000000 0.000000 0.000000
# 4 0.000000 0.000000 0.000000 0.854538 0.000000 0.000000
# 5 0.000000 0.000000 0.000000 0.000000 0.063805 0.000000
# 6 0.000000 0.000000 0.000000 0.000000 0.000000 0.092683
#
#
# Mechanical properties :
#
#
# Convention : Reuss Voigt Hill
#
# Bulk Modulus (GPa) = 30.56942 41.74091 36.15517
# Shear Modulus (GPa) = 4.67031 22.22328 13.44679
#
# Velocity S-wave (km/s) = 1.44845 3.15962 2.45776
# Velocity P-wave (km/s) = 4.06569 5.66232 4.92908
#
# Compressibility (1/GPa) = 0.03271242
#
# Stress axis : x y z
#
# Youngs Moduli (GPa) = 48.56746 90.81091 110.06239
#
# Poissons Ratio (x) = 0.24809 -0.29207
# Poissons Ratio (y) = 0.13268 0.43027
# Poissons Ratio (z) = -0.12888 0.35501
#
# Static dielectric constant tensor:
#      x y z
#    x 1.853560 0.000000 0.000000 
#    y 0.000000 1.886540 0.000000 
#    z 0.000000 0.000000 2.316720 
# 
# From -- ./inp_files/28980.got.cif
#   From: 2010.05.17/outbox.cif.g08.bks.cpg/sg59_15_cif.got.tgz:28980.got - 2010.06.03 14:40:33.
