data_PCOD9450455
_publ_section_title
;
Structure prediction by ZEFSAII (Michael W. Deem and Ramdas Pophale) SiO2 
 PCOD9450455
Probable space group: P M M N
;
_chemical_formula_sum "Si O2"
_cell_formula_units_Z 56
_cell_length_a 15.155101
_cell_length_b 19.303341
_cell_length_c 10.196551
_cell_angle_alpha 90.000000
_cell_angle_beta 90.000000
_cell_angle_gamma 90.000000
_cell_volume 2982.940657
_symmetry_space_group_name_H-M "P M M N"
_symmetry_group_IT_number 59
_space_group.IT_coordinate_system_code '2'
_symmetry_cell_setting 'orthorhombic'
loop_
_space_group_symop_operation_xyz
x,y,z
1/2-x,1/2-y,z
1/2+x,-y,-z
-x,1/2+y,-z
-x,-y,-z
1/2+x,1/2+y,-z
1/2-x,y,z
x,1/2-y,z
loop_
_atom_site_type_symbol
_atom_site_label
_atom_site_fract_x
_atom_site_fract_y
_atom_site_fract_z
Si Si1 0.650966 0.035858 0.366765
Si Si2 0.995144 0.898983 0.077630
Si Si3 0.551773 0.167827 0.410828
Si Si4 0.565293 0.607191 0.364177
Si Si5 0.432593 0.169415 0.170441
Si Si6 0.750000 0.665252 0.717452
Si Si7 0.147710 0.978359 0.945305
Si Si8 0.750000 0.832781 0.407839
O O1 0.750000 0.014862 0.406633
O O2 0.627260 0.110235 0.427813
O O3 0.582739 0.973718 0.398904
O O4 0.650653 0.042084 0.208338
O O5 0.990257 0.885386 0.231460
O O6 0.091660 0.924367 0.032100
O O7 0.964666 0.840455 0.976749
O O8 0.917820 0.955820 0.051720
O O9 0.574644 0.250000 0.410044
O O10 0.479457 0.151383 0.521569
O O11 0.506080 0.145997 0.273576
O O12 0.662866 0.637298 0.341288
O O13 0.423916 0.250000 0.198002
O O14 0.337824 0.138561 0.210071
O O15 0.750000 0.750000 0.722946
O O16 0.750000 0.647824 0.562998
O O17 0.250000 0.989029 0.985888
O O18 0.750000 0.750000 0.400572
#
# Coordination Sequence:
#
# PCOD9450455 Si02
#       8
#     8   8   8   8   8   4   8   4
#     4  10  20  38  62  87 115 152 203 252 287 344
#     4  10  21  36  58  86 116 153 189 240 299 353
#     4  11  22  38  60  85 117 156 197 246 298 351
#     4  11  22  37  59  88 123 156 192 243 304 364
#     4  10  20  34  54  82 113 149 195 241 286 347
#     4   9  18  33  53  79 117 152 189 238 284 348
#     4   9  19  37  60  83 115 152 194 245 298 350
#     4  11  20  35  57  85 120 162 195 228 305 376
#
# _framework density 18.773420999999999
#
# number of rings (size 3 to 8) (size 9 to 14) (size 15 to 20)
#    0.000    1.857    3.571    0.857    2.000    1.429 
#    0.000    1.429    0.000    0.429    0.000    0.000 
#    0.000    0.000    0.000    0.000    0.000    0.000 
#
# Total GULP energy -311979.597717 kJ/mol
# GULP energy per Si atom -5571.064245 kJ/mol
# Density = 1.873069 g / cm^3
# Si number density = 18.773421 Si / 1000 Ang^3
#
#
#
# Elastic Constant Matrix: (Units=GPa)
#
#
# Indices 1 2 3 4 5 6 
#
# 1 71.2716 12.3424 -1.6087 0.0000 0.0000 0.0000
# 2 12.3424 46.9794 8.5757 0.0000 0.0000 0.0000
# 3 -1.6087 8.5757 11.2767 0.0000 0.0000 0.0000
# 4 0.0000 0.0000 0.0000 23.1509 0.0000 0.0000
# 5 0.0000 0.0000 0.0000 0.0000 23.7255 0.0000
# 6 0.0000 0.0000 0.0000 0.0000 0.0000 24.3262
#
#
#
# Elastic Compliance Matrix: (Units=1/GPa)
#
#
# Indices 1 2 3 4 5 6 
#
# 1 0.015039 -0.005043 0.005980 0.000000 0.000000 0.000000
# 2 -0.005043 0.026408 -0.020802 0.000000 0.000000 0.000000
# 3 0.005980 -0.020802 0.105352 0.000000 0.000000 0.000000
# 4 0.000000 0.000000 0.000000 0.043195 0.000000 0.000000
# 5 0.000000 0.000000 0.000000 0.000000 0.042149 0.000000
# 6 0.000000 0.000000 0.000000 0.000000 0.000000 0.041108
#
#
# Mechanical properties :
#
#
# Convention : Reuss Voigt Hill
#
# Bulk Modulus (GPa) = 9.33971 18.68293 14.01132
# Shear Modulus (GPa) = 14.34024 21.58842 17.96433
#
# Velocity S-wave (km/s) = 2.76680 3.39476 3.09674
# Velocity P-wave (km/s) = 3.89778 5.03382 4.50177
#
# Compressibility (1/GPa) = 0.10706967
#
# Stress axis : x y z
#
# Youngs Moduli (GPa) = 66.49335 37.86730 9.49202
#
# Poissons Ratio (x) = 0.19095 -0.05677
# Poissons Ratio (y) = 0.33531 0.19746
# Poissons Ratio (z) = -0.39766 0.78772
#
# Static dielectric constant tensor:
#      x y z
#    x 1.720050 0.000000 0.000000 
#    y 0.000000 1.671320 0.000000 
#    z 0.000000 0.000000 1.653130 
# 
# From -- ./inp_files/9401.got.cif
#   From: 2010.05.17/outbox.cif.g08.bks.cpg/sg59_5_cif.got.tgz:9401.got - 2010.06.03 14:40:33.
