data_PCOD9450128
_publ_section_title
;
Structure prediction by ZEFSAII (Michael W. Deem and Ramdas Pophale) SiO2 
 PCOD9450128
Probable space group: P M M N
;
_chemical_formula_sum "Si O2"
_cell_formula_units_Z 64
_cell_length_a 9.119968
_cell_length_b 23.098208
_cell_length_c 16.509021
_cell_angle_alpha 90.000000
_cell_angle_beta 90.000000
_cell_angle_gamma 90.000000
_cell_volume 3477.706462
_symmetry_space_group_name_H-M "P M M N"
_symmetry_group_IT_number 59
_space_group.IT_coordinate_system_code '2'
_symmetry_cell_setting 'orthorhombic'
loop_
_space_group_symop_operation_xyz
x,y,z
1/2-x,1/2-y,z
1/2+x,-y,-z
-x,1/2+y,-z
-x,-y,-z
1/2+x,1/2+y,-z
1/2-x,y,z
x,1/2-y,z
loop_
_atom_site_type_symbol
_atom_site_label
_atom_site_fract_x
_atom_site_fract_y
_atom_site_fract_z
Si Si1 0.922747 0.036928 0.384240
Si Si2 0.424583 0.415333 0.227290
Si Si3 0.584786 0.819026 0.019568
Si Si4 0.074790 0.504582 0.087593
Si Si5 0.921209 0.180927 0.145513
Si Si6 0.423465 0.411381 0.537639
Si Si7 0.073224 0.318409 0.671926
Si Si8 0.074264 0.626803 0.169696
O O1 0.750000 0.046460 0.372380
O O2 0.011743 0.051643 0.304131
O O3 0.982987 0.076652 0.457414
O O4 0.943941 0.969725 0.409046
O O5 0.250000 0.410286 0.233015
O O6 0.461281 0.451458 0.146392
O O7 0.500401 0.353404 0.217001
O O8 0.750000 0.843841 0.023270
O O9 0.597225 0.750000 0.016987
O O10 0.490163 0.834858 0.097188
O O11 0.502093 0.836121 0.937798
O O12 0.250000 0.506022 0.074903
O O13 0.036160 0.561971 0.139518
O O14 0.000000 0.500000 0.000000
O O15 0.750000 0.166113 0.140824
O O16 0.934190 0.250000 0.154799
O O17 0.250000 0.408193 0.517031
O O18 0.462268 0.355148 0.590919
O O19 0.250000 0.321426 0.682469
O O20 0.033447 0.250000 0.668511
O O21 0.997701 0.350862 0.747389
O O22 0.250000 0.631152 0.175672
#
# Coordination Sequence:
#
# PCOD9450128 Si02
#       8
#     8   8   8   8   8   8   8   8
#     4  10  20  35  59  87 111 140 180 227 279 331
#     4  11  22  37  57  81 110 143 181 221 266 324
#     4  10  20  34  52  74 102 139 184 228 268 315
#     4  10  23  38  53  78 111 148 187 231 280 327
#     4  10  21  37  56  78 105 136 173 220 270 317
#     4   9  19  37  59  83 111 143 180 225 278 335
#     4  10  21  37  57  82 113 149 188 229 277 337
#     4  11  22  35  52  77 110 146 186 230 277 327
#
# _framework density 18.402933999999998
#
# number of rings (size 3 to 8) (size 9 to 14) (size 15 to 20)
#    0.000    1.875    0.000    3.750    0.000    8.250 
#    0.000    0.625    0.000    2.250    0.000    0.000 
#    0.000    0.000    0.000    0.000    0.000    0.000 
#
# Total GULP energy -357339.979194 kJ/mol
# GULP energy per Si atom -5583.437175 kJ/mol
# Density = 1.836105 g / cm^3
# Si number density = 18.402934 Si / 1000 Ang^3
#
#
#
# Elastic Constant Matrix: (Units=GPa)
#
#
# Indices 1 2 3 4 5 6 
#
# 1 56.5322 51.6775 36.1109 0.0000 0.0000 0.0000
# 2 51.6775 83.8884 56.8608 0.0000 0.0000 0.0000
# 3 36.1109 56.8608 70.0820 0.0000 0.0000 0.0000
# 4 0.0000 0.0000 0.0000 24.5349 0.0000 0.0000
# 5 0.0000 0.0000 0.0000 0.0000 31.3391 0.0000
# 6 0.0000 0.0000 0.0000 0.0000 0.0000 21.6581
#
#
#
# Elastic Compliance Matrix: (Units=1/GPa)
#
#
# Indices 1 2 3 4 5 6 
#
# 1 0.040551 -0.024037 -0.001393 0.000000 0.000000 0.000000
# 2 -0.024037 0.040735 -0.020665 0.000000 0.000000 0.000000
# 3 -0.001393 -0.020665 0.031753 0.000000 0.000000 0.000000
# 4 0.000000 0.000000 0.000000 0.040758 0.000000 0.000000
# 5 0.000000 0.000000 0.000000 0.000000 0.031909 0.000000
# 6 0.000000 0.000000 0.000000 0.000000 0.000000 0.046172
#
#
# Mechanical properties :
#
#
# Convention : Reuss Voigt Hill
#
# Bulk Modulus (GPa) = 47.95996 55.53346 51.74671
# Shear Modulus (GPa) = 15.10505 19.89665 17.50085
#
# Velocity S-wave (km/s) = 2.86806 3.29168 3.08714
# Velocity P-wave (km/s) = 6.08977 6.68497 6.39430
#
# Compressibility (1/GPa) = 0.02085073
#
# Stress axis : x y z
#
# Youngs Moduli (GPa) = 24.66033 24.54920 31.49341
#
# Poissons Ratio (x) = 0.59008 0.04386
# Poissons Ratio (y) = 0.59275 0.65080
# Poissons Ratio (z) = 0.03434 0.50730
#
# Static dielectric constant tensor:
#      x y z
#    x 1.615040 0.000000 0.000000 
#    y 0.000000 1.702910 0.000000 
#    z 0.000000 0.000000 1.603510 
# 
# From -- ./inp_files/21456.got.cif
#   From: 2010.05.17/outbox.cif.g08.bks.cpg/sg59_11_cif.got.tgz:21456.got - 2010.06.03 14:40:33.
