data_PCOD9450563
_publ_section_title
;
Structure prediction by ZEFSAII (Michael W. Deem and Ramdas Pophale) SiO2 
 PCOD9450563
Probable space group: P M M N
;
_chemical_formula_sum "Si O2"
_cell_formula_units_Z 48
_cell_length_a 9.112050
_cell_length_b 9.185856
_cell_length_c 31.846637
_cell_angle_alpha 90.000000
_cell_angle_beta 90.000000
_cell_angle_gamma 90.000000
_cell_volume 2665.626547
_symmetry_space_group_name_H-M "P M M N"
_symmetry_group_IT_number 59
_space_group.IT_coordinate_system_code '2'
_symmetry_cell_setting 'orthorhombic'
loop_
_space_group_symop_operation_xyz
x,y,z
1/2-x,1/2-y,z
1/2+x,-y,-z
-x,1/2+y,-z
-x,-y,-z
1/2+x,1/2+y,-z
1/2-x,y,z
x,1/2-y,z
loop_
_atom_site_type_symbol
_atom_site_label
_atom_site_fract_x
_atom_site_fract_y
_atom_site_fract_z
Si Si1 0.074971 0.077040 0.960327
Si Si2 0.077944 0.925509 0.296428
Si Si3 0.573425 0.921534 0.881711
Si Si4 0.577487 0.075894 0.374126
Si Si5 0.077659 0.424821 0.460791
Si Si6 0.428448 0.917654 0.202878
O O1 0.250000 0.054089 0.961580
O O2 0.047189 0.250000 0.961652
O O3 0.007237 0.008697 0.918287
O O4 0.000000 0.000000 0.000000
O O5 0.250000 0.965474 0.300657
O O6 0.069168 0.750000 0.298556
O O7 0.025576 0.967033 0.249444
O O8 0.987900 0.997442 0.333590
O O9 0.750000 0.941795 0.885848
O O10 0.543277 0.750000 0.885038
O O11 0.528273 0.983050 0.836149
O O12 0.750000 0.046288 0.378341
O O13 0.557397 0.250000 0.369561
O O14 0.495085 0.030083 0.416711
O O15 0.250000 0.459090 0.460475
O O16 0.060903 0.250000 0.464356
O O17 0.000000 0.500000 0.500000
O O18 0.250000 0.916236 0.204144
O O19 0.475367 0.750000 0.196155
#
# Coordination Sequence:
#
# PCOD9450563 Si02
#       6
#     8   8   8   8   8   8
#     4  11  24  40  58  81 108 140 179 220 264 316
#     4   9  18  33  54  80 107 137 177 221 263 311
#     4  10  20  34  55  84 113 141 177 219 264 316
#     4  10  21  36  53  75 105 140 177 217 262 312
#     4  10  21  37  57  80 105 136 174 215 262 315
#     4   8  15  30  52  77 106 140 177 217 261 309
#
# _framework density 18.007021999999999
#
# number of rings (size 3 to 8) (size 9 to 14) (size 15 to 20)
#    0.000    2.333    0.000    3.500    0.000    8.000 
#    0.000    2.500    0.000    1.000    0.000    0.000 
#    0.000    0.000    0.000    0.000    0.000    0.000 
#
# Total GULP energy -267942.562709 kJ/mol
# GULP energy per Si atom -5582.136723 kJ/mol
# Density = 1.796604 g / cm^3
# Si number density = 18.007022 Si / 1000 Ang^3
#
#
#
# Elastic Constant Matrix: (Units=GPa)
#
#
# Indices 1 2 3 4 5 6 
#
# 1 79.6708 65.3270 89.4203 0.0000 0.0000 0.0000
# 2 65.3270 74.1863 86.6997 0.0000 0.0000 0.0000
# 3 89.4203 86.6997 209.3911 0.0000 0.0000 0.0000
# 4 0.0000 0.0000 0.0000 40.7397 0.0000 0.0000
# 5 0.0000 0.0000 0.0000 0.0000 31.6816 0.0000
# 6 0.0000 0.0000 0.0000 0.0000 0.0000 27.2341
#
#
#
# Elastic Compliance Matrix: (Units=1/GPa)
#
#
# Indices 1 2 3 4 5 6 
#
# 1 0.048630 -0.035947 -0.005883 0.000000 0.000000 0.000000
# 2 -0.035947 0.052690 -0.006465 0.000000 0.000000 0.000000
# 3 -0.005883 -0.006465 0.009965 0.000000 0.000000 0.000000
# 4 0.000000 0.000000 0.000000 0.024546 0.000000 0.000000
# 5 0.000000 0.000000 0.000000 0.000000 0.031564 0.000000
# 6 0.000000 0.000000 0.000000 0.000000 0.000000 0.036719
#
#
# Mechanical properties :
#
#
# Convention : Reuss Voigt Hill
#
# Bulk Modulus (GPa) = 68.05666 94.01579 81.03623
# Shear Modulus (GPa) = 16.36112 28.05117 22.20614
#
# Velocity S-wave (km/s) = 3.01756 3.95117 3.51550
# Velocity P-wave (km/s) = 7.07230 8.55217 7.84720
#
# Compressibility (1/GPa) = 0.01469364
#
# Stress axis : x y z
#
# Youngs Moduli (GPa) = 20.56347 18.97911 100.34849
#
# Poissons Ratio (x) = 0.68224 0.59039
# Poissons Ratio (y) = 0.73919 0.64879
# Poissons Ratio (z) = 0.12098 0.12271
#
# Static dielectric constant tensor:
#      x y z
#    x 1.602940 0.000000 0.000000 
#    y 0.000000 1.600460 0.000000 
#    z 0.000000 0.000000 1.597060 
# 
# From -- ./inp_files/32852.got.cif
#   From: 2010.05.17/outbox.cif.g08.bks.cpg/sg59_17_cif.got.tgz:32852.got - 2010.06.03 14:40:33.
