data_PCOD9450074
_publ_section_title
;
Structure prediction by ZEFSAII (Michael W. Deem and Ramdas Pophale) SiO2 
 PCOD9450074
Probable space group: P M M N
;
_chemical_formula_sum "Si O2"
_cell_formula_units_Z 64
_cell_length_a 9.002241
_cell_length_b 19.301138
_cell_length_c 22.049225
_cell_angle_alpha 90.000000
_cell_angle_beta 90.000000
_cell_angle_gamma 90.000000
_cell_volume 3831.129925
_symmetry_space_group_name_H-M "P M M N"
_symmetry_group_IT_number 59
_space_group.IT_coordinate_system_code '2'
_symmetry_cell_setting 'orthorhombic'
loop_
_space_group_symop_operation_xyz
x,y,z
1/2-x,1/2-y,z
1/2+x,-y,-z
-x,1/2+y,-z
-x,-y,-z
1/2+x,1/2+y,-z
1/2-x,y,z
x,1/2-y,z
loop_
_atom_site_type_symbol
_atom_site_label
_atom_site_fract_x
_atom_site_fract_y
_atom_site_fract_z
Si Si1 0.922651 0.830544 0.516397
Si Si2 0.079762 0.039810 0.088373
Si Si3 0.928473 0.672641 0.132586
Si Si4 0.427835 0.469527 0.800921
Si Si5 0.923270 0.669745 0.370704
Si Si6 0.426060 0.537144 0.558059
Si Si7 0.073992 0.535885 0.326883
Si Si8 0.079899 0.891557 0.018561
O O1 0.750000 0.847673 0.529951
O O2 0.947264 0.750000 0.530917
O O3 0.940114 0.837900 0.443506
O O4 0.030691 0.882647 0.550198
O O5 0.250000 0.056723 0.103645
O O6 0.081956 0.967214 0.051022
O O7 0.983331 0.022192 0.147357
O O8 0.007890 0.096319 0.043804
O O9 0.750000 0.669756 0.126299
O O10 0.968853 0.750000 0.154184
O O11 0.969762 0.608474 0.176220
O O12 0.000727 0.657764 0.067152
O O13 0.250000 0.472035 0.794925
O O14 0.506946 0.484621 0.737752
O O15 0.750000 0.654275 0.356149
O O16 0.950773 0.750000 0.355532
O O17 0.028904 0.615854 0.338171
O O18 0.500000 0.500000 0.500000
O O19 0.250000 0.525993 0.557359
O O20 0.496423 0.505854 0.618687
O O21 0.250000 0.526801 0.328933
O O22 0.250000 0.870784 0.007952
#
# Coordination Sequence:
#
# PCOD9450074 Si02
#       8
#     8   8   8   8   8   8   8   8
#     4   9  18  34  56  80 105 132 163 204 259 319
#     4   9  16  28  46  68  94 123 158 202 248 293
#     4   9  18  32  49  70  99 137 176 210 248 296
#     4  10  20  34  50  69  97 134 174 215 256 305
#     4   9  18  33  52  72  98 133 170 210 258 312
#     4  12  23  36  55  79 106 136 172 219 272 322
#     4  12  24  36  51  74 103 138 179 222 267 320
#     4   9  16  26  44  70  96 124 159 201 246 287
#
# _framework density 16.705255999999999
#
# number of rings (size 3 to 8) (size 9 to 14) (size 15 to 20)
#    0.000    2.125    1.250    4.125    0.000    4.750 
#    0.000    2.500    0.000    0.000    0.000    0.875 
#    0.000    7.000    0.000    0.000    0.000    0.000 
#
# Total GULP energy -357098.848277 kJ/mol
# GULP energy per Si atom -5579.669504 kJ/mol
# Density = 1.666723 g / cm^3
# Si number density = 16.705256 Si / 1000 Ang^3
#
#
#
# Elastic Constant Matrix: (Units=GPa)
#
#
# Indices 1 2 3 4 5 6 
#
# 1 103.8718 24.2552 57.7682 0.0000 0.0000 0.0000
# 2 24.2552 24.1620 23.7889 0.0000 0.0000 0.0000
# 3 57.7682 23.7889 98.1432 0.0000 0.0000 0.0000
# 4 0.0000 0.0000 0.0000 14.2323 0.0000 0.0000
# 5 0.0000 0.0000 0.0000 0.0000 28.4129 0.0000
# 6 0.0000 0.0000 0.0000 0.0000 0.0000 23.8405
#
#
#
# Elastic Compliance Matrix: (Units=1/GPa)
#
#
# Indices 1 2 3 4 5 6 
#
# 1 0.015587 -0.008688 -0.007069 0.000000 0.000000 0.000000
# 2 -0.008688 0.059202 -0.009236 0.000000 0.000000 0.000000
# 3 -0.007069 -0.009236 0.016589 0.000000 0.000000 0.000000
# 4 0.000000 0.000000 0.000000 0.070263 0.000000 0.000000
# 5 0.000000 0.000000 0.000000 0.000000 0.035195 0.000000
# 6 0.000000 0.000000 0.000000 0.000000 0.000000 0.041945
#
#
# Mechanical properties :
#
#
# Convention : Reuss Voigt Hill
#
# Bulk Modulus (GPa) = 24.15908 48.64464 36.40186
# Shear Modulus (GPa) = 16.52536 21.32146 18.92341
#
# Velocity S-wave (km/s) = 3.14862 3.57646 3.36933
# Velocity P-wave (km/s) = 5.26419 6.79980 6.08067
#
# Compressibility (1/GPa) = 0.04139230
#
# Stress axis : x y z
#
# Youngs Moduli (GPa) = 64.15451 16.89129 60.28101
#
# Poissons Ratio (x) = 0.14674 0.42613
# Poissons Ratio (y) = 0.55734 0.55678
# Poissons Ratio (z) = 0.45352 0.15602
#
# Static dielectric constant tensor:
#      x y z
#    x 1.559020 0.000000 0.000000 
#    y 0.000000 1.571210 0.000000 
#    z 0.000000 0.000000 1.552080 
# 
# From -- ./inp_files/26307.got.cif
#   From: 2010.05.17/outbox.cif.g08.bks.cpg/sg59_14_cif.got.tgz:26307.got - 2010.06.03 14:40:33.
