data_PCOD9450566
_publ_section_title
;
Structure prediction by ZEFSAII (Michael W. Deem and Ramdas Pophale) SiO2 
 PCOD9450566
Probable space group: P M M N
;
_chemical_formula_sum "Si O2"
_cell_formula_units_Z 64
_cell_length_a 8.915961
_cell_length_b 18.911235
_cell_length_c 21.550461
_cell_angle_alpha 90.000000
_cell_angle_beta 90.000000
_cell_angle_gamma 90.000000
_cell_volume 3633.662747
_symmetry_space_group_name_H-M "P M M N"
_symmetry_group_IT_number 59
_space_group.IT_coordinate_system_code '2'
_symmetry_cell_setting 'orthorhombic'
loop_
_space_group_symop_operation_xyz
x,y,z
1/2-x,1/2-y,z
1/2+x,-y,-z
-x,1/2+y,-z
-x,-y,-z
1/2+x,1/2+y,-z
1/2-x,y,z
x,1/2-y,z
loop_
_atom_site_type_symbol
_atom_site_label
_atom_site_fract_x
_atom_site_fract_y
_atom_site_fract_z
Si Si1 0.928835 0.536949 0.813454
Si Si2 0.570190 0.110158 0.751699
Si Si3 0.570697 0.168971 0.253222
Si Si4 0.074084 0.833048 0.600266
Si Si5 0.930507 0.671566 0.125164
Si Si6 0.072462 0.422825 0.504738
Si Si7 0.931132 0.166905 0.616290
Si Si8 0.569906 0.973540 0.063831
O O1 0.750000 0.537620 0.822413
O O2 0.964870 0.471958 0.766432
O O3 0.985492 0.610278 0.785693
O O4 0.008918 0.518568 0.878114
O O5 0.750000 0.118650 0.756032
O O6 0.495779 0.154358 0.807053
O O7 0.524407 0.136631 0.683823
O O8 0.750000 0.162479 0.243671
O O9 0.528039 0.250000 0.238304
O O10 0.543759 0.157822 0.326686
O O11 0.250000 0.849994 0.589080
O O12 0.054125 0.750000 0.585597
O O13 0.971433 0.880324 0.557221
O O14 0.750000 0.670150 0.129286
O O15 0.977569 0.750000 0.105146
O O16 0.974799 0.607553 0.079858
O O17 0.250000 0.428871 0.511305
O O18 0.000000 0.500000 0.500000
O O19 0.004961 0.378845 0.562212
O O20 0.750000 0.161425 0.611147
O O21 0.970053 0.250000 0.611534
O O22 0.750000 0.977606 0.061311
O O23 0.500000 0.000000 0.000000
#
# Coordination Sequence:
#
# PCOD9450566 Si02
#       8
#     8   8   8   8   8   8   8   8
#     4  10  20  34  55  84 115 146 183 226 268 320
#     4   9  19  34  54  82 113 144 178 217 266 321
#     4   9  19  36  58  83 111 143 181 226 278 333
#     4   9  19  38  61  82 107 141 179 224 281 338
#     4   9  18  33  54  81 111 142 179 223 270 319
#     4  12  26  40  55  77 106 141 185 233 279 331
#     4  10  21  38  58  80 111 147 179 219 275 331
#     4  10  20  36  57  80 110 149 188 228 275 326
#
# _framework density 17.613081999999999
#
# number of rings (size 3 to 8) (size 9 to 14) (size 15 to 20)
#    0.000    2.250    0.000    3.375    1.750    5.000 
#    0.000    1.875    0.000    2.250    0.000    0.000 
#    0.000    0.000    0.000    0.000    0.000    0.000 
#
# Total GULP energy -357281.223667 kJ/mol
# GULP energy per Si atom -5582.519120 kJ/mol
# Density = 1.757299 g / cm^3
# Si number density = 17.613082 Si / 1000 Ang^3
#
#
#
# Elastic Constant Matrix: (Units=GPa)
#
#
# Indices 1 2 3 4 5 6 
#
# 1 55.9194 64.5917 56.4934 0.0000 0.0000 0.0000
# 2 64.5917 146.4101 98.6727 0.0000 0.0000 0.0000
# 3 56.4934 98.6727 99.6797 0.0000 0.0000 0.0000
# 4 0.0000 0.0000 0.0000 20.2821 0.0000 0.0000
# 5 0.0000 0.0000 0.0000 0.0000 30.6494 0.0000
# 6 0.0000 0.0000 0.0000 0.0000 0.0000 27.3256
#
#
#
# Elastic Compliance Matrix: (Units=1/GPa)
#
#
# Indices 1 2 3 4 5 6 
#
# 1 0.044723 -0.007955 -0.017472 0.000000 0.000000 0.000000
# 2 -0.007955 0.021935 -0.017204 0.000000 0.000000 0.000000
# 3 -0.017472 -0.017204 0.036965 0.000000 0.000000 0.000000
# 4 0.000000 0.000000 0.000000 0.049304 0.000000 0.000000
# 5 0.000000 0.000000 0.000000 0.000000 0.032627 0.000000
# 6 0.000000 0.000000 0.000000 0.000000 0.000000 0.036596
#
#
# Mechanical properties :
#
#
# Convention : Reuss Voigt Hill
#
# Bulk Modulus (GPa) = 54.46751 82.39164 68.42957
# Shear Modulus (GPa) = 15.94729 21.13486 18.54108
#
# Velocity S-wave (km/s) = 3.01229 3.46779 3.24803
# Velocity P-wave (km/s) = 6.56431 7.93185 7.28026
#
# Compressibility (1/GPa) = 0.01835957
#
# Stress axis : x y z
#
# Youngs Moduli (GPa) = 22.35968 45.59004 27.05283
#
# Poissons Ratio (x) = 0.36269 0.47266
# Poissons Ratio (y) = 0.17788 0.46542
# Poissons Ratio (z) = 0.39066 0.78434
#
# Static dielectric constant tensor:
#      x y z
#    x 1.589390 0.000000 0.000000 
#    y 0.000000 1.595970 0.000000 
#    z 0.000000 0.000000 1.566970 
# 
# From -- ./inp_files/29495.got.cif
#   From: 2010.05.17/outbox.cif.g08.bks.cpg/sg59_15_cif.got.tgz:29495.got - 2010.06.03 14:40:33.
