data_PCOD9450210
_publ_section_title
;
Structure prediction by ZEFSAII (Michael W. Deem and Ramdas Pophale) SiO2 
 PCOD9450210
Probable space group: P M M N
;
_chemical_formula_sum "Si O2"
_cell_formula_units_Z 40
_cell_length_a 13.256300
_cell_length_b 11.985668
_cell_length_c 12.936489
_cell_angle_alpha 90.000000
_cell_angle_beta 90.000000
_cell_angle_gamma 90.000000
_cell_volume 2055.421955
_symmetry_space_group_name_H-M "P M M N"
_symmetry_group_IT_number 59
_space_group.IT_coordinate_system_code '2'
_symmetry_cell_setting 'orthorhombic'
loop_
_space_group_symop_operation_xyz
x,y,z
1/2-x,1/2-y,z
1/2+x,-y,-z
-x,1/2+y,-z
-x,-y,-z
1/2+x,1/2+y,-z
1/2-x,y,z
x,1/2-y,z
loop_
_atom_site_type_symbol
_atom_site_label
_atom_site_fract_x
_atom_site_fract_y
_atom_site_fract_z
Si Si1 0.639193 0.957547 0.963730
Si Si2 0.864117 0.378818 0.768918
Si Si3 0.064058 0.626725 0.877933
Si Si4 0.866053 0.623263 0.487411
Si Si5 0.983152 0.464775 0.344612
O O1 0.750000 0.904925 0.959953
O O2 0.545526 0.879893 0.934360
O O3 0.634597 0.053386 0.875783
O O4 0.623064 0.024077 0.070166
O O5 0.750000 0.387106 0.726922
O O6 0.887535 0.250000 0.786898
O O7 0.943394 0.436724 0.694687
O O8 0.107727 0.750000 0.895045
O O9 0.050258 0.602849 0.756496
O O10 0.750000 0.610601 0.523229
O O11 0.875568 0.750000 0.445671
O O12 0.893993 0.526872 0.405690
O O13 0.947730 0.607737 0.578525
#
# Coordination Sequence:
#
# PCOD9450210 Si02
#       5
#     8   8   8   8   8
#     4   9  19  34  51  75 108 141 172 206 247 303
#     4   9  16  28  49  75 101 132 168 205 250 305
#     4  10  20  34  54  79 106 138 174 213 258 304
#     4  10  21  37  55  74 100 136 175 218 270 321
#     4  10  20  34  53  76 103 132 173 221 265 311
#
# _framework density 19.460723999999999
#
# number of rings (size 3 to 8) (size 9 to 14) (size 15 to 20)
#    0.000    2.400    0.000    2.400    0.000    3.200 
#    0.000    1.000    0.000   11.400    0.000    0.000 
#    0.000    0.000    0.000    0.000    0.000    0.000 
#
# Total GULP energy -223064.933661 kJ/mol
# GULP energy per Si atom -5576.623342 kJ/mol
# Density = 1.941643 g / cm^3
# Si number density = 19.460724 Si / 1000 Ang^3
#
#
#
# Elastic Constant Matrix: (Units=GPa)
#
#
# Indices 1 2 3 4 5 6 
#
# 1 51.6350 2.9446 -1.3377 0.0000 0.0000 0.0000
# 2 2.9446 67.3872 2.9948 0.0000 0.0000 0.0000
# 3 -1.3377 2.9948 61.4127 0.0000 0.0000 0.0000
# 4 0.0000 0.0000 0.0000 2.2361 0.0000 0.0000
# 5 0.0000 0.0000 0.0000 0.0000 20.9785 0.0000
# 6 0.0000 0.0000 0.0000 0.0000 0.0000 20.7895
#
#
#
# Elastic Compliance Matrix: (Units=1/GPa)
#
#
# Indices 1 2 3 4 5 6 
#
# 1 0.019428 -0.000870 0.000466 0.000000 0.000000 0.000000
# 2 -0.000870 0.014911 -0.000746 0.000000 0.000000 0.000000
# 3 0.000466 -0.000746 0.016330 0.000000 0.000000 0.000000
# 4 0.000000 0.000000 0.000000 0.447209 0.000000 0.000000
# 5 0.000000 0.000000 0.000000 0.000000 0.047668 0.000000
# 6 0.000000 0.000000 0.000000 0.000000 0.000000 0.048101
#
#
# Mechanical properties :
#
#
# Convention : Reuss Voigt Hill
#
# Bulk Modulus (GPa) = 20.67453 21.07093 20.87273
# Shear Modulus (GPa) = 8.16900 20.52302 14.34601
#
# Velocity S-wave (km/s) = 2.05105 3.25096 2.71805
# Velocity P-wave (km/s) = 4.03185 4.99426 4.53864
#
# Compressibility (1/GPa) = 0.04836869
#
# Stress axis : x y z
#
# Youngs Moduli (GPa) = 51.47114 67.06559 61.23769
#
# Poissons Ratio (x) = 0.05832 -0.02851
# Poissons Ratio (y) = 0.04476 0.04569
# Poissons Ratio (z) = -0.02396 0.05004
#
# Static dielectric constant tensor:
#      x y z
#    x 1.707550 0.000000 0.000000 
#    y 0.000000 1.659960 0.000000 
#    z 0.000000 0.000000 1.683020 
# 
# From -- ./inp_files/15509.got.cif
#   From: 2010.05.17/outbox.cif.g08.bks.cpg/sg59_8_cif.got.tgz:15509.got - 2010.06.03 14:40:33.
