data_PCOD9450751
_publ_section_title
;
Structure prediction by ZEFSAII (Michael W. Deem and Ramdas Pophale) SiO2 
 PCOD9450751
Probable space group: P M M N
;
_chemical_formula_sum "Si O2"
_cell_formula_units_Z 64
_cell_length_a 8.324309
_cell_length_b 19.267174
_cell_length_c 21.635911
_cell_angle_alpha 90.000000
_cell_angle_beta 90.000000
_cell_angle_gamma 90.000000
_cell_volume 3470.095273
_symmetry_space_group_name_H-M "P M M N"
_symmetry_group_IT_number 59
_space_group.IT_coordinate_system_code '2'
_symmetry_cell_setting 'orthorhombic'
loop_
_space_group_symop_operation_xyz
x,y,z
1/2-x,1/2-y,z
1/2+x,-y,-z
-x,1/2+y,-z
-x,-y,-z
1/2+x,1/2+y,-z
1/2-x,y,z
x,1/2-y,z
loop_
_atom_site_type_symbol
_atom_site_label
_atom_site_fract_x
_atom_site_fract_y
_atom_site_fract_z
Si Si1 0.057349 0.078882 0.996399
Si Si2 0.444358 0.829905 0.119080
Si Si3 0.943987 0.104979 0.750821
Si Si4 0.555677 0.032136 0.309044
Si Si5 0.943455 0.829487 0.888817
Si Si6 0.942858 0.327698 0.249529
Si Si7 0.443991 0.671882 0.378944
Si Si8 0.558233 0.965065 0.437326
O O1 0.250000 0.080052 0.996148
O O2 0.998582 0.120462 0.936300
O O3 0.000523 0.119365 0.057723
O O4 0.000000 0.000000 0.000000
O O5 0.250000 0.829100 0.119907
O O6 0.498976 0.750000 0.111010
O O7 0.498882 0.860666 0.185250
O O8 0.750000 0.105287 0.751287
O O9 0.996491 0.147843 0.689901
O O10 0.001217 0.026446 0.739581
O O11 0.750000 0.032782 0.309327
O O12 0.497069 0.108511 0.290657
O O13 0.499604 0.007049 0.376569
O O14 0.750000 0.834467 0.883597
O O15 0.983016 0.750000 0.905935
O O16 0.016294 0.843236 0.821712
O O17 0.750000 0.325474 0.255821
O O18 0.005290 0.250000 0.263743
O O19 0.250000 0.671734 0.378992
O O20 0.499314 0.750000 0.391842
O O21 0.501517 0.613739 0.426677
O O22 0.750000 0.966130 0.436568
O O23 0.500000 0.000000 0.500000
#
# Coordination Sequence:
#
# PCOD9450751 Si02
#       8
#     8   8   8   8   8   8   8   8
#     4  11  24  39  54  74 103 138 179 223 268 319
#     4  10  21  37  56  79 108 140 175 217 266 320
#     4   9  18  32  53  80 108 139 174 214 261 316
#     4   9  19  34  52  77 107 138 173 217 264 310
#     4   9  19  36  55  73  96 129 169 214 263 314
#     4   9  18  33  54  78 102 130 168 214 263 313
#     4   9  17  32  55  81 108 140 179 219 263 317
#     4  10  20  35  54  77 109 145 182 221 261 310
#
# _framework density 18.443297999999999
#
# number of rings (size 3 to 8) (size 9 to 14) (size 15 to 20)
#    0.000    2.500    0.000    1.500    1.750    5.000 
#    0.000    1.875    0.000    4.500    0.000    0.000 
#    0.000    0.000    0.000    0.000    0.000    0.000 
#
# Total GULP energy -357070.540189 kJ/mol
# GULP energy per Si atom -5579.227190 kJ/mol
# Density = 1.840132 g / cm^3
# Si number density = 18.443298 Si / 1000 Ang^3
#
#
#
# Elastic Constant Matrix: (Units=GPa)
#
#
# Indices 1 2 3 4 5 6 
#
# 1 9.9866 20.8233 11.9974 0.0000 0.0000 0.0000
# 2 20.8233 187.5369 102.8586 0.0000 0.0000 0.0000
# 3 11.9974 102.8586 91.5971 0.0000 0.0000 0.0000
# 4 0.0000 0.0000 0.0000 29.4847 0.0000 0.0000
# 5 0.0000 0.0000 0.0000 0.0000 22.5614 0.0000
# 6 0.0000 0.0000 0.0000 0.0000 0.0000 27.1834
#
#
#
# Elastic Compliance Matrix: (Units=1/GPa)
#
#
# Indices 1 2 3 4 5 6 
#
# 1 0.130462 -0.013313 -0.002138 0.000000 0.000000 0.000000
# 2 -0.013313 0.015241 -0.015371 0.000000 0.000000 0.000000
# 3 -0.002138 -0.015371 0.028459 0.000000 0.000000 0.000000
# 4 0.000000 0.000000 0.000000 0.033916 0.000000 0.000000
# 5 0.000000 0.000000 0.000000 0.000000 0.044324 0.000000
# 6 0.000000 0.000000 0.000000 0.000000 0.000000 0.036787
#
#
# Mechanical properties :
#
#
# Convention : Reuss Voigt Hill
#
# Bulk Modulus (GPa) = 8.88757 62.27548 35.58152
# Shear Modulus (GPa) = 12.87536 26.07532 19.47534
#
# Velocity S-wave (km/s) = 2.64503 3.76415 3.25308
# Velocity P-wave (km/s) = 3.76266 7.26161 5.78310
#
# Compressibility (1/GPa) = 0.11251673
#
# Stress axis : x y z
#
# Youngs Moduli (GPa) = 7.66508 65.61134 35.13888
#
# Poissons Ratio (x) = 0.87351 0.07512
# Poissons Ratio (y) = 0.10205 0.54013
# Poissons Ratio (z) = 0.01639 1.00853
#
# Static dielectric constant tensor:
#      x y z
#    x 1.643430 0.000000 0.000000 
#    y 0.000000 1.644550 0.000000 
#    z 0.000000 0.000000 1.614620 
# 
# From -- ./inp_files/29382.got.cif
#   From: 2010.05.17/outbox.cif.g08.bks.cpg/sg59_15_cif.got.tgz:29382.got - 2010.06.03 14:40:33.
