data_PCOD9450994
_publ_section_title
;
Structure prediction by ZEFSAII (Michael W. Deem and Ramdas Pophale) SiO2 
 PCOD9450994
Probable space group: P M M N
;
_chemical_formula_sum "Si O2"
_cell_formula_units_Z 48
_cell_length_a 28.718381
_cell_length_b 8.936831
_cell_length_c 10.484409
_cell_angle_alpha 90.000000
_cell_angle_beta 90.000000
_cell_angle_gamma 90.000000
_cell_volume 2690.837384
_symmetry_space_group_name_H-M "P M M N"
_symmetry_group_IT_number 59
_space_group.IT_coordinate_system_code '2'
_symmetry_cell_setting 'orthorhombic'
loop_
_space_group_symop_operation_xyz
x,y,z
1/2-x,1/2-y,z
1/2+x,-y,-z
-x,1/2+y,-z
-x,-y,-z
1/2+x,1/2+y,-z
1/2-x,y,z
x,1/2-y,z
loop_
_atom_site_type_symbol
_atom_site_label
_atom_site_fract_x
_atom_site_fract_y
_atom_site_fract_z
Si Si1 0.696424 0.928236 0.390339
Si Si2 0.196459 0.571553 0.889747
Si Si3 0.392557 0.571104 0.501964
Si Si4 0.107450 0.428768 0.997391
Si Si5 0.947725 0.570351 0.262802
Si Si6 0.943735 0.070156 0.761944
O O1 0.750000 0.957373 0.428221
O O2 0.689653 0.750000 0.381166
O O3 0.689599 0.999110 0.250034
O O4 0.658284 0.999078 0.482480
O O5 0.250000 0.541046 0.927895
O O6 0.190415 0.750000 0.880357
O O7 0.158153 0.502124 0.982342
O O8 0.389126 0.750000 0.510988
O O9 0.423423 0.509837 0.618706
O O10 0.416957 0.532367 0.368546
O O11 0.111503 0.250000 0.004597
O O12 0.078984 0.466204 0.868199
O O13 0.080051 0.491133 0.118493
O O14 0.944612 0.750000 0.281699
O O15 0.001935 0.529408 0.250819
O O16 0.941403 0.250000 0.779585
#
# Coordination Sequence:
#
# PCOD9450994 Si02
#       6
#     8   8   8   8   8   8
#     4  10  20  35  57  84 113 145 184 232 282 334
#     4  10  20  35  58  86 114 146 185 231 281 334
#     4  11  22  36  58  86 114 150 191 233 284 337
#     4  11  22  36  58  87 115 150 191 233 286 338
#     4  10  21  38  59  83 113 150 194 239 282 334
#     4  10  23  40  56  80 117 156 194 235 281 337
#
# _framework density 17.838312999999999
#
# number of rings (size 3 to 8) (size 9 to 14) (size 15 to 20)
#    0.000    1.667    1.667    3.000    0.000    4.667 
#    0.000    0.833    0.000    1.000    0.000    0.000 
#    0.000    0.000    0.000    0.000    0.000    0.000 
#
# Total GULP energy -268212.980637 kJ/mol
# GULP energy per Si atom -5587.770430 kJ/mol
# Density = 1.779771 g / cm^3
# Si number density = 17.838313 Si / 1000 Ang^3
#
#
#
# Elastic Constant Matrix: (Units=GPa)
#
#
# Indices 1 2 3 4 5 6 
#
# 1 150.3292 61.9736 64.5871 0.0000 0.0000 0.0000
# 2 61.9736 56.2253 54.8839 0.0000 0.0000 0.0000
# 3 64.5871 54.8839 100.4054 0.0000 0.0000 0.0000
# 4 0.0000 0.0000 0.0000 21.9193 0.0000 0.0000
# 5 0.0000 0.0000 0.0000 0.0000 -1.9170 0.0000
# 6 0.0000 0.0000 0.0000 0.0000 0.0000 32.0714
#
#
#
# Elastic Compliance Matrix: (Units=1/GPa)
#
#
# Indices 1 2 3 4 5 6 
#
# 1 0.012246 -0.012453 -0.001070 0.000000 0.000000 0.000000
# 2 -0.012453 0.050796 -0.019756 0.000000 0.000000 0.000000
# 3 -0.001070 -0.019756 0.021447 0.000000 0.000000 0.000000
# 4 0.000000 0.000000 0.000000 0.045622 0.000000 0.000000
# 5 0.000000 0.000000 0.000000 0.000000 -0.521643 0.000000
# 6 0.000000 0.000000 0.000000 0.000000 0.000000 0.031180
#
#
# Mechanical properties :
#
#
# Convention : Reuss Voigt Hill
#
# Bulk Modulus (GPa) = 55.76933 74.42768 65.09851
# Shear Modulus (GPa) = -17.37216 18.78242 0.70513
#
# Velocity S-wave (km/s) = -3.12407 3.24840 0.62940
# Velocity P-wave (km/s) = 4.28002 7.47553 6.09106
#
# Compressibility (1/GPa) = 0.01793100
#
# Stress axis : x y z
#
# Youngs Moduli (GPa) = 81.66210 19.68645 46.62668
#
# Poissons Ratio (x) = 0.24516 0.04989
# Poissons Ratio (y) = 1.01694 0.92115
# Poissons Ratio (z) = 0.08738 0.38892
#
# Static dielectric constant tensor:
#      x y z
#    x 1.611840 0.000000 0.000000 
#    y 0.000000 1.595050 0.000000 
#    z 0.000000 0.000000 1.567100 
# 
# From -- ./inp_files/6183.got.cif
#   From: 2010.05.17/outbox.cif.g08.bks.cpg/sg59_4_cif.got.tgz:6183.got - 2010.06.03 14:40:33.
