data_PCOD9450317
_publ_section_title
;
Structure prediction by ZEFSAII (Michael W. Deem and Ramdas Pophale) SiO2 
 PCOD9450317
Probable space group: P M M N
;
_chemical_formula_sum "Si O2"
_cell_formula_units_Z 40
_cell_length_a 14.125876
_cell_length_b 7.579448
_cell_length_c 15.894426
_cell_angle_alpha 90.000000
_cell_angle_beta 90.000000
_cell_angle_gamma 90.000000
_cell_volume 1701.758059
_symmetry_space_group_name_H-M "P M M N"
_symmetry_group_IT_number 59
_space_group.IT_coordinate_system_code '2'
_symmetry_cell_setting 'orthorhombic'
loop_
_space_group_symop_operation_xyz
x,y,z
1/2-x,1/2-y,z
1/2+x,-y,-z
-x,1/2+y,-z
-x,-y,-z
1/2+x,1/2+y,-z
1/2-x,y,z
x,1/2-y,z
loop_
_atom_site_type_symbol
_atom_site_label
_atom_site_fract_x
_atom_site_fract_y
_atom_site_fract_z
Si Si1 0.250000 0.053082 0.608178
Si Si2 0.145023 0.544811 0.301663
Si Si3 0.963046 0.961282 0.407147
Si Si4 0.605168 0.462526 0.065402
Si Si5 0.750000 0.038249 0.206249
Si Si6 0.899257 0.543784 0.886060
O O1 0.250000 0.250000 0.568625
O O2 0.354075 0.969071 0.592820
O O3 0.250000 0.062546 0.708287
O O4 0.250000 0.469525 0.325142
O O5 0.147315 0.750000 0.327145
O O6 0.138296 0.537162 0.199886
O O7 0.046773 0.473094 0.343136
O O8 0.954112 0.750000 0.391942
O O9 0.000000 0.000000 0.500000
O O10 0.603084 0.250000 0.059391
O O11 0.662911 0.507424 0.147623
O O12 0.501127 0.531895 0.087105
O O13 0.648226 0.527009 0.977494
O O14 0.750000 0.250000 0.222441
O O15 0.907691 0.750000 0.866293
#
# Coordination Sequence:
#
# PCOD9450317 Si02
#       6
#     4   8   8   8   4   8
#     4  10  22  40  62  91 124 153 188 247 308 349
#     4  10  22  39  59  83 117 159 199 238 290 357
#     4  10  23  42  65  92 121 154 194 241 299 361
#     4   9  19  34  52  77 114 155 197 244 292 344
#     4  10  20  34  56  83 110 149 200 239 282 349
#     4  10  20  34  53  80 113 152 199 247 293 341
#
# _framework density 23.505102999999998
#
# number of rings (size 3 to 8) (size 9 to 14) (size 15 to 20)
#    0.000    2.200    0.000    1.800    2.800    3.600 
#    0.000    0.000    0.000    0.000    0.000    0.000 
#    0.000    0.000    0.000    0.000    0.000    0.000 
#
# Total GULP energy -222902.731893 kJ/mol
# GULP energy per Si atom -5572.568297 kJ/mol
# Density = 2.345160 g / cm^3
# Si number density = 23.505103 Si / 1000 Ang^3
#
#
#
# Elastic Constant Matrix: (Units=GPa)
#
#
# Indices 1 2 3 4 5 6 
#
# 1 221.9630 8.6057 61.8678 0.0000 0.0000 0.0000
# 2 8.6057 50.9144 -5.9158 0.0000 0.0000 0.0000
# 3 61.8678 -5.9158 107.5758 0.0000 0.0000 0.0000
# 4 0.0000 0.0000 0.0000 25.2565 0.0000 0.0000
# 5 0.0000 0.0000 0.0000 0.0000 30.0525 0.0000
# 6 0.0000 0.0000 0.0000 0.0000 0.0000 -6.2219
#
#
#
# Elastic Compliance Matrix: (Units=1/GPa)
#
#
# Indices 1 2 3 4 5 6 
#
# 1 0.005449 -0.001293 -0.003205 0.000000 0.000000 0.000000
# 2 -0.001293 0.020074 0.001848 0.000000 0.000000 0.000000
# 3 -0.003205 0.001848 0.011240 0.000000 0.000000 0.000000
# 4 0.000000 0.000000 0.000000 0.039594 0.000000 0.000000
# 5 0.000000 0.000000 0.000000 0.000000 0.033275 0.000000
# 6 0.000000 0.000000 0.000000 0.000000 0.000000 -0.160722
#
#
# Mechanical properties :
#
#
# Convention : Reuss Voigt Hill
#
# Bulk Modulus (GPa) = 31.78374 56.61872 44.20123
# Shear Modulus (GPa) = -141.63506 30.87712 -55.37897
#
# Velocity S-wave (km/s) = -7.77097 3.62834 -4.85917
# Velocity P-wave (km/s) = 8.18327 6.45703 3.55476
#
# Compressibility (1/GPa) = 0.03146263
#
# Stress axis : x y z
#
# Youngs Moduli (GPa) = 183.53201 49.81541 88.96457
#
# Poissons Ratio (x) = 0.06443 0.28510
# Poissons Ratio (y) = 0.23736 -0.16438
# Poissons Ratio (z) = 0.58816 -0.09204
#
# Static dielectric constant tensor:
#      x y z
#    x 2.057500 0.000000 0.000000 
#    y 0.000000 1.876730 0.000000 
#    z 0.000000 0.000000 1.842690 
# 
# From -- ./inp_files/22980.got.cif
#   From: 2010.05.17/outbox.cif.g08.bks.cpg/sg59_12_cif.got.tgz:22980.got - 2010.06.03 14:40:33.
