data_PCOD9450728
_publ_section_title
;
Structure prediction by ZEFSAII (Michael W. Deem and Ramdas Pophale) SiO2 
 PCOD9450728
Probable space group: P M M N
;
_chemical_formula_sum "Si O2"
_cell_formula_units_Z 64
_cell_length_a 15.571353
_cell_length_b 8.166757
_cell_length_c 24.294734
_cell_angle_alpha 90.000000
_cell_angle_beta 90.000000
_cell_angle_gamma 90.000000
_cell_volume 3089.499520
_symmetry_space_group_name_H-M "P M M N"
_symmetry_group_IT_number 59
_space_group.IT_coordinate_system_code '2'
_symmetry_cell_setting 'orthorhombic'
loop_
_space_group_symop_operation_xyz
x,y,z
1/2-x,1/2-y,z
1/2+x,-y,-z
-x,1/2+y,-z
-x,-y,-z
1/2+x,1/2+y,-z
1/2-x,y,z
x,1/2-y,z
loop_
_atom_site_type_symbol
_atom_site_label
_atom_site_fract_x
_atom_site_fract_y
_atom_site_fract_z
Si Si1 0.522876 0.944888 0.634081
Si Si2 0.475442 0.553092 0.245602
Si Si3 0.152189 0.449596 0.459446
Si Si4 0.087105 0.941147 0.028677
Si Si5 0.653119 0.947717 0.414312
Si Si6 0.651327 0.568634 0.078668
Si Si7 0.651154 0.549064 0.196420
Si Si8 0.650021 0.450897 0.852826
O O1 0.528303 0.750000 0.633137
O O2 0.582789 0.009527 0.584439
O O3 0.552933 0.004553 0.693598
O O4 0.424637 0.994696 0.623123
O O5 0.476723 0.750000 0.242113
O O6 0.574401 0.497415 0.236461
O O7 0.411425 0.495747 0.197199
O O8 0.250000 0.496779 0.444970
O O9 0.149819 0.250000 0.459806
O O10 0.135974 0.501607 0.522481
O O11 0.081490 0.750000 0.037168
O O12 0.114125 0.011033 0.087784
O O13 0.150585 0.977104 0.978597
O O14 0.000000 0.000000 0.000000
O O15 0.750000 0.001402 0.399016
O O16 0.653638 0.750000 0.413608
O O17 0.750000 0.588028 0.094024
O O18 0.612912 0.750000 0.070408
O O19 0.617100 0.495007 0.135448
O O20 0.750000 0.495820 0.208016
O O21 0.652892 0.750000 0.195256
O O22 0.750000 0.499040 0.846639
O O23 0.649012 0.250000 0.853414
#
# Coordination Sequence:
#
# PCOD9450728 Si02
#       8
#     8   8   8   8   8   8   8   8
#     4  11  22  34  52  80 113 143 173 219 275 320
#     4  10  20  35  54  73  97 136 187 229 256 299
#     4   8  16  33  56  80 107 141 178 214 258 316
#     4  11  21  33  52  77 105 134 168 213 267 325
#     4   9  18  35  59  83 107 140 181 217 253 312
#     4   9  17  31  52  77 102 126 158 204 259 319
#     4   8  15  30  52  74  97 131 174 215 256 309
#     4   9  19  36  56  76 101 138 183 228 270 312
#
# _framework density 20.715330999999999
#
# number of rings (size 3 to 8) (size 9 to 14) (size 15 to 20)
#    0.000    2.625    0.000    3.750    0.000    4.000 
#    0.000    5.000    0.000    4.875    0.000    0.000 
#    0.000    0.000    0.000    0.000    0.000    0.000 
#
# Total GULP energy -356620.684826 kJ/mol
# GULP energy per Si atom -5572.198200 kJ/mol
# Density = 2.066818 g / cm^3
# Si number density = 20.715331 Si / 1000 Ang^3
#
#
#
# Elastic Constant Matrix: (Units=GPa)
#
#
# Indices 1 2 3 4 5 6 
#
# 1 86.2163 8.7468 39.0493 0.0000 0.0000 0.0000
# 2 8.7468 6.7390 5.8743 0.0000 0.0000 0.0000
# 3 39.0493 5.8743 83.5534 0.0000 0.0000 0.0000
# 4 0.0000 0.0000 0.0000 24.6577 0.0000 0.0000
# 5 0.0000 0.0000 0.0000 0.0000 16.8138 0.0000
# 6 0.0000 0.0000 0.0000 0.0000 0.0000 13.4834
#
#
#
# Elastic Compliance Matrix: (Units=1/GPa)
#
#
# Indices 1 2 3 4 5 6 
#
# 1 0.016058 -0.015234 -0.006434 0.000000 0.000000 0.000000
# 2 -0.015234 0.172530 -0.005010 0.000000 0.000000 0.000000
# 3 -0.006434 -0.005010 0.015328 0.000000 0.000000 0.000000
# 4 0.000000 0.000000 0.000000 0.040555 0.000000 0.000000
# 5 0.000000 0.000000 0.000000 0.000000 0.059475 0.000000
# 6 0.000000 0.000000 0.000000 0.000000 0.000000 0.074165
#
#
# Mechanical properties :
#
#
# Convention : Reuss Voigt Hill
#
# Bulk Modulus (GPa) = 6.64188 31.53882 19.09035
# Shear Modulus (GPa) = 10.38088 19.18021 14.78054
#
# Velocity S-wave (km/s) = 2.24100 3.04615 2.67405
# Velocity P-wave (km/s) = 3.14791 5.25642 4.33240
#
# Compressibility (1/GPa) = 0.15055970
#
# Stress axis : x y z
#
# Youngs Moduli (GPa) = 62.27296 5.79608 65.24186
#
# Poissons Ratio (x) = 0.08830 0.41976
# Poissons Ratio (y) = 0.94868 0.32687
# Poissons Ratio (z) = 0.40066 0.02904
#
# Static dielectric constant tensor:
#      x y z
#    x 1.689620 0.000000 0.000000 
#    y 0.000000 1.745310 0.000000 
#    z 0.000000 0.000000 1.771300 
# 
# From -- ./inp_files/32246.got.cif
#   From: 2010.05.17/outbox.cif.g08.bks.cpg/sg59_17_cif.got.tgz:32246.got - 2010.06.03 14:40:33.
