data_PCOD9450167
_publ_section_title
;
Structure prediction by ZEFSAII (Michael W. Deem and Ramdas Pophale) SiO2 
 PCOD9450167
Probable space group: P M M N
;
_chemical_formula_sum "Si O2"
_cell_formula_units_Z 64
_cell_length_a 29.896925
_cell_length_b 8.138925
_cell_length_c 12.826740
_cell_angle_alpha 90.000000
_cell_angle_beta 90.000000
_cell_angle_gamma 90.000000
_cell_volume 3121.115641
_symmetry_space_group_name_H-M "P M M N"
_symmetry_group_IT_number 59
_space_group.IT_coordinate_system_code '2'
_symmetry_cell_setting 'orthorhombic'
loop_
_space_group_symop_operation_xyz
x,y,z
1/2-x,1/2-y,z
1/2+x,-y,-z
-x,1/2+y,-z
-x,-y,-z
1/2+x,1/2+y,-z
1/2-x,y,z
x,1/2-y,z
loop_
_atom_site_type_symbol
_atom_site_label
_atom_site_fract_x
_atom_site_fract_y
_atom_site_fract_z
Si Si1 0.128837 0.550639 0.614781
Si Si2 0.196392 0.438768 0.216418
Si Si3 0.566906 0.947545 0.005687
Si Si4 0.332427 0.050732 0.991450
Si Si5 0.298424 0.553679 0.776263
Si Si6 0.699158 0.444295 0.556968
Si Si7 0.493303 0.948278 0.171750
Si Si8 0.474593 0.445800 0.604607
O O1 0.126922 0.750000 0.614590
O O2 0.157583 0.493284 0.715335
O O3 0.160477 0.493424 0.519228
O O4 0.077859 0.492472 0.607986
O O5 0.250000 0.436789 0.209088
O O6 0.180607 0.250000 0.225829
O O7 0.185412 0.529308 0.323284
O O8 0.179483 0.508097 0.107194
O O9 0.565808 0.750000 0.007861
O O10 0.616810 0.000549 0.029959
O O11 0.532901 0.008442 0.094508
O O12 0.550904 0.001024 0.891039
O O13 0.328973 0.250000 0.992154
O O14 0.302639 0.986539 0.897671
O O15 0.250000 0.491885 0.736411
O O16 0.298083 0.750000 0.762351
O O17 0.750000 0.512428 0.542637
O O18 0.702414 0.250000 0.536539
O O19 0.494731 0.750000 0.173754
O O20 0.501574 0.008927 0.288963
O O21 0.500000 0.500000 0.500000
O O22 0.477078 0.250000 0.607755
#
# Coordination Sequence:
#
# PCOD9450167 Si02
#       8
#     8   8   8   8   8   8   8   8
#     4  10  21  38  59  83 112 145 183 229 281 334
#     4   9  18  32  49  71 102 138 174 217 269 320
#     4   9  18  33  55  80 104 135 175 219 267 318
#     4  10  20  34  52  77 110 144 179 221 270 321
#     4  10  21  36  56  84 117 152 189 229 273 326
#     4   9  18  34  56  79 105 141 184 229 277 330
#     4   9  19  36  55  76 104 136 173 218 266 318
#     4  11  24  41  60  83 113 147 184 229 281 336
#
# _framework density 20.505489000000001
#
# number of rings (size 3 to 8) (size 9 to 14) (size 15 to 20)
#    0.000    2.375    0.000    1.875    0.000    7.250 
#    0.000    6.250    0.000    2.250    0.000    0.000 
#    0.000    0.000    0.000    0.000    0.000    0.000 
#
# Total GULP energy -357018.259842 kJ/mol
# GULP energy per Si atom -5578.410310 kJ/mol
# Density = 2.045882 g / cm^3
# Si number density = 20.505489 Si / 1000 Ang^3
#
#
#
# Elastic Constant Matrix: (Units=GPa)
#
#
# Indices 1 2 3 4 5 6 
#
# 1 98.4399 9.3901 50.5309 0.0000 0.0000 0.0000
# 2 9.3901 11.5454 4.7839 0.0000 0.0000 0.0000
# 3 50.5309 4.7839 132.0031 0.0000 0.0000 0.0000
# 4 0.0000 0.0000 0.0000 10.4412 0.0000 0.0000
# 5 0.0000 0.0000 0.0000 0.0000 -401.1247 0.0000
# 6 0.0000 0.0000 0.0000 0.0000 0.0000 16.4461
#
#
#
# Elastic Compliance Matrix: (Units=1/GPa)
#
#
# Indices 1 2 3 4 5 6 
#
# 1 0.013500 -0.008973 -0.004843 0.000000 0.000000 0.000000
# 2 -0.008973 0.093900 0.000032 0.000000 0.000000 0.000000
# 3 -0.004843 0.000032 0.009428 0.000000 0.000000 0.000000
# 4 0.000000 0.000000 0.000000 0.095774 0.000000 0.000000
# 5 0.000000 0.000000 0.000000 0.000000 -0.002493 0.000000
# 6 0.000000 0.000000 0.000000 0.000000 0.000000 0.060805
#
#
# Mechanical properties :
#
#
# Convention : Reuss Voigt Hill
#
# Bulk Modulus (GPa) = 11.20326 41.26648 26.23487
# Shear Modulus (GPa) = 15.23295 -63.02858 -23.89782
#
# Velocity S-wave (km/s) = 2.72852 -5.55015 -3.41755
# Velocity P-wave (km/s) = 3.92452 4.57208 1.65862
#
# Compressibility (1/GPa) = 0.08925977
#
# Stress axis : x y z
#
# Youngs Moduli (GPa) = 74.07237 10.64968 106.06456
#
# Poissons Ratio (x) = 0.09556 0.51364
# Poissons Ratio (y) = 0.66469 -0.00340
# Poissons Ratio (z) = 0.35871 -0.00034
#
# Static dielectric constant tensor:
#      x y z
#    x 1.747430 0.000000 0.000000 
#    y 0.000000 1.734630 0.000000 
#    z 0.000000 0.000000 1.744100 
# 
# From -- ./inp_files/19298.got.cif
#   From: 2010.05.17/outbox.cif.g08.bks.cpg/sg59_10_cif.got.tgz:19298.got - 2010.06.03 14:40:33.
