data_PCOD9450384
_publ_section_title
;
Structure prediction by ZEFSAII (Michael W. Deem and Ramdas Pophale) SiO2 
 PCOD9450384
Probable space group: P M M N
;
_chemical_formula_sum "Si O2"
_cell_formula_units_Z 48
_cell_length_a 17.633829
_cell_length_b 9.421152
_cell_length_c 15.712939
_cell_angle_alpha 90.000000
_cell_angle_beta 90.000000
_cell_angle_gamma 90.000000
_cell_volume 2610.406007
_symmetry_space_group_name_H-M "P M M N"
_symmetry_group_IT_number 59
_space_group.IT_coordinate_system_code '2'
_symmetry_cell_setting 'orthorhombic'
loop_
_space_group_symop_operation_xyz
x,y,z
1/2-x,1/2-y,z
1/2+x,-y,-z
-x,1/2+y,-z
-x,-y,-z
1/2+x,1/2+y,-z
1/2-x,y,z
x,1/2-y,z
loop_
_atom_site_type_symbol
_atom_site_label
_atom_site_fract_x
_atom_site_fract_y
_atom_site_fract_z
Si Si1 0.159325 0.582362 0.819324
Si Si2 0.925852 0.082543 0.353766
Si Si3 0.396100 0.417520 0.319645
Si Si4 0.836324 0.579908 0.496119
Si Si5 0.842478 0.586562 0.012443
Si Si6 0.658175 0.414710 0.845048
O O1 0.250000 0.565054 0.808533
O O2 0.145040 0.750000 0.834839
O O3 0.117320 0.540254 0.732841
O O4 0.134408 0.491522 0.900703
O O5 0.911085 0.250000 0.367534
O O6 0.015199 0.064263 0.340146
O O7 0.893994 0.996310 0.433193
O O8 0.382110 0.250000 0.301988
O O9 0.351373 0.457071 0.405470
O O10 0.372304 0.509336 0.239072
O O11 0.750000 0.542906 0.472577
O O12 0.845440 0.750000 0.489437
O O13 0.750000 0.585869 0.012173
O O14 0.867235 0.750000 0.009440
O O15 0.866918 0.499513 0.929301
O O16 0.750000 0.419688 0.842739
O O17 0.635512 0.250000 0.849275
#
# Coordination Sequence:
#
# PCOD9450384 Si02
#       6
#     8   8   8   8   8   8
#     4   9  17  31  51  75 104 136 172 217 264 308
#     4  10  21  36  55  79 107 141 178 217 264 316
#     4  10  21  37  55  77 108 143 177 215 263 317
#     4  10  21  36  55  79 106 138 176 219 266 314
#     4   9  17  30  51  78 105 135 173 217 263 310
#     4  10  20  34  54  80 107 137 176 220 264 311
#
# _framework density 18.387943
#
# number of rings (size 3 to 8) (size 9 to 14) (size 15 to 20)
#    0.000    2.333    0.000    2.500    0.000    6.667 
#    0.000    2.500    0.000    0.000    0.000    0.000 
#    0.000    0.000    0.000    0.000    0.000    0.000 
#
# Total GULP energy -267992.268295 kJ/mol
# GULP energy per Si atom -5583.172256 kJ/mol
# Density = 1.834609 g / cm^3
# Si number density = 18.387943 Si / 1000 Ang^3
#
#
#
# Elastic Constant Matrix: (Units=GPa)
#
#
# Indices 1 2 3 4 5 6 
#
# 1 14.2364 18.3341 11.6997 0.0000 0.0000 0.0000
# 2 18.3341 63.1069 38.8253 0.0000 0.0000 0.0000
# 3 11.6997 38.8253 78.5496 0.0000 0.0000 0.0000
# 4 0.0000 0.0000 0.0000 35.8758 0.0000 0.0000
# 5 0.0000 0.0000 0.0000 0.0000 -16.5718 0.0000
# 6 0.0000 0.0000 0.0000 0.0000 0.0000 18.7921
#
#
#
# Elastic Compliance Matrix: (Units=1/GPa)
#
#
# Indices 1 2 3 4 5 6 
#
# 1 0.112276 -0.032088 -0.000863 0.000000 0.000000 0.000000
# 2 -0.032088 0.031941 -0.011008 0.000000 0.000000 0.000000
# 3 -0.000863 -0.011008 0.018300 0.000000 0.000000 0.000000
# 4 0.000000 0.000000 0.000000 0.027874 0.000000 0.000000
# 5 0.000000 0.000000 0.000000 0.000000 -0.060344 0.000000
# 6 0.000000 0.000000 0.000000 0.000000 0.000000 0.053214
#
#
# Mechanical properties :
#
#
# Convention : Reuss Voigt Hill
#
# Bulk Modulus (GPa) = 13.40499 32.62344 23.01421
# Shear Modulus (GPa) = 16.88926 13.42149 15.15537
#
# Velocity S-wave (km/s) = 3.03396 2.70461 2.87401
# Velocity P-wave (km/s) = 4.42483 5.24724 4.85348
#
# Compressibility (1/GPa) = 0.07459910
#
# Stress axis : x y z
#
# Youngs Moduli (GPa) = 8.90665 31.30760 54.64334
#
# Poissons Ratio (x) = 1.00460 0.04715
# Poissons Ratio (y) = 0.28580 0.60153
# Poissons Ratio (z) = 0.00768 0.34464
#
# Static dielectric constant tensor:
#      x y z
#    x 1.627270 0.000000 0.000000 
#    y 0.000000 1.616210 0.000000 
#    z 0.000000 0.000000 1.598140 
# 
# From -- ./inp_files/20321.got.cif
#   From: 2010.05.17/outbox.cif.g08.bks.cpg/sg59_11_cif.got.tgz:20321.got - 2010.06.03 14:40:33.
