data_PCOD9450579
_publ_section_title
;
Structure prediction by ZEFSAII (Michael W. Deem and Ramdas Pophale) SiO2 
 PCOD9450579
Probable space group: P M M N
;
_chemical_formula_sum "Si O2"
_cell_formula_units_Z 64
_cell_length_a 7.842634
_cell_length_b 24.190696
_cell_length_c 15.864050
_cell_angle_alpha 90.000000
_cell_angle_beta 90.000000
_cell_angle_gamma 90.000000
_cell_volume 3009.708131
_symmetry_space_group_name_H-M "P M M N"
_symmetry_group_IT_number 59
_space_group.IT_coordinate_system_code '2'
_symmetry_cell_setting 'orthorhombic'
loop_
_space_group_symop_operation_xyz
x,y,z
1/2-x,1/2-y,z
1/2+x,-y,-z
-x,1/2+y,-z
-x,-y,-z
1/2+x,1/2+y,-z
1/2-x,y,z
x,1/2-y,z
loop_
_atom_site_type_symbol
_atom_site_label
_atom_site_fract_x
_atom_site_fract_y
_atom_site_fract_z
Si Si1 0.544208 0.496921 0.342372
Si Si2 0.053851 0.627766 0.077463
Si Si3 0.046389 0.884539 0.405443
Si Si4 0.456652 0.622494 0.591718
Si Si5 0.541214 0.186243 0.753517
Si Si6 0.447955 0.395524 0.103028
Si Si7 0.545774 0.811940 0.755710
Si Si8 0.948556 0.513726 0.149673
O O1 0.750000 0.495640 0.342259
O O2 0.486971 0.550446 0.393689
O O3 0.484161 0.438628 0.379504
O O4 0.488619 0.504530 0.245384
O O5 0.250000 0.643960 0.064601
O O6 0.983478 0.662234 0.156585
O O7 0.044709 0.563780 0.105812
O O8 0.963110 0.632485 0.987991
O O9 0.250000 0.876302 0.405636
O O10 0.981924 0.865895 0.496944
O O11 0.979601 0.851316 0.324343
O O12 0.250000 0.621540 0.590495
O O13 0.510791 0.665737 0.662393
O O14 0.750000 0.183206 0.754515
O O15 0.493764 0.250000 0.742625
O O16 0.250000 0.406436 0.121506
O O17 0.520756 0.356143 0.176149
O O18 0.535792 0.455185 0.103400
O O19 0.750000 0.809919 0.767702
O O20 0.478251 0.750000 0.767541
O O21 0.750000 0.529848 0.152482
#
# Coordination Sequence:
#
# PCOD9450579 Si02
#       8
#     8   8   8   8   8   8   8   8
#     4  10  20  34  55  84 120 151 184 232 285 336
#     4  11  22  37  59  85 114 149 189 233 283 340
#     4  10  20  35  59  87 116 150 191 233 281 338
#     4  10  21  37  58  88 118 150 190 236 284 335
#     4   9  19  36  56  80 111 147 188 232 276 328
#     4  11  23  39  60  85 114 148 187 233 286 342
#     4  10  23  42  61  82 112 152 194 237 286 340
#     4  11  21  36  59  85 117 151 186 231 282 339
#
# _framework density 21.264520000000001
#
# number of rings (size 3 to 8) (size 9 to 14) (size 15 to 20)
#    0.000    1.750    2.500    1.875    0.000    3.250 
#    0.000    1.250    0.000    3.000    0.000    0.000 
#    0.000    0.000    0.000    0.000    0.000    0.000 
#
# Total GULP energy -357693.496818 kJ/mol
# GULP energy per Si atom -5588.960888 kJ/mol
# Density = 2.121612 g / cm^3
# Si number density = 21.264520 Si / 1000 Ang^3
#
#
#
# Elastic Constant Matrix: (Units=GPa)
#
#
# Indices 1 2 3 4 5 6 
#
# 1 24.1091 -8.5576 -3.2653 0.0000 0.0000 0.0000
# 2 -8.5576 75.2001 -0.9743 0.0000 0.0000 0.0000
# 3 -3.2653 -0.9743 85.9217 0.0000 0.0000 0.0000
# 4 0.0000 0.0000 0.0000 6.1656 0.0000 0.0000
# 5 0.0000 0.0000 0.0000 0.0000 17.9180 0.0000
# 6 0.0000 0.0000 0.0000 0.0000 0.0000 -5.4008
#
#
#
# Elastic Compliance Matrix: (Units=1/GPa)
#
#
# Indices 1 2 3 4 5 6 
#
# 1 0.043473 0.004969 0.001708 0.000000 0.000000 0.000000
# 2 0.004969 0.013868 0.000346 0.000000 0.000000 0.000000
# 3 0.001708 0.000346 0.011707 0.000000 0.000000 0.000000
# 4 0.000000 0.000000 0.000000 0.162191 0.000000 0.000000
# 5 0.000000 0.000000 0.000000 0.000000 0.055810 0.000000
# 6 0.000000 0.000000 0.000000 0.000000 0.000000 -0.185159
#
#
# Mechanical properties :
#
#
# Convention : Reuss Voigt Hill
#
# Bulk Modulus (GPa) = 12.03425 17.73739 14.88582
# Shear Modulus (GPa) = 43.27466 16.93844 30.10655
#
# Velocity S-wave (km/s) = 4.51606 2.82540 3.76681
# Velocity P-wave (km/s) = 5.73277 4.35927 5.09254
#
# Compressibility (1/GPa) = 0.08309619
#
# Stress axis : x y z
#
# Youngs Moduli (GPa) = 23.00263 72.10935 85.41634
#
# Poissons Ratio (x) = -0.35833 -0.14593
# Poissons Ratio (y) = -0.11431 -0.02956
# Poissons Ratio (z) = -0.03930 -0.02496
#
# Static dielectric constant tensor:
#      x y z
#    x 1.749220 0.000000 0.000000 
#    y 0.000000 1.733040 0.000000 
#    z 0.000000 0.000000 1.770990 
# 
# From -- ./inp_files/21545.got.cif
#   From: 2010.05.17/outbox.cif.g08.bks.cpg/sg59_11_cif.got.tgz:21545.got - 2010.06.03 14:40:33.
