data_PCOD9450703
_publ_section_title
;
Structure prediction by ZEFSAII (Michael W. Deem and Ramdas Pophale) SiO2 
 PCOD9450703
Probable space group: P M M N
;
_chemical_formula_sum "Si O2"
_cell_formula_units_Z 56
_cell_length_a 21.696376
_cell_length_b 8.895382
_cell_length_c 17.146449
_cell_angle_alpha 90.000000
_cell_angle_beta 90.000000
_cell_angle_gamma 90.000000
_cell_volume 3309.222692
_symmetry_space_group_name_H-M "P M M N"
_symmetry_group_IT_number 59
_space_group.IT_coordinate_system_code '2'
_symmetry_cell_setting 'orthorhombic'
loop_
_space_group_symop_operation_xyz
x,y,z
1/2-x,1/2-y,z
1/2+x,-y,-z
-x,1/2+y,-z
-x,-y,-z
1/2+x,1/2+y,-z
1/2-x,y,z
x,1/2-y,z
loop_
_atom_site_type_symbol
_atom_site_label
_atom_site_fract_x
_atom_site_fract_y
_atom_site_fract_z
Si Si1 0.180014 0.569780 0.958527
Si Si2 0.126864 0.427538 0.807183
Si Si3 0.993978 0.570203 0.796122
Si Si4 0.470402 0.430071 0.379860
Si Si5 0.939093 0.929068 0.959708
Si Si6 0.323070 0.924603 0.654107
Si Si7 0.591027 0.429268 0.480252
O O1 0.250000 0.528948 0.983015
O O2 0.174753 0.750000 0.960296
O O3 0.168565 0.511835 0.870701
O O4 0.124026 0.499077 0.007890
O O5 0.130528 0.250000 0.819219
O O6 0.148295 0.473760 0.721125
O O7 0.057069 0.485329 0.816084
O O8 0.007133 0.750000 0.792917
O O9 0.971264 0.522291 0.710289
O O10 0.947060 0.545769 0.867013
O O11 0.466984 0.250000 0.380857
O O12 0.534498 0.473964 0.422629
O O13 0.418274 0.494982 0.436430
O O14 0.939291 0.750000 0.974587
O O15 0.000000 0.000000 0.000000
O O16 0.250000 0.931947 0.657349
O O17 0.342582 0.750000 0.668298
O O18 0.348443 0.966163 0.569012
O O19 0.587532 0.250000 0.491100
#
# Coordination Sequence:
#
# PCOD9450703 Si02
#       7
#     8   8   8   8   8   8   8
#     4  11  24  41  59  78 109 152 190 228 279 336
#     4  12  23  33  52  81 112 143 179 223 270 323
#     4  10  20  36  56  78 110 145 178 218 271 331
#     4   9  17  31  51  73 100 134 169 210 259 309
#     4  11  22  36  59  86 112 145 186 233 279 331
#     4  10  20  35  53  72 103 146 181 211 259 323
#     4   9  17  30  49  74 101 132 172 214 254 304
#
# _framework density 16.922404
#
# number of rings (size 3 to 8) (size 9 to 14) (size 15 to 20)
#    0.000    1.714    2.857    2.571    0.000    4.857 
#    0.000    0.000    0.000    0.857    0.000    4.000 
#    0.000    0.000    0.000    0.000    0.000    0.000 
#
# Total GULP energy -312510.128831 kJ/mol
# GULP energy per Si atom -5580.538015 kJ/mol
# Density = 1.688389 g / cm^3
# Si number density = 16.922404 Si / 1000 Ang^3
#
#
#
# Elastic Constant Matrix: (Units=GPa)
#
#
# Indices 1 2 3 4 5 6 
#
# 1 90.8139 40.8777 44.2389 0.0000 0.0000 0.0000
# 2 40.8777 50.0083 37.3153 0.0000 0.0000 0.0000
# 3 44.2389 37.3153 100.5497 0.0000 0.0000 0.0000
# 4 0.0000 0.0000 0.0000 28.2014 0.0000 0.0000
# 5 0.0000 0.0000 0.0000 0.0000 24.8742 0.0000
# 6 0.0000 0.0000 0.0000 0.0000 0.0000 20.0546
#
#
#
# Elastic Compliance Matrix: (Units=1/GPa)
#
#
# Indices 1 2 3 4 5 6 
#
# 1 0.018247 -0.012343 -0.003447 0.000000 0.000000 0.000000
# 2 -0.012343 0.036004 -0.007931 0.000000 0.000000 0.000000
# 3 -0.003447 -0.007931 0.014405 0.000000 0.000000 0.000000
# 4 0.000000 0.000000 0.000000 0.035459 0.000000 0.000000
# 5 0.000000 0.000000 0.000000 0.000000 0.040202 0.000000
# 6 0.000000 0.000000 0.000000 0.000000 0.000000 0.049864
#
#
# Mechanical properties :
#
#
# Convention : Reuss Voigt Hill
#
# Bulk Modulus (GPa) = 47.13986 54.02621 50.58303
# Shear Modulus (GPa) = 20.10493 22.55537 21.33015
#
# Velocity S-wave (km/s) = 3.45057 3.65481 3.55416
# Velocity P-wave (km/s) = 6.61757 7.05729 6.84096
#
# Compressibility (1/GPa) = 0.02121347
#
# Stress axis : x y z
#
# Youngs Moduli (GPa) = 54.80441 27.77479 69.41829
#
# Poissons Ratio (x) = 0.34282 0.23932
# Poissons Ratio (y) = 0.67644 0.55056
# Poissons Ratio (z) = 0.18894 0.22028
#
# Static dielectric constant tensor:
#      x y z
#    x 1.565010 0.000000 0.000000 
#    y 0.000000 1.574240 0.000000 
#    z 0.000000 0.000000 1.581140 
# 
# From -- ./inp_files/26070.got.cif
#   From: 2010.05.17/outbox.cif.g08.bks.cpg/sg59_14_cif.got.tgz:26070.got - 2010.06.03 14:40:33.
