data_PCOD9450927
_publ_section_title
;
Structure prediction by ZEFSAII (Michael W. Deem and Ramdas Pophale) SiO2 
 PCOD9450927
Probable space group: P M M N
;
_chemical_formula_sum "Si O2"
_cell_formula_units_Z 48
_cell_length_a 7.710726
_cell_length_b 33.747246
_cell_length_c 7.901557
_cell_angle_alpha 90.000000
_cell_angle_beta 90.000000
_cell_angle_gamma 90.000000
_cell_volume 2056.109717
_symmetry_space_group_name_H-M "P M M N"
_symmetry_group_IT_number 59
_space_group.IT_coordinate_system_code '2'
_symmetry_cell_setting 'orthorhombic'
loop_
_space_group_symop_operation_xyz
x,y,z
1/2-x,1/2-y,z
1/2+x,-y,-z
-x,1/2+y,-z
-x,-y,-z
1/2+x,1/2+y,-z
1/2-x,y,z
x,1/2-y,z
loop_
_atom_site_type_symbol
_atom_site_label
_atom_site_fract_x
_atom_site_fract_y
_atom_site_fract_z
Si Si1 0.955246 0.353096 0.223149
Si Si2 0.042762 0.017313 0.820473
Si Si3 0.948366 0.596165 0.300510
Si Si4 0.952230 0.707257 0.064905
Si Si5 0.444829 0.821333 0.420711
Si Si6 0.962125 0.437359 0.343556
O O1 0.750000 0.354909 0.254721
O O2 0.024695 0.329677 0.392058
O O3 0.012722 0.399328 0.225886
O O4 0.981171 0.328893 0.050699
O O5 0.250000 0.021479 0.796250
O O6 0.980101 0.981697 0.701398
O O7 0.973286 0.062028 0.815659
O O8 0.000000 0.000000 0.000000
O O9 0.750000 0.607439 0.254616
O O10 0.055738 0.635228 0.334552
O O11 0.953544 0.573719 0.479378
O O12 0.750000 0.708171 0.026506
O O13 0.030766 0.750000 0.015417
O O14 0.970423 0.702919 0.267955
O O15 0.250000 0.805949 0.443456
O O16 0.750000 0.437983 0.354111
#
# Coordination Sequence:
#
# PCOD9450927 Si02
#       6
#     8   8   8   8   8   8
#     4   9  20  39  63  90 118 154 201 246 293 349
#     4  10  22  35  50  79 116 152 195 240 287 341
#     4  10  20  35  56  84 114 149 194 242 292 345
#     4  11  25  42  62  91 125 157 190 239 302 361
#     4  10  22  41  65  90 119 159 203 247 295 352
#     4   9  19  37  57  80 111 151 196 240 289 345
#
# _framework density 23.345058999999999
#
# number of rings (size 3 to 8) (size 9 to 14) (size 15 to 20)
#    0.000    2.167    0.000    3.000    2.333    7.333 
#    0.000    3.333    0.000    0.000    0.000    0.000 
#    0.000    0.000    0.000    0.000    0.000    0.000 
#
# Total GULP energy -267563.241220 kJ/mol
# GULP energy per Si atom -5574.234192 kJ/mol
# Density = 2.329192 g / cm^3
# Si number density = 23.345059 Si / 1000 Ang^3
#
#
#
# Elastic Constant Matrix: (Units=GPa)
#
#
# Indices 1 2 3 4 5 6 
#
# 1 40.8429 -3.4081 -11.8015 0.0000 0.0000 0.0000
# 2 -3.4081 26.8713 7.5348 0.0000 0.0000 0.0000
# 3 -11.8015 7.5348 65.8222 0.0000 0.0000 0.0000
# 4 0.0000 0.0000 0.0000 -144.2039 0.0000 0.0000
# 5 0.0000 0.0000 0.0000 0.0000 16.6182 0.0000
# 6 0.0000 0.0000 0.0000 0.0000 0.0000 10.9824
#
#
#
# Elastic Compliance Matrix: (Units=1/GPa)
#
#
# Indices 1 2 3 4 5 6 
#
# 1 0.025931 0.002051 0.004414 0.000000 0.000000 0.000000
# 2 0.002051 0.038611 -0.004052 0.000000 0.000000 0.000000
# 3 0.004414 -0.004052 0.016448 0.000000 0.000000 0.000000
# 4 0.000000 0.000000 0.000000 -0.006935 0.000000 0.000000
# 5 0.000000 0.000000 0.000000 0.000000 0.060175 0.000000
# 6 0.000000 0.000000 0.000000 0.000000 0.000000 0.091055
#
#
# Mechanical properties :
#
#
# Convention : Reuss Voigt Hill
#
# Bulk Modulus (GPa) = 11.65287 13.13189 12.39238
# Shear Modulus (GPa) = 20.07521 -13.90659 3.08431
#
# Velocity S-wave (km/s) = 2.93564 -2.44334 1.15067
# Velocity P-wave (km/s) = 4.06117 1.52399 2.66182
#
# Compressibility (1/GPa) = 0.08581575
#
# Stress axis : x y z
#
# Youngs Moduli (GPa) = 38.56429 25.89946 60.79851
#
# Poissons Ratio (x) = -0.05312 -0.26839
# Poissons Ratio (y) = -0.07909 0.24637
# Poissons Ratio (z) = -0.17024 0.10495
#
# Static dielectric constant tensor:
#      x y z
#    x 1.869640 0.000000 0.000000 
#    y 0.000000 2.022560 0.000000 
#    z 0.000000 0.000000 1.901560 
# 
# From -- ./inp_files/6337.got.cif
#   From: 2010.05.17/outbox.cif.g08.bks.cpg/sg59_4_cif.got.tgz:6337.got - 2010.06.03 14:40:33.
