data_PCOD9450316
_publ_section_title
;
Structure prediction by ZEFSAII (Michael W. Deem and Ramdas Pophale) SiO2 
 PCOD9450316
Probable space group: P M M N
;
_chemical_formula_sum "Si O2"
_cell_formula_units_Z 40
_cell_length_a 19.084100
_cell_length_b 13.899749
_cell_length_c 7.088855
_cell_angle_alpha 90.000000
_cell_angle_beta 90.000000
_cell_angle_gamma 90.000000
_cell_volume 1880.419450
_symmetry_space_group_name_H-M "P M M N"
_symmetry_group_IT_number 59
_space_group.IT_coordinate_system_code '2'
_symmetry_cell_setting 'orthorhombic'
loop_
_space_group_symop_operation_xyz
x,y,z
1/2-x,1/2-y,z
1/2+x,-y,-z
-x,1/2+y,-z
-x,-y,-z
1/2+x,1/2+y,-z
1/2-x,y,z
x,1/2-y,z
loop_
_atom_site_type_symbol
_atom_site_label
_atom_site_fract_x
_atom_site_fract_y
_atom_site_fract_z
Si Si1 0.579764 0.012754 0.873735
Si Si2 0.330112 0.353217 0.131648
Si Si3 0.013958 0.136764 0.591431
Si Si4 0.171880 0.137695 0.675468
Si Si5 0.032804 0.638480 0.840386
O O1 0.537037 0.076075 0.725268
O O2 0.533261 0.918493 0.928621
O O3 0.644077 0.954696 0.789318
O O4 0.593985 0.077966 0.057536
O O5 0.250000 0.344702 0.186285
O O6 0.365517 0.250000 0.184595
O O7 0.332415 0.361698 0.903991
O O8 0.013558 0.250000 0.644634
O O9 0.095247 0.102585 0.604288
O O10 0.981886 0.129398 0.381309
O O11 0.250000 0.096696 0.628722
O O12 0.174080 0.250000 0.616214
O O13 0.037259 0.750000 0.888363
#
# Coordination Sequence:
#
# PCOD9450316 Si02
#       5
#     8   8   8   8   8
#     4  11  20  33  56  80 106 145 187 228 278 336
#     4   9  18  33  54  81 112 144 178 222 280 341
#     4  10  20  34  53  80 113 146 184 232 280 327
#     4   8  14  27  48  73 105 146 183 215 262 323
#     4  10  21  34  51  79 111 141 179 228 279 329
#
# _framework density 21.271850000000001
#
# number of rings (size 3 to 8) (size 9 to 14) (size 15 to 20)
#    0.000    2.400    0.000    5.400    0.000    1.600 
#    0.000    1.000    0.000   10.800    0.000   11.200 
#    0.000    2.400    0.000    0.000    0.000    0.000 
#
# Total GULP energy -222899.664833 kJ/mol
# GULP energy per Si atom -5572.491621 kJ/mol
# Density = 2.122343 g / cm^3
# Si number density = 21.271850 Si / 1000 Ang^3
#
#
#
# Elastic Constant Matrix: (Units=GPa)
#
#
# Indices 1 2 3 4 5 6 
#
# 1 103.9873 62.9067 37.4078 0.0000 0.0000 0.0000
# 2 62.9067 149.5087 52.1136 0.0000 0.0000 0.0000
# 3 37.4078 52.1136 113.2376 0.0000 0.0000 0.0000
# 4 0.0000 0.0000 0.0000 22.7896 0.0000 0.0000
# 5 0.0000 0.0000 0.0000 0.0000 5.0474 0.0000
# 6 0.0000 0.0000 0.0000 0.0000 0.0000 36.8680
#
#
#
# Elastic Compliance Matrix: (Units=1/GPa)
#
#
# Indices 1 2 3 4 5 6 
#
# 1 0.013334 -0.004853 -0.002171 0.000000 0.000000 0.000000
# 2 -0.004853 0.009733 -0.002876 0.000000 0.000000 0.000000
# 3 -0.002171 -0.002876 0.010872 0.000000 0.000000 0.000000
# 4 0.000000 0.000000 0.000000 0.043880 0.000000 0.000000
# 5 0.000000 0.000000 0.000000 0.000000 0.198123 0.000000
# 6 0.000000 0.000000 0.000000 0.000000 0.000000 0.027124
#
#
# Mechanical properties :
#
#
# Convention : Reuss Voigt Hill
#
# Bulk Modulus (GPa) = 70.73407 74.62110 72.67759
# Shear Modulus (GPa) = 15.26349 27.22802 21.24576
#
# Velocity S-wave (km/s) = 2.68161 3.58159 3.16377
# Velocity P-wave (km/s) = 6.55077 7.22908 6.89827
#
# Compressibility (1/GPa) = 0.01413746
#
# Stress axis : x y z
#
# Youngs Moduli (GPa) = 74.99817 102.74142 91.98105
#
# Poissons Ratio (x) = 0.49865 0.19970
# Poissons Ratio (y) = 0.36400 0.26454
# Poissons Ratio (z) = 0.16283 0.29549
#
# Static dielectric constant tensor:
#      x y z
#    x 1.991350 0.000000 0.000000 
#    y 0.000000 1.844060 0.000000 
#    z 0.000000 0.000000 1.862730 
# 
# From -- ./inp_files/11222.got.cif
#   From: 2010.05.17/outbox.cif.g08.bks.cpg/sg59_6_cif.got.tgz:11222.got - 2010.06.03 14:40:33.
