data_PCOD9450073
_publ_section_title
;
Structure prediction by ZEFSAII (Michael W. Deem and Ramdas Pophale) SiO2 
 PCOD9450073
Probable space group: P M M N
;
_chemical_formula_sum "Si O2"
_cell_formula_units_Z 64
_cell_length_a 32.057426
_cell_length_b 13.355152
_cell_length_c 10.190627
_cell_angle_alpha 90.000000
_cell_angle_beta 90.000000
_cell_angle_gamma 90.000000
_cell_volume 4362.931450
_symmetry_space_group_name_H-M "P M M N"
_symmetry_group_IT_number 59
_space_group.IT_coordinate_system_code '2'
_symmetry_cell_setting 'orthorhombic'
loop_
_space_group_symop_operation_xyz
x,y,z
1/2-x,1/2-y,z
1/2+x,-y,-z
-x,1/2+y,-z
-x,-y,-z
1/2+x,1/2+y,-z
1/2-x,y,z
x,1/2-y,z
loop_
_atom_site_type_symbol
_atom_site_label
_atom_site_fract_x
_atom_site_fract_y
_atom_site_fract_z
Si Si1 0.296527 0.371821 0.329870
Si Si2 0.795890 0.628787 0.364205
Si Si3 0.886085 0.631245 0.749970
Si Si4 0.520174 0.366409 0.897531
Si Si5 0.382309 0.371563 0.761156
Si Si6 0.026204 0.633769 0.416200
Si Si7 0.932721 0.549514 0.001102
Si Si8 0.564898 0.933735 0.492085
O O1 0.250000 0.403681 0.285824
O O2 0.296650 0.250000 0.326287
O O3 0.301422 0.400587 0.483277
O O4 0.337978 0.405878 0.254353
O O5 0.750000 0.594811 0.319994
O O6 0.795561 0.750000 0.364839
O O7 0.835063 0.600449 0.276540
O O8 0.884685 0.750000 0.769007
O O9 0.914008 0.586023 0.864168
O O10 0.907992 0.608387 0.611674
O O11 0.529045 0.250000 0.915391
O O12 0.522180 0.387869 0.740607
O O13 0.551861 0.436703 0.976702
O O14 0.474055 0.391312 0.951465
O O15 0.385521 0.250000 0.775858
O O16 0.411223 0.406430 0.640810
O O17 0.398497 0.427359 0.889415
O O18 0.038509 0.750000 0.431660
O O19 0.056423 0.551389 0.480913
O O20 0.980746 0.616470 0.480663
#
# Coordination Sequence:
#
# PCOD9450073 Si02
#       8
#     8   8   8   8   8   8   8   8
#     4   8  14  25  42  65  94 125 153 186 229 273
#     4   8  14  25  43  67  92 123 157 184 223 279
#     4  11  19  29  45  71  98 122 160 196 225 273
#     4  10  20  36  51  64  92 128 159 198 244 277
#     4  11  19  31  49  69 100 132 155 190 233 276
#     4  10  20  34  50  68  94 123 156 203 246 272
#     4  11  22  33  47  70  92 127 164 193 228 283
#     4  11  20  31  49  72  90 122 162 196 234 280
#
# _framework density 14.669036
#
# number of rings (size 3 to 8) (size 9 to 14) (size 15 to 20)
#    0.000    2.000    3.750    3.000    0.000    0.000 
#    0.000    2.500    0.000    3.000    0.000    0.000 
#    0.000    6.000    0.000    0.000    0.000    0.000 
#
# Total GULP energy -356557.434292 kJ/mol
# GULP energy per Si atom -5571.209911 kJ/mol
# Density = 1.463565 g / cm^3
# Si number density = 14.669036 Si / 1000 Ang^3
#
#
#
# Elastic Constant Matrix: (Units=GPa)
#
#
# Indices 1 2 3 4 5 6 
#
# 1 62.1632 22.3024 -4.2404 0.0000 0.0000 0.0000
# 2 22.3024 58.5306 12.6180 0.0000 0.0000 0.0000
# 3 -4.2404 12.6180 30.6551 0.0000 0.0000 0.0000
# 4 0.0000 0.0000 0.0000 20.9658 0.0000 0.0000
# 5 0.0000 0.0000 0.0000 0.0000 11.5539 0.0000
# 6 0.0000 0.0000 0.0000 0.0000 0.0000 8.3691
#
#
#
# Elastic Compliance Matrix: (Units=1/GPa)
#
#
# Indices 1 2 3 4 5 6 
#
# 1 0.019711 -0.008887 0.006384 0.000000 0.000000 0.000000
# 2 -0.008887 0.022756 -0.010596 0.000000 0.000000 0.000000
# 3 0.006384 -0.010596 0.037865 0.000000 0.000000 0.000000
# 4 0.000000 0.000000 0.000000 0.047697 0.000000 0.000000
# 5 0.000000 0.000000 0.000000 0.000000 0.086551 0.000000
# 6 0.000000 0.000000 0.000000 0.000000 0.000000 0.119488
#
#
# Mechanical properties :
#
#
# Convention : Reuss Voigt Hill
#
# Bulk Modulus (GPa) = 18.47225 23.63431 21.05328
# Shear Modulus (GPa) = 13.21673 16.22234 14.71954
#
# Velocity S-wave (km/s) = 3.00491 3.32910 3.17115
# Velocity P-wave (km/s) = 4.96582 5.56093 5.27178
#
# Compressibility (1/GPa) = 0.05413525
#
# Stress axis : x y z
#
# Youngs Moduli (GPa) = 50.73434 43.94537 26.40930
#
# Poissons Ratio (x) = 0.39053 -0.16861
# Poissons Ratio (y) = 0.45087 0.27983
# Poissons Ratio (z) = -0.32391 0.46563
#
# Static dielectric constant tensor:
#      x y z
#    x 1.506750 0.000000 0.000000 
#    y 0.000000 1.469490 0.000000 
#    z 0.000000 0.000000 1.484130 
# 
# From -- ./inp_files/13254.got.cif
#   From: 2010.05.17/outbox.cif.g08.bks.cpg/sg59_7_cif.got.tgz:13254.got - 2010.06.03 14:40:33.
