data_PCOD9450715
_publ_section_title
;
Structure prediction by ZEFSAII (Michael W. Deem and Ramdas Pophale) SiO2 
 PCOD9450715
Probable space group: P M M N
;
_chemical_formula_sum "Si O2"
_cell_formula_units_Z 56
_cell_length_a 16.065753
_cell_length_b 8.509973
_cell_length_c 22.310336
_cell_angle_alpha 90.000000
_cell_angle_beta 90.000000
_cell_angle_gamma 90.000000
_cell_volume 3050.249600
_symmetry_space_group_name_H-M "P M M N"
_symmetry_group_IT_number 59
_space_group.IT_coordinate_system_code '2'
_symmetry_cell_setting 'orthorhombic'
loop_
_space_group_symop_operation_xyz
x,y,z
1/2-x,1/2-y,z
1/2+x,-y,-z
-x,1/2+y,-z
-x,-y,-z
1/2+x,1/2+y,-z
1/2-x,y,z
x,1/2-y,z
loop_
_atom_site_type_symbol
_atom_site_label
_atom_site_fract_x
_atom_site_fract_y
_atom_site_fract_z
Si Si1 0.750000 0.570155 0.313433
Si Si2 0.905536 0.438475 0.000357
Si Si3 0.342243 0.941418 0.869063
Si Si4 0.502886 0.940156 0.793544
Si Si5 0.657465 0.939747 0.874453
Si Si6 0.250000 0.429497 0.540858
Si Si7 0.929313 0.436622 0.455918
Si Si8 0.569931 0.561018 0.321389
O O1 0.750000 0.750000 0.291159
O O2 0.750000 0.574143 0.386255
O O3 0.660721 0.497013 0.298877
O O4 0.906919 0.250000 0.999301
O O5 0.860750 0.487000 0.062106
O O6 0.860700 0.500447 0.941192
O O7 0.000000 0.500000 0.000000
O O8 0.250000 0.995150 0.850185
O O9 0.342153 0.750000 0.867165
O O10 0.420050 0.994149 0.829135
O O11 0.502492 0.750000 0.792087
O O12 0.584030 0.992400 0.830205
O O13 0.496902 0.004349 0.726471
O O14 0.750000 0.988594 0.855442
O O15 0.654599 0.750000 0.875873
O O16 0.250000 0.250000 0.519771
O O17 0.336634 0.510691 0.523882
O O18 0.932323 0.250000 0.453823
O O19 0.943269 0.502469 0.388788
O O20 0.000000 0.500000 0.500000
O O21 0.574714 0.750000 0.322774
#
# Coordination Sequence:
#
# PCOD9450715 Si02
#       8
#     4   8   8   8   8   4   8   8
#     4   7  14  29  49  73 107 143 173 210 263 320
#     4  11  20  34  55  78 106 138 178 227 278 332
#     4   9  18  32  50  74 105 138 170 214 271 331
#     4  10  20  35  53  76 106 140 179 223 273 336
#     4  10  21  38  58  78 103 140 186 234 281 333
#     4   9  17  33  55  85 121 153 189 236 279 330
#     4  11  21  36  60  89 119 156 196 238 287 344
#     4  10  20  35  54  80 113 148 185 231 279 333
#
# _framework density 18.359152999999999
#
# number of rings (size 3 to 8) (size 9 to 14) (size 15 to 20)
#    0.000    2.143    1.429    3.643    1.000    1.429 
#    0.000    0.714    1.571    1.714    0.000    0.000 
#    0.000    0.000    0.000    0.000    0.000    0.000 
#
# Total GULP energy -312506.087112 kJ/mol
# GULP energy per Si atom -5580.465841 kJ/mol
# Density = 1.831737 g / cm^3
# Si number density = 18.359153 Si / 1000 Ang^3
#
#
#
# Elastic Constant Matrix: (Units=GPa)
#
#
# Indices 1 2 3 4 5 6 
#
# 1 154.3416 33.5315 71.5187 0.0000 0.0000 0.0000
# 2 33.5315 42.0799 24.7644 0.0000 0.0000 0.0000
# 3 71.5187 24.7644 102.5442 0.0000 0.0000 0.0000
# 4 0.0000 0.0000 0.0000 25.4811 0.0000 0.0000
# 5 0.0000 0.0000 0.0000 0.0000 25.7938 0.0000
# 6 0.0000 0.0000 0.0000 0.0000 0.0000 17.9108
#
#
#
# Elastic Compliance Matrix: (Units=1/GPa)
#
#
# Indices 1 2 3 4 5 6 
#
# 1 0.010295 -0.004637 -0.006060 0.000000 0.000000 0.000000
# 2 -0.004637 0.029790 -0.003960 0.000000 0.000000 0.000000
# 3 -0.006060 -0.003960 0.014935 0.000000 0.000000 0.000000
# 4 0.000000 0.000000 0.000000 0.039245 0.000000 0.000000
# 5 0.000000 0.000000 0.000000 0.000000 0.038769 0.000000
# 6 0.000000 0.000000 0.000000 0.000000 0.000000 0.055832
#
#
# Mechanical properties :
#
#
# Convention : Reuss Voigt Hill
#
# Bulk Modulus (GPa) = 38.90316 62.06610 50.48463
# Shear Modulus (GPa) = 22.05088 25.11389 23.58239
#
# Velocity S-wave (km/s) = 3.46943 3.70256 3.58788
# Velocity P-wave (km/s) = 6.10617 7.22209 6.68745
#
# Compressibility (1/GPa) = 0.02570485
#
# Stress axis : x y z
#
# Youngs Moduli (GPa) = 97.13776 33.56838 66.95724
#
# Poissons Ratio (x) = 0.15565 0.40577
# Poissons Ratio (y) = 0.45042 0.26517
# Poissons Ratio (z) = 0.58867 0.13294
#
# Static dielectric constant tensor:
#      x y z
#    x 1.646480 0.000000 0.000000 
#    y 0.000000 1.610590 0.000000 
#    z 0.000000 0.000000 1.610850 
# 
# From -- ./inp_files/30443.got.cif
#   From: 2010.05.17/outbox.cif.g08.bks.cpg/sg59_16_cif.got.tgz:30443.got - 2010.06.03 14:40:33.
