data_PCOD9450557
_publ_section_title
;
Structure prediction by ZEFSAII (Michael W. Deem and Ramdas Pophale) SiO2 
 PCOD9450557
Probable space group: P M M N
;
_chemical_formula_sum "Si O2"
_cell_formula_units_Z 64
_cell_length_a 14.776591
_cell_length_b 8.664717
_cell_length_c 24.915005
_cell_angle_alpha 90.000000
_cell_angle_beta 90.000000
_cell_angle_gamma 90.000000
_cell_volume 3189.992148
_symmetry_space_group_name_H-M "P M M N"
_symmetry_group_IT_number 59
_space_group.IT_coordinate_system_code '2'
_symmetry_cell_setting 'orthorhombic'
loop_
_space_group_symop_operation_xyz
x,y,z
1/2-x,1/2-y,z
1/2+x,-y,-z
-x,1/2+y,-z
-x,-y,-z
1/2+x,1/2+y,-z
1/2-x,y,z
x,1/2-y,z
loop_
_atom_site_type_symbol
_atom_site_label
_atom_site_fract_x
_atom_site_fract_y
_atom_site_fract_z
Si Si1 0.852044 0.072728 0.614724
Si Si2 0.354371 0.432453 0.090755
Si Si3 0.961990 0.931262 0.124439
Si Si4 0.152055 0.068112 0.269342
Si Si5 0.643338 0.071911 0.024770
Si Si6 0.855069 0.438414 0.347108
Si Si7 0.984459 0.071019 0.441774
Si Si8 0.549328 0.065882 0.235622
O O1 0.750000 0.053997 0.593694
O O2 0.880325 0.250000 0.605400
O O3 0.849224 0.035699 0.677684
O O4 0.921640 0.955927 0.588853
O O5 0.250000 0.478621 0.101733
O O6 0.362858 0.250000 0.101593
O O7 0.432201 0.522426 0.121896
O O8 0.371292 0.467928 0.027777
O O9 0.951744 0.750000 0.117307
O O10 0.914232 0.018160 0.075268
O O11 0.920489 0.983741 0.181285
O O12 0.250000 0.044618 0.241612
O O13 0.149277 0.250000 0.285100
O O14 0.058545 0.039091 0.239798
O O15 0.750000 0.062999 0.037986
O O16 0.621940 0.250000 0.010985
O O17 0.750000 0.483685 0.347446
O O18 0.859130 0.250000 0.347652
O O19 0.908612 0.492757 0.400349
O O20 0.904258 0.485394 0.291507
O O21 0.963766 0.250000 0.449427
O O22 0.000000 0.000000 0.500000
O O23 0.564369 0.250000 0.230469
#
# Coordination Sequence:
#
# PCOD9450557 Si02
#       8
#     8   8   8   8   8   8   8   8
#     4  10  20  34  55  83 114 148 186 231 284 343
#     4  10  21  39  63  89 119 157 200 248 302 360
#     4  12  25  38  56  86 124 161 198 247 302 358
#     4   9  17  32  56  83 109 140 182 233 288 346
#     4  10  21  39  63  88 116 154 201 252 304 360
#     4   9  19  38  63  87 114 152 197 242 290 348
#     4  11  22  38  60  89 120 154 194 241 297 353
#     4  10  20  37  58  83 113 152 202 246 293 352
#
# _framework density 20.062745
#
# number of rings (size 3 to 8) (size 9 to 14) (size 15 to 20)
#    0.000    1.875    1.250    3.000    0.000    4.250 
#    0.000    3.750    0.000    2.625    0.000    0.000 
#    0.000    0.000    0.000    0.000    0.000    0.000 
#
# Total GULP energy -357257.324564 kJ/mol
# GULP energy per Si atom -5582.145696 kJ/mol
# Density = 2.001708 g / cm^3
# Si number density = 20.062745 Si / 1000 Ang^3
#
#
#
# Elastic Constant Matrix: (Units=GPa)
#
#
# Indices 1 2 3 4 5 6 
#
# 1 69.4078 12.2069 33.4658 0.0000 0.0000 0.0000
# 2 12.2069 16.8666 5.7637 0.0000 0.0000 0.0000
# 3 33.4658 5.7637 85.7267 0.0000 0.0000 0.0000
# 4 0.0000 0.0000 0.0000 29.7355 0.0000 0.0000
# 5 0.0000 0.0000 0.0000 0.0000 0.1021 0.0000
# 6 0.0000 0.0000 0.0000 0.0000 0.0000 19.4532
#
#
#
# Elastic Compliance Matrix: (Units=1/GPa)
#
#
# Indices 1 2 3 4 5 6 
#
# 1 0.019870 -0.012006 -0.006950 0.000000 0.000000 0.000000
# 2 -0.012006 0.067937 0.000119 0.000000 0.000000 0.000000
# 3 -0.006950 0.000119 0.014370 0.000000 0.000000 0.000000
# 4 0.000000 0.000000 0.000000 0.033630 0.000000 0.000000
# 5 0.000000 0.000000 0.000000 0.000000 9.790555 0.000000
# 6 0.000000 0.000000 0.000000 0.000000 0.000000 0.051405
#
#
# Mechanical properties :
#
#
# Convention : Reuss Voigt Hill
#
# Bulk Modulus (GPa) = 15.50280 30.54153 23.02217
# Shear Modulus (GPa) = 0.49816 17.89582 9.19699
#
# Velocity S-wave (km/s) = 0.49884 2.98986 2.14338
# Velocity P-wave (km/s) = 2.84178 5.21298 4.19826
#
# Compressibility (1/GPa) = 0.06450446
#
# Stress axis : x y z
#
# Youngs Moduli (GPa) = 50.32744 14.71956 69.58980
#
# Poissons Ratio (x) = 0.17672 0.48362
# Poissons Ratio (y) = 0.60421 -0.00829
# Poissons Ratio (z) = 0.34975 -0.00175
#
# Static dielectric constant tensor:
#      x y z
#    x 1.738240 0.000000 0.000000 
#    y 0.000000 1.681570 0.000000 
#    z 0.000000 0.000000 1.717000 
# 
# From -- ./inp_files/32117.got.cif
#   From: 2010.05.17/outbox.cif.g08.bks.cpg/sg59_17_cif.got.tgz:32117.got - 2010.06.03 14:40:33.
