data_PCOD9450055
_publ_section_title
;
Structure prediction by ZEFSAII (Michael W. Deem and Ramdas Pophale) SiO2 
 PCOD9450055
Probable space group: P M M N
;
_chemical_formula_sum "Si O2"
_cell_formula_units_Z 58
_cell_length_a 14.430041
_cell_length_b 22.454729
_cell_length_c 9.308995
_cell_angle_alpha 90.000000
_cell_angle_beta 90.000000
_cell_angle_gamma 90.000000
_cell_volume 3016.325323
_symmetry_space_group_name_H-M "P M M N"
_symmetry_group_IT_number 59
_space_group.IT_coordinate_system_code '2'
_symmetry_cell_setting 'orthorhombic'
loop_
_space_group_symop_operation_xyz
x,y,z
1/2-x,1/2-y,z
1/2+x,-y,-z
-x,1/2+y,-z
-x,-y,-z
1/2+x,1/2+y,-z
1/2-x,y,z
x,1/2-y,z
loop_
_atom_site_type_symbol
_atom_site_label
_atom_site_fract_x
_atom_site_fract_y
_atom_site_fract_z
Si Si1 0.639751 0.680118 0.104213
Si Si2 0.148609 0.873089 0.047081
Si Si3 0.019313 0.119098 0.141421
Si Si4 0.857244 0.642295 0.421905
Si Si5 0.029818 0.815043 0.576970
Si Si6 0.139671 0.902279 0.372865
Si Si7 0.640577 0.959972 0.647092
Si Si8 0.750000 0.250000 0.995563
O O1 0.750000 0.676833 0.077216
O O2 0.615645 0.750000 0.122611
O O3 0.620959 0.645825 0.253562
O O4 0.584781 0.651195 0.973754
O O5 0.250000 0.903664 0.034211
O O6 0.119698 0.877862 0.213246
O O7 0.170615 0.803920 0.010789
O O8 0.071482 0.901200 0.945495
O O9 0.076863 0.070225 0.231326
O O10 0.983377 0.165750 0.259802
O O11 0.750000 0.660704 0.438887
O O12 0.868333 0.578764 0.501188
O O13 0.928402 0.683851 0.505523
O O14 0.072927 0.750000 0.563524
O O15 0.087906 0.863885 0.491245
O O16 0.250000 0.897060 0.395134
O O17 0.114697 0.971724 0.378005
O O18 0.750000 0.957537 0.688350
#
# Coordination Sequence:
#
# PCOD9450055 Si02
#       8
#     8   8   8   8   8   8   8   2
#     4  10  20  33  55  85 117 151 193 235 283 350
#     4   9  21  36  59  83 113 158 197 238 294 345
#     4  11  22  37  57  87 121 157 188 240 298 356
#     4   9  19  37  58  84 114 156 193 239 289 346
#     4  11  24  35  57  89 115 147 192 242 304 359
#     4  10  22  42  62  86 113 155 205 251 296 348
#     4   9  20  40  64  85 120 157 198 246 298 353
#     4   8  20  36  60  82 118 160 200 242 286 368
#
# _framework density 19.228694999999998
#
# number of rings (size 3 to 8) (size 9 to 14) (size 15 to 20)
#    0.414    1.793    0.000    2.069    2.897    4.966 
#    0.000    1.379    0.000    5.793    0.000    0.000 
#    0.000    0.000    0.000    0.000    0.000    0.000 
#
# Total GULP energy -323035.753033 kJ/mol
# GULP energy per Si atom -5569.581949 kJ/mol
# Density = 1.918493 g / cm^3
# Si number density = 19.228695 Si / 1000 Ang^3
#
#
#
# Elastic Constant Matrix: (Units=GPa)
#
#
# Indices 1 2 3 4 5 6 
#
# 1 63.1641 20.2926 47.9078 0.0000 0.0000 0.0000
# 2 20.2926 38.9629 7.5579 0.0000 0.0000 0.0000
# 3 47.9078 7.5579 117.4745 0.0000 0.0000 0.0000
# 4 0.0000 0.0000 0.0000 0.7200 0.0000 0.0000
# 5 0.0000 0.0000 0.0000 0.0000 29.6488 0.0000
# 6 0.0000 0.0000 0.0000 0.0000 0.0000 5.7409
#
#
#
# Elastic Compliance Matrix: (Units=1/GPa)
#
#
# Indices 1 2 3 4 5 6 
#
# 1 0.027833 -0.012450 -0.010550 0.000000 0.000000 0.000000
# 2 -0.012450 0.031558 0.003047 0.000000 0.000000 0.000000
# 3 -0.010550 0.003047 0.012619 0.000000 0.000000 0.000000
# 4 0.000000 0.000000 0.000000 1.388961 0.000000 0.000000
# 5 0.000000 0.000000 0.000000 0.000000 0.033728 0.000000
# 6 0.000000 0.000000 0.000000 0.000000 0.000000 0.174187
#
#
# Mechanical properties :
#
#
# Convention : Reuss Voigt Hill
#
# Bulk Modulus (GPa) = 31.14767 41.23534 36.19151
# Shear Modulus (GPa) = 2.90783 16.81149 9.85966
#
# Velocity S-wave (km/s) = 1.23106 2.96005 2.26687
# Velocity P-wave (km/s) = 4.27252 5.75967 5.07091
#
# Compressibility (1/GPa) = 0.03210513
#
# Stress axis : x y z
#
# Youngs Moduli (GPa) = 35.92841 31.68727 79.24660
#
# Poissons Ratio (x) = 0.39449 0.83604
# Poissons Ratio (y) = 0.44729 -0.24145
# Poissons Ratio (z) = 0.37904 -0.09654
#
# Static dielectric constant tensor:
#      x y z
#    x 1.705500 0.000000 0.000000 
#    y 0.000000 1.659780 0.000000 
#    z 0.000000 0.000000 1.648610 
# 
# From -- ./inp_files/9513.got.cif
#   From: 2010.05.17/outbox.cif.g08.bks.cpg/sg59_5_cif.got.tgz:9513.got - 2010.06.03 14:40:33.
