data_PCOD9450180
_publ_section_title
;
Structure prediction by ZEFSAII (Michael W. Deem and Ramdas Pophale) SiO2 
 PCOD9450180
Probable space group: P M M N
;
_chemical_formula_sum "Si O2"
_cell_formula_units_Z 56
_cell_length_a 9.097354
_cell_length_b 13.968181
_cell_length_c 24.335003
_cell_angle_alpha 90.000000
_cell_angle_beta 90.000000
_cell_angle_gamma 90.000000
_cell_volume 3092.333694
_symmetry_space_group_name_H-M "P M M N"
_symmetry_group_IT_number 59
_space_group.IT_coordinate_system_code '2'
_symmetry_cell_setting 'orthorhombic'
loop_
_space_group_symop_operation_xyz
x,y,z
1/2-x,1/2-y,z
1/2+x,-y,-z
-x,1/2+y,-z
-x,-y,-z
1/2+x,1/2+y,-z
1/2-x,y,z
x,1/2-y,z
loop_
_atom_site_type_symbol
_atom_site_label
_atom_site_fract_x
_atom_site_fract_y
_atom_site_fract_z
Si Si1 0.071235 0.141567 0.353827
Si Si2 0.419147 0.366964 0.475491
Si Si3 0.425316 0.550652 0.083778
Si Si4 0.425088 0.359042 0.021877
Si Si5 0.927903 0.452213 0.701518
Si Si6 0.420471 0.865171 0.414349
Si Si7 0.074358 0.363381 0.808860
O O1 0.250000 0.143889 0.357415
O O2 0.021118 0.250000 0.343382
O O3 0.021578 0.108394 0.414793
O O4 0.034742 0.063815 0.308046
O O5 0.250000 0.397099 0.479495
O O6 0.420907 0.250000 0.475526
O O7 0.502665 0.399091 0.529923
O O8 0.250000 0.562347 0.088724
O O9 0.456622 0.440168 0.067226
O O10 0.504034 0.583927 0.138938
O O11 0.486410 0.612600 0.032751
O O12 0.250000 0.365402 0.009680
O O13 0.457349 0.250000 0.038463
O O14 0.750000 0.442462 0.706721
O O15 0.974984 0.402439 0.644293
O O16 0.005195 0.405736 0.753388
O O17 0.250000 0.892949 0.417544
O O18 0.430038 0.750000 0.413519
O O19 0.250000 0.375282 0.808867
O O20 0.042007 0.250000 0.812354
#
# Coordination Sequence:
#
# PCOD9450180 Si02
#       7
#     8   8   8   8   8   8   8
#     4   8  15  30  51  73  96 124 162 208 255 305
#     4   8  14  26  45  67  92 124 159 194 240 304
#     4  10  20  34  56  85 113 145 185 220 252 297
#     4   9  18  34  56  84 119 152 179 213 257 300
#     4  10  20  34  53  74  96 128 171 214 255 302
#     4   9  17  28  42  65  97 126 155 200 255 303
#     4  11  24  40  56  75 103 138 173 212 259 308
#
# _framework density 18.109300999999999
#
# number of rings (size 3 to 8) (size 9 to 14) (size 15 to 20)
#    0.000    2.714    0.000    2.571    0.000    5.429 
#    0.000    2.857    0.000    5.571    0.000    0.000 
#    0.000    0.000    0.000    0.000    0.000    0.000 
#
# Total GULP energy -312378.733326 kJ/mol
# GULP energy per Si atom -5578.191667 kJ/mol
# Density = 1.806808 g / cm^3
# Si number density = 18.109301 Si / 1000 Ang^3
#
#
#
# Elastic Constant Matrix: (Units=GPa)
#
#
# Indices 1 2 3 4 5 6 
#
# 1 43.4370 49.5159 58.8603 0.0000 0.0000 0.0000
# 2 49.5159 121.6980 82.0019 0.0000 0.0000 0.0000
# 3 58.8603 82.0019 143.3439 0.0000 0.0000 0.0000
# 4 0.0000 0.0000 0.0000 24.6275 0.0000 0.0000
# 5 0.0000 0.0000 0.0000 0.0000 20.7168 0.0000
# 6 0.0000 0.0000 0.0000 0.0000 0.0000 17.4949
#
#
#
# Elastic Compliance Matrix: (Units=1/GPa)
#
#
# Indices 1 2 3 4 5 6 
#
# 1 0.062850 -0.013315 -0.018190 0.000000 0.000000 0.000000
# 2 -0.013315 0.016192 -0.003795 0.000000 0.000000 0.000000
# 3 -0.018190 -0.003795 0.016617 0.000000 0.000000 0.000000
# 4 0.000000 0.000000 0.000000 0.040605 0.000000 0.000000
# 5 0.000000 0.000000 0.000000 0.000000 0.048270 0.000000
# 6 0.000000 0.000000 0.000000 0.000000 0.000000 0.057160
#
#
# Mechanical properties :
#
#
# Convention : Reuss Voigt Hill
#
# Bulk Modulus (GPa) = 39.90935 76.58167 58.24551
# Shear Modulus (GPa) = 15.59345 20.44121 18.01733
#
# Velocity S-wave (km/s) = 2.93759 3.36336 3.15766
# Velocity P-wave (km/s) = 5.79584 7.58046 6.74741
#
# Compressibility (1/GPa) = 0.02505679
#
# Stress axis : x y z
#
# Youngs Moduli (GPa) = 15.91097 61.75879 60.17976
#
# Poissons Ratio (x) = 0.82232 1.09470
# Poissons Ratio (y) = 0.21185 0.22841
# Poissons Ratio (z) = 0.28943 0.23440
#
# Static dielectric constant tensor:
#      x y z
#    x 1.608630 0.000000 0.000000 
#    y 0.000000 1.668780 0.000000 
#    z 0.000000 0.000000 1.590980 
# 
# From -- ./inp_files/29108.got.cif
#   From: 2010.05.17/outbox.cif.g08.bks.cpg/sg59_15_cif.got.tgz:29108.got - 2010.06.03 14:40:33.
