data_PCOD9450951
_publ_section_title
;
Structure prediction by ZEFSAII (Michael W. Deem and Ramdas Pophale) SiO2 
 PCOD9450951
Probable space group: P M M N
;
_chemical_formula_sum "Si O2"
_cell_formula_units_Z 64
_cell_length_a 11.040877
_cell_length_b 18.195284
_cell_length_c 15.873066
_cell_angle_alpha 90.000000
_cell_angle_beta 90.000000
_cell_angle_gamma 90.000000
_cell_volume 3188.770270
_symmetry_space_group_name_H-M "P M M N"
_symmetry_group_IT_number 59
_space_group.IT_coordinate_system_code '2'
_symmetry_cell_setting 'orthorhombic'
loop_
_space_group_symop_operation_xyz
x,y,z
1/2-x,1/2-y,z
1/2+x,-y,-z
-x,1/2+y,-z
-x,-y,-z
1/2+x,1/2+y,-z
1/2-x,y,z
x,1/2-y,z
loop_
_atom_site_type_symbol
_atom_site_label
_atom_site_fract_x
_atom_site_fract_y
_atom_site_fract_z
Si Si1 0.890789 0.423378 0.327829
Si Si2 0.387661 0.661233 0.495941
Si Si3 0.527863 0.334645 0.777352
Si Si4 0.891563 0.169887 0.165623
Si Si5 0.882402 0.836913 0.384847
Si Si6 0.616660 0.489934 0.747934
Si Si7 0.379912 0.166292 0.940867
Si Si8 0.455164 0.445213 0.071870
O O1 0.750000 0.450715 0.316360
O O2 0.898944 0.387029 0.419597
O O3 0.908684 0.357379 0.260934
O O4 0.999812 0.479575 0.304183
O O5 0.250000 0.649940 0.462141
O O6 0.397116 0.750000 0.512220
O O7 0.498318 0.638039 0.435456
O O8 0.572491 0.250000 0.769384
O O9 0.414493 0.341582 0.713614
O O10 0.612266 0.401662 0.751434
O O11 0.483179 0.348084 0.872387
O O12 0.750000 0.176211 0.151294
O O13 0.948478 0.250000 0.151649
O O14 0.937726 0.105141 0.107278
O O15 0.750000 0.869992 0.404238
O O16 0.874962 0.750000 0.404081
O O17 0.750000 0.514403 0.717060
O O18 0.600927 0.518015 0.844913
O O19 0.250000 0.160395 0.896188
O O20 0.394424 0.250000 0.969390
O O21 0.377980 0.112776 0.019338
O O22 0.500000 0.500000 0.000000
#
# Coordination Sequence:
#
# PCOD9450951 Si02
#       8
#     8   8   8   8   8   8   8   8
#     4   9  19  36  59  86 117 156 193 230 280 347
#     4   9  17  32  58  90 122 155 193 236 285 343
#     4  10  21  39  59  81 109 148 194 238 287 342
#     4   9  18  33  55  81 108 143 191 238 276 325
#     4   9  18  33  56  87 119 150 191 242 291 340
#     4  11  24  40  58  86 118 151 190 241 296 347
#     4  10  20  35  57  81 107 145 193 238 279 335
#     4  11  21  37  54  79 114 153 184 232 288 349
#
# _framework density 20.070433000000001
#
# number of rings (size 3 to 8) (size 9 to 14) (size 15 to 20)
#    0.000    2.250    1.250    1.500    0.000    6.250 
#    0.000    1.875    0.000    7.125    0.000    0.000 
#    0.000    0.000    0.000    0.000    0.000    0.000 
#
# Total GULP energy -356424.934553 kJ/mol
# GULP energy per Si atom -5569.139602 kJ/mol
# Density = 2.002475 g / cm^3
# Si number density = 20.070433 Si / 1000 Ang^3
#
#
#
# Elastic Constant Matrix: (Units=GPa)
#
#
# Indices 1 2 3 4 5 6 
#
# 1 115.7575 40.8222 36.7745 0.0000 0.0000 0.0000
# 2 40.8222 80.6366 23.2808 0.0000 0.0000 0.0000
# 3 36.7745 23.2808 76.4920 0.0000 0.0000 0.0000
# 4 0.0000 0.0000 0.0000 23.4663 0.0000 0.0000
# 5 0.0000 0.0000 0.0000 0.0000 14.1357 0.0000
# 6 0.0000 0.0000 0.0000 0.0000 0.0000 63.9691
#
#
#
# Elastic Compliance Matrix: (Units=1/GPa)
#
#
# Indices 1 2 3 4 5 6 
#
# 1 0.011609 -0.004677 -0.004158 0.000000 0.000000 0.000000
# 2 -0.004677 0.015480 -0.002463 0.000000 0.000000 0.000000
# 3 -0.004158 -0.002463 0.015822 0.000000 0.000000 0.000000
# 4 0.000000 0.000000 0.000000 0.042614 0.000000 0.000000
# 5 0.000000 0.000000 0.000000 0.000000 0.070743 0.000000
# 6 0.000000 0.000000 0.000000 0.000000 0.000000 0.015633
#
#
# Mechanical properties :
#
#
# Convention : Reuss Voigt Hill
#
# Bulk Modulus (GPa) = 49.22286 52.73790 50.98038
# Shear Modulus (GPa) = 24.84265 31.78149 28.31207
#
# Velocity S-wave (km/s) = 3.52202 3.98364 3.75992
# Velocity P-wave (km/s) = 6.41231 6.89149 6.65621
#
# Compressibility (1/GPa) = 0.02031576
#
# Stress axis : x y z
#
# Youngs Moduli (GPa) = 86.14154 64.59977 63.20395
#
# Poissons Ratio (x) = 0.30210 0.26279
# Poissons Ratio (y) = 0.40285 0.15568
# Poissons Ratio (z) = 0.35815 0.15911
#
# Static dielectric constant tensor:
#      x y z
#    x 1.753870 0.000000 0.000000 
#    y 0.000000 1.706000 0.000000 
#    z 0.000000 0.000000 1.692810 
# 
# From -- ./inp_files/22710.got.cif
#   From: 2010.05.17/outbox.cif.g08.bks.cpg/sg59_12_cif.got.tgz:22710.got - 2010.06.03 14:40:33.
