data_PCOD9450735
_publ_section_title
;
Structure prediction by ZEFSAII (Michael W. Deem and Ramdas Pophale) SiO2 
 PCOD9450735
Probable space group: P M M N
;
_chemical_formula_sum "Si O2"
_cell_formula_units_Z 64
_cell_length_a 32.272194
_cell_length_b 8.089184
_cell_length_c 12.574338
_cell_angle_alpha 90.000000
_cell_angle_beta 90.000000
_cell_angle_gamma 90.000000
_cell_volume 3282.602802
_symmetry_space_group_name_H-M "P M M N"
_symmetry_group_IT_number 59
_space_group.IT_coordinate_system_code '2'
_symmetry_cell_setting 'orthorhombic'
loop_
_space_group_symop_operation_xyz
x,y,z
1/2-x,1/2-y,z
1/2+x,-y,-z
-x,1/2+y,-z
-x,-y,-z
1/2+x,1/2+y,-z
1/2-x,y,z
x,1/2-y,z
loop_
_atom_site_type_symbol
_atom_site_label
_atom_site_fract_x
_atom_site_fract_y
_atom_site_fract_z
Si Si1 0.547828 0.552647 0.484603
Si Si2 0.374921 0.946182 0.376399
Si Si3 0.367821 0.452516 0.909551
Si Si4 0.296953 0.050173 0.752032
Si Si5 0.609734 0.550154 0.857862
Si Si6 0.485483 0.051926 0.117358
Si Si7 0.938672 0.946185 0.250519
Si Si8 0.297457 0.551718 0.513461
O O1 0.500000 0.500000 0.500000
O O2 0.547101 0.750000 0.479328
O O3 0.581431 0.506712 0.574116
O O4 0.563835 0.485958 0.370021
O O5 0.375030 0.750000 0.389575
O O6 0.334475 0.013156 0.439013
O O7 0.371945 0.987912 0.252239
O O8 0.369252 0.250000 0.912270
O O9 0.327502 0.503969 0.844634
O O10 0.406666 0.510542 0.838001
O O11 0.369981 0.507126 0.031479
O O12 0.250000 0.996608 0.772074
O O13 0.298068 0.250000 0.748282
O O14 0.308905 0.987713 0.635334
O O15 0.611026 0.750000 0.856010
O O16 0.561613 0.499631 0.864234
O O17 0.487551 0.250000 0.124726
O O18 0.515826 0.975912 0.204381
O O19 0.500000 0.000000 0.000000
O O20 0.930836 0.750000 0.257278
O O21 0.250000 0.489001 0.495013
O O22 0.295671 0.750000 0.501005
#
# Coordination Sequence:
#
# PCOD9450735 Si02
#       8
#     8   8   8   8   8   8   8   8
#     4  11  23  38  58  82 113 149 186 229 279 335
#     4  11  23  38  57  81 112 148 191 237 283 336
#     4   9  17  33  53  75 105 136 170 214 267 319
#     4   9  17  31  56  86 110 135 172 220 273 331
#     4  10  21  37  55  74 105 147 185 224 273 326
#     4  11  21  34  53  76 104 140 180 222 265 315
#     4  10  20  35  54  76 102 137 178 219 266 317
#     4   9  19  37  59  82 111 146 182 226 282 338
#
# _framework density 19.496722999999999
#
# number of rings (size 3 to 8) (size 9 to 14) (size 15 to 20)
#    0.000    2.000    1.250    2.625    0.000    6.000 
#    0.000    1.875    0.000    0.750    0.000    0.000 
#    0.000    0.000    0.000    0.000    0.000    0.000 
#
# Total GULP energy -357263.480386 kJ/mol
# GULP energy per Si atom -5582.241881 kJ/mol
# Density = 1.945235 g / cm^3
# Si number density = 19.496723 Si / 1000 Ang^3
#
#
#
# Elastic Constant Matrix: (Units=GPa)
#
#
# Indices 1 2 3 4 5 6 
#
# 1 116.8722 6.6472 90.3988 0.0000 0.0000 0.0000
# 2 6.6472 9.4504 9.8510 0.0000 0.0000 0.0000
# 3 90.3988 9.8510 162.9783 0.0000 0.0000 0.0000
# 4 0.0000 0.0000 0.0000 18.1686 0.0000 0.0000
# 5 0.0000 0.0000 0.0000 0.0000 36.1392 0.0000
# 6 0.0000 0.0000 0.0000 0.0000 0.0000 15.5975
#
#
#
# Elastic Compliance Matrix: (Units=1/GPa)
#
#
# Indices 1 2 3 4 5 6 
#
# 1 0.015021 -0.002007 -0.008210 0.000000 0.000000 0.000000
# 2 -0.002007 0.113199 -0.005729 0.000000 0.000000 0.000000
# 3 -0.008210 -0.005729 0.011036 0.000000 0.000000 0.000000
# 4 0.000000 0.000000 0.000000 0.055040 0.000000 0.000000
# 5 0.000000 0.000000 0.000000 0.000000 0.027671 0.000000
# 6 0.000000 0.000000 0.000000 0.000000 0.000000 0.064113
#
#
# Mechanical properties :
#
#
# Convention : Reuss Voigt Hill
#
# Bulk Modulus (GPa) = 9.31417 55.89943 32.60680
# Shear Modulus (GPa) = 14.13385 26.14131 20.13758
#
# Velocity S-wave (km/s) = 2.69538 3.66567 3.21732
# Velocity P-wave (km/s) = 3.80453 6.83005 5.52830
#
# Compressibility (1/GPa) = 0.10736335
#
# Stress axis : x y z
#
# Youngs Moduli (GPa) = 66.57283 8.83401 90.61163
#
# Poissons Ratio (x) = 0.01773 0.74396
# Poissons Ratio (y) = 0.13362 0.51910
# Poissons Ratio (z) = 0.54659 0.05061
#
# Static dielectric constant tensor:
#      x y z
#    x 1.692960 0.000000 0.000000 
#    y 0.000000 1.685660 0.000000 
#    z 0.000000 0.000000 1.677950 
# 
# From -- ./inp_files/19242.got.cif
#   From: 2010.05.17/outbox.cif.g08.bks.cpg/sg59_10_cif.got.tgz:19242.got - 2010.06.03 14:40:33.
