data_PCOD9450233
_publ_section_title
;
Structure prediction by ZEFSAII (Michael W. Deem and Ramdas Pophale) SiO2 
 PCOD9450233
Probable space group: P M M N
;
_chemical_formula_sum "Si O2"
_cell_formula_units_Z 48
_cell_length_a 14.657043
_cell_length_b 8.208533
_cell_length_c 21.960730
_cell_angle_alpha 90.000000
_cell_angle_beta 90.000000
_cell_angle_gamma 90.000000
_cell_volume 2642.157381
_symmetry_space_group_name_H-M "P M M N"
_symmetry_group_IT_number 59
_space_group.IT_coordinate_system_code '2'
_symmetry_cell_setting 'orthorhombic'
loop_
_space_group_symop_operation_xyz
x,y,z
1/2-x,1/2-y,z
1/2+x,-y,-z
-x,1/2+y,-z
-x,-y,-z
1/2+x,1/2+y,-z
1/2-x,y,z
x,1/2-y,z
loop_
_atom_site_type_symbol
_atom_site_label
_atom_site_fract_x
_atom_site_fract_y
_atom_site_fract_z
Si Si1 0.146167 0.055211 0.666779
Si Si2 0.002262 0.944709 0.569352
Si Si3 0.000522 0.553650 0.764269
Si Si4 0.353893 0.053254 0.001488
Si Si5 0.854075 0.550928 0.666530
Si Si6 0.994526 0.447030 0.097194
O O1 0.250000 0.993721 0.666447
O O2 0.148115 0.250000 0.669303
O O3 0.090158 0.004883 0.606723
O O4 0.088304 0.993428 0.724433
O O5 0.002896 0.750000 0.571199
O O6 0.913575 0.000381 0.607992
O O7 0.000000 0.000000 0.500000
O O8 0.996890 0.750000 0.766258
O O9 0.003443 0.493370 0.833448
O O10 0.912016 0.498962 0.725715
O O11 0.250000 0.994228 0.004958
O O12 0.352213 0.250000 0.003115
O O13 0.418062 0.997727 0.057467
O O14 0.405532 0.000845 0.940143
O O15 0.750000 0.494171 0.665925
O O16 0.852403 0.750000 0.666679
O O17 0.995960 0.250000 0.098141
#
# Coordination Sequence:
#
# PCOD9450233 Si02
#       6
#     8   8   8   8   8   8
#     4  10  21  36  53  73  99 133 171 209 249 294
#     4  10  20  34  53  77 104 134 167 204 248 295
#     4   9  18  32  51  74  98 126 161 203 252 301
#     4   9  18  32  49  70  97 129 165 203 242 289
#     4   8  15  29  49  72  96 122 155 196 240 288
#     4   9  18  32  49  71  98 127 161 202 248 297
#
# _framework density 18.166972000000001
#
# number of rings (size 3 to 8) (size 9 to 14) (size 15 to 20)
#    0.000    2.833    0.000    2.000    0.000    4.333 
#    0.000    8.333    0.000   12.000    0.000    7.000 
#    0.000    0.000    0.000    0.000    0.000    0.000 
#
# Total GULP energy -267638.094335 kJ/mol
# GULP energy per Si atom -5575.793632 kJ/mol
# Density = 1.812562 g / cm^3
# Si number density = 18.166972 Si / 1000 Ang^3
#
#
#
# Elastic Constant Matrix: (Units=GPa)
#
#
# Indices 1 2 3 4 5 6 
#
# 1 191.2856 9.2354 97.1941 0.0000 0.0000 0.0000
# 2 9.2354 9.7706 9.7178 0.0000 0.0000 0.0000
# 3 97.1941 9.7178 188.2574 0.0000 0.0000 0.0000
# 4 0.0000 0.0000 0.0000 26.8178 0.0000 0.0000
# 5 0.0000 0.0000 0.0000 0.0000 6.0004 0.0000
# 6 0.0000 0.0000 0.0000 0.0000 0.0000 17.4836
#
#
#
# Elastic Compliance Matrix: (Units=1/GPa)
#
#
# Indices 1 2 3 4 5 6 
#
# 1 0.007185 -0.003270 -0.003541 0.000000 0.000000 0.000000
# 2 -0.003270 0.109375 -0.003958 0.000000 0.000000 0.000000
# 3 -0.003541 -0.003958 0.007344 0.000000 0.000000 0.000000
# 4 0.000000 0.000000 0.000000 0.037289 0.000000 0.000000
# 5 0.000000 0.000000 0.000000 0.000000 0.166656 0.000000
# 6 0.000000 0.000000 0.000000 0.000000 0.000000 0.057196
#
#
# Mechanical properties :
#
#
# Convention : Reuss Voigt Hill
#
# Bulk Modulus (GPa) = 9.76873 69.06758 39.41815
# Shear Modulus (GPa) = 11.34550 28.27144 19.80847
#
# Velocity S-wave (km/s) = 2.50174 3.94915 3.30564
# Velocity P-wave (km/s) = 3.70591 7.67432 6.02615
#
# Compressibility (1/GPa) = 0.10236746
#
# Stress axis : x y z
#
# Youngs Moduli (GPa) = 139.18617 9.14288 136.16394
#
# Poissons Ratio (x) = 0.02989 0.48209
# Poissons Ratio (y) = 0.45509 0.53891
# Poissons Ratio (z) = 0.49279 0.03619
#
# Static dielectric constant tensor:
#      x y z
#    x 1.615070 0.000000 0.000000 
#    y 0.000000 1.642920 0.000000 
#    z 0.000000 0.000000 1.578070 
# 
# From -- ./inp_files/30200.got.cif
#   From: 2010.05.17/outbox.cif.g08.bks.cpg/sg59_16_cif.got.tgz:30200.got - 2010.06.03 14:40:33.
