data_PCOD9450008
_publ_section_title
;
Structure prediction by ZEFSAII (Michael W. Deem and Ramdas Pophale) SiO2 
 PCOD9450008
Probable space group: P M M N
;
_chemical_formula_sum "Si O2"
_cell_formula_units_Z 48
_cell_length_a 20.232868
_cell_length_b 22.695294
_cell_length_c 5.689020
_cell_angle_alpha 90.000000
_cell_angle_beta 90.000000
_cell_angle_gamma 90.000000
_cell_volume 2612.346144
_symmetry_space_group_name_H-M "P M M N"
_symmetry_group_IT_number 59
_space_group.IT_coordinate_system_code '2'
_symmetry_cell_setting 'orthorhombic'
loop_
_space_group_symop_operation_xyz
x,y,z
1/2-x,1/2-y,z
1/2+x,-y,-z
-x,1/2+y,-z
-x,-y,-z
1/2+x,1/2+y,-z
1/2-x,y,z
x,1/2-y,z
loop_
_atom_site_type_symbol
_atom_site_label
_atom_site_fract_x
_atom_site_fract_y
_atom_site_fract_z
Si Si1 0.408508 0.606995 0.486251
Si Si2 0.050240 0.377193 0.660827
Si Si3 0.050218 0.318074 0.151927
Si Si4 0.610183 0.184070 0.127709
Si Si5 0.436426 0.504924 0.830237
Si Si6 0.827131 0.068170 0.897863
O O1 0.469966 0.625006 0.326166
O O2 0.376957 0.664236 0.603692
O O3 0.442892 0.563195 0.672974
O O4 0.351200 0.569061 0.369594
O O5 0.066895 0.348878 0.404785
O O6 0.068665 0.445834 0.679455
O O7 0.074462 0.347159 0.905580
O O8 0.071601 0.250000 0.163324
O O9 0.969989 0.317689 0.128482
O O10 0.631235 0.250000 0.067892
O O11 0.646392 0.132336 0.985162
O O12 0.500000 0.500000 0.000000
O O13 0.370355 0.518356 0.975912
O O14 0.750000 0.062251 0.932720
#
# Coordination Sequence:
#
# PCOD9450008 Si02
#       6
#     8   8   8   8   8   8
#     4  10  20  33  53  81 109 144 196 255 298 335
#     4  11  19  33  56  84 110 149 189 233 295 350
#     4  10  20  33  54  86 120 147 183 241 295 340
#     4   9  19  35  52  71 105 156 206 243 278 329
#     4  11  21  36  59  81 108 146 201 249 295 358
#     4  11  23  37  52  77 114 152 194 250 301 346
#
# _framework density 18.374286999999999
#
# number of rings (size 3 to 8) (size 9 to 14) (size 15 to 20)
#    0.000    1.667    3.333    3.000    2.333    4.333 
#    0.000    0.000    0.000    0.000    0.000    0.000 
#    0.000    4.000    0.000    0.000    0.000    0.000 
#
# Total GULP energy -267206.108354 kJ/mol
# GULP energy per Si atom -5566.793924 kJ/mol
# Density = 1.833247 g / cm^3
# Si number density = 18.374287 Si / 1000 Ang^3
#
#
#
# Elastic Constant Matrix: (Units=GPa)
#
#
# Indices 1 2 3 4 5 6 
#
# 1 51.6628 20.0112 20.5670 0.0000 0.0000 0.0000
# 2 20.0112 96.3666 41.6121 0.0000 0.0000 0.0000
# 3 20.5670 41.6121 92.5765 0.0000 0.0000 0.0000
# 4 0.0000 0.0000 0.0000 24.1101 0.0000 0.0000
# 5 0.0000 0.0000 0.0000 0.0000 9.9334 0.0000
# 6 0.0000 0.0000 0.0000 0.0000 0.0000 14.9612
#
#
#
# Elastic Compliance Matrix: (Units=1/GPa)
#
#
# Indices 1 2 3 4 5 6 
#
# 1 0.021929 -0.003040 -0.003505 0.000000 0.000000 0.000000
# 2 -0.003040 0.013298 -0.005302 0.000000 0.000000 0.000000
# 3 -0.003505 -0.005302 0.013964 0.000000 0.000000 0.000000
# 4 0.000000 0.000000 0.000000 0.041476 0.000000 0.000000
# 5 0.000000 0.000000 0.000000 0.000000 0.100670 0.000000
# 6 0.000000 0.000000 0.000000 0.000000 0.000000 0.066840
#
#
# Mechanical properties :
#
#
# Convention : Reuss Voigt Hill
#
# Bulk Modulus (GPa) = 39.22145 44.99849 42.10997
# Shear Modulus (GPa) = 17.21941 20.36199 18.79070
#
# Velocity S-wave (km/s) = 3.06461 3.33254 3.20138
# Velocity P-wave (km/s) = 5.82362 6.27303 6.05250
#
# Compressibility (1/GPa) = 0.02549625
#
# Stress axis : x y z
#
# Youngs Moduli (GPa) = 45.60100 75.20092 71.61412
#
# Poissons Ratio (x) = 0.22862 0.25103
# Poissons Ratio (y) = 0.13863 0.37968
# Poissons Ratio (z) = 0.15985 0.39870
#
# Static dielectric constant tensor:
#      x y z
#    x 1.593910 0.000000 0.000000 
#    y 0.000000 1.645430 0.000000 
#    z 0.000000 0.000000 1.814390 
# 
# From -- ./inp_files/2872.got.cif
#   From: 2010.05.17/outbox.cif.g08.bks.cpg/sg59_2_cif.got.tgz:2872.got - 2010.06.03 14:40:33.
