data_PCOD9450782
_publ_section_title
;
Structure prediction by ZEFSAII (Michael W. Deem and Ramdas Pophale) SiO2 
 PCOD9450782
Probable space group: P M M N
;
_chemical_formula_sum "Si O2"
_cell_formula_units_Z 56
_cell_length_a 7.761847
_cell_length_b 15.136792
_cell_length_c 21.939837
_cell_angle_alpha 90.000000
_cell_angle_beta 90.000000
_cell_angle_gamma 90.000000
_cell_volume 2577.699680
_symmetry_space_group_name_H-M "P M M N"
_symmetry_group_IT_number 59
_space_group.IT_coordinate_system_code '2'
_symmetry_cell_setting 'orthorhombic'
loop_
_space_group_symop_operation_xyz
x,y,z
1/2-x,1/2-y,z
1/2+x,-y,-z
-x,1/2+y,-z
-x,-y,-z
1/2+x,1/2+y,-z
1/2-x,y,z
x,1/2-y,z
loop_
_atom_site_type_symbol
_atom_site_label
_atom_site_fract_x
_atom_site_fract_y
_atom_site_fract_z
Si Si1 0.048929 0.654028 0.622608
Si Si2 0.548411 0.349445 0.739110
Si Si3 0.541686 0.650780 0.481866
Si Si4 0.459599 0.149482 0.967769
Si Si5 0.452198 0.465909 0.627159
Si Si6 0.042278 0.348660 0.107187
Si Si7 0.545901 0.963413 0.144962
O O1 0.250000 0.658050 0.640553
O O2 0.971112 0.750000 0.638573
O O3 0.972551 0.561382 0.645325
O O4 0.035796 0.645057 0.549172
O O5 0.750000 0.344282 0.725126
O O6 0.481791 0.250000 0.749127
O O7 0.464106 0.397361 0.681875
O O8 0.526528 0.408852 0.798801
O O9 0.750000 0.643573 0.487701
O O10 0.505373 0.750000 0.458071
O O11 0.475846 0.578231 0.434319
O O12 0.250000 0.146140 0.969226
O O13 0.506733 0.250000 0.949710
O O14 0.521613 0.078874 0.918458
O O15 0.518217 0.135413 0.037267
O O16 0.250000 0.481023 0.614633
O O17 0.250000 0.346972 0.106152
O O18 0.984010 0.250000 0.125632
O O19 0.988346 0.432328 0.146539
O O20 0.750000 0.949962 0.145927
#
# Coordination Sequence:
#
# PCOD9450782 Si02
#       7
#     8   8   8   8   8   8   8
#     4   9  18  32  51  78 110 140 172 212 258 309
#     4  11  25  42  58  78 104 135 175 222 269 321
#     4   9  17  29  48  76 107 138 174 216 263 316
#     4   8  15  29  51  80 111 143 178 216 264 320
#     4  10  20  35  55  77 104 141 180 219 265 312
#     4   9  18  34  55  79 111 147 180 219 266 315
#     4  11  21  34  56  82 109 143 181 222 267 317
#
# _framework density 21.724796999999999
#
# number of rings (size 3 to 8) (size 9 to 14) (size 15 to 20)
#    0.000    2.429    0.000    3.429    0.000    3.714 
#    0.000    2.857    0.000    4.286    0.000    0.000 
#    0.000    0.000    0.000    0.000    0.000    0.000 
#
# Total GULP energy -312583.109058 kJ/mol
# GULP energy per Si atom -5581.841233 kJ/mol
# Density = 2.167535 g / cm^3
# Si number density = 21.724797 Si / 1000 Ang^3
#
#
#
# Elastic Constant Matrix: (Units=GPa)
#
#
# Indices 1 2 3 4 5 6 
#
# 1 32.7090 -1.7752 -13.0040 0.0000 0.0000 0.0000
# 2 -1.7752 139.1755 25.9294 0.0000 0.0000 0.0000
# 3 -13.0040 25.9294 19.6691 0.0000 0.0000 0.0000
# 4 0.0000 0.0000 0.0000 29.6710 0.0000 0.0000
# 5 0.0000 0.0000 0.0000 0.0000 -1.2281 0.0000
# 6 0.0000 0.0000 0.0000 0.0000 0.0000 14.7165
#
#
#
# Elastic Compliance Matrix: (Units=1/GPa)
#
#
# Indices 1 2 3 4 5 6 
#
# 1 0.045741 -0.006695 0.039068 0.000000 0.000000 0.000000
# 2 -0.006695 0.010504 -0.018274 0.000000 0.000000 0.000000
# 3 0.039068 -0.018274 0.100761 0.000000 0.000000 0.000000
# 4 0.000000 0.000000 0.000000 0.033703 0.000000 0.000000
# 5 0.000000 0.000000 0.000000 0.000000 -0.814265 0.000000
# 6 0.000000 0.000000 0.000000 0.000000 0.000000 0.067951
#
#
# Mechanical properties :
#
#
# Convention : Reuss Voigt Hill
#
# Bulk Modulus (GPa) = 5.39948 23.76155 14.58052
# Shear Modulus (GPa) = -9.57732 20.65877 5.54073
#
# Velocity S-wave (km/s) = -2.10191 3.08706 1.59873
# Velocity P-wave (km/s) = 1.84389 4.86496 3.18339
#
# Compressibility (1/GPa) = 0.18520295
#
# Stress axis : x y z
#
# Youngs Moduli (GPa) = 21.86210 95.19826 9.92448
#
# Poissons Ratio (x) = 0.63737 -0.38772
# Poissons Ratio (y) = 0.14637 0.18136
# Poissons Ratio (z) = -0.85410 1.73967
#
# Static dielectric constant tensor:
#      x y z
#    x 1.790950 0.000000 0.000000 
#    y 0.000000 1.853450 0.000000 
#    z 0.000000 0.000000 1.749810 
# 
# From -- ./inp_files/28988.got.cif
#   From: 2010.05.17/outbox.cif.g08.bks.cpg/sg59_15_cif.got.tgz:28988.got - 2010.06.03 14:40:33.
