data_PCOD9450507
_publ_section_title
;
Structure prediction by ZEFSAII (Michael W. Deem and Ramdas Pophale) SiO2 
 PCOD9450507
Probable space group: P M M N
;
_chemical_formula_sum "Si O2"
_cell_formula_units_Z 64
_cell_length_a 7.490759
_cell_length_b 30.174441
_cell_length_c 12.640841
_cell_angle_alpha 90.000000
_cell_angle_beta 90.000000
_cell_angle_gamma 90.000000
_cell_volume 2857.202535
_symmetry_space_group_name_H-M "P M M N"
_symmetry_group_IT_number 59
_space_group.IT_coordinate_system_code '2'
_symmetry_cell_setting 'orthorhombic'
loop_
_space_group_symop_operation_xyz
x,y,z
1/2-x,1/2-y,z
1/2+x,-y,-z
-x,1/2+y,-z
-x,-y,-z
1/2+x,1/2+y,-z
1/2-x,y,z
x,1/2-y,z
loop_
_atom_site_type_symbol
_atom_site_label
_atom_site_fract_x
_atom_site_fract_y
_atom_site_fract_z
Si Si1 0.956728 0.661910 0.530352
Si Si2 0.968371 0.935821 0.520316
Si Si3 0.955114 0.202406 0.264661
Si Si4 0.455313 0.014487 0.678842
Si Si5 0.467371 0.801141 0.068989
Si Si6 0.464513 0.973243 0.892735
Si Si7 0.532189 0.371199 0.109089
Si Si8 0.534971 0.300796 0.692742
O O1 0.750000 0.663004 0.559290
O O2 0.028417 0.612923 0.549837
O O3 0.044913 0.696373 0.609401
O O4 0.971513 0.671519 0.406555
O O5 0.750000 0.937741 0.521005
O O6 0.037362 0.970878 0.604999
O O7 0.030570 0.948912 0.401904
O O8 0.750000 0.204515 0.227892
O O9 0.037962 0.250000 0.236539
O O10 0.026913 0.157782 0.210657
O O11 0.250000 0.027458 0.698278
O O12 0.535269 0.000708 0.791251
O O13 0.250000 0.800242 0.067233
O O14 0.522896 0.750000 0.045230
O O15 0.523507 0.812713 0.188793
O O16 0.522846 0.839309 0.988050
O O17 0.250000 0.970638 0.879441
O O18 0.530493 0.922153 0.894422
O O19 0.500000 0.000000 0.000000
O O20 0.750000 0.373955 0.107771
O O21 0.750000 0.302275 0.692385
O O22 0.479799 0.250000 0.674802
#
# Coordination Sequence:
#
# PCOD9450507 Si02
#       8
#     8   8   8   8   8   8   8   8
#     4  11  22  33  47  71 104 137 167 202 247 299
#     4   9  19  34  52  74  98 128 167 209 251 297
#     4  10  20  34  55  81 106 134 170 211 254 305
#     4   9  18  35  55  73  97 129 166 209 255 299
#     4   8  14  27  49  75 100 125 158 205 255 298
#     4  10  21  35  52  75 104 136 168 207 255 305
#     4   9  17  31  52  78 104 129 163 208 257 306
#     4   9  18  32  49  69  94 126 164 203 240 282
#
# _framework density 22.399531
#
# number of rings (size 3 to 8) (size 9 to 14) (size 15 to 20)
#    0.000    2.625    0.000    2.625    0.000    7.000 
#    0.000    0.625    0.000    0.750    0.000    1.750 
#    0.000    0.000    0.000    0.000    0.000    0.000 
#
# Total GULP energy -357114.044337 kJ/mol
# GULP energy per Si atom -5579.906943 kJ/mol
# Density = 2.234855 g / cm^3
# Si number density = 22.399531 Si / 1000 Ang^3
#
#
#
# Elastic Constant Matrix: (Units=GPa)
#
#
# Indices 1 2 3 4 5 6 
#
# 1 61.4885 0.5865 -7.7635 0.0000 0.0000 0.0000
# 2 0.5865 97.0540 39.0597 0.0000 0.0000 0.0000
# 3 -7.7635 39.0597 120.4663 0.0000 0.0000 0.0000
# 4 0.0000 0.0000 0.0000 -27.6582 0.0000 0.0000
# 5 0.0000 0.0000 0.0000 0.0000 -9.0805 0.0000
# 6 0.0000 0.0000 0.0000 0.0000 0.0000 -8.2001
#
#
#
# Elastic Compliance Matrix: (Units=1/GPa)
#
#
# Indices 1 2 3 4 5 6 
#
# 1 0.016427 -0.000604 0.001255 0.000000 0.000000 0.000000
# 2 -0.000604 0.011872 -0.003888 0.000000 0.000000 0.000000
# 3 0.001255 -0.003888 0.009643 0.000000 0.000000 0.000000
# 4 0.000000 0.000000 0.000000 -0.036156 0.000000 0.000000
# 5 0.000000 0.000000 0.000000 0.000000 -0.110126 0.000000
# 6 0.000000 0.000000 0.000000 0.000000 0.000000 -0.121950
#
#
# Mechanical properties :
#
#
# Convention : Reuss Voigt Hill
#
# Bulk Modulus (GPa) = 31.78008 38.08602 34.93305
# Shear Modulus (GPa) = -23.43840 7.48732 -7.97554
#
# Velocity S-wave (km/s) = -3.23829 1.83027 -1.88900
# Velocity P-wave (km/s) = 0.48644 4.63751 3.29720
#
# Compressibility (1/GPa) = 0.03146626
#
# Stress axis : x y z
#
# Youngs Moduli (GPa) = 60.87401 84.23140 103.70583
#
# Poissons Ratio (x) = 0.05089 -0.13011
# Poissons Ratio (y) = 0.03678 0.40324
# Poissons Ratio (z) = -0.07637 0.32752
#
# Static dielectric constant tensor:
#      x y z
#    x 1.841220 0.000000 0.000000 
#    y 0.000000 1.814130 0.000000 
#    z 0.000000 0.000000 1.833180 
# 
# From -- ./inp_files/14992.got.cif
#   From: 2010.05.17/outbox.cif.g08.bks.cpg/sg59_8_cif.got.tgz:14992.got - 2010.06.03 14:40:33.
