data_PCOD9450594
_publ_section_title
;
Structure prediction by ZEFSAII (Michael W. Deem and Ramdas Pophale) SiO2 
 PCOD9450594
Probable space group: P M M N
;
_chemical_formula_sum "Si O2"
_cell_formula_units_Z 40
_cell_length_a 28.113213
_cell_length_b 11.597590
_cell_length_c 5.256486
_cell_angle_alpha 90.000000
_cell_angle_beta 90.000000
_cell_angle_gamma 90.000000
_cell_volume 1713.853701
_symmetry_space_group_name_H-M "P M M N"
_symmetry_group_IT_number 59
_space_group.IT_coordinate_system_code '2'
_symmetry_cell_setting 'orthorhombic'
loop_
_space_group_symop_operation_xyz
x,y,z
1/2-x,1/2-y,z
1/2+x,-y,-z
-x,1/2+y,-z
-x,-y,-z
1/2+x,1/2+y,-z
1/2-x,y,z
x,1/2-y,z
loop_
_atom_site_type_symbol
_atom_site_label
_atom_site_fract_x
_atom_site_fract_y
_atom_site_fract_z
Si Si1 0.332821 0.619314 0.095719
Si Si2 0.987100 0.872146 0.079246
Si Si3 0.099988 0.374159 0.613448
Si Si4 0.075683 0.624741 0.389889
Si Si5 0.695741 0.982151 0.400075
O O1 0.316065 0.750000 0.127023
O O2 0.390161 0.620242 0.139369
O O3 0.312539 0.541986 0.325889
O O4 0.317078 0.571838 0.824444
O O5 0.999617 0.750000 0.943841
O O6 0.931192 0.870108 0.131543
O O7 0.020069 0.866914 0.331237
O O8 0.000000 0.000000 0.000000
O O9 0.088654 0.250000 0.484648
O O10 0.084998 0.499556 0.507286
O O11 0.156373 0.383986 0.635843
O O12 0.089812 0.750000 0.512196
O O13 0.750000 0.945013 0.376538
#
# Coordination Sequence:
#
# PCOD9450594 Si02
#       5
#     8   8   8   8   8
#     4  10  21  38  62  93 127 162 205 258 316 377
#     4  10  20  34  55  85 121 161 206 255 311 376
#     4  10  22  39  59  86 120 161 209 257 309 374
#     4   9  19  36  59  89 123 159 202 256 316 376
#     4  11  23  39  60  88 123 165 212 262 313 366
#
# _framework density 23.339216
#
# number of rings (size 3 to 8) (size 9 to 14) (size 15 to 20)
#    0.000    2.000    0.000    3.000    0.000    5.200 
#    0.000    6.000    0.000    4.800    0.000    0.000 
#    0.000    0.000    0.000    0.000    0.000    0.000 
#
# Total GULP energy -222736.326863 kJ/mol
# GULP energy per Si atom -5568.408172 kJ/mol
# Density = 2.328610 g / cm^3
# Si number density = 23.339216 Si / 1000 Ang^3
#
#
#
# Elastic Constant Matrix: (Units=GPa)
#
#
# Indices 1 2 3 4 5 6 
#
# 1 92.7873 37.1485 7.6560 0.0000 0.0000 0.0000
# 2 37.1485 250.6019 24.5782 0.0000 0.0000 0.0000
# 3 7.6560 24.5782 41.8674 0.0000 0.0000 0.0000
# 4 0.0000 0.0000 0.0000 22.1856 0.0000 0.0000
# 5 0.0000 0.0000 0.0000 0.0000 25.0727 0.0000
# 6 0.0000 0.0000 0.0000 0.0000 0.0000 -1.1960
#
#
#
# Elastic Compliance Matrix: (Units=1/GPa)
#
#
# Indices 1 2 3 4 5 6 
#
# 1 0.011511 -0.001592 -0.001171 0.000000 0.000000 0.000000
# 2 -0.001592 0.004454 -0.002324 0.000000 0.000000 0.000000
# 3 -0.001171 -0.002324 0.025463 0.000000 0.000000 0.000000
# 4 0.000000 0.000000 0.000000 0.045074 0.000000 0.000000
# 5 0.000000 0.000000 0.000000 0.000000 0.039884 0.000000
# 6 0.000000 0.000000 0.000000 0.000000 0.000000 -0.836130
#
#
# Mechanical properties :
#
#
# Convention : Reuss Voigt Hill
#
# Bulk Modulus (GPa) = 31.99331 58.22467 45.10899
# Shear Modulus (GPa) = -7.25529 30.27073 11.50772
#
# Velocity S-wave (km/s) = -1.76504 3.60528 2.22291
# Velocity P-wave (km/s) = 3.09579 6.50631 5.09490
#
# Compressibility (1/GPa) = 0.03125653
#
# Stress axis : x y z
#
# Youngs Moduli (GPa) = 86.87244 224.50542 39.27237
#
# Poissons Ratio (x) = 0.35732 0.04597
# Poissons Ratio (y) = 0.13826 0.09126
# Poissons Ratio (z) = 0.10170 0.52171
#
# Static dielectric constant tensor:
#      x y z
#    x 1.912780 0.000000 0.000000 
#    y 0.000000 1.912110 0.000000 
#    z 0.000000 0.000000 1.923740 
# 
# From -- ./inp_files/1503.got.cif
#   From: 2010.05.17/outbox.cif.g08.bks.cpg/sg59_1_cif.got.tgz:1503.got - 2010.06.03 14:40:33.
