data_PCOD9451264
_publ_section_title
;
Structure prediction by ZEFSAII (Michael W. Deem and Ramdas Pophale) SiO2 
 PCOD9451264
Probable space group: P M M N
;
_chemical_formula_sum "Si O2"
_cell_formula_units_Z 64
_cell_length_a 8.999711
_cell_length_b 18.814931
_cell_length_c 21.635708
_cell_angle_alpha 90.000000
_cell_angle_beta 90.000000
_cell_angle_gamma 90.000000
_cell_volume 3663.551534
_symmetry_space_group_name_H-M "P M M N"
_symmetry_group_IT_number 59
_space_group.IT_coordinate_system_code '2'
_symmetry_cell_setting 'orthorhombic'
loop_
_space_group_symop_operation_xyz
x,y,z
1/2-x,1/2-y,z
1/2+x,-y,-z
-x,1/2+y,-z
-x,-y,-z
1/2+x,1/2+y,-z
1/2-x,y,z
x,1/2-y,z
loop_
_atom_site_type_symbol
_atom_site_label
_atom_site_fract_x
_atom_site_fract_y
_atom_site_fract_z
Si Si1 0.072077 0.974254 0.563336
Si Si2 0.429388 0.666960 0.875097
Si Si3 0.927118 0.608788 0.750042
Si Si4 0.072842 0.577143 0.996159
Si Si5 0.927771 0.170252 0.372032
Si Si6 0.927972 0.832388 0.246655
Si Si7 0.924353 0.834063 0.102169
Si Si8 0.572998 0.461891 0.684796
O O1 0.250000 0.981004 0.560559
O O2 0.034820 0.892054 0.579773
O O3 0.000000 0.000000 0.500000
O O4 0.008000 0.018506 0.621029
O O5 0.250000 0.664370 0.870325
O O6 0.471943 0.750000 0.881772
O O7 0.498855 0.634230 0.813246
O O8 0.473927 0.621040 0.934973
O O9 0.750000 0.617479 0.753647
O O10 0.959729 0.526581 0.732535
O O11 0.990937 0.653259 0.692271
O O12 0.250000 0.570036 0.994332
O O13 0.023057 0.621303 0.055889
O O14 0.000000 0.500000 0.000000
O O15 0.750000 0.166202 0.361108
O O16 0.963566 0.250000 0.393002
O O17 0.750000 0.840184 0.254903
O O18 0.965571 0.750000 0.259557
O O19 0.959644 0.846400 0.174209
O O20 0.014017 0.888480 0.287950
O O21 0.750000 0.851486 0.092866
O O22 0.942560 0.750000 0.090579
O O23 0.750000 0.460387 0.675188
#
# Coordination Sequence:
#
# PCOD9451264 Si02
#       8
#     8   8   8   8   8   8   8   8
#     4  10  20  36  58  82 111 149 187 226 272 322
#     4  10  22  39  56  75 103 141 181 220 268 328
#     4  10  21  34  52  82 114 141 175 221 271 319
#     4  11  24  39  55  77 106 141 184 231 278 331
#     4   9  18  34  56  81 109 143 183 222 265 320
#     4   9  19  36  58  83 110 141 181 228 278 331
#     4   9  19  37  59  81 106 139 179 226 281 337
#     4  10  21  36  55  82 114 146 182 224 268 322
#
# _framework density 17.469386
#
# number of rings (size 3 to 8) (size 9 to 14) (size 15 to 20)
#    0.000    2.250    0.000    3.000    1.750    6.500 
#    0.000    1.875    0.000    2.250    0.000    0.000 
#    0.000    0.000    0.000    0.000    0.000    0.000 
#
# Total GULP energy -357278.105442 kJ/mol
# GULP energy per Si atom -5582.470398 kJ/mol
# Density = 1.742962 g / cm^3
# Si number density = 17.469386 Si / 1000 Ang^3
#
#
#
# Elastic Constant Matrix: (Units=GPa)
#
#
# Indices 1 2 3 4 5 6 
#
# 1 50.9620 64.8562 61.2237 0.0000 0.0000 0.0000
# 2 64.8562 132.1098 107.0041 0.0000 0.0000 0.0000
# 3 61.2237 107.0041 116.5749 0.0000 0.0000 0.0000
# 4 0.0000 0.0000 0.0000 20.6529 0.0000 0.0000
# 5 0.0000 0.0000 0.0000 0.0000 35.8152 0.0000
# 6 0.0000 0.0000 0.0000 0.0000 0.0000 30.0305
#
#
#
# Elastic Compliance Matrix: (Units=1/GPa)
#
#
# Indices 1 2 3 4 5 6 
#
# 1 0.060257 -0.015395 -0.017515 0.000000 0.000000 0.000000
# 2 -0.015395 0.033440 -0.022609 0.000000 0.000000 0.000000
# 3 -0.017515 -0.022609 0.038530 0.000000 0.000000 0.000000
# 4 0.000000 0.000000 0.000000 0.048419 0.000000 0.000000
# 5 0.000000 0.000000 0.000000 0.000000 0.027921 0.000000
# 6 0.000000 0.000000 0.000000 0.000000 0.000000 0.033300
#
#
# Mechanical properties :
#
#
# Convention : Reuss Voigt Hill
#
# Bulk Modulus (GPa) = 47.19667 85.09051 66.14359
# Shear Modulus (GPa) = 13.89017 21.73723 17.81370
#
# Velocity S-wave (km/s) = 2.82284 3.53130 3.19675
# Velocity P-wave (km/s) = 6.14003 8.08955 7.18125
#
# Compressibility (1/GPa) = 0.02118794
#
# Stress axis : x y z
#
# Youngs Moduli (GPa) = 16.59571 29.90431 25.95412
#
# Poissons Ratio (x) = 0.46039 0.45458
# Poissons Ratio (y) = 0.25550 0.58680
# Poissons Ratio (z) = 0.29067 0.67611
#
# Static dielectric constant tensor:
#      x y z
#    x 1.579580 0.000000 0.000000 
#    y 0.000000 1.583380 0.000000 
#    z 0.000000 0.000000 1.555930 
# 
# From -- ./inp_files/29355.got.cif
#   From: 2010.05.17/outbox.cif.g08.bks.cpg/sg59_15_cif.got.tgz:29355.got - 2010.06.03 14:40:33.
