data_PCOD9451754
_publ_section_title
;
Structure prediction by ZEFSAII (Michael W. Deem and Ramdas Pophale) SiO2 
 PCOD9451754
Probable space group: P M M N
;
_chemical_formula_sum "Si O2"
_cell_formula_units_Z 48
_cell_length_a 15.075609
_cell_length_b 8.285400
_cell_length_c 20.374219
_cell_angle_alpha 90.000000
_cell_angle_beta 90.000000
_cell_angle_gamma 90.000000
_cell_volume 2544.891758
_symmetry_space_group_name_H-M "P M M N"
_symmetry_group_IT_number 59
_space_group.IT_coordinate_system_code '2'
_symmetry_cell_setting 'orthorhombic'
loop_
_space_group_symop_operation_xyz
x,y,z
1/2-x,1/2-y,z
1/2+x,-y,-z
-x,1/2+y,-z
-x,-y,-z
1/2+x,1/2+y,-z
1/2-x,y,z
x,1/2-y,z
loop_
_atom_site_type_symbol
_atom_site_label
_atom_site_fract_x
_atom_site_fract_y
_atom_site_fract_z
Si Si1 0.649250 0.055450 0.414252
Si Si2 0.939469 0.444725 0.815808
Si Si3 0.750000 0.056895 0.022340
Si Si4 0.557727 0.943290 0.062303
Si Si5 0.852192 0.944805 0.558157
Si Si6 0.512954 0.554762 0.670733
Si Si7 0.250000 0.947143 0.129825
O O1 0.750000 0.995191 0.405778
O O2 0.651278 0.250000 0.412526
O O3 0.581325 0.999960 0.358685
O O4 0.617826 0.005531 0.486838
O O5 0.938332 0.250000 0.818052
O O6 0.966822 0.496877 0.743459
O O7 0.840348 0.500795 0.835060
O O8 0.008425 0.501021 0.871632
O O9 0.750000 0.250000 0.021649
O O10 0.658897 0.000061 0.055434
O O11 0.750000 0.001100 0.946217
O O12 0.556855 0.750000 0.062513
O O13 0.500000 0.000000 0.000000
O O14 0.750000 0.997012 0.567035
O O15 0.854050 0.750000 0.556813
O O16 0.913119 0.999586 0.618096
O O17 0.513583 0.750000 0.671166
O O18 0.250000 0.750000 0.129862
#
# Coordination Sequence:
#
# PCOD9451754 Si02
#       7
#     8   8   4   8   8   8   4
#     4   9  18  34  54  75 102 137 181 229 272 320
#     4  10  22  39  58  81 115 150 184 229 278 337
#     4  11  21  39  65  89 117 152 191 242 295 341
#     4  11  22  39  62  89 119 152 195 242 288 344
#     4   9  18  32  51  77 107 136 173 224 276 325
#     4  10  21  35  52  77 110 144 180 224 274 331
#     4   9  18  37  59  83 113 146 179 222 281 335
#
# _framework density 18.861314
#
# number of rings (size 3 to 8) (size 9 to 14) (size 15 to 20)
#    0.000    2.167    1.667    1.250    1.167    2.667 
#    1.500    0.000    0.000    0.000    0.000    0.000 
#    0.000    0.000    0.000    0.000    0.000    0.000 
#
# Total GULP energy -267968.330375 kJ/mol
# GULP energy per Si atom -5582.673549 kJ/mol
# Density = 1.881838 g / cm^3
# Si number density = 18.861314 Si / 1000 Ang^3
#
#
#
# Elastic Constant Matrix: (Units=GPa)
#
#
# Indices 1 2 3 4 5 6 
#
# 1 174.0102 22.6549 122.1226 0.0000 0.0000 0.0000
# 2 22.6549 13.1043 16.1952 0.0000 0.0000 0.0000
# 3 122.1226 16.1952 186.8140 0.0000 0.0000 0.0000
# 4 0.0000 0.0000 0.0000 32.7916 0.0000 0.0000
# 5 0.0000 0.0000 0.0000 0.0000 11.9917 0.0000
# 6 0.0000 0.0000 0.0000 0.0000 0.0000 17.7632
#
#
#
# Elastic Compliance Matrix: (Units=1/GPa)
#
#
# Indices 1 2 3 4 5 6 
#
# 1 0.012235 -0.012620 -0.006904 0.000000 0.000000 0.000000
# 2 -0.012620 0.098484 -0.000288 0.000000 0.000000 0.000000
# 3 -0.006904 -0.000288 0.009891 0.000000 0.000000 0.000000
# 4 0.000000 0.000000 0.000000 0.030496 0.000000 0.000000
# 5 0.000000 0.000000 0.000000 0.000000 0.083391 0.000000
# 6 0.000000 0.000000 0.000000 0.000000 0.000000 0.056296
#
#
# Mechanical properties :
#
#
# Convention : Reuss Voigt Hill
#
# Bulk Modulus (GPa) = 12.34780 77.31934 44.83357
# Shear Modulus (GPa) = 13.98940 26.70633 20.34786
#
# Velocity S-wave (km/s) = 2.72637 3.76697 3.28809
# Velocity P-wave (km/s) = 4.05852 7.74614 6.18362
#
# Compressibility (1/GPa) = 0.08098610
#
# Stress axis : x y z
#
# Youngs Moduli (GPa) = 81.73002 10.15397 101.09809
#
# Poissons Ratio (x) = 0.12814 0.69802
# Poissons Ratio (y) = 1.03141 0.02912
# Poissons Ratio (z) = 0.56430 0.00292
#
# Static dielectric constant tensor:
#      x y z
#    x 1.659120 0.000000 0.000000 
#    y 0.000000 1.656130 0.000000 
#    z 0.000000 0.000000 1.616350 
# 
# From -- ./inp_files/25570.got.cif
#   From: 2010.05.17/outbox.cif.g08.bks.cpg/sg59_13_cif.got.tgz:25570.got - 2010.06.03 14:40:33.
