data_PCOD9451221
_publ_section_title
;
Structure prediction by ZEFSAII (Michael W. Deem and Ramdas Pophale) SiO2 
 PCOD9451221
Probable space group: P M M N
;
_chemical_formula_sum "Si O2"
_cell_formula_units_Z 56
_cell_length_a 7.723977
_cell_length_b 18.962765
_cell_length_c 18.138228
_cell_angle_alpha 90.000000
_cell_angle_beta 90.000000
_cell_angle_gamma 90.000000
_cell_volume 2656.669266
_symmetry_space_group_name_H-M "P M M N"
_symmetry_group_IT_number 59
_space_group.IT_coordinate_system_code '2'
_symmetry_cell_setting 'orthorhombic'
loop_
_space_group_symop_operation_xyz
x,y,z
1/2-x,1/2-y,z
1/2+x,-y,-z
-x,1/2+y,-z
-x,-y,-z
1/2+x,1/2+y,-z
1/2-x,y,z
x,1/2-y,z
loop_
_atom_site_type_symbol
_atom_site_label
_atom_site_fract_x
_atom_site_fract_y
_atom_site_fract_z
Si Si1 0.044059 0.919027 0.518377
Si Si2 0.038044 0.581553 0.235537
Si Si3 0.456115 0.925620 0.961345
Si Si4 0.456005 0.075369 0.209561
Si Si5 0.462032 0.830977 0.378399
Si Si6 0.043095 0.329347 0.338980
Si Si7 0.038109 0.830295 0.092796
O O1 0.250000 0.914470 0.517856
O O2 0.977280 0.869551 0.452279
O O3 0.986955 0.885640 0.595810
O O4 0.000000 0.000000 0.500000
O O5 0.250000 0.580585 0.235370
O O6 0.975915 0.501197 0.234306
O O7 0.983322 0.624709 0.307165
O O8 0.983773 0.621455 0.161274
O O9 0.250000 0.921020 0.958528
O O10 0.518581 0.918321 0.877855
O O11 0.520822 0.865036 0.016512
O O12 0.500000 0.000000 0.000000
O O13 0.250000 0.073474 0.221693
O O14 0.524564 0.137145 0.262358
O O15 0.250000 0.830961 0.378613
O O16 0.517659 0.750000 0.374746
O O17 0.250000 0.322635 0.332702
O O18 0.974680 0.250000 0.354231
O O19 0.250000 0.830502 0.092817
O O20 0.981814 0.750000 0.101612
#
# Coordination Sequence:
#
# PCOD9451221 Si02
#       7
#     8   8   8   8   8   8   8
#     4  11  22  37  58  85 118 154 197 246 293 348
#     4   9  15  27  49  76 105 137 175 221 271 326
#     4  11  21  35  55  81 111 145 186 234 284 341
#     4  10  20  36  57  81 110 147 191 234 281 344
#     4   9  17  29  49  79 110 140 177 224 277 332
#     4  10  22  40  61  86 119 158 198 244 301 361
#     4   9  17  29  48  76 106 136 176 227 276 325
#
# _framework density 21.079025999999999
#
# number of rings (size 3 to 8) (size 9 to 14) (size 15 to 20)
#    0.000    2.143    1.429    2.571    0.000    6.000 
#    0.000    0.000    0.000    1.286    0.000    0.000 
#    0.000    0.000    0.000    0.000    0.000    0.000 
#
# Total GULP energy -312759.055789 kJ/mol
# GULP energy per Si atom -5584.983139 kJ/mol
# Density = 2.103105 g / cm^3
# Si number density = 21.079026 Si / 1000 Ang^3
#
#
#
# Elastic Constant Matrix: (Units=GPa)
#
#
# Indices 1 2 3 4 5 6 
#
# 1 31.5057 16.1280 2.7499 0.0000 0.0000 0.0000
# 2 16.1280 128.5637 69.0993 0.0000 0.0000 0.0000
# 3 2.7499 69.0993 160.6009 0.0000 0.0000 0.0000
# 4 0.0000 0.0000 0.0000 24.7439 0.0000 0.0000
# 5 0.0000 0.0000 0.0000 0.0000 21.0500 0.0000
# 6 0.0000 0.0000 0.0000 0.0000 0.0000 10.6214
#
#
#
# Elastic Compliance Matrix: (Units=1/GPa)
#
#
# Indices 1 2 3 4 5 6 
#
# 1 0.034248 -0.005179 0.001642 0.000000 0.000000 0.000000
# 2 -0.005179 0.010901 -0.004602 0.000000 0.000000 0.000000
# 3 0.001642 -0.004602 0.008178 0.000000 0.000000 0.000000
# 4 0.000000 0.000000 0.000000 0.040414 0.000000 0.000000
# 5 0.000000 0.000000 0.000000 0.000000 0.047506 0.000000
# 6 0.000000 0.000000 0.000000 0.000000 0.000000 0.094150
#
#
# Mechanical properties :
#
#
# Convention : Reuss Voigt Hill
#
# Bulk Modulus (GPa) = 26.99027 55.18052 41.08540
# Shear Modulus (GPa) = 18.93763 26.79592 22.86677
#
# Velocity S-wave (km/s) = 3.00060 3.56927 3.29722
# Velocity P-wave (km/s) = 4.98367 6.57427 5.83344
#
# Compressibility (1/GPa) = 0.03705039
#
# Stress axis : x y z
#
# Youngs Moduli (GPa) = 29.19878 91.73356 122.27380
#
# Poissons Ratio (x) = 0.47506 -0.20075
# Poissons Ratio (y) = 0.15121 0.56265
# Poissons Ratio (z) = -0.04794 0.42212
#
# Static dielectric constant tensor:
#      x y z
#    x 1.790320 0.000000 0.000000 
#    y 0.000000 1.726050 0.000000 
#    z 0.000000 0.000000 1.745430 
# 
# From -- ./inp_files/21016.got.cif
#   From: 2010.05.17/outbox.cif.g08.bks.cpg/sg59_11_cif.got.tgz:21016.got - 2010.06.03 14:40:33.
