data_PCOD9451273
_publ_section_title
;
Structure prediction by ZEFSAII (Michael W. Deem and Ramdas Pophale) SiO2 
 PCOD9451273
Probable space group: P M M N
;
_chemical_formula_sum "Si O2"
_cell_formula_units_Z 64
_cell_length_a 24.271707
_cell_length_b 7.758986
_cell_length_c 15.846770
_cell_angle_alpha 90.000000
_cell_angle_beta 90.000000
_cell_angle_gamma 90.000000
_cell_volume 2984.324496
_symmetry_space_group_name_H-M "P M M N"
_symmetry_group_IT_number 59
_space_group.IT_coordinate_system_code '2'
_symmetry_cell_setting 'orthorhombic'
loop_
_space_group_symop_operation_xyz
x,y,z
1/2-x,1/2-y,z
1/2+x,-y,-z
-x,1/2+y,-z
-x,-y,-z
1/2+x,1/2+y,-z
1/2-x,y,z
x,1/2-y,z
loop_
_atom_site_type_symbol
_atom_site_label
_atom_site_fract_x
_atom_site_fract_y
_atom_site_fract_z
Si Si1 0.395184 0.954219 0.591676
Si Si2 0.494126 0.549452 0.321469
Si Si3 0.889860 0.537789 0.905878
Si Si4 0.011828 0.551874 0.867051
Si Si5 0.313142 0.459087 0.742806
Si Si6 0.188399 0.044217 0.244434
Si Si7 0.380046 0.542085 0.403967
Si Si8 0.631766 0.948208 0.086965
O O1 0.404706 0.750000 0.585452
O O2 0.374826 0.017615 0.500376
O O3 0.453312 0.035041 0.618127
O O4 0.351458 0.986151 0.665548
O O5 0.485840 0.750000 0.299512
O O6 0.506545 0.454192 0.234280
O O7 0.438907 0.483989 0.366240
O O8 0.891213 0.750000 0.905636
O O9 0.855803 0.479368 0.824196
O O10 0.953700 0.483502 0.901620
O O11 0.862305 0.478302 0.993122
O O12 0.018738 0.750000 0.894139
O O13 0.066552 0.452988 0.893505
O O14 0.250000 0.513016 0.732046
O O15 0.314984 0.250000 0.744849
O O16 0.337537 0.524873 0.831997
O O17 0.250000 0.974875 0.232153
O O18 0.190658 0.250000 0.232279
O O19 0.166514 0.012228 0.338395
O O20 0.380467 0.750000 0.405045
O O21 0.650473 0.750000 0.081563
#
# Coordination Sequence:
#
# PCOD9451273 Si02
#       8
#     8   8   8   8   8   8   8   8
#     4  11  23  39  60  86 115 149 187 234 289 343
#     4  11  21  36  59  86 115 149 185 229 284 345
#     4   9  19  35  56  85 117 150 188 232 285 337
#     4  11  20  33  56  85 118 152 183 228 285 342
#     4  10  22  39  58  82 113 151 196 240 281 331
#     4  10  21  38  60  85 114 151 196 242 283 328
#     4  10  23  40  59  85 116 150 188 231 287 346
#     4  10  20  36  58  83 115 152 190 234 282 339
#
# _framework density 21.445388999999999
#
# number of rings (size 3 to 8) (size 9 to 14) (size 15 to 20)
#    0.000    1.750    2.500    1.875    0.000    3.000 
#    0.000    6.250    0.000    0.000    0.000    1.750 
#    0.000    0.000    0.000    0.000    0.000    0.000 
#
# Total GULP energy -357655.569073 kJ/mol
# GULP energy per Si atom -5588.368267 kJ/mol
# Density = 2.139658 g / cm^3
# Si number density = 21.445389 Si / 1000 Ang^3
#
#
#
# Elastic Constant Matrix: (Units=GPa)
#
#
# Indices 1 2 3 4 5 6 
#
# 1 70.9288 -7.7056 -0.7724 0.0000 0.0000 0.0000
# 2 -7.7056 36.4051 -9.0835 0.0000 0.0000 0.0000
# 3 -0.7724 -9.0835 100.3933 0.0000 0.0000 0.0000
# 4 0.0000 0.0000 0.0000 6.1184 0.0000 0.0000
# 5 0.0000 0.0000 0.0000 0.0000 5.8739 0.0000
# 6 0.0000 0.0000 0.0000 0.0000 0.0000 29.5041
#
#
#
# Elastic Compliance Matrix: (Units=1/GPa)
#
#
# Indices 1 2 3 4 5 6 
#
# 1 0.014446 0.003157 0.000397 0.000000 0.000000 0.000000
# 2 0.003157 0.028793 0.002629 0.000000 0.000000 0.000000
# 3 0.000397 0.002629 0.010202 0.000000 0.000000 0.000000
# 4 0.000000 0.000000 0.000000 0.163442 0.000000 0.000000
# 5 0.000000 0.000000 0.000000 0.000000 0.170244 0.000000
# 6 0.000000 0.000000 0.000000 0.000000 0.000000 0.033894
#
#
# Mechanical properties :
#
#
# Convention : Reuss Voigt Hill
#
# Bulk Modulus (GPa) = 15.19613 19.17825 17.18719
# Shear Modulus (GPa) = 11.61197 23.31852 17.46525
#
# Velocity S-wave (km/s) = 2.32947 3.30107 2.85688
# Velocity P-wave (km/s) = 3.78637 4.84682 4.34904
#
# Compressibility (1/GPa) = 0.06580623
#
# Stress axis : x y z
#
# Youngs Moduli (GPa) = 69.22382 34.73080 98.02207
#
# Poissons Ratio (x) = -0.10963 -0.03889
# Poissons Ratio (y) = -0.21851 -0.25774
# Poissons Ratio (z) = -0.02747 -0.09132
#
# Static dielectric constant tensor:
#      x y z
#    x 1.739560 0.000000 0.000000 
#    y 0.000000 1.791830 0.000000 
#    z 0.000000 0.000000 1.778210 
# 
# From -- ./inp_files/21546.got.cif
#   From: 2010.05.17/outbox.cif.g08.bks.cpg/sg59_11_cif.got.tgz:21546.got - 2010.06.03 14:40:33.
