data_PCOD9451543
_publ_section_title
;
Structure prediction by ZEFSAII (Michael W. Deem and Ramdas Pophale) SiO2 
 PCOD9451543
Probable space group: P M M N
;
_chemical_formula_sum "Si O2"
_cell_formula_units_Z 56
_cell_length_a 8.760636
_cell_length_b 22.997911
_cell_length_c 15.081211
_cell_angle_alpha 90.000000
_cell_angle_beta 90.000000
_cell_angle_gamma 90.000000
_cell_volume 3038.506999
_symmetry_space_group_name_H-M "P M M N"
_symmetry_group_IT_number 59
_space_group.IT_coordinate_system_code '2'
_symmetry_cell_setting 'orthorhombic'
loop_
_space_group_symop_operation_xyz
x,y,z
1/2-x,1/2-y,z
1/2+x,-y,-z
-x,1/2+y,-z
-x,-y,-z
1/2+x,1/2+y,-z
1/2-x,y,z
x,1/2-y,z
loop_
_atom_site_type_symbol
_atom_site_label
_atom_site_fract_x
_atom_site_fract_y
_atom_site_fract_z
Si Si1 0.568611 0.018713 0.905313
Si Si2 0.930691 0.085773 0.201313
Si Si3 0.931489 0.817758 0.922422
Si Si4 0.432616 0.814702 0.303662
Si Si5 0.567576 0.445778 0.395953
Si Si6 0.432818 0.355473 0.878314
Si Si7 0.431742 0.079061 0.584256
O O1 0.750000 0.025941 0.912382
O O2 0.490774 0.078431 0.875799
O O3 0.525060 0.967777 0.838206
O O4 0.500000 0.000000 0.000000
O O5 0.750000 0.074024 0.190596
O O6 0.962630 0.089003 0.305925
O O7 0.977645 0.141746 0.144916
O O8 0.750000 0.830689 0.914429
O O9 0.955280 0.750000 0.904381
O O10 0.974208 0.831105 0.024503
O O11 0.250000 0.817912 0.303147
O O12 0.477664 0.750000 0.336392
O O13 0.493473 0.822138 0.203683
O O14 0.495174 0.868175 0.361559
O O15 0.750000 0.444862 0.413340
O O16 0.524299 0.513935 0.382655
O O17 0.482741 0.421218 0.481683
O O18 0.250000 0.353198 0.870058
O O19 0.250000 0.083878 0.591954
#
# Coordination Sequence:
#
# PCOD9451543 Si02
#       7
#     8   8   8   8   8   8   8
#     4  12  23  36  56  85 119 155 193 239 291 343
#     4  11  22  37  59  86 117 154 193 237 288 346
#     4  10  22  39  57  78 110 153 197 242 288 336
#     4  11  24  40  59  86 121 160 200 244 294 352
#     4   9  20  38  60  88 119 149 187 236 293 354
#     4  11  22  38  60  85 115 154 197 243 294 347
#     4  10  20  37  63  90 116 149 190 240 296 352
#
# _framework density 18.430104
#
# number of rings (size 3 to 8) (size 9 to 14) (size 15 to 20)
#    0.000    1.429    1.429    4.286    0.000    5.429 
#    0.000    0.714    0.000    0.857    0.000    0.000 
#    0.000    0.000    0.000    0.000    0.000    0.000 
#
# Total GULP energy -312973.636912 kJ/mol
# GULP energy per Si atom -5588.814945 kJ/mol
# Density = 1.838816 g / cm^3
# Si number density = 18.430104 Si / 1000 Ang^3
#
#
#
# Elastic Constant Matrix: (Units=GPa)
#
#
# Indices 1 2 3 4 5 6 
#
# 1 45.8940 29.4565 41.4077 0.0000 0.0000 0.0000
# 2 29.4565 87.4971 50.5066 0.0000 0.0000 0.0000
# 3 41.4077 50.5066 107.0937 0.0000 0.0000 0.0000
# 4 0.0000 0.0000 0.0000 16.4869 0.0000 0.0000
# 5 0.0000 0.0000 0.0000 0.0000 35.6444 0.0000
# 6 0.0000 0.0000 0.0000 0.0000 0.0000 26.3500
#
#
#
# Elastic Compliance Matrix: (Units=1/GPa)
#
#
# Indices 1 2 3 4 5 6 
#
# 1 0.035291 -0.005502 -0.011050 0.000000 0.000000 0.000000
# 2 -0.005502 0.016562 -0.005683 0.000000 0.000000 0.000000
# 3 -0.011050 -0.005683 0.016291 0.000000 0.000000 0.000000
# 4 0.000000 0.000000 0.000000 0.060654 0.000000 0.000000
# 5 0.000000 0.000000 0.000000 0.000000 0.028055 0.000000
# 6 0.000000 0.000000 0.000000 0.000000 0.000000 0.037951
#
#
# Mechanical properties :
#
#
# Convention : Reuss Voigt Hill
#
# Bulk Modulus (GPa) = 42.24467 53.69182 47.96825
# Shear Modulus (GPa) = 20.22932 23.63718 21.93325
#
# Velocity S-wave (km/s) = 3.31663 3.58513 3.45349
# Velocity P-wave (km/s) = 6.13499 6.80687 6.47964
#
# Compressibility (1/GPa) = 0.02367162
#
# Stress axis : x y z
#
# Youngs Moduli (GPa) = 28.33580 60.37916 61.38533
#
# Poissons Ratio (x) = 0.33223 0.67833
# Poissons Ratio (y) = 0.15591 0.34887
# Poissons Ratio (z) = 0.31312 0.34316
#
# Static dielectric constant tensor:
#      x y z
#    x 1.614770 0.000000 0.000000 
#    y 0.000000 1.663310 0.000000 
#    z 0.000000 0.000000 1.709730 
# 
# From -- ./inp_files/20972.got.cif
#   From: 2010.05.17/outbox.cif.g08.bks.cpg/sg59_11_cif.got.tgz:20972.got - 2010.06.03 14:40:33.
