data_PCOD9451851
_publ_section_title
;
Structure prediction by ZEFSAII (Michael W. Deem and Ramdas Pophale) SiO2 
 PCOD9451851
Probable space group: P M M N
;
_chemical_formula_sum "Si O2"
_cell_formula_units_Z 40
_cell_length_a 9.633826
_cell_length_b 8.566646
_cell_length_c 26.609786
_cell_angle_alpha 90.000000
_cell_angle_beta 90.000000
_cell_angle_gamma 90.000000
_cell_volume 2196.094382
_symmetry_space_group_name_H-M "P M M N"
_symmetry_group_IT_number 59
_space_group.IT_coordinate_system_code '2'
_symmetry_cell_setting 'orthorhombic'
loop_
_space_group_symop_operation_xyz
x,y,z
1/2-x,1/2-y,z
1/2+x,-y,-z
-x,1/2+y,-z
-x,-y,-z
1/2+x,1/2+y,-z
1/2-x,y,z
x,1/2-y,z
loop_
_atom_site_type_symbol
_atom_site_label
_atom_site_fract_x
_atom_site_fract_y
_atom_site_fract_z
Si Si1 0.410507 0.936934 0.046496
Si Si2 0.412522 0.561365 0.861472
Si Si3 0.409559 0.559856 0.747890
Si Si4 0.911263 0.063336 0.546088
Si Si5 0.588723 0.561485 0.653489
O O1 0.250000 0.991205 0.044387
O O2 0.409810 0.750000 0.044125
O O3 0.486660 0.990698 0.097236
O O4 0.500000 0.000000 0.000000
O O5 0.250000 0.519603 0.870255
O O6 0.420119 0.750000 0.864189
O O7 0.450116 0.512667 0.804452
O O8 0.250000 0.513343 0.739842
O O9 0.413053 0.750000 0.747862
O O10 0.504245 0.506127 0.702045
O O11 0.750000 0.012398 0.541096
O O12 0.914759 0.250000 0.545940
O O13 0.962920 0.002563 0.600145
O O14 0.000000 0.000000 0.500000
O O15 0.750000 0.516171 0.658551
O O16 0.581638 0.750000 0.651825
#
# Coordination Sequence:
#
# PCOD9451851 Si02
#       5
#     8   8   8   8   8
#     4  11  24  39  55  78 106 136 173 215 259 308
#     4   9  18  34  56  81 108 138 173 212 253 300
#     4   8  15  29  50  76 104 133 167 207 249 295
#     4  10  21  36  53  74 101 134 171 212 260 310
#     4   9  17  30  49  73 101 133 169 208 250 299
#
# _framework density 18.214154000000001
#
# number of rings (size 3 to 8) (size 9 to 14) (size 15 to 20)
#    0.000    2.600    0.000    3.000    0.000    7.200 
#    0.000    5.000    0.000    3.600    0.000    0.000 
#    0.000    0.000    0.000    0.000    0.000    0.000 
#
# Total GULP energy -223136.655629 kJ/mol
# GULP energy per Si atom -5578.416391 kJ/mol
# Density = 1.817270 g / cm^3
# Si number density = 18.214154 Si / 1000 Ang^3
#
#
#
# Elastic Constant Matrix: (Units=GPa)
#
#
# Indices 1 2 3 4 5 6 
#
# 1 108.5265 27.9676 117.5822 0.0000 0.0000 0.0000
# 2 27.9676 16.5574 32.3949 0.0000 0.0000 0.0000
# 3 117.5822 32.3949 208.8009 0.0000 0.0000 0.0000
# 4 0.0000 0.0000 0.0000 29.9422 0.0000 0.0000
# 5 0.0000 0.0000 0.0000 0.0000 42.2691 0.0000
# 6 0.0000 0.0000 0.0000 0.0000 0.0000 21.9114
#
#
#
# Elastic Compliance Matrix: (Units=1/GPa)
#
#
# Indices 1 2 3 4 5 6 
#
# 1 0.029316 -0.024724 -0.012673 0.000000 0.000000 0.000000
# 2 -0.024724 0.107570 -0.002767 0.000000 0.000000 0.000000
# 3 -0.012673 -0.002767 0.012355 0.000000 0.000000 0.000000
# 4 0.000000 0.000000 0.000000 0.033398 0.000000 0.000000
# 5 0.000000 0.000000 0.000000 0.000000 0.023658 0.000000
# 6 0.000000 0.000000 0.000000 0.000000 0.000000 0.045638
#
#
# Mechanical properties :
#
#
# Convention : Reuss Voigt Hill
#
# Bulk Modulus (GPa) = 14.51063 76.64157 45.57610
# Shear Modulus (GPa) = 14.07523 29.22055 21.64789
#
# Velocity S-wave (km/s) = 2.78288 4.00969 3.45123
# Velocity P-wave (km/s) = 4.27900 7.97535 6.39984
#
# Compressibility (1/GPa) = 0.06891500
#
# Stress axis : x y z
#
# Youngs Moduli (GPa) = 34.11082 9.29623 80.93860
#
# Poissons Ratio (x) = 0.22984 1.02574
# Poissons Ratio (y) = 0.84335 0.22392
# Poissons Ratio (z) = 0.43229 0.02572
#
# Static dielectric constant tensor:
#      x y z
#    x 1.616870 0.000000 0.000000 
#    y 0.000000 1.625480 0.000000 
#    z 0.000000 0.000000 1.612910 
# 
# From -- ./inp_files/31145.got.cif
#   From: 2010.05.17/outbox.cif.g08.bks.cpg/sg59_16_cif.got.tgz:31145.got - 2010.06.03 14:40:33.
