data_PCOD9451169
_publ_section_title
;
Structure prediction by ZEFSAII (Michael W. Deem and Ramdas Pophale) SiO2 
 PCOD9451169
Probable space group: P M M N
;
_chemical_formula_sum "Si O2"
_cell_formula_units_Z 48
_cell_length_a 17.683860
_cell_length_b 7.554286
_cell_length_c 16.762223
_cell_angle_alpha 90.000000
_cell_angle_beta 90.000000
_cell_angle_gamma 90.000000
_cell_volume 2239.247536
_symmetry_space_group_name_H-M "P M M N"
_symmetry_group_IT_number 59
_space_group.IT_coordinate_system_code '2'
_symmetry_cell_setting 'orthorhombic'
loop_
_space_group_symop_operation_xyz
x,y,z
1/2-x,1/2-y,z
1/2+x,-y,-z
-x,1/2+y,-z
-x,-y,-z
1/2+x,1/2+y,-z
1/2-x,y,z
x,1/2-y,z
loop_
_atom_site_type_symbol
_atom_site_label
_atom_site_fract_x
_atom_site_fract_y
_atom_site_fract_z
Si Si1 0.444945 0.532974 0.223528
Si Si2 0.250000 0.956469 0.983278
Si Si3 0.397295 0.458067 0.708295
Si Si4 0.250000 0.466262 0.797480
Si Si5 0.914232 0.459934 0.475417
Si Si6 0.917808 0.037333 0.957580
Si Si7 0.164708 0.966434 0.365193
O O1 0.444541 0.750000 0.223104
O O2 0.526681 0.469155 0.252654
O O3 0.425632 0.477117 0.134202
O O4 0.387102 0.476381 0.292039
O O5 0.250000 0.750000 0.008119
O O6 0.250000 0.972900 0.888082
O O7 0.334383 0.026922 0.010353
O O8 0.398403 0.250000 0.726461
O O9 0.323237 0.530831 0.750038
O O10 0.397422 0.473318 0.612952
O O11 0.250000 0.250000 0.797788
O O12 0.904251 0.250000 0.471775
O O13 0.863936 0.528562 0.548500
O O14 0.000000 0.500000 0.500000
O O15 0.912853 0.250000 0.959849
O O16 0.000000 0.000000 0.000000
O O17 0.250000 0.020367 0.351708
O O18 0.161525 0.750000 0.366865
#
# Coordination Sequence:
#
# PCOD9451169 Si02
#       7
#     8   4   8   4   8   8   8
#     4   9  17  32  55  78 105 140 181 224 270 330
#     4  10  22  38  58  89 122 146 187 248 301 345
#     4  10  20  36  55  81 111 144 188 230 273 331
#     4  10  22  38  60  83 112 154 193 230 281 347
#     4  11  21  35  55  79 109 145 185 229 276 329
#     4  10  21  37  59  86 115 150 188 237 294 348
#     4   9  18  31  51  79 106 136 179 224 263 318
#
# _framework density 21.435772
#
# number of rings (size 3 to 8) (size 9 to 14) (size 15 to 20)
#    0.000    2.167    1.667    1.500    2.333    2.667 
#    0.000    0.833    0.000    0.000    0.000    0.000 
#    0.000    0.000    0.000    0.000    0.000    0.000 
#
# Total GULP energy -267837.709884 kJ/mol
# GULP energy per Si atom -5579.952289 kJ/mol
# Density = 2.138698 g / cm^3
# Si number density = 21.435772 Si / 1000 Ang^3
#
#
#
# Elastic Constant Matrix: (Units=GPa)
#
#
# Indices 1 2 3 4 5 6 
#
# 1 247.8071 6.3213 136.3814 0.0000 0.0000 0.0000
# 2 6.3213 47.4797 -11.4052 0.0000 0.0000 0.0000
# 3 136.3814 -11.4052 195.0181 0.0000 0.0000 0.0000
# 4 0.0000 0.0000 0.0000 19.2035 0.0000 0.0000
# 5 0.0000 0.0000 0.0000 0.0000 13.4576 0.0000
# 6 0.0000 0.0000 0.0000 0.0000 0.0000 3.5283
#
#
#
# Elastic Compliance Matrix: (Units=1/GPa)
#
#
# Indices 1 2 3 4 5 6 
#
# 1 0.006754 -0.002063 -0.004844 0.000000 0.000000 0.000000
# 2 -0.002063 0.021992 0.002729 0.000000 0.000000 0.000000
# 3 -0.004844 0.002729 0.008675 0.000000 0.000000 0.000000
# 4 0.000000 0.000000 0.000000 0.052074 0.000000 0.000000
# 5 0.000000 0.000000 0.000000 0.000000 0.074307 0.000000
# 6 0.000000 0.000000 0.000000 0.000000 0.000000 0.283424
#
#
# Mechanical properties :
#
#
# Convention : Reuss Voigt Hill
#
# Bulk Modulus (GPa) = 34.40616 83.65554 59.03085
# Shear Modulus (GPa) = 10.74647 31.17171 20.95909
#
# Velocity S-wave (km/s) = 2.24148 3.81752 3.13031
# Velocity P-wave (km/s) = 4.77332 7.65129 6.37679
#
# Compressibility (1/GPa) = 0.02906456
#
# Stress axis : x y z
#
# Youngs Moduli (GPa) = 148.06537 45.47169 115.27831
#
# Poissons Ratio (x) = 0.09379 0.55838
# Poissons Ratio (y) = 0.30541 -0.31455
# Poissons Ratio (z) = 0.71719 -0.12408
#
# Static dielectric constant tensor:
#      x y z
#    x 1.755240 0.000000 0.000000 
#    y 0.000000 1.758020 0.000000 
#    z 0.000000 0.000000 1.731360 
# 
# From -- ./inp_files/20577.got.cif
#   From: 2010.05.17/outbox.cif.g08.bks.cpg/sg59_11_cif.got.tgz:20577.got - 2010.06.03 14:40:33.
