data_PCOD9451101
_publ_section_title
;
Structure prediction by ZEFSAII (Michael W. Deem and Ramdas Pophale) SiO2 
 PCOD9451101
Probable space group: P M M N
;
_chemical_formula_sum "Si O2"
_cell_formula_units_Z 64
_cell_length_a 14.922523
_cell_length_b 17.571444
_cell_length_c 12.152743
_cell_angle_alpha 90.000000
_cell_angle_beta 90.000000
_cell_angle_gamma 90.000000
_cell_volume 3186.574111
_symmetry_space_group_name_H-M "P M M N"
_symmetry_group_IT_number 59
_space_group.IT_coordinate_system_code '2'
_symmetry_cell_setting 'orthorhombic'
loop_
_space_group_symop_operation_xyz
x,y,z
1/2-x,1/2-y,z
1/2+x,-y,-z
-x,1/2+y,-z
-x,-y,-z
1/2+x,1/2+y,-z
1/2-x,y,z
x,1/2-y,z
loop_
_atom_site_type_symbol
_atom_site_label
_atom_site_fract_x
_atom_site_fract_y
_atom_site_fract_z
Si Si1 0.044073 0.165859 0.935754
Si Si2 0.109138 0.942039 0.798062
Si Si3 0.529196 0.840627 0.471412
Si Si4 0.348532 0.892133 0.043699
Si Si5 0.650460 0.663042 0.681597
Si Si6 0.406131 0.446586 0.130189
Si Si7 0.147007 0.841252 0.584411
Si Si8 0.351848 0.109629 0.727328
O O1 0.059480 0.250000 0.982147
O O2 0.098493 0.155864 0.823546
O O3 0.937151 0.154029 0.921794
O O4 0.078148 0.101437 0.019179
O O5 0.124137 0.884210 0.697727
O O6 0.004761 0.959701 0.819938
O O7 0.151751 0.022409 0.767057
O O8 0.144434 0.906785 0.912204
O O9 0.533404 0.750000 0.446854
O O10 0.578061 0.852843 0.588129
O O11 0.425937 0.862934 0.491843
O O12 0.585056 0.883682 0.379054
O O13 0.250000 0.860092 0.068910
O O14 0.359632 0.974598 0.100536
O O15 0.750000 0.659046 0.632056
O O16 0.636159 0.750000 0.720465
O O17 0.643698 0.605414 0.781869
O O18 0.250000 0.857784 0.554478
O O19 0.138145 0.750000 0.601141
O O20 0.250000 0.136423 0.706909
#
# Coordination Sequence:
#
# PCOD9451101 Si02
#       8
#     8   8   8   8   8   8   8   8
#     4  11  24  40  61  93 126 160 210 257 302 362
#     4  11  21  39  63  92 125 161 205 253 306 364
#     4  10  22  40  61  86 121 159 200 252 307 363
#     4  11  22  40  63  88 128 171 204 248 309 373
#     4  10  20  35  58  89 123 160 201 250 309 366
#     4  11  20  39  62  90 124 165 200 251 314 361
#     4  10  21  39  64  92 121 157 205 257 309 364
#     4  12  24  41  64  90 123 165 209 253 304 370
#
# _framework density 20.084266
#
# number of rings (size 3 to 8) (size 9 to 14) (size 15 to 20)
#    0.000    1.250    3.750    3.375    0.000    4.750 
#    0.000    0.625    0.000    1.500    0.000    0.000 
#    0.000    0.000    0.000    0.000    0.000    0.000 
#
# Total GULP energy -357588.607366 kJ/mol
# GULP energy per Si atom -5587.321990 kJ/mol
# Density = 2.003855 g / cm^3
# Si number density = 20.084266 Si / 1000 Ang^3
#
#
#
# Elastic Constant Matrix: (Units=GPa)
#
#
# Indices 1 2 3 4 5 6 
#
# 1 145.0889 12.4413 48.1926 0.0000 0.0000 0.0000
# 2 12.4413 39.3947 16.3617 0.0000 0.0000 0.0000
# 3 48.1926 16.3617 62.4492 0.0000 0.0000 0.0000
# 4 0.0000 0.0000 0.0000 5.3794 0.0000 0.0000
# 5 0.0000 0.0000 0.0000 0.0000 15.4563 0.0000
# 6 0.0000 0.0000 0.0000 0.0000 0.0000 22.1554
#
#
#
# Elastic Compliance Matrix: (Units=1/GPa)
#
#
# Indices 1 2 3 4 5 6 
#
# 1 0.009268 0.000049 -0.007165 0.000000 0.000000 0.000000
# 2 0.000049 0.028484 -0.007500 0.000000 0.000000 0.000000
# 3 -0.007165 -0.007500 0.023507 0.000000 0.000000 0.000000
# 4 0.000000 0.000000 0.000000 0.185893 0.000000 0.000000
# 5 0.000000 0.000000 0.000000 0.000000 0.064699 0.000000
# 6 0.000000 0.000000 0.000000 0.000000 0.000000 0.045136
#
#
# Mechanical properties :
#
#
# Convention : Reuss Voigt Hill
#
# Bulk Modulus (GPa) = 31.22454 44.54711 37.88583
# Shear Modulus (GPa) = 12.59778 19.92738 16.26258
#
# Velocity S-wave (km/s) = 2.50721 3.15332 2.84864
# Velocity P-wave (km/s) = 4.89510 5.95703 5.45198
#
# Compressibility (1/GPa) = 0.03202609
#
# Stress axis : x y z
#
# Youngs Moduli (GPa) = 107.89732 35.10759 42.53970
#
# Poissons Ratio (x) = -0.00172 0.30480
# Poissons Ratio (y) = -0.00527 0.31907
# Poissons Ratio (z) = 0.77309 0.26332
#
# Static dielectric constant tensor:
#      x y z
#    x 1.744840 0.000000 0.000000 
#    y 0.000000 1.702300 0.000000 
#    z 0.000000 0.000000 1.674590 
# 
# From -- ./inp_files/17250.got.cif
#   From: 2010.05.17/outbox.cif.g08.bks.cpg/sg59_9_cif.got.tgz:17250.got - 2010.06.03 14:40:33.
