data_PCOD9451009
_publ_section_title
;
Structure prediction by ZEFSAII (Michael W. Deem and Ramdas Pophale) SiO2 
 PCOD9451009
Probable space group: P M M N
;
_chemical_formula_sum "Si O2"
_cell_formula_units_Z 64
_cell_length_a 25.575699
_cell_length_b 8.914576
_cell_length_c 14.724257
_cell_angle_alpha 90.000000
_cell_angle_beta 90.000000
_cell_angle_gamma 90.000000
_cell_volume 3357.079245
_symmetry_space_group_name_H-M "P M M N"
_symmetry_group_IT_number 59
_space_group.IT_coordinate_system_code '2'
_symmetry_cell_setting 'orthorhombic'
loop_
_space_group_symop_operation_xyz
x,y,z
1/2-x,1/2-y,z
1/2+x,-y,-z
-x,1/2+y,-z
-x,-y,-z
1/2+x,1/2+y,-z
1/2-x,y,z
x,1/2-y,z
loop_
_atom_site_type_symbol
_atom_site_label
_atom_site_fract_x
_atom_site_fract_y
_atom_site_fract_z
Si Si1 0.556654 0.430824 0.523054
Si Si2 0.837773 0.071883 0.010201
Si Si3 0.692482 0.571294 0.823596
Si Si4 0.979175 0.579368 0.231095
Si Si5 0.892749 0.426973 0.340648
Si Si6 0.906553 0.429253 0.725733
Si Si7 0.946445 0.577874 0.027165
Si Si8 0.810744 0.573189 0.204119
O O1 0.500000 0.500000 0.500000
O O2 0.551022 0.250000 0.520709
O O3 0.598576 0.472532 0.445159
O O4 0.577897 0.471797 0.622642
O O5 0.832079 0.250000 0.009444
O O6 0.897868 0.021981 0.998255
O O7 0.820047 0.007621 0.107527
O O8 0.809552 0.999395 0.924114
O O9 0.750000 0.536840 0.783730
O O10 0.687483 0.750000 0.831779
O O11 0.644123 0.508816 0.765711
O O12 0.978149 0.750000 0.269647
O O13 0.948437 0.466783 0.295041
O O14 0.948938 0.582339 0.136402
O O15 0.039950 0.539465 0.218588
O O16 0.882722 0.250000 0.335408
O O17 0.848953 0.510905 0.281910
O O18 0.897507 0.250000 0.729233
O O19 0.942241 0.750000 0.994296
O O20 0.000000 0.500000 0.000000
O O21 0.750000 0.552835 0.229606
O O22 0.820904 0.750000 0.191219
#
# Coordination Sequence:
#
# PCOD9451009 Si02
#       8
#     8   8   8   8   8   8   8   8
#     4  10  21  37  61  94 126 158 198 246 301 362
#     4  12  24  39  62  91 121 157 204 252 303 363
#     4  11  25  44  64  88 120 159 206 258 306 357
#     4  10  20  35  57  84 120 160 195 240 299 359
#     4  11  22  36  59  91 124 157 198 247 301 359
#     4  10  21  39  63  92 124 159 202 249 302 364
#     4  11  22  35  54  84 123 162 203 249 300 357
#     4  11  24  42  63  87 119 162 209 255 305 360
#
# _framework density 19.064191000000001
#
# number of rings (size 3 to 8) (size 9 to 14) (size 15 to 20)
#    0.000    1.250    2.500    3.750    0.000    6.500 
#    0.000    0.625    0.000    3.750    0.000    0.000 
#    0.000    0.000    0.000    0.000    0.000    0.000 
#
# Total GULP energy -357613.559743 kJ/mol
# GULP energy per Si atom -5587.711871 kJ/mol
# Density = 1.902080 g / cm^3
# Si number density = 19.064191 Si / 1000 Ang^3
#
#
#
# Elastic Constant Matrix: (Units=GPa)
#
#
# Indices 1 2 3 4 5 6 
#
# 1 139.2103 50.4314 46.7181 0.0000 0.0000 0.0000
# 2 50.4314 74.8657 31.8544 0.0000 0.0000 0.0000
# 3 46.7181 31.8544 84.4303 0.0000 0.0000 0.0000
# 4 0.0000 0.0000 0.0000 20.6639 0.0000 0.0000
# 5 0.0000 0.0000 0.0000 0.0000 15.1634 0.0000
# 6 0.0000 0.0000 0.0000 0.0000 0.0000 32.3831
#
#
#
# Elastic Compliance Matrix: (Units=1/GPa)
#
#
# Indices 1 2 3 4 5 6 
#
# 1 0.010391 -0.005424 -0.003703 0.000000 0.000000 0.000000
# 2 -0.005424 0.018743 -0.004070 0.000000 0.000000 0.000000
# 3 -0.003703 -0.004070 0.015429 0.000000 0.000000 0.000000
# 4 0.000000 0.000000 0.000000 0.048394 0.000000 0.000000
# 5 0.000000 0.000000 0.000000 0.000000 0.065948 0.000000
# 6 0.000000 0.000000 0.000000 0.000000 0.000000 0.030880
#
#
# Mechanical properties :
#
#
# Convention : Reuss Voigt Hill
#
# Bulk Modulus (GPa) = 55.04227 61.83487 58.43857
# Shear Modulus (GPa) = 22.49862 24.94223 23.72042
#
# Velocity S-wave (km/s) = 3.43906 3.62101 3.53121
# Velocity P-wave (km/s) = 6.68612 7.07020 6.88084
#
# Compressibility (1/GPa) = 0.01816785
#
# Stress axis : x y z
#
# Youngs Moduli (GPa) = 96.23588 53.35393 64.81351
#
# Poissons Ratio (x) = 0.28939 0.24003
# Poissons Ratio (y) = 0.52198 0.26380
# Poissons Ratio (z) = 0.35640 0.21716
#
# Static dielectric constant tensor:
#      x y z
#    x 1.708730 0.000000 0.000000 
#    y 0.000000 1.645640 0.000000 
#    z 0.000000 0.000000 1.682230 
# 
# From -- ./inp_files/24654.got.cif
#   From: 2010.05.17/outbox.cif.g08.bks.cpg/sg59_13_cif.got.tgz:24654.got - 2010.06.03 14:40:33.
