data_PCOD9451703
_publ_section_title
;
Structure prediction by ZEFSAII (Michael W. Deem and Ramdas Pophale) SiO2 
 PCOD9451703
Probable space group: P M M N
;
_chemical_formula_sum "Si O2"
_cell_formula_units_Z 64
_cell_length_a 9.154952
_cell_length_b 26.843677
_cell_length_c 17.661395
_cell_angle_alpha 90.000000
_cell_angle_beta 90.000000
_cell_angle_gamma 90.000000
_cell_volume 4340.333289
_symmetry_space_group_name_H-M "P M M N"
_symmetry_group_IT_number 59
_space_group.IT_coordinate_system_code '2'
_symmetry_cell_setting 'orthorhombic'
loop_
_space_group_symop_operation_xyz
x,y,z
1/2-x,1/2-y,z
1/2+x,-y,-z
-x,1/2+y,-z
-x,-y,-z
1/2+x,1/2+y,-z
1/2-x,y,z
x,1/2-y,z
loop_
_atom_site_type_symbol
_atom_site_label
_atom_site_fract_x
_atom_site_fract_y
_atom_site_fract_z
Si Si1 0.076128 0.538305 0.322069
Si Si2 0.575381 0.446242 0.510275
Si Si3 0.426065 0.076593 0.363046
Si Si4 0.924127 0.559653 0.167897
Si Si5 0.081491 0.464267 0.102914
Si Si6 0.574285 0.885876 0.021994
Si Si7 0.419251 0.369137 0.213321
Si Si8 0.924201 0.191779 0.087086
O O1 0.250000 0.538889 0.308154
O O2 0.047154 0.566147 0.401714
O O3 0.035950 0.479686 0.334337
O O4 0.994973 0.561048 0.250494
O O5 0.500000 0.500000 0.500000
O O6 0.750000 0.450290 0.500853
O O7 0.505237 0.414427 0.442865
O O8 0.250000 0.076913 0.372749
O O9 0.465280 0.115969 0.297911
O O10 0.750000 0.558550 0.173984
O O11 0.964010 0.603545 0.108986
O O12 0.980436 0.508797 0.129317
O O13 0.250000 0.481474 0.096390
O O14 0.077767 0.420825 0.166092
O O15 0.037735 0.435800 0.026236
O O16 0.750000 0.879783 0.015029
O O17 0.496392 0.840481 0.980083
O O18 0.250000 0.352567 0.214429
O O19 0.514564 0.330628 0.165734
O O20 0.750000 0.185792 0.084719
O O21 0.960167 0.250000 0.080475
#
# Coordination Sequence:
#
# PCOD9451703 Si02
#       8
#     8   8   8   8   8   8   8   8
#     4   9  17  29  40  54  84 122 151 180 218 253
#     4   9  17  27  39  56  80 114 154 186 214 250
#     4   9  16  28  43  60  85 114 148 185 215 251
#     4  11  20  27  40  63  87 112 150 189 215 251
#     4   9  16  29  43  56  84 118 145 176 216 258
#     4   9  20  34  45  61  84 113 147 179 217 266
#     4   9  17  30  47  66  88 117 149 178 216 267
#     4  10  21  35  50  69  89 108 139 184 226 264
#
# _framework density 14.745411000000001
#
# number of rings (size 3 to 8) (size 9 to 14) (size 15 to 20)
#    0.000    2.625    1.250    3.000    0.000    7.000 
#    0.000    0.000    0.000    0.000    0.000    0.000 
#    0.000    1.000    0.000   11.000    0.000    8.000 
#
# Total GULP energy -356506.711627 kJ/mol
# GULP energy per Si atom -5570.417369 kJ/mol
# Density = 1.471185 g / cm^3
# Si number density = 14.745411 Si / 1000 Ang^3
#
#
#
# Elastic Constant Matrix: (Units=GPa)
#
#
# Indices 1 2 3 4 5 6 
#
# 1 43.0209 31.4455 59.8506 0.0000 0.0000 0.0000
# 2 31.4455 49.6048 48.0430 0.0000 0.0000 0.0000
# 3 59.8506 48.0430 147.8043 0.0000 0.0000 0.0000
# 4 0.0000 0.0000 0.0000 9.7689 0.0000 0.0000
# 5 0.0000 0.0000 0.0000 0.0000 27.4907 0.0000
# 6 0.0000 0.0000 0.0000 0.0000 0.0000 17.2688
#
#
#
# Elastic Compliance Matrix: (Units=1/GPa)
#
#
# Indices 1 2 3 4 5 6 
#
# 1 0.068705 -0.024240 -0.019942 0.000000 0.000000 0.000000
# 2 -0.024240 0.037973 -0.002528 0.000000 0.000000 0.000000
# 3 -0.019942 -0.002528 0.015662 0.000000 0.000000 0.000000
# 4 0.000000 0.000000 0.000000 0.102366 0.000000 0.000000
# 5 0.000000 0.000000 0.000000 0.000000 0.036376 0.000000
# 6 0.000000 0.000000 0.000000 0.000000 0.000000 0.057908
#
#
# Mechanical properties :
#
#
# Convention : Reuss Voigt Hill
#
# Bulk Modulus (GPa) = 34.57499 57.67868 46.12684
# Shear Modulus (GPa) = 11.84694 17.64509 14.74602
#
# Velocity S-wave (km/s) = 2.83756 3.46302 3.16577
# Velocity P-wave (km/s) = 5.85103 7.42908 6.68677
#
# Compressibility (1/GPa) = 0.02892264
#
# Stress axis : x y z
#
# Youngs Moduli (GPa) = 14.55493 26.33424 63.84709
#
# Poissons Ratio (x) = 0.63833 1.27323
# Poissons Ratio (y) = 0.35281 0.16138
# Poissons Ratio (z) = 0.29025 0.06656
#
# Static dielectric constant tensor:
#      x y z
#    x 1.491540 0.000000 0.000000 
#    y 0.000000 1.455750 0.000000 
#    z 0.000000 0.000000 1.532480 
# 
# From -- ./inp_files/26511.got.cif
#   From: 2010.05.17/outbox.cif.g08.bks.cpg/sg59_14_cif.got.tgz:26511.got - 2010.06.03 14:40:33.
