data_PCOD9451971
_publ_section_title
;
Structure prediction by ZEFSAII (Michael W. Deem and Ramdas Pophale) SiO2 
 PCOD9451971
Probable space group: P M M N
;
_chemical_formula_sum "Si O2"
_cell_formula_units_Z 48
_cell_length_a 8.458962
_cell_length_b 10.340425
_cell_length_c 29.988711
_cell_angle_alpha 90.000000
_cell_angle_beta 90.000000
_cell_angle_gamma 90.000000
_cell_volume 2623.090424
_symmetry_space_group_name_H-M "P M M N"
_symmetry_group_IT_number 59
_space_group.IT_coordinate_system_code '2'
_symmetry_cell_setting 'orthorhombic'
loop_
_space_group_symop_operation_xyz
x,y,z
1/2-x,1/2-y,z
1/2+x,-y,-z
-x,1/2+y,-z
-x,-y,-z
1/2+x,1/2+y,-z
1/2-x,y,z
x,1/2-y,z
loop_
_atom_site_type_symbol
_atom_site_label
_atom_site_fract_x
_atom_site_fract_y
_atom_site_fract_z
Si Si1 0.558839 0.101944 0.364887
Si Si2 0.059290 0.398661 0.709355
Si Si3 0.565610 0.250000 0.046673
Si Si4 0.060732 0.101935 0.464063
Si Si5 0.560711 0.993930 0.900574
Si Si6 0.559484 0.399703 0.806803
Si Si7 0.563232 0.750000 0.051750
O O1 0.750000 0.099677 0.365348
O O2 0.509310 0.250000 0.354621
O O3 0.499693 0.070177 0.414442
O O4 0.503616 0.998427 0.328323
O O5 0.250000 0.397347 0.708269
O O6 0.004769 0.250000 0.702023
O O7 0.006213 0.439074 0.758809
O O8 0.750000 0.250000 0.034777
O O9 0.522970 0.375114 0.075614
O O10 0.466904 0.250000 0.001073
O O11 0.250000 0.100296 0.464002
O O12 0.008433 0.250000 0.474064
O O13 0.000000 0.000000 0.500000
O O14 0.750000 0.975391 0.901893
O O15 0.511126 0.015363 0.849148
O O16 0.516121 0.124046 0.926777
O O17 0.750000 0.401218 0.804934
O O18 0.510295 0.250000 0.814666
O O19 0.750000 0.750000 0.060939
#
# Coordination Sequence:
#
# PCOD9451971 Si02
#       7
#     8   8   4   8   8   8   4
#     4   9  18  34  53  74 107 147 183 223 277 330
#     4   9  18  32  52  78 106 138 179 227 272 321
#     4  12  26  42  58  86 120 150 188 236 285 338
#     4  10  21  36  55  80 110 145 187 232 278 330
#     4  11  22  41  63  85 116 153 190 234 285 339
#     4   9  18  35  58  82 108 142 183 227 276 329
#     4  12  24  40  64  90 114 150 192 232 281 340
#
# _framework density 18.299026000000001
#
# number of rings (size 3 to 8) (size 9 to 14) (size 15 to 20)
#    0.000    2.000    0.833    3.000    0.000    3.667 
#    1.500    1.667    0.000    0.000    0.000    0.000 
#    0.000    0.000    0.000    0.000    0.000    0.000 
#
# Total GULP energy -268011.131504 kJ/mol
# GULP energy per Si atom -5583.565240 kJ/mol
# Density = 1.825738 g / cm^3
# Si number density = 18.299026 Si / 1000 Ang^3
#
#
#
# Elastic Constant Matrix: (Units=GPa)
#
#
# Indices 1 2 3 4 5 6 
#
# 1 13.3796 -1.6481 -0.7366 0.0000 0.0000 0.0000
# 2 -1.6481 95.3850 75.2079 0.0000 0.0000 0.0000
# 3 -0.7366 75.2079 143.4258 0.0000 0.0000 0.0000
# 4 0.0000 0.0000 0.0000 -33.4947 0.0000 0.0000
# 5 0.0000 0.0000 0.0000 0.0000 34.3253 0.0000
# 6 0.0000 0.0000 0.0000 0.0000 0.0000 23.2656
#
#
#
# Elastic Compliance Matrix: (Units=1/GPa)
#
#
# Indices 1 2 3 4 5 6 
#
# 1 0.074921 0.001690 -0.000501 0.000000 0.000000 0.000000
# 2 0.001690 0.017912 -0.009384 0.000000 0.000000 0.000000
# 3 -0.000501 -0.009384 0.011890 0.000000 0.000000 0.000000
# 4 0.000000 0.000000 0.000000 -0.029855 0.000000 0.000000
# 5 0.000000 0.000000 0.000000 0.000000 0.029133 0.000000
# 6 0.000000 0.000000 0.000000 0.000000 0.000000 0.042982
#
#
# Mechanical properties :
#
#
# Convention : Reuss Voigt Hill
#
# Bulk Modulus (GPa) = 11.32082 44.20409 27.76245
# Shear Modulus (GPa) = 25.93128 16.77705 21.35417
#
# Velocity S-wave (km/s) = 3.76850 3.03120 3.41978
# Velocity P-wave (km/s) = 5.01353 6.03820 5.54957
#
# Compressibility (1/GPa) = 0.08833285
#
# Stress axis : x y z
#
# Youngs Moduli (GPa) = 13.34735 55.82932 84.10312
#
# Poissons Ratio (x) = -0.09434 0.04216
# Poissons Ratio (y) = -0.02255 0.78920
# Poissons Ratio (z) = 0.00669 0.52388
#
# Static dielectric constant tensor:
#      x y z
#    x 1.620650 0.000000 0.000000 
#    y 0.000000 1.599610 0.000000 
#    z 0.000000 0.000000 1.602730 
# 
# From -- ./inp_files/33045.got.cif
#   From: 2010.05.17/outbox.cif.g08.bks.cpg/sg59_17_cif.got.tgz:33045.got - 2010.06.03 14:40:33.
