data_PCOD9451707
_publ_section_title
;
Structure prediction by ZEFSAII (Michael W. Deem and Ramdas Pophale) SiO2 
 PCOD9451707
Probable space group: P M M N
;
_chemical_formula_sum "Si O2"
_cell_formula_units_Z 64
_cell_length_a 9.239635
_cell_length_b 14.746544
_cell_length_c 25.207121
_cell_angle_alpha 90.000000
_cell_angle_beta 90.000000
_cell_angle_gamma 90.000000
_cell_volume 3434.537894
_symmetry_space_group_name_H-M "P M M N"
_symmetry_group_IT_number 59
_space_group.IT_coordinate_system_code '2'
_symmetry_cell_setting 'orthorhombic'
loop_
_space_group_symop_operation_xyz
x,y,z
1/2-x,1/2-y,z
1/2+x,-y,-z
-x,1/2+y,-z
-x,-y,-z
1/2+x,1/2+y,-z
1/2-x,y,z
x,1/2-y,z
loop_
_atom_site_type_symbol
_atom_site_label
_atom_site_fract_x
_atom_site_fract_y
_atom_site_fract_z
Si Si1 0.575738 0.001349 0.556496
Si Si2 0.415350 0.360679 0.751218
Si Si3 0.423317 0.491848 0.056476
Si Si4 0.422227 0.855437 0.142122
Si Si5 0.079353 0.857457 0.354974
Si Si6 0.583938 0.639454 0.759293
Si Si7 0.418828 0.640849 0.865605
Si Si8 0.573847 0.853617 0.642194
O O1 0.750000 0.998743 0.549774
O O2 0.531174 0.917086 0.593804
O O3 0.500000 0.000000 0.500000
O O4 0.538720 0.089050 0.592035
O O5 0.250000 0.390963 0.752358
O O6 0.417440 0.250000 0.750967
O O7 0.498257 0.387398 0.804590
O O8 0.493814 0.388425 0.697096
O O9 0.250000 0.483835 0.050861
O O10 0.454807 0.580307 0.092626
O O11 0.488800 0.407911 0.089182
O O12 0.500000 0.500000 0.000000
O O13 0.250000 0.858954 0.151657
O O14 0.461029 0.750000 0.131952
O O15 0.250000 0.873947 0.345501
O O16 0.057819 0.750000 0.361733
O O17 0.750000 0.608265 0.767642
O O18 0.588412 0.750000 0.757584
O O19 0.484152 0.613950 0.808419
O O20 0.530526 0.612171 0.700784
O O21 0.250000 0.616145 0.869631
O O22 0.430268 0.750000 0.869942
O O23 0.750000 0.853066 0.643939
O O24 0.525307 0.750000 0.635094
#
# Coordination Sequence:
#
# PCOD9451707 Si02
#       8
#     8   8   8   8   8   8   8   8
#     4  10  21  35  50  70  96 129 172 214 252 300
#     4   9  17  30  52  83 112 135 166 211 260 309
#     4  11  24  40  58  81 109 144 188 231 270 318
#     4   9  19  37  59  81 108 143 178 214 264 325
#     4   9  18  33  51  71 101 139 171 202 248 309
#     4   8  14  28  52  79 104 131 168 213 260 314
#     4  10  21  37  57  82 114 148 179 218 270 323
#     4   8  15  30  52  75  98 126 162 207 257 306
#
# _framework density 18.634239000000001
#
# number of rings (size 3 to 8) (size 9 to 14) (size 15 to 20)
#    0.000    2.750    0.000    1.875    0.000    5.750 
#    0.000    4.375    0.000    0.750    0.000    0.000 
#    0.000    0.000    0.000    0.000    0.000    0.000 
#
# Total GULP energy -357172.355300 kJ/mol
# GULP energy per Si atom -5580.818052 kJ/mol
# Density = 1.859183 g / cm^3
# Si number density = 18.634239 Si / 1000 Ang^3
#
#
#
# Elastic Constant Matrix: (Units=GPa)
#
#
# Indices 1 2 3 4 5 6 
#
# 1 68.0178 46.3045 87.4169 0.0000 0.0000 0.0000
# 2 46.3045 62.4017 60.9814 0.0000 0.0000 0.0000
# 3 87.4169 60.9814 206.7829 0.0000 0.0000 0.0000
# 4 0.0000 0.0000 0.0000 29.8232 0.0000 0.0000
# 5 0.0000 0.0000 0.0000 0.0000 40.5351 0.0000
# 6 0.0000 0.0000 0.0000 0.0000 0.0000 15.8231
#
#
#
# Elastic Compliance Matrix: (Units=1/GPa)
#
#
# Indices 1 2 3 4 5 6 
#
# 1 0.046343 -0.021414 -0.013276 0.000000 0.000000 0.000000
# 2 -0.021414 0.032409 -0.000505 0.000000 0.000000 0.000000
# 3 -0.013276 -0.000505 0.010597 0.000000 0.000000 0.000000
# 4 0.000000 0.000000 0.000000 0.033531 0.000000 0.000000
# 5 0.000000 0.000000 0.000000 0.000000 0.024670 0.000000
# 6 0.000000 0.000000 0.000000 0.000000 0.000000 0.063199
#
#
# Mechanical properties :
#
#
# Convention : Reuss Voigt Hill
#
# Bulk Modulus (GPa) = 52.74647 80.73423 66.74035
# Shear Modulus (GPa) = 17.39388 26.73627 22.06508
#
# Velocity S-wave (km/s) = 3.05853 3.79198 3.44483
# Velocity P-wave (km/s) = 6.39066 7.91150 7.19140
#
# Compressibility (1/GPa) = 0.01895861
#
# Stress axis : x y z
#
# Youngs Moduli (GPa) = 21.57838 30.85604 94.36412
#
# Poissons Ratio (x) = 0.66076 1.25279
# Poissons Ratio (y) = 0.46208 0.04762
# Poissons Ratio (z) = 0.28648 0.01557
#
# Static dielectric constant tensor:
#      x y z
#    x 1.624810 0.000000 0.000000 
#    y 0.000000 1.681000 0.000000 
#    z 0.000000 0.000000 1.608200 
# 
# From -- ./inp_files/31572.got.cif
#   From: 2010.05.17/outbox.cif.g08.bks.cpg/sg59_16_cif.got.tgz:31572.got - 2010.06.03 14:40:33.
