data_PCOD9451328
_publ_section_title
;
Structure prediction by ZEFSAII (Michael W. Deem and Ramdas Pophale) SiO2 
 PCOD9451328
Probable space group: P M M N
;
_chemical_formula_sum "Si O2"
_cell_formula_units_Z 48
_cell_length_a 7.768027
_cell_length_b 22.696957
_cell_length_c 12.295503
_cell_angle_alpha 90.000000
_cell_angle_beta 90.000000
_cell_angle_gamma 90.000000
_cell_volume 2167.827201
_symmetry_space_group_name_H-M "P M M N"
_symmetry_group_IT_number 59
_space_group.IT_coordinate_system_code '2'
_symmetry_cell_setting 'orthorhombic'
loop_
_space_group_symop_operation_xyz
x,y,z
1/2-x,1/2-y,z
1/2+x,-y,-z
-x,1/2+y,-z
-x,-y,-z
1/2+x,1/2+y,-z
1/2-x,y,z
x,1/2-y,z
loop_
_atom_site_type_symbol
_atom_site_label
_atom_site_fract_x
_atom_site_fract_y
_atom_site_fract_z
Si Si1 0.459763 0.185211 0.907306
Si Si2 0.954992 0.983238 0.876264
Si Si3 0.458232 0.152913 0.148513
Si Si4 0.057534 0.931535 0.502546
Si Si5 0.449101 0.090137 0.734638
Si Si6 0.547618 0.314549 0.386411
O O1 0.250000 0.180588 0.910542
O O2 0.506383 0.250000 0.868325
O O3 0.519138 0.135543 0.824284
O O4 0.516740 0.177060 0.031656
O O5 0.750000 0.989052 0.862919
O O6 0.001944 0.916123 0.852970
O O7 0.043347 0.027082 0.792740
O O8 0.000000 0.000000 0.000000
O O9 0.250000 0.159156 0.153157
O O10 0.531793 0.181844 0.256193
O O11 0.250000 0.935157 0.546871
O O12 0.971500 0.876536 0.567509
O O13 0.049556 0.911499 0.377416
O O14 0.000000 0.000000 0.500000
O O15 0.250000 0.104752 0.709941
O O16 0.750000 0.314217 0.416793
O O17 0.476221 0.250000 0.421342
#
# Coordination Sequence:
#
# PCOD9451328 Si02
#       6
#     8   8   8   8   8   8
#     4   9  18  34  55  81 116 155 192 235 289 347
#     4  11  21  35  57  87 121 157 197 242 295 356
#     4  10  20  36  59  87 118 155 199 245 293 354
#     4  11  24  43  65  89 119 159 204 256 310 365
#     4  11  22  38  59  87 120 154 194 242 297 357
#     4  10  23  42  62  87 121 161 204 254 313 369
#
# _framework density 22.141984999999998
#
# number of rings (size 3 to 8) (size 9 to 14) (size 15 to 20)
#    0.000    1.667    1.667    3.000    0.000    7.000 
#    0.000    0.000    0.000    2.500    0.000    0.000 
#    0.000    0.000    0.000    0.000    0.000    0.000 
#
# Total GULP energy -268067.684696 kJ/mol
# GULP energy per Si atom -5584.743431 kJ/mol
# Density = 2.209159 g / cm^3
# Si number density = 22.141985 Si / 1000 Ang^3
#
#
#
# Elastic Constant Matrix: (Units=GPa)
#
#
# Indices 1 2 3 4 5 6 
#
# 1 30.5825 20.1938 -6.4474 0.0000 0.0000 0.0000
# 2 20.1938 167.9776 39.7178 0.0000 0.0000 0.0000
# 3 -6.4474 39.7178 92.1669 0.0000 0.0000 0.0000
# 4 0.0000 0.0000 0.0000 7.2353 0.0000 0.0000
# 5 0.0000 0.0000 0.0000 0.0000 24.2609 0.0000
# 6 0.0000 0.0000 0.0000 0.0000 0.0000 12.7921
#
#
#
# Elastic Compliance Matrix: (Units=1/GPa)
#
#
# Indices 1 2 3 4 5 6 
#
# 1 0.037547 -0.005717 0.005090 0.000000 0.000000 0.000000
# 2 -0.005717 0.007499 -0.003632 0.000000 0.000000 0.000000
# 3 0.005090 -0.003632 0.012771 0.000000 0.000000 0.000000
# 4 0.000000 0.000000 0.000000 0.138212 0.000000 0.000000
# 5 0.000000 0.000000 0.000000 0.000000 0.041219 0.000000
# 6 0.000000 0.000000 0.000000 0.000000 0.000000 0.078173
#
#
# Mechanical properties :
#
#
# Convention : Reuss Voigt Hill
#
# Bulk Modulus (GPa) = 20.28413 44.18394 32.23403
# Shear Modulus (GPa) = 14.68987 24.67518 19.68252
#
# Velocity S-wave (km/s) = 2.57853 3.34189 2.98472
# Velocity P-wave (km/s) = 4.24804 5.90670 5.14466
#
# Compressibility (1/GPa) = 0.04929963
#
# Stress axis : x y z
#
# Youngs Moduli (GPa) = 26.63344 133.34790 78.30274
#
# Poissons Ratio (x) = 0.76240 -0.39859
# Poissons Ratio (y) = 0.15227 0.28436
# Poissons Ratio (z) = -0.13557 0.48427
#
# Static dielectric constant tensor:
#      x y z
#    x 1.843400 0.000000 0.000000 
#    y 0.000000 1.858080 0.000000 
#    z 0.000000 0.000000 1.770230 
# 
# From -- ./inp_files/14315.got.cif
#   From: 2010.05.17/outbox.cif.g08.bks.cpg/sg59_8_cif.got.tgz:14315.got - 2010.06.03 14:40:33.
