data_PCOD9451249
_publ_section_title
;
Structure prediction by ZEFSAII (Michael W. Deem and Ramdas Pophale) SiO2 
 PCOD9451249
Probable space group: P M M N
;
_chemical_formula_sum "Si O2"
_cell_formula_units_Z 48
_cell_length_a 16.969795
_cell_length_b 9.505151
_cell_length_c 16.641314
_cell_angle_alpha 90.000000
_cell_angle_beta 90.000000
_cell_angle_gamma 90.000000
_cell_volume 2684.251668
_symmetry_space_group_name_H-M "P M M N"
_symmetry_group_IT_number 59
_space_group.IT_coordinate_system_code '2'
_symmetry_cell_setting 'orthorhombic'
loop_
_space_group_symop_operation_xyz
x,y,z
1/2-x,1/2-y,z
1/2+x,-y,-z
-x,1/2+y,-z
-x,-y,-z
1/2+x,1/2+y,-z
1/2-x,y,z
x,1/2-y,z
loop_
_atom_site_type_symbol
_atom_site_label
_atom_site_fract_x
_atom_site_fract_y
_atom_site_fract_z
Si Si1 0.426211 0.420087 0.957341
Si Si2 0.161516 0.581754 0.646409
Si Si3 0.619786 0.412544 0.700638
Si Si4 0.750000 0.580512 0.981801
Si Si5 0.920101 0.081843 0.518938
Si Si6 0.943628 0.910844 0.231696
Si Si7 0.750000 0.917818 0.793431
O O1 0.433249 0.250000 0.971607
O O2 0.434223 0.445590 0.861933
O O3 0.500000 0.500000 0.000000
O O4 0.336469 0.464345 0.983447
O O5 0.250000 0.534605 0.662498
O O6 0.157211 0.750000 0.654935
O O7 0.138084 0.550031 0.554528
O O8 0.103942 0.510428 0.709223
O O9 0.647949 0.250000 0.703869
O O10 0.612306 0.453862 0.607048
O O11 0.534065 0.416609 0.740884
O O12 0.675643 0.514761 0.749350
O O13 0.750000 0.750000 0.991313
O O14 0.750000 0.545013 0.887539
O O15 0.935277 0.250000 0.519790
O O16 0.000000 0.000000 0.500000
O O17 0.915957 0.750000 0.242777
O O18 0.750000 0.750000 0.787029
#
# Coordination Sequence:
#
# PCOD9451249 Si02
#       7
#     8   8   8   4   8   8   4
#     4  10  21  38  61  87 116 152 191 235 291 349
#     4  10  22  37  55  81 114 152 191 231 281 337
#     4  10  21  37  57  83 116 150 185 233 288 334
#     4   9  20  39  59  82 115 152 186 231 293 349
#     4  10  20  36  58  80 110 150 189 229 279 334
#     4  10  21  37  60  87 112 147 193 234 284 343
#     4  11  23  37  57  84 111 146 194 235 277 339
#
# _framework density 17.882079000000001
#
# number of rings (size 3 to 8) (size 9 to 14) (size 15 to 20)
#    0.000    2.000    1.667    1.250    2.333    2.333 
#    0.000    1.250    0.000    0.000    0.000    0.000 
#    0.000    0.000    0.000    0.000    0.000    0.000 
#
# Total GULP energy -267752.943506 kJ/mol
# GULP energy per Si atom -5578.186323 kJ/mol
# Density = 1.784138 g / cm^3
# Si number density = 17.882079 Si / 1000 Ang^3
#
#
#
# Elastic Constant Matrix: (Units=GPa)
#
#
# Indices 1 2 3 4 5 6 
#
# 1 114.6249 40.7256 67.7157 0.0000 0.0000 0.0000
# 2 40.7256 32.3894 52.5690 0.0000 0.0000 0.0000
# 3 67.7157 52.5690 149.8082 0.0000 0.0000 0.0000
# 4 0.0000 0.0000 0.0000 27.0079 0.0000 0.0000
# 5 0.0000 0.0000 0.0000 0.0000 14.2844 0.0000
# 6 0.0000 0.0000 0.0000 0.0000 0.0000 24.1676
#
#
#
# Elastic Compliance Matrix: (Units=1/GPa)
#
#
# Indices 1 2 3 4 5 6 
#
# 1 0.015779 -0.019198 -0.000396 0.000000 0.000000 0.000000
# 2 -0.019198 0.095080 -0.024687 0.000000 0.000000 0.000000
# 3 -0.000396 -0.024687 0.015517 0.000000 0.000000 0.000000
# 4 0.000000 0.000000 0.000000 0.037026 0.000000 0.000000
# 5 0.000000 0.000000 0.000000 0.000000 0.070007 0.000000
# 6 0.000000 0.000000 0.000000 0.000000 0.000000 0.041378
#
#
# Mechanical properties :
#
#
# Convention : Reuss Voigt Hill
#
# Bulk Modulus (GPa) = 26.44404 68.76036 47.60220
# Shear Modulus (GPa) = 13.29958 22.14613 17.72285
#
# Velocity S-wave (km/s) = 2.73011 3.52298 3.15158
# Velocity P-wave (km/s) = 4.97576 7.42187 6.31832
#
# Compressibility (1/GPa) = 0.03781571
#
# Stress axis : x y z
#
# Youngs Moduli (GPa) = 63.37704 10.51741 64.44594
#
# Poissons Ratio (x) = 0.20191 0.02549
# Poissons Ratio (y) = 1.21668 1.59097
# Poissons Ratio (z) = 0.02507 0.25964
#
# Static dielectric constant tensor:
#      x y z
#    x 1.588780 0.000000 0.000000 
#    y 0.000000 1.601550 0.000000 
#    z 0.000000 0.000000 1.598740 
# 
# From -- ./inp_files/20528.got.cif
#   From: 2010.05.17/outbox.cif.g08.bks.cpg/sg59_11_cif.got.tgz:20528.got - 2010.06.03 14:40:33.
