data_PCOD9451487
_publ_section_title
;
Structure prediction by ZEFSAII (Michael W. Deem and Ramdas Pophale) SiO2 
 PCOD9451487
Probable space group: P M M N
;
_chemical_formula_sum "Si O2"
_cell_formula_units_Z 64
_cell_length_a 7.654445
_cell_length_b 31.603525
_cell_length_c 12.102444
_cell_angle_alpha 90.000000
_cell_angle_beta 90.000000
_cell_angle_gamma 90.000000
_cell_volume 2927.671293
_symmetry_space_group_name_H-M "P M M N"
_symmetry_group_IT_number 59
_space_group.IT_coordinate_system_code '2'
_symmetry_cell_setting 'orthorhombic'
loop_
_space_group_symop_operation_xyz
x,y,z
1/2-x,1/2-y,z
1/2+x,-y,-z
-x,1/2+y,-z
-x,-y,-z
1/2+x,1/2+y,-z
1/2-x,y,z
x,1/2-y,z
loop_
_atom_site_type_symbol
_atom_site_label
_atom_site_fract_x
_atom_site_fract_y
_atom_site_fract_z
Si Si1 0.952443 0.620570 0.348890
Si Si2 0.541908 0.796210 0.231881
Si Si3 0.548592 0.132272 0.403576
Si Si4 0.454879 0.442442 0.244065
Si Si5 0.959776 0.163891 0.996214
Si Si6 0.463779 0.798706 0.767883
Si Si7 0.046079 0.432957 0.997618
Si Si8 0.962517 0.535556 0.234304
O O1 0.750000 0.620130 0.312816
O O2 0.031546 0.663175 0.296624
O O3 0.024984 0.576454 0.302516
O O4 0.959162 0.623292 0.480408
O O5 0.750000 0.794767 0.253141
O O6 0.469690 0.750000 0.261461
O O7 0.514190 0.805427 0.102557
O O8 0.750000 0.141478 0.429608
O O9 0.539621 0.091460 0.324619
O O10 0.477053 0.171627 0.332603
O O11 0.250000 0.431385 0.239654
O O12 0.530606 0.439811 0.119406
O O13 0.475671 0.490822 0.280425
O O14 0.750000 0.161136 0.997964
O O15 0.018921 0.180900 0.115445
O O16 0.031160 0.117010 0.973342
O O17 0.250000 0.799478 0.767923
O O18 0.518274 0.750000 0.759177
O O19 0.250000 0.444436 0.004773
O O20 0.974486 0.458181 0.892483
O O21 0.750000 0.534731 0.234459
#
# Coordination Sequence:
#
# PCOD9451487 Si02
#       8
#     8   8   8   8   8   8   8   8
#     4  10  22  41  61  83 114 154 197 244 291 338
#     4  10  21  39  62  87 120 159 195 236 292 352
#     4  11  23  40  61  84 114 155 199 243 292 347
#     4  11  23  38  61  90 120 150 190 242 290 347
#     4  11  20  33  59  90 122 154 190 238 287 346
#     4   9  19  36  57  84 118 153 188 233 290 342
#     4  10  20  37  60  87 120 155 189 233 291 352
#     4  10  21  39  62  85 117 155 190 235 292 351
#
# _framework density 21.860378000000001
#
# number of rings (size 3 to 8) (size 9 to 14) (size 15 to 20)
#    0.000    1.750    2.500    1.875    0.000    3.750 
#    0.000    0.000    0.000    3.375    0.000    0.000 
#    0.000    0.000    0.000    0.000    0.000    0.000 
#
# Total GULP energy -357701.163843 kJ/mol
# GULP energy per Si atom -5589.080685 kJ/mol
# Density = 2.181062 g / cm^3
# Si number density = 21.860378 Si / 1000 Ang^3
#
#
#
# Elastic Constant Matrix: (Units=GPa)
#
#
# Indices 1 2 3 4 5 6 
#
# 1 44.2478 -11.1827 -11.2844 0.0000 0.0000 0.0000
# 2 -11.1827 103.8820 23.2338 0.0000 0.0000 0.0000
# 3 -11.2844 23.2338 76.2595 0.0000 0.0000 0.0000
# 4 0.0000 0.0000 0.0000 62.1430 0.0000 0.0000
# 5 0.0000 0.0000 0.0000 0.0000 -13.0122 0.0000
# 6 0.0000 0.0000 0.0000 0.0000 0.0000 7.7794
#
#
#
# Elastic Compliance Matrix: (Units=1/GPa)
#
#
# Indices 1 2 3 4 5 6 
#
# 1 0.023833 0.001907 0.002946 0.000000 0.000000 0.000000
# 2 0.001907 0.010483 -0.002912 0.000000 0.000000 0.000000
# 3 0.002946 -0.002912 0.014436 0.000000 0.000000 0.000000
# 4 0.000000 0.000000 0.000000 0.016092 0.000000 0.000000
# 5 0.000000 0.000000 0.000000 0.000000 -0.076851 0.000000
# 6 0.000000 0.000000 0.000000 0.000000 0.000000 0.128544
#
#
# Mechanical properties :
#
#
# Convention : Reuss Voigt Hill
#
# Bulk Modulus (GPa) = 18.99920 25.10253 22.05087
# Shear Modulus (GPa) = 38.40244 26.29022 32.34633
#
# Velocity S-wave (km/s) = 4.19586 3.47168 3.85083
# Velocity P-wave (km/s) = 5.67307 5.25148 5.46634
#
# Compressibility (1/GPa) = 0.05263379
#
# Stress axis : x y z
#
# Youngs Moduli (GPa) = 41.95836 95.39476 69.27087
#
# Poissons Ratio (x) = -0.18189 -0.20406
# Poissons Ratio (y) = -0.08000 0.20169
# Poissons Ratio (z) = -0.12360 0.27775
#
# Static dielectric constant tensor:
#      x y z
#    x 1.819110 0.000000 0.000000 
#    y 0.000000 1.787980 0.000000 
#    z 0.000000 0.000000 1.769410 
# 
# From -- ./inp_files/14928.got.cif
#   From: 2010.05.17/outbox.cif.g08.bks.cpg/sg59_8_cif.got.tgz:14928.got - 2010.06.03 14:40:33.
