data_PCOD9451496
_publ_section_title
;
Structure prediction by ZEFSAII (Michael W. Deem and Ramdas Pophale) SiO2 
 PCOD9451496
Probable space group: P M M N
;
_chemical_formula_sum "Si O2"
_cell_formula_units_Z 56
_cell_length_a 9.284985
_cell_length_b 18.840689
_cell_length_c 16.717816
_cell_angle_alpha 90.000000
_cell_angle_beta 90.000000
_cell_angle_gamma 90.000000
_cell_volume 2924.539748
_symmetry_space_group_name_H-M "P M M N"
_symmetry_group_IT_number 59
_space_group.IT_coordinate_system_code '2'
_symmetry_cell_setting 'orthorhombic'
loop_
_space_group_symop_operation_xyz
x,y,z
1/2-x,1/2-y,z
1/2+x,-y,-z
-x,1/2+y,-z
-x,-y,-z
1/2+x,1/2+y,-z
1/2-x,y,z
x,1/2-y,z
loop_
_atom_site_type_symbol
_atom_site_label
_atom_site_fract_x
_atom_site_fract_y
_atom_site_fract_z
Si Si1 0.079981 0.035079 0.424294
Si Si2 0.580144 0.448617 0.260949
Si Si3 0.076884 0.423761 0.999208
Si Si4 0.582381 0.831106 0.479094
Si Si5 0.918136 0.595556 0.177531
Si Si6 0.423039 0.166120 0.158063
Si Si7 0.914235 0.335477 0.678128
O O1 0.250000 0.016604 0.421977
O O2 0.068166 0.118818 0.444970
O O3 0.000193 0.024198 0.340619
O O4 0.000000 0.000000 0.500000
O O5 0.750000 0.438236 0.276765
O O6 0.565986 0.511630 0.195792
O O7 0.505914 0.378314 0.225921
O O8 0.250000 0.435054 0.999745
O O9 0.039633 0.389238 0.913533
O O10 0.041905 0.373041 0.073881
O O11 0.000000 0.500000 0.000000
O O12 0.750000 0.832807 0.454440
O O13 0.542124 0.750000 0.496464
O O14 0.491186 0.858005 0.403846
O O15 0.750000 0.613242 0.188122
O O16 0.007736 0.636094 0.243882
O O17 0.250000 0.159659 0.170139
O O18 0.457902 0.250000 0.156610
O O19 0.750000 0.359295 0.677355
O O20 0.919052 0.250000 0.678787
#
# Coordination Sequence:
#
# PCOD9451496 Si02
#       7
#     8   8   8   8   8   8   8
#     4  11  23  38  58  86 118 152 195 246 296 350
#     4  11  23  39  59  86 118 154 196 243 296 353
#     4  10  20  37  61  87 115 151 194 241 290 344
#     4   9  19  37  58  77 103 144 189 232 282 340
#     4  10  21  36  57  84 114 151 193 232 280 347
#     4  10  22  40  62  89 120 156 200 247 297 355
#     4  10  21  35  53  82 116 147 185 235 288 341
#
# _framework density 19.148313000000002
#
# number of rings (size 3 to 8) (size 9 to 14) (size 15 to 20)
#    0.000    1.857    1.429    2.143    0.000    8.571 
#    0.000    2.857    0.000    0.000    0.000    0.000 
#    0.000    0.000    0.000    0.000    0.000    0.000 
#
# Total GULP energy -312693.902707 kJ/mol
# GULP energy per Si atom -5583.819691 kJ/mol
# Density = 1.910473 g / cm^3
# Si number density = 19.148313 Si / 1000 Ang^3
#
#
#
# Elastic Constant Matrix: (Units=GPa)
#
#
# Indices 1 2 3 4 5 6 
#
# 1 60.8364 30.2430 41.9066 0.0000 0.0000 0.0000
# 2 30.2430 62.0025 24.0177 0.0000 0.0000 0.0000
# 3 41.9066 24.0177 95.1239 0.0000 0.0000 0.0000
# 4 0.0000 0.0000 0.0000 33.7633 0.0000 0.0000
# 5 0.0000 0.0000 0.0000 0.0000 26.6462 0.0000
# 6 0.0000 0.0000 0.0000 0.0000 0.0000 30.5425
#
#
#
# Elastic Compliance Matrix: (Units=1/GPa)
#
#
# Indices 1 2 3 4 5 6 
#
# 1 0.028198 -0.009911 -0.009920 0.000000 0.000000 0.000000
# 2 -0.009911 0.021361 -0.001027 0.000000 0.000000 0.000000
# 3 -0.009920 -0.001027 0.015142 0.000000 0.000000 0.000000
# 4 0.000000 0.000000 0.000000 0.029618 0.000000 0.000000
# 5 0.000000 0.000000 0.000000 0.000000 0.037529 0.000000
# 6 0.000000 0.000000 0.000000 0.000000 0.000000 0.032741
#
#
# Mechanical properties :
#
#
# Convention : Reuss Voigt Hill
#
# Bulk Modulus (GPa) = 43.50831 45.58858 44.54844
# Shear Modulus (GPa) = 23.36808 26.31010 24.83909
#
# Velocity S-wave (km/s) = 3.49717 3.71079 3.60557
# Velocity P-wave (km/s) = 6.25124 6.49768 6.37565
#
# Compressibility (1/GPa) = 0.02298411
#
# Stress axis : x y z
#
# Youngs Moduli (GPa) = 35.46339 46.81497 66.04087
#
# Poissons Ratio (x) = 0.46401 0.65513
# Poissons Ratio (y) = 0.35150 0.06781
# Poissons Ratio (z) = 0.35180 0.04807
#
# Static dielectric constant tensor:
#      x y z
#    x 1.648950 0.000000 0.000000 
#    y 0.000000 1.689170 0.000000 
#    z 0.000000 0.000000 1.645300 
# 
# From -- ./inp_files/20940.got.cif
#   From: 2010.05.17/outbox.cif.g08.bks.cpg/sg59_11_cif.got.tgz:20940.got - 2010.06.03 14:40:33.
