data_PCOD9451860
_publ_section_title
;
Structure prediction by ZEFSAII (Michael W. Deem and Ramdas Pophale) SiO2 
 PCOD9451860
Probable space group: P M M N
;
_chemical_formula_sum "Si O2"
_cell_formula_units_Z 56
_cell_length_a 21.557415
_cell_length_b 7.477611
_cell_length_c 14.574000
_cell_angle_alpha 90.000000
_cell_angle_beta 90.000000
_cell_angle_gamma 90.000000
_cell_volume 2349.299121
_symmetry_space_group_name_H-M "P M M N"
_symmetry_group_IT_number 59
_space_group.IT_coordinate_system_code '2'
_symmetry_cell_setting 'orthorhombic'
loop_
_space_group_symop_operation_xyz
x,y,z
1/2-x,1/2-y,z
1/2+x,-y,-z
-x,1/2+y,-z
-x,-y,-z
1/2+x,1/2+y,-z
1/2-x,y,z
x,1/2-y,z
loop_
_atom_site_type_symbol
_atom_site_label
_atom_site_fract_x
_atom_site_fract_y
_atom_site_fract_z
Si Si1 0.181620 0.536334 0.688496
Si Si2 0.179206 0.530681 0.028531
Si Si3 0.497413 0.960603 0.287992
Si Si4 0.396235 0.961254 0.858915
Si Si5 0.317436 0.462053 0.424538
Si Si6 0.636810 0.465676 0.770741
Si Si7 0.922371 0.950793 0.450120
O O1 0.250000 0.473176 0.669534
O O2 0.177340 0.750000 0.670763
O O3 0.163142 0.510884 0.793556
O O4 0.131649 0.442291 0.626302
O O5 0.250000 0.477215 0.005603
O O6 0.178763 0.750000 0.025684
O O7 0.162286 0.473392 0.131509
O O8 0.125962 0.469042 0.957337
O O9 0.490163 0.750000 0.305325
O O10 0.432003 0.034087 0.254063
O O11 0.523344 0.033818 0.386135
O O12 0.546357 0.975616 0.203790
O O13 0.407214 0.750000 0.868859
O O14 0.250000 0.533063 0.456868
O O15 0.318406 0.250000 0.444676
O O16 0.321492 0.486819 0.316003
O O17 0.381627 0.537169 0.468257
O O18 0.633853 0.250000 0.776320
O O19 0.941288 0.750000 0.476615
#
# Coordination Sequence:
#
# PCOD9451860 Si02
#       7
#     8   8   8   8   8   8   8
#     4   9  16  26  43  70 100 126 158 204 249 289
#     4   9  17  31  52  76 101 132 170 209 251 300
#     4   9  19  35  52  75 106 135 167 207 250 298
#     4   9  17  30  50  74  99 130 167 204 246 299
#     4  10  21  36  53  74  99 129 168 212 257 304
#     4  10  21  36  54  75 101 136 175 212 249 294
#     4   9  18  33  51  70  98 135 167 199 248 308
#
# _framework density 23.836894999999998
#
# number of rings (size 3 to 8) (size 9 to 14) (size 15 to 20)
#    0.000    2.714    0.000    1.286    0.000    5.714 
#    0.000    0.714    0.000    2.143    0.000    0.000 
#    0.000    0.000    0.000    0.000    0.000    0.000 
#
# Total GULP energy -312461.404208 kJ/mol
# GULP energy per Si atom -5579.667932 kJ/mol
# Density = 2.378264 g / cm^3
# Si number density = 23.836895 Si / 1000 Ang^3
#
#
#
# Elastic Constant Matrix: (Units=GPa)
#
#
# Indices 1 2 3 4 5 6 
#
# 1 130.3178 8.3156 25.2940 0.0000 0.0000 0.0000
# 2 8.3156 62.3225 16.4133 0.0000 0.0000 0.0000
# 3 25.2940 16.4133 113.5261 0.0000 0.0000 0.0000
# 4 0.0000 0.0000 0.0000 16.3215 0.0000 0.0000
# 5 0.0000 0.0000 0.0000 0.0000 20.2826 0.0000
# 6 0.0000 0.0000 0.0000 0.0000 0.0000 -18.8431
#
#
#
# Elastic Compliance Matrix: (Units=1/GPa)
#
#
# Indices 1 2 3 4 5 6 
#
# 1 0.008044 -0.000625 -0.001702 0.000000 0.000000 0.000000
# 2 -0.000625 0.016729 -0.002279 0.000000 0.000000 0.000000
# 3 -0.001702 -0.002279 0.009517 0.000000 0.000000 0.000000
# 4 0.000000 0.000000 0.000000 0.061269 0.000000 0.000000
# 5 0.000000 0.000000 0.000000 0.000000 0.049303 0.000000
# 6 0.000000 0.000000 0.000000 0.000000 0.000000 -0.053070
#
#
# Mechanical properties :
#
#
# Convention : Reuss Voigt Hill
#
# Bulk Modulus (GPa) = 39.87601 45.13467 42.50534
# Shear Modulus (GPa) = 45.71859 20.62842 33.17351
#
# Velocity S-wave (km/s) = 4.38422 2.94496 3.73458
# Velocity P-wave (km/s) = 6.51103 5.52626 6.03876
#
# Compressibility (1/GPa) = 0.02507773
#
# Stress axis : x y z
#
# Youngs Moduli (GPa) = 124.32019 59.77541 105.07225
#
# Poissons Ratio (x) = 0.03736 0.17881
# Poissons Ratio (y) = 0.07771 0.23950
# Poissons Ratio (z) = 0.21157 0.13625
#
# Static dielectric constant tensor:
#      x y z
#    x 1.960470 0.000000 0.000000 
#    y 0.000000 1.922080 0.000000 
#    z 0.000000 0.000000 1.907340 
# 
# From -- ./inp_files/24259.got.cif
#   From: 2010.05.17/outbox.cif.g08.bks.cpg/sg59_13_cif.got.tgz:24259.got - 2010.06.03 14:40:33.
