data_PCOD9451000
_publ_section_title
;
Structure prediction by ZEFSAII (Michael W. Deem and Ramdas Pophale) SiO2 
 PCOD9451000
Probable space group: P M M N
;
_chemical_formula_sum "Si O2"
_cell_formula_units_Z 48
_cell_length_a 9.311521
_cell_length_b 7.673008
_cell_length_c 35.350302
_cell_angle_alpha 90.000000
_cell_angle_beta 90.000000
_cell_angle_gamma 90.000000
_cell_volume 2525.686288
_symmetry_space_group_name_H-M "P M M N"
_symmetry_group_IT_number 59
_space_group.IT_coordinate_system_code '2'
_symmetry_cell_setting 'orthorhombic'
loop_
_space_group_symop_operation_xyz
x,y,z
1/2-x,1/2-y,z
1/2+x,-y,-z
-x,1/2+y,-z
-x,-y,-z
1/2+x,1/2+y,-z
1/2-x,y,z
x,1/2-y,z
loop_
_atom_site_type_symbol
_atom_site_label
_atom_site_fract_x
_atom_site_fract_y
_atom_site_fract_z
Si Si1 0.087196 0.541251 0.389210
Si Si2 0.421694 0.549398 0.961168
Si Si3 0.578946 0.544463 0.762206
Si Si4 0.922670 0.750000 0.097523
Si Si5 0.913394 0.040245 0.313534
Si Si6 0.578237 0.250000 0.822516
Si Si7 0.413410 0.459745 0.537974
O O1 0.250000 0.472514 0.388117
O O2 0.096344 0.750000 0.393609
O O3 0.003796 0.507819 0.350415
O O4 0.998038 0.473555 0.425181
O O5 0.250000 0.531722 0.966862
O O6 0.453052 0.750000 0.951680
O O7 0.462728 0.418010 0.927721
O O8 0.500000 0.500000 0.000000
O O9 0.750000 0.527393 0.754866
O O10 0.549955 0.750000 0.769465
O O11 0.492697 0.486295 0.724985
O O12 0.542938 0.420143 0.797285
O O13 0.750000 0.750000 0.102295
O O14 0.997693 0.750000 0.137867
O O15 0.750000 0.974302 0.315769
O O16 0.908111 0.250000 0.312325
O O17 0.750000 0.250000 0.828739
O O18 0.500000 0.500000 0.500000
O O19 0.250000 0.525974 0.536314
O O20 0.405979 0.250000 0.541146
#
# Coordination Sequence:
#
# PCOD9451000 Si02
#       7
#     8   8   8   4   8   4   8
#     4  10  21  36  55  79 107 139 177 221 269 322
#     4  10  20  35  57  84 115 152 194 241 292 346
#     4   9  19  37  58  80 111 147 186 237 287 336
#     4  10  22  38  54  82 120 152 190 240 294 348
#     4  10  21  36  55  82 112 141 177 222 274 331
#     4  10  22  38  58  84 112 150 200 240 284 348
#     4  10  21  37  56  78 105 139 179 221 268 324
#
# _framework density 19.004736999999999
#
# number of rings (size 3 to 8) (size 9 to 14) (size 15 to 20)
#    0.000    2.167    0.833    1.500    1.167    5.667 
#    0.000    0.000    0.000    0.000    0.000    0.000 
#    0.000    0.000    0.000    0.000    0.000    0.000 
#
# Total GULP energy -268072.359156 kJ/mol
# GULP energy per Si atom -5584.840816 kJ/mol
# Density = 1.896148 g / cm^3
# Si number density = 19.004737 Si / 1000 Ang^3
#
#
#
# Elastic Constant Matrix: (Units=GPa)
#
#
# Indices 1 2 3 4 5 6 
#
# 1 123.9600 47.9402 108.6948 0.0000 0.0000 0.0000
# 2 47.9402 84.6835 64.5392 0.0000 0.0000 0.0000
# 3 108.6948 64.5392 213.5637 0.0000 0.0000 0.0000
# 4 0.0000 0.0000 0.0000 30.2589 0.0000 0.0000
# 5 0.0000 0.0000 0.0000 0.0000 43.7209 0.0000
# 6 0.0000 0.0000 0.0000 0.0000 0.0000 18.7825
#
#
#
# Elastic Compliance Matrix: (Units=1/GPa)
#
#
# Indices 1 2 3 4 5 6 
#
# 1 0.015351 -0.003554 -0.006739 0.000000 0.000000 0.000000
# 2 -0.003554 0.016165 -0.003076 0.000000 0.000000 0.000000
# 3 -0.006739 -0.003076 0.009042 0.000000 0.000000 0.000000
# 4 0.000000 0.000000 0.000000 0.033048 0.000000 0.000000
# 5 0.000000 0.000000 0.000000 0.000000 0.022872 0.000000
# 6 0.000000 0.000000 0.000000 0.000000 0.000000 0.053241
#
#
# Mechanical properties :
#
#
# Convention : Reuss Voigt Hill
#
# Bulk Modulus (GPa) = 72.36319 96.06175 84.21247
# Shear Modulus (GPa) = 27.61460 31.95467 29.78463
#
# Velocity S-wave (km/s) = 3.81601 4.10494 3.96311
# Velocity P-wave (km/s) = 7.58782 8.55122 8.08388
#
# Compressibility (1/GPa) = 0.01381918
#
# Stress axis : x y z
#
# Youngs Moduli (GPa) = 65.14424 61.86109 110.59860
#
# Poissons Ratio (x) = 0.21988 0.74528
# Poissons Ratio (y) = 0.23155 0.34021
# Poissons Ratio (z) = 0.43898 0.19029
#
# Static dielectric constant tensor:
#      x y z
#    x 1.656790 0.000000 0.000000 
#    y 0.000000 1.690570 0.000000 
#    z 0.000000 0.000000 1.602000 
# 
# From -- ./inp_files/32926.got.cif
#   From: 2010.05.17/outbox.cif.g08.bks.cpg/sg59_17_cif.got.tgz:32926.got - 2010.06.03 14:40:33.
