data_PCOD9451052
_publ_section_title
;
Structure prediction by ZEFSAII (Michael W. Deem and Ramdas Pophale) SiO2 
 PCOD9451052
Probable space group: P M M N
;
_chemical_formula_sum "Si O2"
_cell_formula_units_Z 48
_cell_length_a 8.959797
_cell_length_b 19.353521
_cell_length_c 15.353046
_cell_angle_alpha 90.000000
_cell_angle_beta 90.000000
_cell_angle_gamma 90.000000
_cell_volume 2662.273745
_symmetry_space_group_name_H-M "P M M N"
_symmetry_group_IT_number 59
_space_group.IT_coordinate_system_code '2'
_symmetry_cell_setting 'orthorhombic'
loop_
_space_group_symop_operation_xyz
x,y,z
1/2-x,1/2-y,z
1/2+x,-y,-z
-x,1/2+y,-z
-x,-y,-z
1/2+x,1/2+y,-z
1/2-x,y,z
x,1/2-y,z
loop_
_atom_site_type_symbol
_atom_site_label
_atom_site_fract_x
_atom_site_fract_y
_atom_site_fract_z
Si Si1 0.572121 0.081756 0.596910
Si Si2 0.072532 0.927645 0.898453
Si Si3 0.570734 0.830752 0.757398
Si Si4 0.071277 0.169035 0.751509
Si Si5 0.927683 0.424531 0.896917
Si Si6 0.428608 0.079408 0.410656
O O1 0.750000 0.090726 0.601513
O O2 0.493384 0.129271 0.667932
O O3 0.512788 0.096592 0.499887
O O4 0.538544 0.000452 0.613344
O O5 0.250000 0.935332 0.887876
O O6 0.009850 0.868087 0.837132
O O7 0.042473 0.912888 0.000480
O O8 0.993008 0.999886 0.875346
O O9 0.750000 0.837401 0.768301
O O10 0.534025 0.750000 0.752203
O O11 0.530779 0.870574 0.668484
O O12 0.250000 0.162807 0.752671
O O13 0.032168 0.250000 0.748875
O O14 0.003439 0.132182 0.836299
O O15 0.750000 0.424673 0.882913
O O16 0.250000 0.084306 0.425613
#
# Coordination Sequence:
#
# PCOD9451052 Si02
#       6
#     8   8   8   8   8   8
#     4  10  20  35  58  84 109 143 186 231 278 328
#     4  10  21  37  59  85 112 144 183 229 279 330
#     4  10  21  36  55  80 112 151 190 228 273 326
#     4  11  24  39  56  81 114 151 187 226 276 332
#     4  10  21  38  60  84 110 143 185 231 276 326
#     4   9  19  36  56  80 111 146 185 228 274 325
#
# _framework density 18.029700999999999
#
# number of rings (size 3 to 8) (size 9 to 14) (size 15 to 20)
#    0.000    2.000    0.000    3.000    0.000    7.667 
#    0.000    5.000    0.000    0.000    0.000    0.000 
#    0.000    0.000    0.000    0.000    0.000    0.000 
#
# Total GULP energy -268191.013228 kJ/mol
# GULP energy per Si atom -5587.312776 kJ/mol
# Density = 1.798866 g / cm^3
# Si number density = 18.029701 Si / 1000 Ang^3
#
#
#
# Elastic Constant Matrix: (Units=GPa)
#
#
# Indices 1 2 3 4 5 6 
#
# 1 60.3596 71.7054 65.1545 0.0000 0.0000 0.0000
# 2 71.7054 143.7920 105.2060 0.0000 0.0000 0.0000
# 3 65.1545 105.2060 113.1625 0.0000 0.0000 0.0000
# 4 0.0000 0.0000 0.0000 -22.7247 0.0000 0.0000
# 5 0.0000 0.0000 0.0000 0.0000 28.2528 0.0000
# 6 0.0000 0.0000 0.0000 0.0000 0.0000 30.9415
#
#
#
# Elastic Compliance Matrix: (Units=1/GPa)
#
#
# Indices 1 2 3 4 5 6 
#
# 1 0.049625 -0.012014 -0.017403 0.000000 0.000000 0.000000
# 2 -0.012014 0.024655 -0.016005 0.000000 0.000000 0.000000
# 3 -0.017403 -0.016005 0.033737 0.000000 0.000000 0.000000
# 4 0.000000 0.000000 0.000000 -0.044005 0.000000 0.000000
# 5 0.000000 0.000000 0.000000 0.000000 0.035395 0.000000
# 6 0.000000 0.000000 0.000000 0.000000 0.000000 0.032319
#
#
# Mechanical properties :
#
#
# Convention : Reuss Voigt Hill
#
# Bulk Modulus (GPa) = 58.22947 89.04953 73.63950
# Shear Modulus (GPa) = 21.90166 12.31045 17.10605
#
# Velocity S-wave (km/s) = 3.48911 2.61585 3.08355
# Velocity P-wave (km/s) = 6.97126 7.65645 7.32187
#
# Compressibility (1/GPa) = 0.01717344
#
# Stress axis : x y z
#
# Youngs Moduli (GPa) = 20.15128 40.55899 29.64146
#
# Poissons Ratio (x) = 0.48726 0.51585
# Poissons Ratio (y) = 0.24209 0.47441
# Poissons Ratio (z) = 0.35069 0.64915
#
# Static dielectric constant tensor:
#      x y z
#    x 1.602420 0.000000 0.000000 
#    y 0.000000 1.588840 0.000000 
#    z 0.000000 0.000000 1.593750 
# 
# From -- ./inp_files/20333.got.cif
#   From: 2010.05.17/outbox.cif.g08.bks.cpg/sg59_11_cif.got.tgz:20333.got - 2010.06.03 14:40:33.
