data_PCOD9451243
_publ_section_title
;
Structure prediction by ZEFSAII (Michael W. Deem and Ramdas Pophale) SiO2 
 PCOD9451243
Probable space group: P M M N
;
_chemical_formula_sum "Si O2"
_cell_formula_units_Z 64
_cell_length_a 14.458224
_cell_length_b 18.452019
_cell_length_c 12.181969
_cell_angle_alpha 90.000000
_cell_angle_beta 90.000000
_cell_angle_gamma 90.000000
_cell_volume 3249.947400
_symmetry_space_group_name_H-M "P M M N"
_symmetry_group_IT_number 59
_space_group.IT_coordinate_system_code '2'
_symmetry_cell_setting 'orthorhombic'
loop_
_space_group_symop_operation_xyz
x,y,z
1/2-x,1/2-y,z
1/2+x,-y,-z
-x,1/2+y,-z
-x,-y,-z
1/2+x,1/2+y,-z
1/2-x,y,z
x,1/2-y,z
loop_
_atom_site_type_symbol
_atom_site_label
_atom_site_fract_x
_atom_site_fract_y
_atom_site_fract_z
Si Si1 0.034012 0.337091 0.474562
Si Si2 0.032193 0.883470 0.866599
Si Si3 0.145617 0.663372 0.660121
Si Si4 0.508157 0.832226 0.279140
Si Si5 0.647049 0.505473 0.034017
Si Si6 0.911323 0.830681 0.045344
Si Si7 0.854380 0.599390 0.716233
Si Si8 0.851046 0.440995 0.789012
O O1 0.036511 0.250000 0.463341
O O2 0.114497 0.368889 0.399405
O O3 0.934754 0.362477 0.423993
O O4 0.044977 0.355388 0.602183
O O5 0.107974 0.852350 0.782921
O O6 0.935175 0.878777 0.801049
O O7 0.067709 0.964489 0.896669
O O8 0.008755 0.841110 0.979152
O O9 0.250000 0.634725 0.643471
O O10 0.149770 0.750000 0.647289
O O11 0.472931 0.750000 0.292845
O O12 0.577470 0.830832 0.176722
O O13 0.428551 0.885611 0.242482
O O14 0.750000 0.489378 0.078315
O O15 0.637295 0.592105 0.023073
O O16 0.641350 0.471037 0.912937
O O17 0.874909 0.750000 0.014260
O O18 0.750000 0.621562 0.748148
O O19 0.856403 0.512575 0.714818
O O20 0.750000 0.407254 0.777035
#
# Coordination Sequence:
#
# PCOD9451243 Si02
#       8
#     8   8   8   8   8   8   8   8
#     4   9  20  38  59  84 116 158 202 241 299 359
#     4  11  19  35  61  87 118 157 195 244 306 365
#     4   9  18  33  54  83 118 152 194 250 302 356
#     4  10  21  38  59  84 116 158 201 245 298 361
#     4  11  22  38  59  87 125 166 202 242 300 367
#     4  11  22  36  57  86 120 157 201 249 299 357
#     4  10  21  37  60  88 114 147 197 251 301 350
#     4  10  20  36  57  86 120 155 199 247 296 356
#
# _framework density 19.692627000000002
#
# number of rings (size 3 to 8) (size 9 to 14) (size 15 to 20)
#    0.000    1.875    2.500    1.875    0.000    2.250 
#    0.000    1.875    0.000    5.250    0.000    0.000 
#    0.000    0.000    0.000    0.000    0.000    0.000 
#
# Total GULP energy -356676.696953 kJ/mol
# GULP energy per Si atom -5573.073390 kJ/mol
# Density = 1.964781 g / cm^3
# Si number density = 19.692627 Si / 1000 Ang^3
#
#
#
# Elastic Constant Matrix: (Units=GPa)
#
#
# Indices 1 2 3 4 5 6 
#
# 1 82.6021 23.6101 18.9422 0.0000 0.0000 0.0000
# 2 23.6101 49.4511 22.2245 0.0000 0.0000 0.0000
# 3 18.9422 22.2245 95.3206 0.0000 0.0000 0.0000
# 4 0.0000 0.0000 0.0000 26.9452 0.0000 0.0000
# 5 0.0000 0.0000 0.0000 0.0000 12.2964 0.0000
# 6 0.0000 0.0000 0.0000 0.0000 0.0000 245.3747
#
#
#
# Elastic Compliance Matrix: (Units=1/GPa)
#
#
# Indices 1 2 3 4 5 6 
#
# 1 0.014181 -0.006148 -0.001385 0.000000 0.000000 0.000000
# 2 -0.006148 0.025255 -0.004666 0.000000 0.000000 0.000000
# 3 -0.001385 -0.004666 0.011854 0.000000 0.000000 0.000000
# 4 0.000000 0.000000 0.000000 0.037112 0.000000 0.000000
# 5 0.000000 0.000000 0.000000 0.000000 0.081325 0.000000
# 6 0.000000 0.000000 0.000000 0.000000 0.000000 0.004075
#
#
# Mechanical properties :
#
#
# Convention : Reuss Voigt Hill
#
# Bulk Modulus (GPa) = 37.18707 39.65860 38.42284
# Shear Modulus (GPa) = 24.13536 67.76306 45.94921
#
# Velocity S-wave (km/s) = 3.50466 5.87240 4.83569
# Velocity P-wave (km/s) = 5.94152 8.13404 7.12265
#
# Compressibility (1/GPa) = 0.02689107
#
# Stress axis : x y z
#
# Youngs Moduli (GPa) = 70.51619 39.59651 84.35934
#
# Poissons Ratio (x) = 0.24346 0.11680
# Poissons Ratio (y) = 0.43356 0.39366
# Poissons Ratio (z) = 0.09763 0.18477
#
# Static dielectric constant tensor:
#      x y z
#    x 1.722570 0.000000 0.000000 
#    y 0.000000 1.687240 0.000000 
#    z 0.000000 0.000000 1.723900 
# 
# From -- ./inp_files/17258.got.cif
#   From: 2010.05.17/outbox.cif.g08.bks.cpg/sg59_9_cif.got.tgz:17258.got - 2010.06.03 14:40:33.
