data_PCOD9451875
_publ_section_title
;
Structure prediction by ZEFSAII (Michael W. Deem and Ramdas Pophale) SiO2 
 PCOD9451875
Probable space group: P M M N
;
_chemical_formula_sum "Si O2"
_cell_formula_units_Z 64
_cell_length_a 22.414991
_cell_length_b 9.262825
_cell_length_c 16.926958
_cell_angle_alpha 90.000000
_cell_angle_beta 90.000000
_cell_angle_gamma 90.000000
_cell_volume 3514.478935
_symmetry_space_group_name_H-M "P M M N"
_symmetry_group_IT_number 59
_space_group.IT_coordinate_system_code '2'
_symmetry_cell_setting 'orthorhombic'
loop_
_space_group_symop_operation_xyz
x,y,z
1/2-x,1/2-y,z
1/2+x,-y,-z
-x,1/2+y,-z
-x,-y,-z
1/2+x,1/2+y,-z
1/2-x,y,z
x,1/2-y,z
loop_
_atom_site_type_symbol
_atom_site_label
_atom_site_fract_x
_atom_site_fract_y
_atom_site_fract_z
Si Si1 0.461302 0.578089 0.616149
Si Si2 0.677906 0.416980 0.643840
Si Si3 0.180980 0.409855 0.205549
Si Si4 0.429623 0.423294 0.778943
Si Si5 0.847209 0.415333 0.945030
Si Si6 0.411879 0.421323 0.462569
Si Si7 0.013148 0.913343 0.078538
Si Si8 0.319964 0.078583 0.892604
O O1 0.450707 0.750000 0.616470
O O2 0.441488 0.507110 0.698264
O O3 0.426831 0.501960 0.543982
O O4 0.531392 0.554925 0.595762
O O5 0.750000 0.421829 0.638288
O O6 0.659830 0.250000 0.637758
O O7 0.656813 0.482741 0.727861
O O8 0.646348 0.511736 0.577378
O O9 0.250000 0.392783 0.227811
O O10 0.152850 0.250000 0.205574
O O11 0.181283 0.481629 0.120002
O O12 0.434560 0.250000 0.765468
O O13 0.479383 0.467940 0.843952
O O14 0.365564 0.451072 0.820743
O O15 0.824896 0.250000 0.944344
O O16 0.915851 0.411343 0.917168
O O17 0.839004 0.484862 0.031288
O O18 0.406217 0.250000 0.475160
O O19 0.990763 0.750000 0.067325
O O20 0.000000 0.000000 0.000000
O O21 0.250000 0.051395 0.874883
O O22 0.325887 0.250000 0.911483
#
# Coordination Sequence:
#
# PCOD9451875 Si02
#       8
#     8   8   8   8   8   8   8   8
#     4  10  22  39  61  89 116 147 188 237 286 340
#     4  10  21  37  58  85 118 153 188 232 284 338
#     4  10  21  36  53  76 109 149 191 229 268 325
#     4  10  21  38  58  82 113 148 186 235 288 339
#     4  11  22  34  52  81 111 144 187 233 282 333
#     4  10  21  39  62  89 117 150 189 229 280 343
#     4  10  21  36  54  79 109 145 184 226 278 333
#     4  10  21  38  59  80 106 147 195 237 281 335
#
# _framework density 18.210381000000002
#
# number of rings (size 3 to 8) (size 9 to 14) (size 15 to 20)
#    0.000    1.875    1.250    2.250    1.750    6.250 
#    0.000    0.625    0.000    2.250    0.000    0.000 
#    0.000    0.000    0.000    0.000    0.000    0.000 
#
# Total GULP energy -357046.679100 kJ/mol
# GULP energy per Si atom -5578.854361 kJ/mol
# Density = 1.816893 g / cm^3
# Si number density = 18.210381 Si / 1000 Ang^3
#
#
#
# Elastic Constant Matrix: (Units=GPa)
#
#
# Indices 1 2 3 4 5 6 
#
# 1 66.6285 40.3650 45.8945 0.0000 0.0000 0.0000
# 2 40.3650 104.0679 68.8506 0.0000 0.0000 0.0000
# 3 45.8945 68.8506 134.8025 0.0000 0.0000 0.0000
# 4 0.0000 0.0000 0.0000 36.6709 0.0000 0.0000
# 5 0.0000 0.0000 0.0000 0.0000 23.8276 0.0000
# 6 0.0000 0.0000 0.0000 0.0000 0.0000 21.7755
#
#
#
# Elastic Compliance Matrix: (Units=1/GPa)
#
#
# Indices 1 2 3 4 5 6 
#
# 1 0.021346 -0.005243 -0.004590 0.000000 0.000000 0.000000
# 2 -0.005243 0.015801 -0.006285 0.000000 0.000000 0.000000
# 3 -0.004590 -0.006285 0.012191 0.000000 0.000000 0.000000
# 4 0.000000 0.000000 0.000000 0.027270 0.000000 0.000000
# 5 0.000000 0.000000 0.000000 0.000000 0.041968 0.000000
# 6 0.000000 0.000000 0.000000 0.000000 0.000000 0.045923
#
#
# Mechanical properties :
#
#
# Convention : Reuss Voigt Hill
#
# Bulk Modulus (GPa) = 58.47164 68.41322 63.44243
# Shear Modulus (GPa) = 24.69910 26.48073 25.58992
#
# Velocity S-wave (km/s) = 3.68682 3.81748 3.75272
# Velocity P-wave (km/s) = 7.09240 7.55517 7.32744
#
# Compressibility (1/GPa) = 0.01710231
#
# Stress axis : x y z
#
# Youngs Moduli (GPa) = 46.84635 63.28646 82.02731
#
# Poissons Ratio (x) = 0.33183 0.37647
# Poissons Ratio (y) = 0.24563 0.51557
# Poissons Ratio (z) = 0.21500 0.39778
#
# Static dielectric constant tensor:
#      x y z
#    x 1.584380 0.000000 0.000000 
#    y 0.000000 1.635200 0.000000 
#    z 0.000000 0.000000 1.589730 
# 
# From -- ./inp_files/24680.got.cif
#   From: 2010.05.17/outbox.cif.g08.bks.cpg/sg59_13_cif.got.tgz:24680.got - 2010.06.03 14:40:33.
