data_PCOD9451951
_publ_section_title
;
Structure prediction by ZEFSAII (Michael W. Deem and Ramdas Pophale) SiO2 
 PCOD9451951
Probable space group: P M M N
;
_chemical_formula_sum "Si O2"
_cell_formula_units_Z 64
_cell_length_a 9.187109
_cell_length_b 14.537718
_cell_length_c 26.958499
_cell_angle_alpha 90.000000
_cell_angle_beta 90.000000
_cell_angle_gamma 90.000000
_cell_volume 3600.566340
_symmetry_space_group_name_H-M "P M M N"
_symmetry_group_IT_number 59
_space_group.IT_coordinate_system_code '2'
_symmetry_cell_setting 'orthorhombic'
loop_
_space_group_symop_operation_xyz
x,y,z
1/2-x,1/2-y,z
1/2+x,-y,-z
-x,1/2+y,-z
-x,-y,-z
1/2+x,1/2+y,-z
1/2-x,y,z
x,1/2-y,z
loop_
_atom_site_type_symbol
_atom_site_label
_atom_site_fract_x
_atom_site_fract_y
_atom_site_fract_z
Si Si1 0.916483 0.138007 0.994448
Si Si2 0.076430 0.999514 0.552726
Si Si3 0.576374 0.495937 0.825118
Si Si4 0.425175 0.858001 0.894263
Si Si5 0.924911 0.142365 0.362086
Si Si6 0.424712 0.142438 0.637392
Si Si7 0.424244 0.999472 0.291425
Si Si8 0.418043 0.139460 0.895497
O O1 0.750000 0.106575 0.986589
O O2 0.912496 0.250000 0.994907
O O3 0.966246 0.112021 0.049665
O O4 0.017658 0.110905 0.948905
O O5 0.250000 0.998863 0.545459
O O6 0.038420 0.911451 0.586998
O O7 0.039641 0.088281 0.586558
O O8 0.000000 0.000000 0.500000
O O9 0.750000 0.497541 0.830744
O O10 0.504994 0.581461 0.853722
O O11 0.541705 0.497899 0.766853
O O12 0.510502 0.407085 0.852325
O O13 0.250000 0.867545 0.890649
O O14 0.459269 0.750000 0.888685
O O15 0.750000 0.133057 0.355205
O O16 0.960741 0.250000 0.363878
O O17 0.006083 0.087944 0.318452
O O18 0.250000 0.132986 0.644726
O O19 0.460308 0.250000 0.635278
O O20 0.507145 0.088522 0.680864
O O21 0.250000 0.000071 0.297587
O O22 0.250000 0.111166 0.891618
O O23 0.425960 0.250000 0.892479
#
# Coordination Sequence:
#
# PCOD9451951 Si02
#       8
#     8   8   8   8   8   8   8   8
#     4   8  15  31  54  77 103 134 166 206 259 314
#     4   9  18  32  51  80 117 149 178 216 259 306
#     4  11  24  38  53  76 107 141 173 212 267 323
#     4   9  19  36  57  80 105 135 173 215 258 310
#     4   9  19  37  59  80 105 143 186 222 262 313
#     4   9  19  37  59  80 105 142 184 222 264 314
#     4  10  22  38  54  77 107 136 174 225 273 316
#     4  10  21  36  55  79 104 133 173 217 259 311
#
# _framework density 17.774981
#
# number of rings (size 3 to 8) (size 9 to 14) (size 15 to 20)
#    0.000    2.625    0.000    2.625    0.000    8.000 
#    0.000    6.250    0.000    0.000    0.000    0.000 
#    0.000    0.000    0.000    0.000    0.000    0.000 
#
# Total GULP energy -357147.408299 kJ/mol
# GULP energy per Si atom -5580.428255 kJ/mol
# Density = 1.773452 g / cm^3
# Si number density = 17.774981 Si / 1000 Ang^3
#
#
#
# Elastic Constant Matrix: (Units=GPa)
#
#
# Indices 1 2 3 4 5 6 
#
# 1 52.7207 47.6038 79.1442 0.0000 0.0000 0.0000
# 2 47.6038 130.4171 78.1455 0.0000 0.0000 0.0000
# 3 79.1442 78.1455 182.9574 0.0000 0.0000 0.0000
# 4 0.0000 0.0000 0.0000 9.6270 0.0000 0.0000
# 5 0.0000 0.0000 0.0000 0.0000 33.4870 0.0000
# 6 0.0000 0.0000 0.0000 0.0000 0.0000 19.0775
#
#
#
# Elastic Compliance Matrix: (Units=1/GPa)
#
#
# Indices 1 2 3 4 5 6 
#
# 1 0.060525 -0.008607 -0.022506 0.000000 0.000000 0.000000
# 2 -0.008607 0.011529 -0.001201 0.000000 0.000000 0.000000
# 3 -0.022506 -0.001201 0.015714 0.000000 0.000000 0.000000
# 4 0.000000 0.000000 0.000000 0.103875 0.000000 0.000000
# 5 0.000000 0.000000 0.000000 0.000000 0.029862 0.000000
# 6 0.000000 0.000000 0.000000 0.000000 0.000000 0.052418
#
#
# Mechanical properties :
#
#
# Convention : Reuss Voigt Hill
#
# Bulk Modulus (GPa) = 43.21372 86.20914 64.71143
# Shear Modulus (GPa) = 14.43979 23.18508 18.81243
#
# Velocity S-wave (km/s) = 2.85330 3.61552 3.25678
# Velocity P-wave (km/s) = 5.93459 8.12618 7.11527
#
# Compressibility (1/GPa) = 0.02314080
#
# Stress axis : x y z
#
# Youngs Moduli (GPa) = 16.52197 86.73742 63.63550
#
# Poissons Ratio (x) = 0.74655 1.43218
# Poissons Ratio (y) = 0.14220 0.07643
# Poissons Ratio (z) = 0.37184 0.10418
#
# Static dielectric constant tensor:
#      x y z
#    x 1.591810 0.000000 0.000000 
#    y 0.000000 1.619810 0.000000 
#    z 0.000000 0.000000 1.577080 
# 
# From -- ./inp_files/31660.got.cif
#   From: 2010.05.17/outbox.cif.g08.bks.cpg/sg59_16_cif.got.tgz:31660.got - 2010.06.03 14:40:33.
