data_PCOD9451920
_publ_section_title
;
Structure prediction by ZEFSAII (Michael W. Deem and Ramdas Pophale) SiO2 
 PCOD9451920
Probable space group: P M M N
;
_chemical_formula_sum "Si O2"
_cell_formula_units_Z 48
_cell_length_a 8.796021
_cell_length_b 9.314523
_cell_length_c 31.527770
_cell_angle_alpha 90.000000
_cell_angle_beta 90.000000
_cell_angle_gamma 90.000000
_cell_volume 2583.093524
_symmetry_space_group_name_H-M "P M M N"
_symmetry_group_IT_number 59
_space_group.IT_coordinate_system_code '2'
_symmetry_cell_setting 'orthorhombic'
loop_
_space_group_symop_operation_xyz
x,y,z
1/2-x,1/2-y,z
1/2+x,-y,-z
-x,1/2+y,-z
-x,-y,-z
1/2+x,1/2+y,-z
1/2-x,y,z
x,1/2-y,z
loop_
_atom_site_type_symbol
_atom_site_label
_atom_site_fract_x
_atom_site_fract_y
_atom_site_fract_z
Si Si1 0.433402 0.915403 0.875283
Si Si2 0.432613 0.919372 0.300228
Si Si3 0.932412 0.417910 0.540385
Si Si4 0.933156 0.083614 0.796704
Si Si5 0.431788 0.582268 0.620712
Si Si6 0.566222 0.916630 0.040123
O O1 0.250000 0.919429 0.873892
O O2 0.481123 0.750000 0.879805
O O3 0.496306 0.984034 0.832372
O O4 0.482484 0.007004 0.916217
O O5 0.250000 0.936593 0.304077
O O6 0.465301 0.750000 0.307160
O O7 0.476060 0.954599 0.251675
O O8 0.514581 0.015349 0.334898
O O9 0.750000 0.425749 0.539132
O O10 0.976280 0.250000 0.539644
O O11 0.000000 0.500000 0.500000
O O12 0.992235 0.493270 0.582837
O O13 0.750000 0.076852 0.798922
O O14 0.977661 0.250000 0.803996
O O15 0.250000 0.571894 0.616955
O O16 0.474506 0.750000 0.617880
O O17 0.750000 0.922467 0.038308
O O18 0.520034 0.750000 0.039676
O O19 0.500000 0.000000 0.000000
#
# Coordination Sequence:
#
# PCOD9451920 Si02
#       6
#     8   8   8   8   8   8
#     4  10  21  36  54  78 109 143 179 221 269 321
#     4   9  19  37  59  82 109 143 185 230 275 325
#     4  11  24  41  62  88 116 147 186 230 275 326
#     4   9  19  36  57  81 109 142 182 227 273 323
#     4  11  24  39  56  83 117 150 187 229 273 326
#     4  10  21  37  57  80 106 139 179 221 268 323
#
# _framework density 18.582371999999999
#
# number of rings (size 3 to 8) (size 9 to 14) (size 15 to 20)
#    0.000    2.000    0.000    4.000    0.000   11.333 
#    0.000    5.000    0.000    0.000    0.000    0.000 
#    0.000    0.000    0.000    0.000    0.000    0.000 
#
# Total GULP energy -268190.865802 kJ/mol
# GULP energy per Si atom -5587.309704 kJ/mol
# Density = 1.854008 g / cm^3
# Si number density = 18.582372 Si / 1000 Ang^3
#
#
#
# Elastic Constant Matrix: (Units=GPa)
#
#
# Indices 1 2 3 4 5 6 
#
# 1 25.4533 53.4557 42.0345 0.0000 0.0000 0.0000
# 2 53.4557 181.7633 124.7218 0.0000 0.0000 0.0000
# 3 42.0345 124.7218 165.1056 0.0000 0.0000 0.0000
# 4 0.0000 0.0000 0.0000 42.0819 0.0000 0.0000
# 5 0.0000 0.0000 0.0000 0.0000 40.1955 0.0000
# 6 0.0000 0.0000 0.0000 0.0000 0.0000 32.2978
#
#
#
# Elastic Compliance Matrix: (Units=1/GPa)
#
#
# Indices 1 2 3 4 5 6 
#
# 1 0.106704 -0.026451 -0.007184 0.000000 0.000000 0.000000
# 2 -0.026451 0.017979 -0.006848 0.000000 0.000000 0.000000
# 3 -0.007184 -0.006848 0.013058 0.000000 0.000000 0.000000
# 4 0.000000 0.000000 0.000000 0.023763 0.000000 0.000000
# 5 0.000000 0.000000 0.000000 0.000000 0.024878 0.000000
# 6 0.000000 0.000000 0.000000 0.000000 0.000000 0.030962
#
#
# Mechanical properties :
#
#
# Convention : Reuss Voigt Hill
#
# Bulk Modulus (GPa) = 17.61331 90.30513 53.95922
# Shear Modulus (GPa) = 15.76111 33.05575 24.40843
#
# Velocity S-wave (km/s) = 2.91550 4.22225 3.62819
# Velocity P-wave (km/s) = 4.56428 8.51308 6.83027
#
# Compressibility (1/GPa) = 0.05677525
#
# Stress axis : x y z
#
# Youngs Moduli (GPa) = 9.37175 55.61897 76.57863
#
# Poissons Ratio (x) = 1.47119 0.55017
# Poissons Ratio (y) = 0.24789 0.52437
# Poissons Ratio (z) = 0.06733 0.38085
#
# Static dielectric constant tensor:
#      x y z
#    x 1.628090 0.000000 0.000000 
#    y 0.000000 1.624420 0.000000 
#    z 0.000000 0.000000 1.608180 
# 
# From -- ./inp_files/32887.got.cif
#   From: 2010.05.17/outbox.cif.g08.bks.cpg/sg59_17_cif.got.tgz:32887.got - 2010.06.03 14:40:33.
