data_PCOD9451469
_publ_section_title
;
Structure prediction by ZEFSAII (Michael W. Deem and Ramdas Pophale) SiO2 
 PCOD9451469
Probable space group: P M M N
;
_chemical_formula_sum "Si O2"
_cell_formula_units_Z 64
_cell_length_a 28.818675
_cell_length_b 8.803739
_cell_length_c 13.008352
_cell_angle_alpha 90.000000
_cell_angle_beta 90.000000
_cell_angle_gamma 90.000000
_cell_volume 3300.376213
_symmetry_space_group_name_H-M "P M M N"
_symmetry_group_IT_number 59
_space_group.IT_coordinate_system_code '2'
_symmetry_cell_setting 'orthorhombic'
loop_
_space_group_symop_operation_xyz
x,y,z
1/2-x,1/2-y,z
1/2+x,-y,-z
-x,1/2+y,-z
-x,-y,-z
1/2+x,1/2+y,-z
1/2-x,y,z
x,1/2-y,z
loop_
_atom_site_type_symbol
_atom_site_label
_atom_site_fract_x
_atom_site_fract_y
_atom_site_fract_z
Si Si1 0.883897 0.431201 0.851387
Si Si2 0.803627 0.568568 0.401501
Si Si3 0.557494 0.932231 0.667317
Si Si4 0.305367 0.428658 0.032901
Si Si5 0.048609 0.566857 0.961650
Si Si6 0.452848 0.565708 0.729433
Si Si7 0.395181 0.932364 0.531609
Si Si8 0.693979 0.421121 0.182239
O O1 0.885386 0.250000 0.837928
O O2 0.907512 0.511720 0.755181
O O3 0.832494 0.487800 0.876607
O O4 0.913428 0.473018 0.953200
O O5 0.750000 0.522674 0.422934
O O6 0.806035 0.750000 0.407057
O O7 0.842775 0.494660 0.472559
O O8 0.815141 0.513436 0.285637
O O9 0.558374 0.750000 0.659675
O O10 0.505385 0.979213 0.699827
O O11 0.573674 0.004492 0.560526
O O12 0.250000 0.448044 0.041794
O O13 0.315639 0.250000 0.033845
O O14 0.320278 0.499836 0.923322
O O15 0.045134 0.750000 0.959346
O O16 0.058719 0.514472 0.845122
O O17 0.000000 0.500000 0.000000
O O18 0.451814 0.750000 0.730189
O O19 0.418204 0.516729 0.639565
O O20 0.394543 0.750000 0.528449
O O21 0.750000 0.410418 0.177028
O O22 0.674503 0.250000 0.189469
#
# Coordination Sequence:
#
# PCOD9451469 Si02
#       8
#     8   8   8   8   8   8   8   8
#     4  11  23  37  60  90 122 158 200 248 298 358
#     4  10  21  38  58  84 119 156 198 246 297 355
#     4  11  22  41  64  84 117 160 201 246 301 357
#     4  10  21  37  57  84 119 159 203 248 297 356
#     4  10  20  37  59  88 122 156 194 237 292 354
#     4   9  20  38  61  88 121 158 194 243 298 354
#     4  11  23  39  62  90 120 154 202 252 299 356
#     4   9  17  31  53  80 112 151 191 236 293 348
#
# _framework density 19.391728000000001
#
# number of rings (size 3 to 8) (size 9 to 14) (size 15 to 20)
#    0.000    1.875    1.250    2.625    1.750    3.500 
#    0.000    3.750    0.000    3.750    0.000    0.000 
#    0.000    0.000    0.000    0.000    0.000    0.000 
#
# Total GULP energy -357532.190951 kJ/mol
# GULP energy per Si atom -5586.440484 kJ/mol
# Density = 1.934759 g / cm^3
# Si number density = 19.391728 Si / 1000 Ang^3
#
#
#
# Elastic Constant Matrix: (Units=GPa)
#
#
# Indices 1 2 3 4 5 6 
#
# 1 30.6116 16.7260 15.8953 0.0000 0.0000 0.0000
# 2 16.7260 49.2191 16.1610 0.0000 0.0000 0.0000
# 3 15.8953 16.1610 93.4827 0.0000 0.0000 0.0000
# 4 0.0000 0.0000 0.0000 30.7770 0.0000 0.0000
# 5 0.0000 0.0000 0.0000 0.0000 14.4280 0.0000
# 6 0.0000 0.0000 0.0000 0.0000 0.0000 24.4146
#
#
#
# Elastic Compliance Matrix: (Units=1/GPa)
#
#
# Indices 1 2 3 4 5 6 
#
# 1 0.042194 -0.012704 -0.004978 0.000000 0.000000 0.000000
# 2 -0.012704 0.025365 -0.002225 0.000000 0.000000 0.000000
# 3 -0.004978 -0.002225 0.011928 0.000000 0.000000 0.000000
# 4 0.000000 0.000000 0.000000 0.032492 0.000000 0.000000
# 5 0.000000 0.000000 0.000000 0.000000 0.069309 0.000000
# 6 0.000000 0.000000 0.000000 0.000000 0.000000 0.040959
#
#
# Mechanical properties :
#
#
# Convention : Reuss Voigt Hill
#
# Bulk Modulus (GPa) = 25.20616 30.09757 27.65186
# Shear Modulus (GPa) = 18.16296 22.22602 20.19449
#
# Velocity S-wave (km/s) = 3.06377 3.38917 3.23057
# Velocity P-wave (km/s) = 5.05393 5.55606 5.31093
#
# Compressibility (1/GPa) = 0.03967284
#
# Stress axis : x y z
#
# Youngs Moduli (GPa) = 23.70025 39.42438 83.83451
#
# Poissons Ratio (x) = 0.50085 0.41734
# Poissons Ratio (y) = 0.30109 0.18652
# Poissons Ratio (z) = 0.11798 0.08772
#
# Static dielectric constant tensor:
#      x y z
#    x 1.691710 0.000000 0.000000 
#    y 0.000000 1.651220 0.000000 
#    z 0.000000 0.000000 1.661480 
# 
# From -- ./inp_files/19221.got.cif
#   From: 2010.05.17/outbox.cif.g08.bks.cpg/sg59_10_cif.got.tgz:19221.got - 2010.06.03 14:40:33.
