data_PCOD9451932
_publ_section_title
;
Structure prediction by ZEFSAII (Michael W. Deem and Ramdas Pophale) SiO2 
 PCOD9451932
Probable space group: P M M N
;
_chemical_formula_sum "Si O2"
_cell_formula_units_Z 64
_cell_length_a 8.874306
_cell_length_b 31.451683
_cell_length_c 12.365977
_cell_angle_alpha 90.000000
_cell_angle_beta 90.000000
_cell_angle_gamma 90.000000
_cell_volume 3451.490831
_symmetry_space_group_name_H-M "P M M N"
_symmetry_group_IT_number 59
_space_group.IT_coordinate_system_code '2'
_symmetry_cell_setting 'orthorhombic'
loop_
_space_group_symop_operation_xyz
x,y,z
1/2-x,1/2-y,z
1/2+x,-y,-z
-x,1/2+y,-z
-x,-y,-z
1/2+x,1/2+y,-z
1/2-x,y,z
x,1/2-y,z
loop_
_atom_site_type_symbol
_atom_site_label
_atom_site_fract_x
_atom_site_fract_y
_atom_site_fract_z
Si Si1 0.931883 0.373739 0.638045
Si Si2 0.930510 0.452945 0.491003
Si Si3 0.570645 0.016855 0.888278
Si Si4 0.570214 0.443611 0.244401
Si Si5 0.429285 0.109425 0.862352
Si Si6 0.423575 0.199308 0.239516
Si Si7 0.569857 0.299338 0.470179
Si Si8 0.571643 0.134823 0.084779
O O1 0.750000 0.375491 0.650828
O O2 0.979804 0.417861 0.579013
O O3 0.967467 0.333733 0.561327
O O4 0.009199 0.369207 0.753664
O O5 0.750000 0.457151 0.501456
O O6 0.961331 0.435094 0.370265
O O7 0.000000 0.500000 0.500000
O O8 0.750000 0.019405 0.898181
O O9 0.502237 0.062657 0.864744
O O10 0.521928 0.984244 0.795354
O O11 0.500000 0.000000 0.000000
O O12 0.750000 0.452099 0.234477
O O13 0.534307 0.404934 0.163792
O O14 0.250000 0.106501 0.860729
O O15 0.484414 0.131394 0.972415
O O16 0.250000 0.185501 0.229186
O O17 0.430490 0.250000 0.225996
O O18 0.485326 0.189979 0.359223
O O19 0.524266 0.176029 0.151391
O O20 0.750000 0.302065 0.450559
O O21 0.535924 0.250000 0.499091
O O22 0.750000 0.133411 0.064136
#
# Coordination Sequence:
#
# PCOD9451932 Si02
#       8
#     8   8   8   8   8   8   8   8
#     4  10  21  39  60  84 116 156 199 245 298 357
#     4  10  21  36  54  79 112 150 190 236 287 343
#     4  12  23  37  57  82 113 153 196 241 290 346
#     4  10  21  37  58  84 113 146 190 242 290 339
#     4  12  25  40  58  83 116 155 198 246 295 352
#     4  10  21  37  59  89 124 155 186 234 294 352
#     4   9  18  36  64  93 118 149 194 244 294 354
#     4  11  22  38  61  85 112 149 194 242 288 344
#
# _framework density 18.542712000000002
#
# number of rings (size 3 to 8) (size 9 to 14) (size 15 to 20)
#    0.000    1.500    1.250    4.500    0.000    6.750 
#    0.000    1.875    0.000    2.250    0.000    0.000 
#    0.000    0.000    0.000    0.000    0.000    0.000 
#
# Total GULP energy -357704.753680 kJ/mol
# GULP energy per Si atom -5589.136776 kJ/mol
# Density = 1.850051 g / cm^3
# Si number density = 18.542712 Si / 1000 Ang^3
#
#
#
# Elastic Constant Matrix: (Units=GPa)
#
#
# Indices 1 2 3 4 5 6 
#
# 1 62.6598 30.2858 51.0618 0.0000 0.0000 0.0000
# 2 30.2858 55.2637 41.5720 0.0000 0.0000 0.0000
# 3 51.0618 41.5720 120.2625 0.0000 0.0000 0.0000
# 4 0.0000 0.0000 0.0000 32.0967 0.0000 0.0000
# 5 0.0000 0.0000 0.0000 0.0000 29.3112 0.0000
# 6 0.0000 0.0000 0.0000 0.0000 0.0000 25.3528
#
#
#
# Elastic Compliance Matrix: (Units=1/GPa)
#
#
# Indices 1 2 3 4 5 6 
#
# 1 0.026972 -0.008334 -0.008571 0.000000 0.000000 0.000000
# 2 -0.008334 0.027029 -0.005805 0.000000 0.000000 0.000000
# 3 -0.008571 -0.005805 0.013961 0.000000 0.000000 0.000000
# 4 0.000000 0.000000 0.000000 0.031156 0.000000 0.000000
# 5 0.000000 0.000000 0.000000 0.000000 0.034117 0.000000
# 6 0.000000 0.000000 0.000000 0.000000 0.000000 0.039443
#
#
# Mechanical properties :
#
#
# Convention : Reuss Voigt Hill
#
# Bulk Modulus (GPa) = 44.36104 53.78060 49.07082
# Shear Modulus (GPa) = 22.16206 25.03656 23.59931
#
# Velocity S-wave (km/s) = 3.46090 3.67851 3.57136
# Velocity P-wave (km/s) = 6.32029 6.86356 6.59752
#
# Compressibility (1/GPa) = 0.02254230
#
# Stress axis : x y z
#
# Youngs Moduli (GPa) = 37.07575 36.99758 71.62834
#
# Poissons Ratio (x) = 0.30832 0.61394
# Poissons Ratio (y) = 0.30897 0.41580
# Poissons Ratio (z) = 0.31778 0.21477
#
# Static dielectric constant tensor:
#      x y z
#    x 1.620140 0.000000 0.000000 
#    y 0.000000 1.635980 0.000000 
#    z 0.000000 0.000000 1.681690 
# 
# From -- ./inp_files/14952.got.cif
#   From: 2010.05.17/outbox.cif.g08.bks.cpg/sg59_8_cif.got.tgz:14952.got - 2010.06.03 14:40:33.
