data_PCOD9451743
_publ_section_title
;
Structure prediction by ZEFSAII (Michael W. Deem and Ramdas Pophale) SiO2 
 PCOD9451743
Probable space group: P M M N
;
_chemical_formula_sum "Si O2"
_cell_formula_units_Z 56
_cell_length_a 13.764714
_cell_length_b 9.425202
_cell_length_c 21.819981
_cell_angle_alpha 90.000000
_cell_angle_beta 90.000000
_cell_angle_gamma 90.000000
_cell_volume 2830.819816
_symmetry_space_group_name_H-M "P M M N"
_symmetry_group_IT_number 59
_space_group.IT_coordinate_system_code '2'
_symmetry_cell_setting 'orthorhombic'
loop_
_space_group_symop_operation_xyz
x,y,z
1/2-x,1/2-y,z
1/2+x,-y,-z
-x,1/2+y,-z
-x,-y,-z
1/2+x,1/2+y,-z
1/2-x,y,z
x,1/2-y,z
loop_
_atom_site_type_symbol
_atom_site_label
_atom_site_fract_x
_atom_site_fract_y
_atom_site_fract_z
Si Si1 0.867060 0.413742 0.850302
Si Si2 0.954228 0.419089 0.588324
Si Si3 0.962984 0.419842 0.722796
Si Si4 0.640049 0.079813 0.460472
Si Si5 0.136508 0.579430 0.773460
Si Si6 0.631455 0.913323 0.969499
Si Si7 0.131951 0.586758 0.911541
O O1 0.750000 0.415038 0.849999
O O2 0.897767 0.250000 0.860950
O O3 0.899958 0.511561 0.906561
O O4 0.902669 0.460452 0.783256
O O5 0.972699 0.250000 0.585936
O O6 0.917553 0.453304 0.656611
O O7 0.054698 0.500725 0.575481
O O8 0.881631 0.450736 0.532406
O O9 0.976081 0.250000 0.725599
O O10 0.065582 0.498707 0.728275
O O11 0.750000 0.037810 0.444256
O O12 0.631758 0.250000 0.451682
O O13 0.250000 0.547831 0.763522
O O14 0.125244 0.750000 0.769796
O O15 0.108488 0.534952 0.843093
O O16 0.750000 0.917686 0.969224
O O17 0.602788 0.750000 0.971862
O O18 0.600230 0.995417 0.030650
O O19 0.250000 0.588314 0.912658
O O20 0.101071 0.750000 0.917707
#
# Coordination Sequence:
#
# PCOD9451743 Si02
#       7
#     8   8   8   8   8   8   8
#     4   9  18  33  51  70  96 132 171 209 252 305
#     4   9  19  35  53  77 109 138 166 206 252 293
#     4  10  21  35  52  76 104 135 171 209 250 296
#     4   9  18  34  57  82 106 135 171 207 243 289
#     4   9  19  35  53  73  99 134 173 211 255 307
#     4   9  16  26  44  71  98 124 160 209 262 309
#     4   8  14  27  47  68  91 123 164 208 255 306
#
# _framework density 19.782254999999999
#
# number of rings (size 3 to 8) (size 9 to 14) (size 15 to 20)
#    0.000    3.000    0.000    1.286    0.000    5.143 
#    0.000    7.857    0.000    0.000    0.000    4.000 
#    0.000    0.000    0.000    0.000    0.000    0.000 
#
# Total GULP energy -312479.721221 kJ/mol
# GULP energy per Si atom -5579.995022 kJ/mol
# Density = 1.973723 g / cm^3
# Si number density = 19.782255 Si / 1000 Ang^3
#
#
#
# Elastic Constant Matrix: (Units=GPa)
#
#
# Indices 1 2 3 4 5 6 
#
# 1 32.6059 -7.4382 -15.3520 0.0000 0.0000 0.0000
# 2 -7.4382 26.8509 26.1098 0.0000 0.0000 0.0000
# 3 -15.3520 26.1098 84.8037 0.0000 0.0000 0.0000
# 4 0.0000 0.0000 0.0000 26.4982 0.0000 0.0000
# 5 0.0000 0.0000 0.0000 0.0000 16.4561 0.0000
# 6 0.0000 0.0000 0.0000 0.0000 0.0000 15.6458
#
#
#
# Elastic Compliance Matrix: (Units=1/GPa)
#
#
# Indices 1 2 3 4 5 6 
#
# 1 0.033972 0.004897 0.004642 0.000000 0.000000 0.000000
# 2 0.004897 0.053863 -0.015697 0.000000 0.000000 0.000000
# 3 0.004642 -0.015697 0.017465 0.000000 0.000000 0.000000
# 4 0.000000 0.000000 0.000000 0.037738 0.000000 0.000000
# 5 0.000000 0.000000 0.000000 0.000000 0.060768 0.000000
# 6 0.000000 0.000000 0.000000 0.000000 0.000000 0.063915
#
#
# Mechanical properties :
#
#
# Convention : Reuss Voigt Hill
#
# Bulk Modulus (GPa) = 10.75451 16.76663 13.76057
# Shear Modulus (GPa) = 16.07550 21.11609 18.59580
#
# Velocity S-wave (km/s) = 2.85375 3.27069 3.06931
# Velocity P-wave (km/s) = 4.03816 4.77045 4.41950
#
# Compressibility (1/GPa) = 0.09298423
#
# Stress axis : x y z
#
# Youngs Moduli (GPa) = 29.43588 18.56562 57.25653
#
# Poissons Ratio (x) = -0.09091 -0.26580
# Poissons Ratio (y) = -0.14414 0.89876
# Poissons Ratio (z) = -0.13665 0.29143
#
# Static dielectric constant tensor:
#      x y z
#    x 1.711720 0.000000 0.000000 
#    y 0.000000 1.659290 0.000000 
#    z 0.000000 0.000000 1.705250 
# 
# From -- ./inp_files/30323.got.cif
#   From: 2010.05.17/outbox.cif.g08.bks.cpg/sg59_16_cif.got.tgz:30323.got - 2010.06.03 14:40:33.
