data_PCOD9451498
_publ_section_title
;
Structure prediction by ZEFSAII (Michael W. Deem and Ramdas Pophale) SiO2 
 PCOD9451498
Probable space group: P M M N
;
_chemical_formula_sum "Si O2"
_cell_formula_units_Z 40
_cell_length_a 9.065818
_cell_length_b 14.754091
_cell_length_c 15.144030
_cell_angle_alpha 90.000000
_cell_angle_beta 90.000000
_cell_angle_gamma 90.000000
_cell_volume 2025.633707
_symmetry_space_group_name_H-M "P M M N"
_symmetry_group_IT_number 59
_space_group.IT_coordinate_system_code '2'
_symmetry_cell_setting 'orthorhombic'
loop_
_space_group_symop_operation_xyz
x,y,z
1/2-x,1/2-y,z
1/2+x,-y,-z
-x,1/2+y,-z
-x,-y,-z
1/2+x,1/2+y,-z
1/2-x,y,z
x,1/2-y,z
loop_
_atom_site_type_symbol
_atom_site_label
_atom_site_fract_x
_atom_site_fract_y
_atom_site_fract_z
Si Si1 0.074168 0.250000 0.095911
Si Si2 0.581680 0.890980 0.409013
Si Si3 0.424289 0.592323 0.231721
Si Si4 0.427787 0.602376 0.781535
Si Si5 0.922483 0.250000 0.909234
Si Si6 0.918969 0.111765 0.415966
O O1 0.250000 0.250000 0.104190
O O2 0.003728 0.336333 0.145240
O O3 0.024415 0.250000 0.994458
O O4 0.750000 0.862651 0.395942
O O5 0.483430 0.867852 0.324357
O O6 0.517852 0.858614 0.502272
O O7 0.579917 0.001400 0.413865
O O8 0.250000 0.573040 0.240229
O O9 0.512563 0.499944 0.213547
O O10 0.446375 0.663015 0.152941
O O11 0.250000 0.603929 0.789024
O O12 0.465266 0.638339 0.682773
O O13 0.750000 0.250000 0.937172
O O14 0.750000 0.139733 0.430567
#
# Coordination Sequence:
#
# PCOD9451498 Si02
#       6
#     4   8   8   8   4   8
#     4  12  26  42  63  88 113 146 189 240 294 348
#     4   9  16  27  48  80 116 152 188 231 282 333
#     4  10  20  37  61  87 116 152 195 239 285 342
#     4  10  21  39  62  87 118 154 191 236 288 341
#     4  10  24  44  63  84 113 150 191 240 294 344
#     4   8  15  28  49  78 111 150 190 227 274 332
#
# _framework density 19.746905999999999
#
# number of rings (size 3 to 8) (size 9 to 14) (size 15 to 20)
#    0.000    2.400    0.000    3.900    0.000    8.000 
#    0.000    1.000    0.000    2.400    0.000    0.000 
#    0.000    0.000    0.000    0.000    0.000    0.000 
#
# Total GULP energy -223449.918995 kJ/mol
# GULP energy per Si atom -5586.247975 kJ/mol
# Density = 1.970196 g / cm^3
# Si number density = 19.746906 Si / 1000 Ang^3
#
#
#
# Elastic Constant Matrix: (Units=GPa)
#
#
# Indices 1 2 3 4 5 6 
#
# 1 127.0880 42.4429 94.3923 0.0000 0.0000 0.0000
# 2 42.4429 82.3518 37.3084 0.0000 0.0000 0.0000
# 3 94.3923 37.3084 135.0344 0.0000 0.0000 0.0000
# 4 0.0000 0.0000 0.0000 25.6227 0.0000 0.0000
# 5 0.0000 0.0000 0.0000 0.0000 38.4917 0.0000
# 6 0.0000 0.0000 0.0000 0.0000 0.0000 84.0870
#
#
#
# Elastic Compliance Matrix: (Units=1/GPa)
#
#
# Indices 1 2 3 4 5 6 
#
# 1 0.017425 -0.003958 -0.011087 0.000000 0.000000 0.000000
# 2 -0.003958 0.014779 -0.001317 0.000000 0.000000 0.000000
# 3 -0.011087 -0.001317 0.015519 0.000000 0.000000 0.000000
# 4 0.000000 0.000000 0.000000 0.039028 0.000000 0.000000
# 5 0.000000 0.000000 0.000000 0.000000 0.025980 0.000000
# 6 0.000000 0.000000 0.000000 0.000000 0.000000 0.011892
#
#
# Mechanical properties :
#
#
# Convention : Reuss Voigt Hill
#
# Bulk Modulus (GPa) = 66.66378 76.97348 71.81863
# Shear Modulus (GPa) = 30.79823 40.99566 35.89695
#
# Velocity S-wave (km/s) = 3.95352 4.56132 4.26825
# Velocity P-wave (km/s) = 7.39411 8.17346 7.79353
#
# Compressibility (1/GPa) = 0.01500065
#
# Stress axis : x y z
#
# Youngs Moduli (GPa) = 57.38887 67.66200 64.43546
#
# Poissons Ratio (x) = 0.26779 0.71440
# Poissons Ratio (y) = 0.22713 0.08485
# Poissons Ratio (z) = 0.63627 0.08910
#
# Static dielectric constant tensor:
#      x y z
#    x 1.660900 0.000000 0.000000 
#    y 0.000000 1.732200 0.000000 
#    z 0.000000 0.000000 1.670260 
# 
# From -- ./inp_files/19990.got.cif
#   From: 2010.05.17/outbox.cif.g08.bks.cpg/sg59_10_cif.got.tgz:19990.got - 2010.06.03 14:40:33.
