data_PCOD9451699
_publ_section_title
;
Structure prediction by ZEFSAII (Michael W. Deem and Ramdas Pophale) SiO2 
 PCOD9451699
Probable space group: P M M N
;
_chemical_formula_sum "Si O2"
_cell_formula_units_Z 48
_cell_length_a 15.659670
_cell_length_b 7.623008
_cell_length_c 18.312151
_cell_angle_alpha 90.000000
_cell_angle_beta 90.000000
_cell_angle_gamma 90.000000
_cell_volume 2185.990862
_symmetry_space_group_name_H-M "P M M N"
_symmetry_group_IT_number 59
_space_group.IT_coordinate_system_code '2'
_symmetry_cell_setting 'orthorhombic'
loop_
_space_group_symop_operation_xyz
x,y,z
1/2-x,1/2-y,z
1/2+x,-y,-z
-x,1/2+y,-z
-x,-y,-z
1/2+x,1/2+y,-z
1/2-x,y,z
x,1/2-y,z
loop_
_atom_site_type_symbol
_atom_site_label
_atom_site_fract_x
_atom_site_fract_y
_atom_site_fract_z
Si Si1 0.843730 0.454838 0.626038
Si Si2 0.153103 0.963751 0.950012
Si Si3 0.653629 0.537497 0.457320
Si Si4 0.654705 0.461520 0.882377
Si Si5 0.023812 0.043173 0.664378
Si Si6 0.528233 0.456420 0.175449
O O1 0.750000 0.532487 0.641379
O O2 0.839138 0.250000 0.647881
O O3 0.858084 0.465181 0.538747
O O4 0.928404 0.534260 0.661003
O O5 0.250000 0.012024 0.928524
O O6 0.149786 0.750000 0.951686
O O7 0.082599 0.028020 0.892953
O O8 0.139928 0.021234 0.033739
O O9 0.750000 0.493203 0.433776
O O10 0.648606 0.750000 0.462665
O O11 0.585387 0.472380 0.398545
O O12 0.750000 0.521213 0.859284
O O13 0.657215 0.250000 0.882407
O O14 0.572365 0.512426 0.836344
O O15 0.015579 0.250000 0.648248
O O16 0.057176 0.026712 0.746307
O O17 0.542963 0.250000 0.177083
#
# Coordination Sequence:
#
# PCOD9451699 Si02
#       6
#     8   8   8   8   8   8
#     4   9  18  33  53  74  94 122 164 208 246 292
#     4   8  16  33  55  77 101 132 171 211 253 304
#     4   9  18  33  53  75  98 126 162 207 255 297
#     4   9  18  35  58  77  97 133 174 208 251 310
#     4  10  21  35  49  69 102 139 169 198 241 304
#     4  11  22  33  50  78 108 135 167 213 259 295
#
# _framework density 21.958003999999999
#
# number of rings (size 3 to 8) (size 9 to 14) (size 15 to 20)
#    0.000    2.667    0.000    2.500    0.000    3.000 
#    0.000    2.500    0.000    3.500    0.000    0.000 
#    0.000    0.000    0.000    0.000    0.000    0.000 
#
# Total GULP energy -267922.648501 kJ/mol
# GULP energy per Si atom -5581.721844 kJ/mol
# Density = 2.190803 g / cm^3
# Si number density = 21.958004 Si / 1000 Ang^3
#
#
#
# Elastic Constant Matrix: (Units=GPa)
#
#
# Indices 1 2 3 4 5 6 
#
# 1 65.0946 4.7163 18.2970 0.0000 0.0000 0.0000
# 2 4.7163 40.1199 -9.8122 0.0000 0.0000 0.0000
# 3 18.2970 -9.8122 27.2973 0.0000 0.0000 0.0000
# 4 0.0000 0.0000 0.0000 18.8401 0.0000 0.0000
# 5 0.0000 0.0000 0.0000 0.0000 -25.7026 0.0000
# 6 0.0000 0.0000 0.0000 0.0000 0.0000 6.0558
#
#
#
# Elastic Compliance Matrix: (Units=1/GPa)
#
#
# Indices 1 2 3 4 5 6 
#
# 1 0.020265 -0.006254 -0.015832 0.000000 0.000000 0.000000
# 2 -0.006254 0.029258 0.014709 0.000000 0.000000 0.000000
# 3 -0.015832 0.014709 0.052533 0.000000 0.000000 0.000000
# 4 0.000000 0.000000 0.000000 0.053078 0.000000 0.000000
# 5 0.000000 0.000000 0.000000 0.000000 -0.038907 0.000000
# 6 0.000000 0.000000 0.000000 0.000000 0.000000 0.165132
#
#
# Mechanical properties :
#
#
# Convention : Reuss Voigt Hill
#
# Bulk Modulus (GPa) = 11.45443 17.65710 14.55576
# Shear Modulus (GPa) = 15.37447 7.79270 11.58358
#
# Velocity S-wave (km/s) = 2.64895 1.88590 2.29930
# Velocity P-wave (km/s) = 3.81887 3.57784 3.70032
#
# Compressibility (1/GPa) = 0.08730250
#
# Stress axis : x y z
#
# Youngs Moduli (GPa) = 49.34504 34.17866 19.03568
#
# Poissons Ratio (x) = 0.21377 0.30137
# Poissons Ratio (y) = 0.30862 -0.28000
# Poissons Ratio (z) = 0.78122 -0.50274
#
# Static dielectric constant tensor:
#      x y z
#    x 1.829180 0.000000 0.000000 
#    y 0.000000 1.818510 0.000000 
#    z 0.000000 0.000000 1.770340 
# 
# From -- ./inp_files/25425.got.cif
#   From: 2010.05.17/outbox.cif.g08.bks.cpg/sg59_13_cif.got.tgz:25425.got - 2010.06.03 14:40:33.
