data_PCOD9451622
_publ_section_title
;
Structure prediction by ZEFSAII (Michael W. Deem and Ramdas Pophale) SiO2 
 PCOD9451622
Probable space group: P M M N
;
_chemical_formula_sum "Si O2"
_cell_formula_units_Z 48
_cell_length_a 18.821009
_cell_length_b 8.443610
_cell_length_c 14.942481
_cell_angle_alpha 90.000000
_cell_angle_beta 90.000000
_cell_angle_gamma 90.000000
_cell_volume 2374.618135
_symmetry_space_group_name_H-M "P M M N"
_symmetry_group_IT_number 59
_space_group.IT_coordinate_system_code '2'
_symmetry_cell_setting 'orthorhombic'
loop_
_space_group_symop_operation_xyz
x,y,z
1/2-x,1/2-y,z
1/2+x,-y,-z
-x,1/2+y,-z
-x,-y,-z
1/2+x,1/2+y,-z
1/2-x,y,z
x,1/2-y,z
loop_
_atom_site_type_symbol
_atom_site_label
_atom_site_fract_x
_atom_site_fract_y
_atom_site_fract_z
Si Si1 0.250000 0.940875 0.512771
Si Si2 0.750000 0.937762 0.282280
Si Si3 0.173149 0.058962 0.173773
Si Si4 0.400697 0.942156 0.758823
Si Si5 0.479657 0.441126 0.097878
Si Si6 0.636149 0.061949 0.636954
Si Si7 0.511270 0.433429 0.402483
O O1 0.250000 0.750000 0.519632
O O2 0.182155 0.984257 0.450517
O O3 0.250000 0.005827 0.613302
O O4 0.750000 0.750000 0.281999
O O5 0.820641 0.999981 0.233176
O O6 0.250000 0.025600 0.129036
O O7 0.168980 0.250000 0.185789
O O8 0.100302 0.007763 0.125253
O O9 0.174348 0.976678 0.270532
O O10 0.400877 0.750000 0.758335
O O11 0.459189 0.993265 0.831866
O O12 0.428720 0.001751 0.662000
O O13 0.479634 0.250000 0.098893
O O14 0.500000 0.500000 0.000000
O O15 0.621654 0.250000 0.630172
O O16 0.563956 0.963446 0.643796
O O17 0.500000 0.500000 0.500000
O O18 0.527197 0.250000 0.412334
#
# Coordination Sequence:
#
# PCOD9451622 Si02
#       7
#     4   4   8   8   8   8   8
#     4  10  22  38  54  81 126 173 208 249 310 370
#     4  12  26  40  60  91 120 157 218 271 308 358
#     4  10  20  38  64  92 125 160 197 247 309 371
#     4  10  22  43  65  83 122 170 206 250 315 382
#     4  10  22  43  68  96 125 163 206 253 319 380
#     4  11  21  34  55  85 121 161 205 251 301 362
#     4  11  22  37  57  85 118 159 208 255 305 372
#
# _framework density 20.213778000000001
#
# number of rings (size 3 to 8) (size 9 to 14) (size 15 to 20)
#    0.000    1.500    2.500    2.750    0.000    8.000 
#    1.500    0.000    0.000    0.000    0.000    0.000 
#    0.000    0.000    0.000    0.000    0.000    0.000 
#
# Total GULP energy -267957.990452 kJ/mol
# GULP energy per Si atom -5582.458134 kJ/mol
# Density = 2.016777 g / cm^3
# Si number density = 20.213778 Si / 1000 Ang^3
#
#
#
# Elastic Constant Matrix: (Units=GPa)
#
#
# Indices 1 2 3 4 5 6 
#
# 1 167.7065 9.6944 69.2891 0.0000 0.0000 0.0000
# 2 9.6944 9.7848 21.8245 0.0000 0.0000 0.0000
# 3 69.2891 21.8245 103.8897 0.0000 0.0000 0.0000
# 4 0.0000 0.0000 0.0000 31.5955 0.0000 0.0000
# 5 0.0000 0.0000 0.0000 0.0000 22.0644 0.0000
# 6 0.0000 0.0000 0.0000 0.0000 0.0000 16.0668
#
#
#
# Elastic Compliance Matrix: (Units=1/GPa)
#
#
# Indices 1 2 3 4 5 6 
#
# 1 0.008551 0.007994 -0.007382 0.000000 0.000000 0.000000
# 2 0.007994 0.199780 -0.047300 0.000000 0.000000 0.000000
# 3 -0.007382 -0.047300 0.024486 0.000000 0.000000 0.000000
# 4 0.000000 0.000000 0.000000 0.031650 0.000000 0.000000
# 5 0.000000 0.000000 0.000000 0.000000 0.045322 0.000000
# 6 0.000000 0.000000 0.000000 0.000000 0.000000 0.062240
#
#
# Mechanical properties :
#
#
# Convention : Reuss Voigt Hill
#
# Bulk Modulus (GPa) = 7.17155 53.66631 30.41893
# Shear Modulus (GPa) = 9.76782 25.98354 17.87568
#
# Velocity S-wave (km/s) = 2.20062 3.58919 2.97700
# Velocity P-wave (km/s) = 3.16426 6.61690 5.18632
#
# Compressibility (1/GPa) = 0.13943982
#
# Stress axis : x y z
#
# Youngs Moduli (GPa) = 116.94939 5.00550 40.84030
#
# Poissons Ratio (x) = -0.04001 0.30149
# Poissons Ratio (y) = -0.93488 1.93175
# Poissons Ratio (z) = 0.86334 0.23676
#
# Static dielectric constant tensor:
#      x y z
#    x 1.999730 0.000000 0.000000 
#    y 0.000000 1.694230 0.000000 
#    z 0.000000 0.000000 1.722890 
# 
# From -- ./inp_files/20498.got.cif
#   From: 2010.05.17/outbox.cif.g08.bks.cpg/sg59_11_cif.got.tgz:20498.got - 2010.06.03 14:40:33.
