data_PCOD9451537
_publ_section_title
;
Structure prediction by ZEFSAII (Michael W. Deem and Ramdas Pophale) SiO2 
 PCOD9451537
Probable space group: P M M N
;
_chemical_formula_sum "Si O2"
_cell_formula_units_Z 64
_cell_length_a 16.605192
_cell_length_b 29.524646
_cell_length_c 6.947657
_cell_angle_alpha 90.000000
_cell_angle_beta 90.000000
_cell_angle_gamma 90.000000
_cell_volume 3406.175103
_symmetry_space_group_name_H-M "P M M N"
_symmetry_group_IT_number 59
_space_group.IT_coordinate_system_code '2'
_symmetry_cell_setting 'orthorhombic'
loop_
_space_group_symop_operation_xyz
x,y,z
1/2-x,1/2-y,z
1/2+x,-y,-z
-x,1/2+y,-z
-x,-y,-z
1/2+x,1/2+y,-z
1/2-x,y,z
x,1/2-y,z
loop_
_atom_site_type_symbol
_atom_site_label
_atom_site_fract_x
_atom_site_fract_y
_atom_site_fract_z
Si Si1 0.657417 0.455700 0.242749
Si Si2 0.567349 0.662242 0.898204
Si Si3 0.542387 0.300080 0.434663
Si Si4 0.158578 0.384178 0.438959
Si Si5 0.656029 0.378887 0.563299
Si Si6 0.557054 0.535009 0.384684
Si Si7 0.610164 0.801024 0.299241
Si Si8 0.949467 0.411296 0.913356
O O1 0.750000 0.454108 0.179364
O O2 0.648771 0.423054 0.427981
O O3 0.630360 0.505578 0.302767
O O4 0.598956 0.437400 0.077781
O O5 0.513276 0.691585 0.751803
O O6 0.632216 0.636821 0.765006
O O7 0.606633 0.689927 0.072161
O O8 0.507797 0.625655 0.992780
O O9 0.578070 0.250000 0.427961
O O10 0.608291 0.338697 0.458394
O O11 0.480631 0.302763 0.614338
O O12 0.250000 0.401471 0.435510
O O13 0.094194 0.423085 0.495156
O O14 0.152726 0.342659 0.591805
O O15 0.750000 0.368483 0.587329
O O16 0.613142 0.388573 0.765472
O O17 0.500000 0.500000 0.500000
O O18 0.504413 0.555541 0.213141
O O19 0.640896 0.750000 0.340754
#
# Coordination Sequence:
#
# PCOD9451537 Si02
#       8
#     8   8   8   8   8   8   8   8
#     4  11  24  40  61  91 125 160 203 257 316 365
#     4  11  20  39  66  92 119 161 209 252 302 367
#     4  10  20  37  62  91 122 157 203 256 304 364
#     4  11  25  43  62  95 134 162 200 262 320 370
#     4  11  22  38  59  87 126 163 202 256 310 365
#     4  12  23  43  66  90 122 166 211 255 302 372
#     4  10  21  40  67  93 121 165 211 253 306 373
#     4  12  21  41  65  89 117 161 214 254 299 364
#
# _framework density 18.789404999999999
#
# number of rings (size 3 to 8) (size 9 to 14) (size 15 to 20)
#    0.000    1.000    5.000    3.000    0.000    1.500 
#    0.000    1.250    0.000    0.000    0.000    0.000 
#    0.000    0.000    0.000    0.000    0.000    0.000 
#
# Total GULP energy -357586.866109 kJ/mol
# GULP energy per Si atom -5587.294783 kJ/mol
# Density = 1.874664 g / cm^3
# Si number density = 18.789405 Si / 1000 Ang^3
#
#
#
# Elastic Constant Matrix: (Units=GPa)
#
#
# Indices 1 2 3 4 5 6 
#
# 1 66.0924 23.4397 15.2513 0.0000 0.0000 0.0000
# 2 23.4397 78.5889 17.6694 0.0000 0.0000 0.0000
# 3 15.2513 17.6694 89.6009 0.0000 0.0000 0.0000
# 4 0.0000 0.0000 0.0000 18.6347 0.0000 0.0000
# 5 0.0000 0.0000 0.0000 0.0000 17.7706 0.0000
# 6 0.0000 0.0000 0.0000 0.0000 0.0000 7.2193
#
#
#
# Elastic Compliance Matrix: (Units=1/GPa)
#
#
# Indices 1 2 3 4 5 6 
#
# 1 0.017260 -0.004696 -0.002012 0.000000 0.000000 0.000000
# 2 -0.004696 0.014592 -0.002078 0.000000 0.000000 0.000000
# 3 -0.002012 -0.002078 0.011913 0.000000 0.000000 0.000000
# 4 0.000000 0.000000 0.000000 0.053663 0.000000 0.000000
# 5 0.000000 0.000000 0.000000 0.000000 0.056273 0.000000
# 6 0.000000 0.000000 0.000000 0.000000 0.000000 0.138518
#
#
# Mechanical properties :
#
#
# Convention : Reuss Voigt Hill
#
# Bulk Modulus (GPa) = 38.17756 38.55589 38.36672
# Shear Modulus (GPa) = 15.69753 20.58640 18.14197
#
# Velocity S-wave (km/s) = 2.89354 3.31363 3.11069
# Velocity P-wave (km/s) = 5.61482 5.93336 5.77629
#
# Compressibility (1/GPa) = 0.02619340
#
# Stress axis : x y z
#
# Youngs Moduli (GPa) = 57.93789 68.52981 83.94260
#
# Poissons Ratio (x) = 0.32178 0.16888
# Poissons Ratio (y) = 0.27205 0.17446
# Poissons Ratio (z) = 0.11657 0.14243
#
# Static dielectric constant tensor:
#      x y z
#    x 1.632460 0.000000 0.000000 
#    y 0.000000 1.652270 0.000000 
#    z 0.000000 0.000000 1.642170 
# 
# From -- ./inp_files/3032.got.cif
#   From: 2010.05.17/outbox.cif.g08.bks.cpg/sg59_2_cif.got.tgz:3032.got - 2010.06.03 14:40:33.
