data_PCOD9451107
_publ_section_title
;
Structure prediction by ZEFSAII (Michael W. Deem and Ramdas Pophale) SiO2 
 PCOD9451107
Probable space group: P M M N
;
_chemical_formula_sum "Si O2"
_cell_formula_units_Z 40
_cell_length_a 13.622195
_cell_length_b 18.518907
_cell_length_c 8.051071
_cell_angle_alpha 90.000000
_cell_angle_beta 90.000000
_cell_angle_gamma 90.000000
_cell_volume 2031.028886
_symmetry_space_group_name_H-M "P M M N"
_symmetry_group_IT_number 59
_space_group.IT_coordinate_system_code '2'
_symmetry_cell_setting 'orthorhombic'
loop_
_space_group_symop_operation_xyz
x,y,z
1/2-x,1/2-y,z
1/2+x,-y,-z
-x,1/2+y,-z
-x,-y,-z
1/2+x,1/2+y,-z
1/2-x,y,z
x,1/2-y,z
loop_
_atom_site_type_symbol
_atom_site_label
_atom_site_fract_x
_atom_site_fract_y
_atom_site_fract_z
Si Si1 0.130514 0.018270 0.587838
Si Si2 0.132643 0.922810 0.909105
Si Si3 0.453516 0.169190 0.094933
Si Si4 0.368076 0.477945 0.222749
Si Si5 0.868453 0.670974 0.277210
O O1 0.250000 0.018144 0.586113
O O2 0.105389 0.968144 0.743955
O O3 0.098703 0.994999 0.403906
O O4 0.100125 0.100879 0.621313
O O5 0.250000 0.911577 0.911336
O O6 0.068429 0.850786 0.910195
O O7 0.103754 0.970616 0.069762
O O8 0.435501 0.250000 0.159066
O O9 0.403078 0.103730 0.192769
O O10 0.411216 0.165717 0.908061
O O11 0.250000 0.476774 0.221141
O O12 0.750000 0.668589 0.264184
O O13 0.895799 0.750000 0.346347
#
# Coordination Sequence:
#
# PCOD9451107 Si02
#       5
#     8   8   8   8   8
#     4   9  18  33  56  82 106 139 176 214 267 319
#     4  10  21  39  57  76 107 142 183 230 265 306
#     4  11  22  35  54  81 110 145 181 216 268 324
#     4  10  20  35  59  86 108 136 177 223 272 323
#     4   9  17  31  51  77 112 144 169 209 268 328
#
# _framework density 19.69445
#
# number of rings (size 3 to 8) (size 9 to 14) (size 15 to 20)
#    0.000    2.200    2.000    1.200    0.000    3.200 
#    0.000    2.000    0.000    0.000    0.000    5.600 
#    0.000    0.000    0.000    0.000    0.000    0.000 
#
# Total GULP energy -223317.616613 kJ/mol
# GULP energy per Si atom -5582.940415 kJ/mol
# Density = 1.964962 g / cm^3
# Si number density = 19.694450 Si / 1000 Ang^3
#
#
#
# Elastic Constant Matrix: (Units=GPa)
#
#
# Indices 1 2 3 4 5 6 
#
# 1 43.0989 1.3745 3.7538 0.0000 0.0000 0.0000
# 2 1.3745 45.7973 7.6017 0.0000 0.0000 0.0000
# 3 3.7538 7.6017 100.8644 0.0000 0.0000 0.0000
# 4 0.0000 0.0000 0.0000 10.9624 0.0000 0.0000
# 5 0.0000 0.0000 0.0000 0.0000 18.7278 0.0000
# 6 0.0000 0.0000 0.0000 0.0000 0.0000 27.2440
#
#
#
# Elastic Compliance Matrix: (Units=1/GPa)
#
#
# Indices 1 2 3 4 5 6 
#
# 1 0.023292 -0.000562 -0.000824 0.000000 0.000000 0.000000
# 2 -0.000562 0.022126 -0.001647 0.000000 0.000000 0.000000
# 3 -0.000824 -0.001647 0.010069 0.000000 0.000000 0.000000
# 4 0.000000 0.000000 0.000000 0.091221 0.000000 0.000000
# 5 0.000000 0.000000 0.000000 0.000000 0.053396 0.000000
# 6 0.000000 0.000000 0.000000 0.000000 0.000000 0.036705
#
#
# Mechanical properties :
#
#
# Convention : Reuss Voigt Hill
#
# Bulk Modulus (GPa) = 20.23462 23.91339 22.07400
# Shear Modulus (GPa) = 19.27903 23.18889 21.23396
#
# Velocity S-wave (km/s) = 3.13214 3.43510 3.28711
# Velocity P-wave (km/s) = 4.83498 5.28221 5.06353
#
# Compressibility (1/GPa) = 0.04942026
#
# Stress axis : x y z
#
# Youngs Moduli (GPa) = 42.93285 45.19664 99.31389
#
# Poissons Ratio (x) = 0.02541 0.08188
# Poissons Ratio (y) = 0.02414 0.16353
# Poissons Ratio (z) = 0.03540 0.07442
#
# Static dielectric constant tensor:
#      x y z
#    x 1.729130 0.000000 0.000000 
#    y 0.000000 1.654940 0.000000 
#    z 0.000000 0.000000 1.706760 
# 
# From -- ./inp_files/8611.got.cif
#   From: 2010.05.17/outbox.cif.g08.bks.cpg/sg59_5_cif.got.tgz:8611.got - 2010.06.03 14:40:33.
