data_PCOD9451156
_publ_section_title
;
Structure prediction by ZEFSAII (Michael W. Deem and Ramdas Pophale) SiO2 
 PCOD9451156
Probable space group: P M M N
;
_chemical_formula_sum "Si O2"
_cell_formula_units_Z 40
_cell_length_a 18.450582
_cell_length_b 12.547945
_cell_length_c 7.895940
_cell_angle_alpha 90.000000
_cell_angle_beta 90.000000
_cell_angle_gamma 90.000000
_cell_volume 1828.043458
_symmetry_space_group_name_H-M "P M M N"
_symmetry_group_IT_number 59
_space_group.IT_coordinate_system_code '2'
_symmetry_cell_setting 'orthorhombic'
loop_
_space_group_symop_operation_xyz
x,y,z
1/2-x,1/2-y,z
1/2+x,-y,-z
-x,1/2+y,-z
-x,-y,-z
1/2+x,1/2+y,-z
1/2-x,y,z
x,1/2-y,z
loop_
_atom_site_type_symbol
_atom_site_label
_atom_site_fract_x
_atom_site_fract_y
_atom_site_fract_z
Si Si1 0.669631 0.076591 0.599149
Si Si2 0.517145 0.364929 0.120073
Si Si3 0.482429 0.911957 0.257539
Si Si4 0.329006 0.933501 0.787380
Si Si5 0.869730 0.627115 0.418142
O O1 0.750000 0.098388 0.667850
O O2 0.667585 0.114888 0.403090
O O3 0.598802 0.118657 0.692580
O O4 0.660112 0.940535 0.255585
O O5 0.502086 0.250000 0.195289
O O6 0.484797 0.461081 0.226641
O O7 0.603235 0.388402 0.113776
O O8 0.493407 0.368153 0.925006
O O9 0.341483 0.051623 0.429961
O O10 0.250000 0.914162 0.860986
O O11 0.456676 0.118135 0.606380
O O12 0.848417 0.750000 0.426072
#
# Coordination Sequence:
#
# PCOD9451156 Si02
#       5
#     8   8   8   8   8
#     4   9  19  35  53  77 109 139 170 216 268 313
#     4  10  21  35  54  77 106 144 183 220 264 317
#     4  10  20  36  54  79 108 138 179 225 267 310
#     4   8  18  34  51  77 110 140 173 217 261 309
#     4   9  17  31  56  82 105 136 174 213 263 319
#
# _framework density 21.881319000000001
#
# number of rings (size 3 to 8) (size 9 to 14) (size 15 to 20)
#    1.200    1.600    0.000    1.200    0.000    3.600 
#    0.000    1.000    0.000    4.200    0.000    2.800 
#    0.000    0.000    0.000    0.000    0.000    0.000 
#
# Total GULP energy -222844.677837 kJ/mol
# GULP energy per Si atom -5571.116946 kJ/mol
# Density = 2.183152 g / cm^3
# Si number density = 21.881319 Si / 1000 Ang^3
#
#
#
# Elastic Constant Matrix: (Units=GPa)
#
#
# Indices 1 2 3 4 5 6 
#
# 1 130.3226 -23.4294 9.6868 0.0000 0.0000 0.0000
# 2 -23.4294 108.6056 -4.4121 0.0000 0.0000 0.0000
# 3 9.6868 -4.4121 32.8629 0.0000 0.0000 0.0000
# 4 0.0000 0.0000 0.0000 21.5563 0.0000 0.0000
# 5 0.0000 0.0000 0.0000 0.0000 11.9215 0.0000
# 6 0.0000 0.0000 0.0000 0.0000 0.0000 -9.2337
#
#
#
# Elastic Compliance Matrix: (Units=1/GPa)
#
#
# Indices 1 2 3 4 5 6 
#
# 1 0.008134 0.001667 -0.002174 0.000000 0.000000 0.000000
# 2 0.001667 0.009600 0.000798 0.000000 0.000000 0.000000
# 3 -0.002174 0.000798 0.031177 0.000000 0.000000 0.000000
# 4 0.000000 0.000000 0.000000 0.046390 0.000000 0.000000
# 5 0.000000 0.000000 0.000000 0.000000 0.083882 0.000000
# 6 0.000000 0.000000 0.000000 0.000000 0.000000 -0.108299
#
#
# Mechanical properties :
#
#
# Convention : Reuss Voigt Hill
#
# Bulk Modulus (GPa) = 20.20545 26.16462 23.18504
# Shear Modulus (GPa) = 57.60274 24.17855 40.89064
#
# Velocity S-wave (km/s) = 5.13636 3.32774 4.32759
# Velocity P-wave (km/s) = 6.66562 5.17191 5.96570
#
# Compressibility (1/GPa) = 0.04949160
#
# Stress axis : x y z
#
# Youngs Moduli (GPa) = 122.93368 104.17159 32.07456
#
# Poissons Ratio (x) = -0.17360 0.06973
# Poissons Ratio (y) = -0.20487 -0.02558
# Poissons Ratio (z) = 0.26726 -0.08309
#
# Static dielectric constant tensor:
#      x y z
#    x 1.805880 0.000000 0.000000 
#    y 0.000000 1.867790 0.000000 
#    z 0.000000 0.000000 1.824530 
# 
# From -- ./inp_files/11131.got.cif
#   From: 2010.05.17/outbox.cif.g08.bks.cpg/sg59_6_cif.got.tgz:11131.got - 2010.06.03 14:40:33.
