data_PCOD9451300
_publ_section_title
;
Structure prediction by ZEFSAII (Michael W. Deem and Ramdas Pophale) SiO2 
 PCOD9451300
Probable space group: P M M N
;
_chemical_formula_sum "Si O2"
_cell_formula_units_Z 64
_cell_length_a 23.317619
_cell_length_b 9.502263
_cell_length_c 15.611899
_cell_angle_alpha 90.000000
_cell_angle_beta 90.000000
_cell_angle_gamma 90.000000
_cell_volume 3459.130776
_symmetry_space_group_name_H-M "P M M N"
_symmetry_group_IT_number 59
_space_group.IT_coordinate_system_code '2'
_symmetry_cell_setting 'orthorhombic'
loop_
_space_group_symop_operation_xyz
x,y,z
1/2-x,1/2-y,z
1/2+x,-y,-z
-x,1/2+y,-z
-x,-y,-z
1/2+x,1/2+y,-z
1/2-x,y,z
x,1/2-y,z
loop_
_atom_site_type_symbol
_atom_site_label
_atom_site_fract_x
_atom_site_fract_y
_atom_site_fract_z
Si Si1 0.490158 0.911035 0.584987
Si Si2 0.993435 0.920359 0.772372
Si Si3 0.878229 0.418714 0.181860
Si Si4 0.318152 0.407590 0.470037
Si Si5 0.682381 0.918101 0.028924
Si Si6 0.180628 0.588592 0.309908
Si Si7 0.872671 0.581275 0.845620
Si Si8 0.645703 0.408839 0.374714
O O1 0.509635 0.750000 0.571322
O O2 0.516477 0.968786 0.674170
O O3 0.422262 0.906854 0.605453
O O4 0.500000 0.000000 0.500000
O O5 0.997077 0.750000 0.765878
O O6 0.939656 0.954173 0.831896
O O7 0.055310 0.966007 0.807620
O O8 0.877875 0.250000 0.167263
O O9 0.846534 0.498731 0.106391
O O10 0.848692 0.442306 0.274371
O O11 0.250000 0.397602 0.456707
O O12 0.342456 0.250000 0.465648
O O13 0.340867 0.507617 0.394670
O O14 0.327841 0.479585 0.561184
O O15 0.750000 0.950482 0.022570
O O16 0.676667 0.750000 0.042457
O O17 0.651294 0.952452 0.939300
O O18 0.250000 0.591041 0.312282
O O19 0.160587 0.750000 0.308299
O O20 0.161206 0.502699 0.227031
O O21 0.865795 0.750000 0.832248
O O22 0.667864 0.250000 0.390680
#
# Coordination Sequence:
#
# PCOD9451300 Si02
#       8
#     8   8   8   8   8   8   8   8
#     4   9  18  32  50  75 107 141 177 220 266 316
#     4   8  17  35  56  80 110 144 183 227 277 327
#     4   9  19  38  60  80 109 146 185 229 279 336
#     4  10  21  35  52  76 105 141 185 227 272 330
#     4  10  22  38  56  82 114 145 181 231 287 336
#     4  10  21  36  53  76 110 147 182 229 281 328
#     4  10  20  36  59  83 110 146 185 227 278 339
#     4   9  19  35  53  75 106 141 176 223 276 324
#
# _framework density 18.501757999999999
#
# number of rings (size 3 to 8) (size 9 to 14) (size 15 to 20)
#    0.000    2.625    0.000    2.625    1.750    4.750 
#    0.000    5.000    0.000    0.000    0.000    0.000 
#    0.000    0.000    0.000    0.000    0.000    0.000 
#
# Total GULP energy -357030.059569 kJ/mol
# GULP energy per Si atom -5578.594681 kJ/mol
# Density = 1.845965 g / cm^3
# Si number density = 18.501758 Si / 1000 Ang^3
#
#
#
# Elastic Constant Matrix: (Units=GPa)
#
#
# Indices 1 2 3 4 5 6 
#
# 1 45.9726 23.2939 57.4604 0.0000 0.0000 0.0000
# 2 23.2939 76.4543 83.5876 0.0000 0.0000 0.0000
# 3 57.4604 83.5876 173.4978 0.0000 0.0000 0.0000
# 4 0.0000 0.0000 0.0000 32.6641 0.0000 0.0000
# 5 0.0000 0.0000 0.0000 0.0000 32.3071 0.0000
# 6 0.0000 0.0000 0.0000 0.0000 0.0000 20.2080
#
#
#
# Elastic Compliance Matrix: (Units=1/GPa)
#
#
# Indices 1 2 3 4 5 6 
#
# 1 0.037865 0.004593 -0.014753 0.000000 0.000000 0.000000
# 2 0.004593 0.028194 -0.015105 0.000000 0.000000 0.000000
# 3 -0.014753 -0.015105 0.017927 0.000000 0.000000 0.000000
# 4 0.000000 0.000000 0.000000 0.030615 0.000000 0.000000
# 5 0.000000 0.000000 0.000000 0.000000 0.030953 0.000000
# 6 0.000000 0.000000 0.000000 0.000000 0.000000 0.049485
#
#
# Mechanical properties :
#
#
# Convention : Reuss Voigt Hill
#
# Bulk Modulus (GPa) = 29.88955 69.40095 49.64525
# Shear Modulus (GPa) = 19.47649 25.80804 22.64226
#
# Velocity S-wave (km/s) = 3.24803 3.73888 3.50207
# Velocity P-wave (km/s) = 5.50057 7.49873 6.57599
#
# Compressibility (1/GPa) = 0.03345651
#
# Stress axis : x y z
#
# Youngs Moduli (GPa) = 26.40993 35.46838 55.78196
#
# Poissons Ratio (x) = -0.16292 0.82296
# Poissons Ratio (y) = -0.12131 0.84256
# Poissons Ratio (z) = 0.38963 0.53574
#
# Static dielectric constant tensor:
#      x y z
#    x 1.661090 0.000000 0.000000 
#    y 0.000000 1.630420 0.000000 
#    z 0.000000 0.000000 1.612900 
# 
# From -- ./inp_files/24785.got.cif
#   From: 2010.05.17/outbox.cif.g08.bks.cpg/sg59_13_cif.got.tgz:24785.got - 2010.06.03 14:40:33.
