data_PCOD9451722
_publ_section_title
;
Structure prediction by ZEFSAII (Michael W. Deem and Ramdas Pophale) SiO2 
 PCOD9451722
Probable space group: P M M N
;
_chemical_formula_sum "Si O2"
_cell_formula_units_Z 40
_cell_length_a 7.822530
_cell_length_b 8.765865
_cell_length_c 30.607298
_cell_angle_alpha 90.000000
_cell_angle_beta 90.000000
_cell_angle_gamma 90.000000
_cell_volume 2098.780436
_symmetry_space_group_name_H-M "P M M N"
_symmetry_group_IT_number 59
_space_group.IT_coordinate_system_code '2'
_symmetry_cell_setting 'orthorhombic'
loop_
_space_group_symop_operation_xyz
x,y,z
1/2-x,1/2-y,z
1/2+x,-y,-z
-x,1/2+y,-z
-x,-y,-z
1/2+x,1/2+y,-z
1/2-x,y,z
x,1/2-y,z
loop_
_atom_site_type_symbol
_atom_site_label
_atom_site_fract_x
_atom_site_fract_y
_atom_site_fract_z
Si Si1 0.047330 0.578889 0.545059
Si Si2 0.550718 0.933308 0.952757
Si Si3 0.045458 0.424010 0.361510
Si Si4 0.750000 0.935880 0.207230
Si Si5 0.947571 0.066292 0.729708
Si Si6 0.250000 0.065965 0.893957
O O1 0.250000 0.589299 0.545876
O O2 0.971488 0.750000 0.544925
O O3 0.000000 0.500000 0.500000
O O4 0.996103 0.505010 0.591274
O O5 0.750000 0.970355 0.943670
O O6 0.533948 0.750000 0.953734
O O7 0.417915 0.002422 0.918203
O O8 0.500000 0.000000 0.000000
O O9 0.250000 0.417140 0.359192
O O10 0.977139 0.250000 0.360983
O O11 0.990766 0.510462 0.317908
O O12 0.750000 0.750000 0.207888
O O13 0.580647 0.985890 0.233455
O O14 0.750000 0.981246 0.156773
O O15 0.750000 0.015721 0.736809
O O16 0.946213 0.250000 0.729534
O O17 0.250000 0.250000 0.896818
#
# Coordination Sequence:
#
# PCOD9451722 Si02
#       6
#     8   8   8   4   8   4
#     4  10  21  35  51  73 102 135 173 215 264 327
#     4  11  23  39  62  90 123 162 206 253 302 358
#     4   9  18  33  52  75 103 133 168 215 271 327
#     4   9  20  37  57  83 115 149 191 237 284 339
#     4   9  18  34  56  80 107 141 184 231 275 328
#     4  11  23  39  61  91 125 163 205 251 304 357
#
# _framework density 19.058685000000001
#
# number of rings (size 3 to 8) (size 9 to 14) (size 15 to 20)
#    0.000    2.200    1.000    1.500    1.400    4.000 
#    0.000    6.000    0.000    2.400    0.000    0.000 
#    0.000    0.000    0.000    0.000    0.000    0.000 
#
# Total GULP energy -223115.598065 kJ/mol
# GULP energy per Si atom -5577.889952 kJ/mol
# Density = 1.901531 g / cm^3
# Si number density = 19.058685 Si / 1000 Ang^3
#
#
#
# Elastic Constant Matrix: (Units=GPa)
#
#
# Indices 1 2 3 4 5 6 
#
# 1 124.2989 36.8992 93.5088 0.0000 0.0000 0.0000
# 2 36.8992 34.7705 41.7218 0.0000 0.0000 0.0000
# 3 93.5088 41.7218 214.5638 0.0000 0.0000 0.0000
# 4 0.0000 0.0000 0.0000 29.4927 0.0000 0.0000
# 5 0.0000 0.0000 0.0000 0.0000 38.6236 0.0000
# 6 0.0000 0.0000 0.0000 0.0000 0.0000 20.8519
#
#
#
# Elastic Compliance Matrix: (Units=1/GPa)
#
#
# Indices 1 2 3 4 5 6 
#
# 1 0.014203 -0.009972 -0.004251 0.000000 0.000000 0.000000
# 2 -0.009972 0.044514 -0.004310 0.000000 0.000000 0.000000
# 3 -0.004251 -0.004310 0.007351 0.000000 0.000000 0.000000
# 4 0.000000 0.000000 0.000000 0.033907 0.000000 0.000000
# 5 0.000000 0.000000 0.000000 0.000000 0.025891 0.000000
# 6 0.000000 0.000000 0.000000 0.000000 0.000000 0.047957
#
#
# Mechanical properties :
#
#
# Convention : Reuss Voigt Hill
#
# Bulk Modulus (GPa) = 34.47921 79.76588 57.12255
# Shear Modulus (GPa) = 22.66990 31.22719 26.94855
#
# Velocity S-wave (km/s) = 3.45262 4.05220 3.76437
# Velocity P-wave (km/s) = 5.83305 7.98983 6.99507
#
# Compressibility (1/GPa) = 0.02900298
#
# Stress axis : x y z
#
# Youngs Moduli (GPa) = 70.40612 22.46482 136.03209
#
# Poissons Ratio (x) = 0.22402 0.57825
# Poissons Ratio (y) = 0.70210 0.58627
# Poissons Ratio (z) = 0.29929 0.09682
#
# Static dielectric constant tensor:
#      x y z
#    x 1.667980 0.000000 0.000000 
#    y 0.000000 1.663010 0.000000 
#    z 0.000000 0.000000 1.660660 
# 
# From -- ./inp_files/32427.got.cif
#   From: 2010.05.17/outbox.cif.g08.bks.cpg/sg59_17_cif.got.tgz:32427.got - 2010.06.03 14:40:33.
