data_PCOD9451435
_publ_section_title
;
Structure prediction by ZEFSAII (Michael W. Deem and Ramdas Pophale) SiO2 
 PCOD9451435
Probable space group: P M M N
;
_chemical_formula_sum "Si O2"
_cell_formula_units_Z 48
_cell_length_a 35.465757
_cell_length_b 8.515349
_cell_length_c 7.821178
_cell_angle_alpha 90.000000
_cell_angle_beta 90.000000
_cell_angle_gamma 90.000000
_cell_volume 2362.021553
_symmetry_space_group_name_H-M "P M M N"
_symmetry_group_IT_number 59
_space_group.IT_coordinate_system_code '2'
_symmetry_cell_setting 'orthorhombic'
loop_
_space_group_symop_operation_xyz
x,y,z
1/2-x,1/2-y,z
1/2+x,-y,-z
-x,1/2+y,-z
-x,-y,-z
1/2+x,1/2+y,-z
1/2-x,y,z
x,1/2-y,z
loop_
_atom_site_type_symbol
_atom_site_label
_atom_site_fract_x
_atom_site_fract_y
_atom_site_fract_z
Si Si1 0.009860 0.561601 0.313991
Si Si2 0.911324 0.925830 0.806135
Si Si3 0.349505 0.438618 0.735491
Si Si4 0.665542 0.434736 0.886393
Si Si5 0.069718 0.072549 0.794413
Si Si6 0.707118 0.059871 0.553318
O O1 0.013181 0.750000 0.300919
O O2 0.050073 0.490071 0.268615
O O3 0.000000 0.500000 0.500000
O O4 0.972489 0.505022 0.211312
O O5 0.903188 0.750000 0.741364
O O6 0.874531 0.032499 0.793528
O O7 0.918991 0.916823 0.008639
O O8 0.351703 0.250000 0.732002
O O9 0.392816 0.501013 0.709831
O O10 0.321690 0.496943 0.588604
O O11 0.335582 0.486884 0.926157
O O12 0.670460 0.250000 0.914940
O O13 0.695738 0.490556 0.745973
O O14 0.065983 0.250000 0.722697
O O15 0.750000 0.012630 0.514436
O O16 0.705092 0.250000 0.550955
#
# Coordination Sequence:
#
# PCOD9451435 Si02
#       6
#     8   8   8   8   8   8
#     4  11  22  35  51  79 114 152 194 240 289 346
#     4  10  20  37  58  81 110 150 194 245 296 344
#     4  10  21  39  63  92 122 157 198 245 300 357
#     4  10  21  39  63  91 121 160 203 246 298 361
#     4   8  18  36  56  78 109 148 189 233 287 341
#     4  10  23  42  63  89 121 157 196 241 297 360
#
# _framework density 20.321577999999999
#
# number of rings (size 3 to 8) (size 9 to 14) (size 15 to 20)
#    0.000    2.167    0.000    3.500    2.333    2.333 
#    0.000   10.000    0.000    0.000    0.000    0.000 
#    0.000    0.000    0.000    0.000    0.000    0.000 
#
# Total GULP energy -267615.699782 kJ/mol
# GULP energy per Si atom -5575.327079 kJ/mol
# Density = 2.027532 g / cm^3
# Si number density = 20.321578 Si / 1000 Ang^3
#
#
#
# Elastic Constant Matrix: (Units=GPa)
#
#
# Indices 1 2 3 4 5 6 
#
# 1 38.9894 -9.2982 -0.3710 0.0000 0.0000 0.0000
# 2 -9.2982 23.0403 2.5801 0.0000 0.0000 0.0000
# 3 -0.3710 2.5801 36.7312 0.0000 0.0000 0.0000
# 4 0.0000 0.0000 0.0000 20.9713 0.0000 0.0000
# 5 0.0000 0.0000 0.0000 0.0000 40.6275 0.0000
# 6 0.0000 0.0000 0.0000 0.0000 0.0000 26.1837
#
#
#
# Elastic Compliance Matrix: (Units=1/GPa)
#
#
# Indices 1 2 3 4 5 6 
#
# 1 0.028389 0.011515 -0.000522 0.000000 0.000000 0.000000
# 2 0.011515 0.048417 -0.003285 0.000000 0.000000 0.000000
# 3 -0.000522 -0.003285 0.027450 0.000000 0.000000 0.000000
# 4 0.000000 0.000000 0.000000 0.047684 0.000000 0.000000
# 5 0.000000 0.000000 0.000000 0.000000 0.024614 0.000000
# 6 0.000000 0.000000 0.000000 0.000000 0.000000 0.038192
#
#
# Mechanical properties :
#
#
# Convention : Reuss Voigt Hill
#
# Bulk Modulus (GPa) = 8.35608 9.39809 8.87709
# Shear Modulus (GPa) = 20.90121 24.61316 22.75719
#
# Velocity S-wave (km/s) = 3.21054 3.48398 3.35005
# Velocity P-wave (km/s) = 4.22661 4.56277 4.39791
#
# Compressibility (1/GPa) = 0.11967329
#
# Stress axis : x y z
#
# Youngs Moduli (GPa) = 35.22474 20.65390 36.42949
#
# Poissons Ratio (x) = -0.23783 0.01902
# Poissons Ratio (y) = -0.40562 0.11966
# Poissons Ratio (z) = 0.01839 0.06784
#
# Static dielectric constant tensor:
#      x y z
#    x 1.818370 0.000000 0.000000 
#    y 0.000000 1.720150 0.000000 
#    z 0.000000 0.000000 1.727170 
# 
# From -- ./inp_files/12955.got.cif
#   From: 2010.05.17/outbox.cif.g08.bks.cpg/sg59_7_cif.got.tgz:12955.got - 2010.06.03 14:40:33.
