data_PCOD9451173
_publ_section_title
;
Structure prediction by ZEFSAII (Michael W. Deem and Ramdas Pophale) SiO2 
 PCOD9451173
Probable space group: P M M N
;
_chemical_formula_sum "Si O2"
_cell_formula_units_Z 56
_cell_length_a 14.096688
_cell_length_b 18.270412
_cell_length_c 12.915568
_cell_angle_alpha 90.000000
_cell_angle_beta 90.000000
_cell_angle_gamma 90.000000
_cell_volume 3326.434213
_symmetry_space_group_name_H-M "P M M N"
_symmetry_group_IT_number 59
_space_group.IT_coordinate_system_code '2'
_symmetry_cell_setting 'orthorhombic'
loop_
_space_group_symop_operation_xyz
x,y,z
1/2-x,1/2-y,z
1/2+x,-y,-z
-x,1/2+y,-z
-x,-y,-z
1/2+x,1/2+y,-z
1/2-x,y,z
x,1/2-y,z
loop_
_atom_site_type_symbol
_atom_site_label
_atom_site_fract_x
_atom_site_fract_y
_atom_site_fract_z
Si Si1 0.860449 0.557709 0.206083
Si Si2 0.638810 0.950559 0.958937
Si Si3 0.022004 0.835911 0.283800
Si Si4 0.861381 0.392696 0.286169
Si Si5 0.859998 0.337712 0.513806
Si Si6 0.137842 0.878917 0.084358
Si Si7 0.011001 0.667600 0.891881
O O1 0.750000 0.578191 0.219671
O O2 0.873737 0.477361 0.254668
O O3 0.931294 0.615251 0.256712
O O4 0.878706 0.552484 0.082695
O O5 0.750000 0.934193 0.941983
O O6 0.570905 0.892685 0.904181
O O7 0.621413 0.033469 0.922009
O O8 0.997880 0.750000 0.287707
O O9 0.071478 0.857207 0.391738
O O10 0.096794 0.848609 0.191166
O O11 0.750000 0.374044 0.268980
O O12 0.882502 0.377250 0.406027
O O13 0.928242 0.346568 0.211016
O O14 0.750000 0.353860 0.540858
O O15 0.866448 0.250000 0.497394
O O16 0.250000 0.865880 0.074611
O O17 0.081517 0.843905 0.988915
O O18 0.972963 0.750000 0.894158
#
# Coordination Sequence:
#
# PCOD9451173 Si02
#       7
#     8   8   8   8   8   8   8
#     4  10  20  36  56  76 104 142 184 223 260 310
#     4  10  21  38  55  73 107 151 182 212 262 319
#     4  11  22  35  53  79 110 142 175 217 270 322
#     4  10  20  36  57  80 106 140 180 221 264 315
#     4   9  19  36  55  76 107 142 171 208 266 328
#     4  11  21  34  53  78 107 139 173 214 266 320
#     4  12  22  32  53  83 109 136 174 222 267 313
#
# _framework density 16.834842999999999
#
# number of rings (size 3 to 8) (size 9 to 14) (size 15 to 20)
#    0.000    1.571    2.857    3.000    0.000    4.286 
#    0.000    1.429    0.000    0.857    0.000    2.000 
#    0.000    0.000    0.000    0.000    0.000    0.000 
#
# Total GULP energy -312835.600171 kJ/mol
# GULP energy per Si atom -5586.350003 kJ/mol
# Density = 1.679653 g / cm^3
# Si number density = 16.834843 Si / 1000 Ang^3
#
#
#
# Elastic Constant Matrix: (Units=GPa)
#
#
# Indices 1 2 3 4 5 6 
#
# 1 48.7589 13.8363 19.7147 0.0000 0.0000 0.0000
# 2 13.8363 39.8248 12.0428 0.0000 0.0000 0.0000
# 3 19.7147 12.0428 74.6919 0.0000 0.0000 0.0000
# 4 0.0000 0.0000 0.0000 -8.5688 0.0000 0.0000
# 5 0.0000 0.0000 0.0000 0.0000 28.9456 0.0000
# 6 0.0000 0.0000 0.0000 0.0000 0.0000 24.4065
#
#
#
# Elastic Compliance Matrix: (Units=1/GPa)
#
#
# Indices 1 2 3 4 5 6 
#
# 1 0.024657 -0.006937 -0.005390 0.000000 0.000000 0.000000
# 2 -0.006937 0.028349 -0.002740 0.000000 0.000000 0.000000
# 3 -0.005390 -0.002740 0.015253 0.000000 0.000000 0.000000
# 4 0.000000 0.000000 0.000000 -0.116702 0.000000 0.000000
# 5 0.000000 0.000000 0.000000 0.000000 0.034548 0.000000
# 6 0.000000 0.000000 0.000000 0.000000 0.000000 0.040973
#
#
# Mechanical properties :
#
#
# Convention : Reuss Voigt Hill
#
# Bulk Modulus (GPa) = 26.22907 28.27369 27.25138
# Shear Modulus (GPa) = 71.51329 16.80210 44.15770
#
# Velocity S-wave (km/s) = 6.52469 3.16263 5.12707
# Velocity P-wave (km/s) = 8.50742 5.49249 7.16043
#
# Compressibility (1/GPa) = 0.03812564
#
# Stress axis : x y z
#
# Youngs Moduli (GPa) = 40.55691 35.27521 65.56228
#
# Poissons Ratio (x) = 0.24469 0.35336
# Poissons Ratio (y) = 0.28133 0.17963
# Poissons Ratio (z) = 0.21859 0.09665
#
# Static dielectric constant tensor:
#      x y z
#    x 1.563150 0.000000 0.000000 
#    y 0.000000 1.560910 0.000000 
#    z 0.000000 0.000000 1.542160 
# 
# From -- ./inp_files/16927.got.cif
#   From: 2010.05.17/outbox.cif.g08.bks.cpg/sg59_9_cif.got.tgz:16927.got - 2010.06.03 14:40:33.
