data_PCOD9451041
_publ_section_title
;
Structure prediction by ZEFSAII (Michael W. Deem and Ramdas Pophale) SiO2 
 PCOD9451041
Probable space group: P M M N
;
_chemical_formula_sum "Si O2"
_cell_formula_units_Z 64
_cell_length_a 8.941314
_cell_length_b 14.213787
_cell_length_c 26.399272
_cell_angle_alpha 90.000000
_cell_angle_beta 90.000000
_cell_angle_gamma 90.000000
_cell_volume 3355.081702
_symmetry_space_group_name_H-M "P M M N"
_symmetry_group_IT_number 59
_space_group.IT_coordinate_system_code '2'
_symmetry_cell_setting 'orthorhombic'
loop_
_space_group_symop_operation_xyz
x,y,z
1/2-x,1/2-y,z
1/2+x,-y,-z
-x,1/2+y,-z
-x,-y,-z
1/2+x,1/2+y,-z
1/2-x,y,z
x,1/2-y,z
loop_
_atom_site_type_symbol
_atom_site_label
_atom_site_fract_x
_atom_site_fract_y
_atom_site_fract_z
Si Si1 0.077686 0.635352 0.470429
Si Si2 0.924193 0.637274 0.972694
Si Si3 0.571761 0.360093 0.918465
Si Si4 0.429817 0.139222 0.218923
Si Si5 0.072196 0.359367 0.634905
Si Si6 0.070666 0.861920 0.582287
Si Si7 0.571639 0.533599 0.677392
Si Si8 0.428338 0.535975 0.876686
O O1 0.250000 0.604632 0.463103
O O2 0.080621 0.750000 0.472771
O O3 0.022327 0.605121 0.525997
O O4 0.980299 0.611452 0.421649
O O5 0.750000 0.608507 0.975557
O O6 0.928651 0.750000 0.964956
O O7 0.005027 0.587926 0.926062
O O8 0.006116 0.617981 0.025747
O O9 0.750000 0.374219 0.918352
O O10 0.541343 0.250000 0.908336
O O11 0.492912 0.430435 0.879762
O O12 0.250000 0.130526 0.211834
O O13 0.465166 0.250000 0.221145
O O14 0.470085 0.088695 0.271579
O O15 0.512273 0.089914 0.172480
O O16 0.250000 0.367507 0.638166
O O17 0.030107 0.250000 0.642033
O O18 0.994687 0.429062 0.674114
O O19 0.250000 0.876021 0.584953
O O20 0.042893 0.750000 0.585954
O O21 0.991764 0.912447 0.628543
O O22 0.750000 0.529992 0.674474
O O23 0.250000 0.535698 0.878508
#
# Coordination Sequence:
#
# PCOD9451041 Si02
#       8
#     8   8   8   8   8   8   8   8
#     4   8  15  30  52  78 109 145 183 223 270 326
#     4  10  20  35  57  86 122 161 198 239 286 335
#     4  10  21  38  60  86 119 158 198 239 282 332
#     4  10  23  44  65  85 112 145 185 233 280 329
#     4  10  21  37  57  81 110 144 183 229 279 331
#     4   9  18  33  54  81 114 149 183 224 276 333
#     4  11  23  38  59  84 109 143 186 231 281 336
#     4  12  24  37  58  87 118 153 194 238 286 341
#
# _framework density 19.075541000000001
#
# number of rings (size 3 to 8) (size 9 to 14) (size 15 to 20)
#    0.000    2.000    0.000    4.500    0.000    6.750 
#    0.000    1.875    0.000    0.750    0.000    0.000 
#    0.000    0.000    0.000    0.000    0.000    0.000 
#
# Total GULP energy -357703.441225 kJ/mol
# GULP energy per Si atom -5589.116269 kJ/mol
# Density = 1.903212 g / cm^3
# Si number density = 19.075541 Si / 1000 Ang^3
#
#
#
# Elastic Constant Matrix: (Units=GPa)
#
#
# Indices 1 2 3 4 5 6 
#
# 1 80.9626 65.5243 61.5403 0.0000 0.0000 0.0000
# 2 65.5243 116.8548 87.1728 0.0000 0.0000 0.0000
# 3 61.5403 87.1728 103.3785 0.0000 0.0000 0.0000
# 4 0.0000 0.0000 0.0000 35.1507 0.0000 0.0000
# 5 0.0000 0.0000 0.0000 0.0000 32.6028 0.0000
# 6 0.0000 0.0000 0.0000 0.0000 0.0000 29.7902
#
#
#
# Elastic Compliance Matrix: (Units=1/GPa)
#
#
# Indices 1 2 3 4 5 6 
#
# 1 0.024974 -0.007853 -0.008244 0.000000 0.000000 0.000000
# 2 -0.007853 0.025539 -0.016861 0.000000 0.000000 0.000000
# 3 -0.008244 -0.016861 0.028799 0.000000 0.000000 0.000000
# 4 0.000000 0.000000 0.000000 0.028449 0.000000 0.000000
# 5 0.000000 0.000000 0.000000 0.000000 0.030672 0.000000
# 6 0.000000 0.000000 0.000000 0.000000 0.000000 0.033568
#
#
# Mechanical properties :
#
#
# Convention : Reuss Voigt Hill
#
# Bulk Modulus (GPa) = 74.65596 81.07452 77.86524
# Shear Modulus (GPa) = 20.62856 25.30599 22.96728
#
# Velocity S-wave (km/s) = 3.29205 3.64623 3.47366
# Velocity P-wave (km/s) = 7.32613 7.76664 7.54960
#
# Compressibility (1/GPa) = 0.01339478
#
# Stress axis : x y z
#
# Youngs Moduli (GPa) = 40.04172 39.15561 34.72402
#
# Poissons Ratio (x) = 0.30750 0.28628
# Poissons Ratio (y) = 0.31446 0.58547
# Poissons Ratio (z) = 0.33012 0.66018
#
# Static dielectric constant tensor:
#      x y z
#    x 1.633430 0.000000 0.000000 
#    y 0.000000 1.698870 0.000000 
#    z 0.000000 0.000000 1.630670 
# 
# From -- ./inp_files/31551.got.cif
#   From: 2010.05.17/outbox.cif.g08.bks.cpg/sg59_16_cif.got.tgz:31551.got - 2010.06.03 14:40:33.
