data_PCOD9451508
_publ_section_title
;
Structure prediction by ZEFSAII (Michael W. Deem and Ramdas Pophale) SiO2 
 PCOD9451508
Probable space group: P M M N
;
_chemical_formula_sum "Si O2"
_cell_formula_units_Z 40
_cell_length_a 15.803435
_cell_length_b 8.026193
_cell_length_c 16.411588
_cell_angle_alpha 90.000000
_cell_angle_beta 90.000000
_cell_angle_gamma 90.000000
_cell_volume 2081.669116
_symmetry_space_group_name_H-M "P M M N"
_symmetry_group_IT_number 59
_space_group.IT_coordinate_system_code '2'
_symmetry_cell_setting 'orthorhombic'
loop_
_space_group_symop_operation_xyz
x,y,z
1/2-x,1/2-y,z
1/2+x,-y,-z
-x,1/2+y,-z
-x,-y,-z
1/2+x,1/2+y,-z
1/2-x,y,z
x,1/2-y,z
loop_
_atom_site_type_symbol
_atom_site_label
_atom_site_fract_x
_atom_site_fract_y
_atom_site_fract_z
Si Si1 0.906383 0.940405 0.668443
Si Si2 0.586738 0.051990 0.296885
Si Si3 0.250000 0.439174 0.609210
Si Si4 0.853154 0.750000 0.002982
Si Si5 0.250000 0.563204 0.433047
Si Si6 0.851667 0.750000 0.817261
Si Si7 0.147386 0.554813 0.881975
O O1 0.907732 0.750000 0.633700
O O2 0.882864 0.906485 0.763309
O O3 0.999355 0.018436 0.667364
O O4 0.832515 0.033468 0.621903
O O5 0.572156 0.250000 0.291011
O O6 0.609278 0.000128 0.205026
O O7 0.666196 0.021410 0.354335
O O8 0.250000 0.250000 0.638089
O O9 0.250000 0.448144 0.512049
O O10 0.750000 0.750000 0.001003
O O11 0.877909 0.581208 0.050536
O O12 0.882606 0.750000 0.909456
O O13 0.250000 0.750000 0.465448
O O14 0.750000 0.750000 0.815814
O O15 0.250000 0.550461 0.874374
O O16 0.125089 0.750000 0.898551
#
# Coordination Sequence:
#
# PCOD9451508 Si02
#       7
#     8   8   4   4   4   4   8
#     4   9  19  39  66  82 114 159 201 238 304 354
#     4  10  20  37  61  89 119 160 197 244 301 359
#     4  12  26  38  62  90 121 154 194 239 304 373
#     4   9  18  30  56  86 117 160 207 253 298 361
#     4  12  24  42  62  88 119 150 198 255 298 349
#     4   9  16  36  66  83 111 158 207 244 298 358
#     4   9  17  31  53  82 123 162 199 250 303 355
#
# _framework density 19.215349
#
# number of rings (size 3 to 8) (size 9 to 14) (size 15 to 20)
#    0.600    1.600    2.000    1.800    1.400    1.600 
#    0.000    2.000    0.000    0.000    0.000    0.000 
#    0.000    0.000    0.000    0.000    0.000    0.000 
#
# Total GULP energy -222937.454505 kJ/mol
# GULP energy per Si atom -5573.436363 kJ/mol
# Density = 1.917161 g / cm^3
# Si number density = 19.215349 Si / 1000 Ang^3
#
#
#
# Elastic Constant Matrix: (Units=GPa)
#
#
# Indices 1 2 3 4 5 6 
#
# 1 114.2818 6.8211 39.1559 0.0000 0.0000 0.0000
# 2 6.8211 38.2450 6.9520 0.0000 0.0000 0.0000
# 3 39.1559 6.9520 100.9543 0.0000 0.0000 0.0000
# 4 0.0000 0.0000 0.0000 24.7274 0.0000 0.0000
# 5 0.0000 0.0000 0.0000 0.0000 -10.0375 0.0000
# 6 0.0000 0.0000 0.0000 0.0000 0.0000 -7.1315
#
#
#
# Elastic Compliance Matrix: (Units=1/GPa)
#
#
# Indices 1 2 3 4 5 6 
#
# 1 0.010137 -0.001107 -0.003856 0.000000 0.000000 0.000000
# 2 -0.001107 0.026600 -0.001402 0.000000 0.000000 0.000000
# 3 -0.003856 -0.001402 0.011497 0.000000 0.000000 0.000000
# 4 0.000000 0.000000 0.000000 0.040441 0.000000 0.000000
# 5 0.000000 0.000000 0.000000 0.000000 -0.099627 0.000000
# 6 0.000000 0.000000 0.000000 0.000000 0.000000 -0.140224
#
#
# Mechanical properties :
#
#
# Convention : Reuss Voigt Hill
#
# Bulk Modulus (GPa) = 28.16565 39.92656 34.04610
# Shear Modulus (GPa) = -39.49136 14.88184 -12.30476
#
# Velocity S-wave (km/s) = -4.53835 2.78596 -2.53328
# Velocity P-wave (km/s) = 3.57385 5.58322 3.03314
#
# Compressibility (1/GPa) = 0.03550425
#
# Stress axis : x y z
#
# Youngs Moduli (GPa) = 98.64444 37.59463 86.97561
#
# Poissons Ratio (x) = 0.04162 0.33535
# Poissons Ratio (y) = 0.10922 0.12197
# Poissons Ratio (z) = 0.38034 0.05272
#
# Static dielectric constant tensor:
#      x y z
#    x 0.561470 0.000000 0.000000 
#    y 0.000000 1.700650 0.000000 
#    z 0.000000 0.000000 1.642870 
# 
# From -- ./inp_files/23054.got.cif
#   From: 2010.05.17/outbox.cif.g08.bks.cpg/sg59_12_cif.got.tgz:23054.got - 2010.06.03 14:40:33.
