data_PCOD9451369
_publ_section_title
;
Structure prediction by ZEFSAII (Michael W. Deem and Ramdas Pophale) SiO2 
 PCOD9451369
Probable space group: P M M N
;
_chemical_formula_sum "Si O2"
_cell_formula_units_Z 40
_cell_length_a 8.544506
_cell_length_b 15.254057
_cell_length_c 15.588856
_cell_angle_alpha 90.000000
_cell_angle_beta 90.000000
_cell_angle_gamma 90.000000
_cell_volume 2031.826261
_symmetry_space_group_name_H-M "P M M N"
_symmetry_group_IT_number 59
_space_group.IT_coordinate_system_code '2'
_symmetry_cell_setting 'orthorhombic'
loop_
_space_group_symop_operation_xyz
x,y,z
1/2-x,1/2-y,z
1/2+x,-y,-z
-x,1/2+y,-z
-x,-y,-z
1/2+x,1/2+y,-z
1/2-x,y,z
x,1/2-y,z
loop_
_atom_site_type_symbol
_atom_site_label
_atom_site_fract_x
_atom_site_fract_y
_atom_site_fract_z
Si Si1 0.062454 0.391512 0.162461
Si Si2 0.437589 0.065432 0.766296
Si Si3 0.559877 0.750000 0.698257
Si Si4 0.937731 0.250000 0.833051
Si Si5 0.940889 0.750000 0.501738
Si Si6 0.562638 0.250000 0.032791
Si Si7 0.061114 0.064703 0.572524
O O1 0.250000 0.392660 0.160067
O O2 0.012108 0.334881 0.246452
O O3 0.999589 0.489456 0.171452
O O4 0.001569 0.335372 0.082232
O O5 0.250000 0.065796 0.768161
O O6 0.497425 0.161607 0.790631
O O7 0.490742 0.043435 0.669036
O O8 0.750000 0.750000 0.696195
O O9 0.504538 0.750000 0.600558
O O10 0.750000 0.250000 0.827347
O O11 0.983032 0.250000 0.933473
O O12 0.750000 0.750000 0.503431
O O13 0.990130 0.662570 0.452993
O O14 0.750000 0.250000 0.038751
O O15 0.250000 0.062439 0.571394
O O16 0.000000 0.000000 0.500000
#
# Coordination Sequence:
#
# PCOD9451369 Si02
#       7
#     8   8   4   4   4   4   8
#     4  10  20  36  60  88 117 152 194 237 289 352
#     4  11  23  39  59  85 119 158 197 242 294 343
#     4   8  15  28  51  82 111 144 187 234 280 330
#     4  11  25  43  63  86 115 154 197 239 290 355
#     4   9  16  30  51  74 107 148 186 227 277 331
#     4  10  22  41  63  90 119 146 184 238 297 354
#     4  10  21  36  56  83 115 153 195 238 285 338
#
# _framework density 19.686723000000001
#
# number of rings (size 3 to 8) (size 9 to 14) (size 15 to 20)
#    0.000    2.000    0.000    4.200    0.000    7.200 
#    0.000    0.500    0.000    3.600    0.000    0.000 
#    0.000    0.000    0.000    0.000    0.000    0.000 
#
# Total GULP energy -223480.521771 kJ/mol
# GULP energy per Si atom -5587.013044 kJ/mol
# Density = 1.964192 g / cm^3
# Si number density = 19.686723 Si / 1000 Ang^3
#
#
#
# Elastic Constant Matrix: (Units=GPa)
#
#
# Indices 1 2 3 4 5 6 
#
# 1 37.7592 29.4575 31.3878 0.0000 0.0000 0.0000
# 2 29.4575 152.5728 44.0200 0.0000 0.0000 0.0000
# 3 31.3878 44.0200 107.8024 0.0000 0.0000 0.0000
# 4 0.0000 0.0000 0.0000 2.4535 0.0000 0.0000
# 5 0.0000 0.0000 0.0000 0.0000 23.9769 0.0000
# 6 0.0000 0.0000 0.0000 0.0000 0.0000 30.8815
#
#
#
# Elastic Compliance Matrix: (Units=1/GPa)
#
#
# Indices 1 2 3 4 5 6 
#
# 1 0.037646 -0.004654 -0.009061 0.000000 0.000000 0.000000
# 2 -0.004654 0.008005 -0.001914 0.000000 0.000000 0.000000
# 3 -0.009061 -0.001914 0.012696 0.000000 0.000000 0.000000
# 4 0.000000 0.000000 0.000000 0.407577 0.000000 0.000000
# 5 0.000000 0.000000 0.000000 0.000000 0.041707 0.000000
# 6 0.000000 0.000000 0.000000 0.000000 0.000000 0.032382
#
#
# Mechanical properties :
#
#
# Convention : Reuss Voigt Hill
#
# Bulk Modulus (GPa) = 36.91390 56.42942 46.67166
# Shear Modulus (GPa) = 8.61624 24.34698 16.48161
#
# Velocity S-wave (km/s) = 2.09432 3.52052 2.89657
# Velocity P-wave (km/s) = 4.96383 6.72691 5.91147
#
# Compressibility (1/GPa) = 0.02709007
#
# Stress axis : x y z
#
# Youngs Moduli (GPa) = 26.56298 124.92236 78.76671
#
# Poissons Ratio (x) = 0.58143 0.71367
# Poissons Ratio (y) = 0.12363 0.15073
# Poissons Ratio (z) = 0.24068 0.23905
#
# Static dielectric constant tensor:
#      x y z
#    x 1.665180 0.000000 0.000000 
#    y 0.000000 1.650890 0.000000 
#    z 0.000000 0.000000 1.683440 
# 
# From -- ./inp_files/20049.got.cif
#   From: 2010.05.17/outbox.cif.g08.bks.cpg/sg59_11_cif.got.tgz:20049.got - 2010.06.03 14:40:33.
