data_PCOD9451533
_publ_section_title
;
Structure prediction by ZEFSAII (Michael W. Deem and Ramdas Pophale) SiO2 
 PCOD9451533
Probable space group: P M M N
;
_chemical_formula_sum "Si O2"
_cell_formula_units_Z 40
_cell_length_a 20.979119
_cell_length_b 8.295437
_cell_length_c 11.751647
_cell_angle_alpha 90.000000
_cell_angle_beta 90.000000
_cell_angle_gamma 90.000000
_cell_volume 2045.150409
_symmetry_space_group_name_H-M "P M M N"
_symmetry_group_IT_number 59
_space_group.IT_coordinate_system_code '2'
_symmetry_cell_setting 'orthorhombic'
loop_
_space_group_symop_operation_xyz
x,y,z
1/2-x,1/2-y,z
1/2+x,-y,-z
-x,1/2+y,-z
-x,-y,-z
1/2+x,1/2+y,-z
1/2-x,y,z
x,1/2-y,z
loop_
_atom_site_type_symbol
_atom_site_label
_atom_site_fract_x
_atom_site_fract_y
_atom_site_fract_z
Si Si1 0.825094 0.945572 0.506589
Si Si2 0.250000 0.563998 0.860301
Si Si3 0.131766 0.942730 0.249892
Si Si4 0.874912 0.556953 0.263449
Si Si5 0.500212 0.555164 0.130809
Si Si6 0.250000 0.064613 0.106316
O O1 0.750000 0.992417 0.504260
O O2 0.826492 0.750000 0.510627
O O3 0.860132 0.000926 0.391337
O O4 0.858941 0.012889 0.618462
O O5 0.250000 0.750000 0.826683
O O6 0.312922 0.482365 0.810463
O O7 0.250000 0.545565 0.995486
O O8 0.138329 0.750000 0.236556
O O9 0.064201 0.992763 0.196458
O O10 0.188253 0.028325 0.181495
O O11 0.881319 0.750000 0.270985
O O12 0.937898 0.494642 0.199925
O O13 0.502267 0.750000 0.130044
O O14 0.500000 0.500000 0.000000
O O15 0.250000 0.250000 0.068820
#
# Coordination Sequence:
#
# PCOD9451533 Si02
#       6
#     8   4   8   8   8   4
#     4  10  20  37  62  90 120 157 204 248 292 356
#     4  12  24  37  58  91 122 151 197 255 307 352
#     4  11  23  39  60  90 124 155 194 252 308 352
#     4  10  21  41  64  86 118 163 205 244 292 359
#     4  10  23  41  62  88 121 159 200 246 302 359
#     4  12  24  39  60  85 114 159 209 245 293 362
#
# _framework density 19.558463
#
# number of rings (size 3 to 8) (size 9 to 14) (size 15 to 20)
#    0.000    1.400    2.000    3.600    0.000    7.200 
#    0.000    0.000    0.000    0.000    0.000    0.000 
#    0.000    0.000    0.000    0.000    0.000    0.000 
#
# Total GULP energy -223582.739528 kJ/mol
# GULP energy per Si atom -5589.568488 kJ/mol
# Density = 1.951395 g / cm^3
# Si number density = 19.558463 Si / 1000 Ang^3
#
#
#
# Elastic Constant Matrix: (Units=GPa)
#
#
# Indices 1 2 3 4 5 6 
#
# 1 185.5235 14.3066 88.2716 0.0000 0.0000 0.0000
# 2 14.3066 14.7031 2.0373 0.0000 0.0000 0.0000
# 3 88.2716 2.0373 160.3482 0.0000 0.0000 0.0000
# 4 0.0000 0.0000 0.0000 31.1987 0.0000 0.0000
# 5 0.0000 0.0000 0.0000 0.0000 -85.6379 0.0000
# 6 0.0000 0.0000 0.0000 0.0000 0.0000 -40.8752
#
#
#
# Elastic Compliance Matrix: (Units=1/GPa)
#
#
# Indices 1 2 3 4 5 6 
#
# 1 0.007995 -0.007182 -0.004310 0.000000 0.000000 0.000000
# 2 -0.007182 0.074584 0.003006 0.000000 0.000000 0.000000
# 3 -0.004310 0.003006 0.008571 0.000000 0.000000 0.000000
# 4 0.000000 0.000000 0.000000 0.032053 0.000000 0.000000
# 5 0.000000 0.000000 0.000000 0.000000 -0.011677 0.000000
# 6 0.000000 0.000000 0.000000 0.000000 0.000000 -0.024465
#
#
# Mechanical properties :
#
#
# Convention : Reuss Voigt Hill
#
# Bulk Modulus (GPa) = 13.48097 63.31172 38.39635
# Shear Modulus (GPa) = 38.83256 -1.99892 18.41682
#
# Velocity S-wave (km/s) = 4.46068 -1.01205 3.07193
# Velocity P-wave (km/s) = 5.78255 5.57451 5.67948
#
# Compressibility (1/GPa) = 0.07417864
#
# Stress axis : x y z
#
# Youngs Moduli (GPa) = 125.08540 13.40761 116.67592
#
# Poissons Ratio (x) = 0.09629 0.50284
# Poissons Ratio (y) = 0.89834 -0.35072
# Poissons Ratio (z) = 0.53909 -0.04030
#
# Static dielectric constant tensor:
#      x y z
#    x 1.653110 0.000000 0.000000 
#    y 0.000000 1.669270 0.000000 
#    z 0.000000 0.000000 1.656800 
# 
# From -- ./inp_files/18157.got.cif
#   From: 2010.05.17/outbox.cif.g08.bks.cpg/sg59_10_cif.got.tgz:18157.got - 2010.06.03 14:40:33.
