data_PCOD9451503
_publ_section_title
;
Structure prediction by ZEFSAII (Michael W. Deem and Ramdas Pophale) SiO2 
 PCOD9451503
Probable space group: P M M N
;
_chemical_formula_sum "Si O2"
_cell_formula_units_Z 64
_cell_length_a 14.351581
_cell_length_b 23.253322
_cell_length_c 9.691367
_cell_angle_alpha 90.000000
_cell_angle_beta 90.000000
_cell_angle_gamma 90.000000
_cell_volume 3234.221740
_symmetry_space_group_name_H-M "P M M N"
_symmetry_group_IT_number 59
_space_group.IT_coordinate_system_code '2'
_symmetry_cell_setting 'orthorhombic'
loop_
_space_group_symop_operation_xyz
x,y,z
1/2-x,1/2-y,z
1/2+x,-y,-z
-x,1/2+y,-z
-x,-y,-z
1/2+x,1/2+y,-z
1/2-x,y,z
x,1/2-y,z
loop_
_atom_site_type_symbol
_atom_site_label
_atom_site_fract_x
_atom_site_fract_y
_atom_site_fract_z
Si Si1 0.356532 0.179894 0.099914
Si Si2 0.862061 0.681331 0.591604
Si Si3 0.977330 0.504661 0.236590
Si Si4 0.008659 0.618110 0.403384
Si Si5 0.644603 0.357243 0.058441
Si Si6 0.139574 0.992471 0.025270
Si Si7 0.859904 0.100630 0.354892
Si Si8 0.491116 0.314405 0.873453
O O1 0.250000 0.162101 0.091798
O O2 0.360058 0.250000 0.096517
O O3 0.391579 0.164202 0.252261
O O4 0.410450 0.157888 0.967115
O O5 0.750000 0.673540 0.580419
O O6 0.879482 0.750000 0.573657
O O7 0.920472 0.643922 0.485159
O O8 0.926620 0.452027 0.311662
O O9 0.992624 0.553726 0.349444
O O10 0.075296 0.492521 0.157229
O O11 0.907271 0.520852 0.110201
O O12 0.097535 0.623421 0.503258
O O13 0.018985 0.653109 0.262877
O O14 0.750000 0.342339 0.025856
O O15 0.632559 0.357294 0.223283
O O16 0.629537 0.423411 0.005605
O O17 0.575646 0.316186 0.979913
O O18 0.250000 0.004420 0.039937
O O19 0.750000 0.084771 0.365043
O O20 0.463042 0.250000 0.835820
#
# Coordination Sequence:
#
# PCOD9451503 Si02
#       8
#     8   8   8   8   8   8   8   8
#     4   8  16  34  57  77 102 146 198 237 277 334
#     4   9  19  37  59  83 119 165 204 242 293 355
#     4  10  20  37  61  88 117 155 198 245 298 358
#     4  12  23  36  57  89 125 158 194 241 302 367
#     4   9  18  37  61  82 109 151 196 239 289 344
#     4   9  18  36  62  88 117 151 192 245 304 354
#     4  10  23  42  63  83 115 159 200 247 304 362
#     4  11  22  35  57  88 119 152 192 245 296 343
#
# _framework density 19.788377000000001
#
# number of rings (size 3 to 8) (size 9 to 14) (size 15 to 20)
#    0.000    2.250    1.250    3.375    0.000    2.750 
#    0.000    2.500    0.000    2.625    0.000    0.000 
#    0.000    0.000    0.000    0.000    0.000    0.000 
#
# Total GULP energy -357051.968584 kJ/mol
# GULP energy per Si atom -5578.937009 kJ/mol
# Density = 1.974334 g / cm^3
# Si number density = 19.788377 Si / 1000 Ang^3
#
#
#
# Elastic Constant Matrix: (Units=GPa)
#
#
# Indices 1 2 3 4 5 6 
#
# 1 108.7698 6.9467 54.0295 0.0000 0.0000 0.0000
# 2 6.9467 9.4850 20.5336 0.0000 0.0000 0.0000
# 3 54.0295 20.5336 124.2749 0.0000 0.0000 0.0000
# 4 0.0000 0.0000 0.0000 -95.6359 0.0000 0.0000
# 5 0.0000 0.0000 0.0000 0.0000 -29.6312 0.0000
# 6 0.0000 0.0000 0.0000 0.0000 0.0000 21.0474
#
#
#
# Elastic Compliance Matrix: (Units=1/GPa)
#
#
# Indices 1 2 3 4 5 6 
#
# 1 0.011815 0.003841 -0.005771 0.000000 0.000000 0.000000
# 2 0.003841 0.165389 -0.028997 0.000000 0.000000 0.000000
# 3 -0.005771 -0.028997 0.015347 0.000000 0.000000 0.000000
# 4 0.000000 0.000000 0.000000 -0.010456 0.000000 0.000000
# 5 0.000000 0.000000 0.000000 0.000000 -0.033748 0.000000
# 6 0.000000 0.000000 0.000000 0.000000 0.000000 0.047512
#
#
# Mechanical properties :
#
#
# Convention : Reuss Voigt Hill
#
# Bulk Modulus (GPa) = 7.65129 45.06102 26.35616
# Shear Modulus (GPa) = 16.59593 -10.10928 3.24333
#
# Velocity S-wave (km/s) = 2.89912 -2.26269 1.28163
# Velocity P-wave (km/s) = 3.88349 3.99931 3.94183
#
# Compressibility (1/GPa) = 0.13069695
#
# Stress axis : x y z
#
# Youngs Moduli (GPa) = 84.63632 6.04634 65.15994
#
# Poissons Ratio (x) = -0.02322 0.37606
# Poissons Ratio (y) = -0.32507 1.88942
# Poissons Ratio (z) = 0.48847 0.17532
#
# Static dielectric constant tensor:
#      x y z
#    x 1.697350 0.000000 0.000000 
#    y 0.000000 1.721640 0.000000 
#    z 0.000000 0.000000 1.691020 
# 
# From -- ./inp_files/9552.got.cif
#   From: 2010.05.17/outbox.cif.g08.bks.cpg/sg59_5_cif.got.tgz:9552.got - 2010.06.03 14:40:33.
