data_PCOD9451408
_publ_section_title
;
Structure prediction by ZEFSAII (Michael W. Deem and Ramdas Pophale) SiO2 
 PCOD9451408
Probable space group: P M M N
;
_chemical_formula_sum "Si O2"
_cell_formula_units_Z 64
_cell_length_a 8.109845
_cell_length_b 32.010498
_cell_length_c 12.339121
_cell_angle_alpha 90.000000
_cell_angle_beta 90.000000
_cell_angle_gamma 90.000000
_cell_volume 3203.237998
_symmetry_space_group_name_H-M "P M M N"
_symmetry_group_IT_number 59
_space_group.IT_coordinate_system_code '2'
_symmetry_cell_setting 'orthorhombic'
loop_
_space_group_symop_operation_xyz
x,y,z
1/2-x,1/2-y,z
1/2+x,-y,-z
-x,1/2+y,-z
-x,-y,-z
1/2+x,1/2+y,-z
1/2-x,y,z
x,1/2-y,z
loop_
_atom_site_type_symbol
_atom_site_label
_atom_site_fract_x
_atom_site_fract_y
_atom_site_fract_z
Si Si1 0.951232 0.083326 0.249791
Si Si2 0.553000 0.452857 0.022608
Si Si3 0.951738 0.295783 0.489724
Si Si4 0.050857 0.952820 0.521561
Si Si5 0.444827 0.123563 0.872876
Si Si6 0.450715 0.819629 0.750094
Si Si7 0.949487 0.295777 0.010772
Si Si8 0.447982 0.623706 0.375339
O O1 0.750000 0.082280 0.249494
O O2 0.007114 0.061523 0.359742
O O3 0.997490 0.131779 0.249809
O O4 0.010406 0.061496 0.140482
O O5 0.750000 0.451740 0.025820
O O6 0.499390 0.418453 0.934990
O O7 0.500000 0.500000 0.000000
O O8 0.750000 0.296926 0.489952
O O9 0.001540 0.250000 0.530913
O O10 0.004305 0.300468 0.364202
O O11 0.008996 0.335109 0.560703
O O12 0.250000 0.951296 0.521492
O O13 0.991577 0.918687 0.433751
O O14 0.000000 0.000000 0.500000
O O15 0.250000 0.123174 0.865960
O O16 0.497036 0.164457 0.941032
O O17 0.513283 0.124966 0.751220
O O18 0.250000 0.816940 0.750277
O O19 0.505752 0.800412 0.864074
O O20 0.750000 0.296467 0.011665
O O21 0.002150 0.250000 0.969286
O O22 0.250000 0.623866 0.387036
#
# Coordination Sequence:
#
# PCOD9451408 Si02
#       8
#     8   8   8   8   8   8   8   8
#     4   9  17  33  59  85 116 151 182 232 295 348
#     4  11  23  41  64  91 123 156 196 243 295 354
#     4   9  16  28  53  88 118 144 181 231 288 351
#     4  10  21  37  58  86 116 151 189 235 293 349
#     4  12  26  42  59  82 117 162 206 249 297 347
#     4   9  14  28  55  89 121 145 177 231 295 353
#     4  10  20  36  62  92 119 152 195 243 299 361
#     4  10  21  38  58  82 116 153 193 244 293 343
#
# _framework density 19.979783999999999
#
# number of rings (size 3 to 8) (size 9 to 14) (size 15 to 20)
#    0.000    2.000    2.500    1.875    1.750    2.750 
#    0.000    1.875    0.000    0.750    0.000    0.000 
#    0.000    0.000    0.000    0.000    0.000    0.000 
#
# Total GULP energy -357339.700542 kJ/mol
# GULP energy per Si atom -5583.432821 kJ/mol
# Density = 1.993431 g / cm^3
# Si number density = 19.979784 Si / 1000 Ang^3
#
#
#
# Elastic Constant Matrix: (Units=GPa)
#
#
# Indices 1 2 3 4 5 6 
#
# 1 14.3211 12.9714 3.2905 0.0000 0.0000 0.0000
# 2 12.9714 203.8609 94.5530 0.0000 0.0000 0.0000
# 3 3.2905 94.5530 150.5663 0.0000 0.0000 0.0000
# 4 0.0000 0.0000 0.0000 119.7324 0.0000 0.0000
# 5 0.0000 0.0000 0.0000 0.0000 -4.7159 0.0000
# 6 0.0000 0.0000 0.0000 0.0000 0.0000 23.2087
#
#
#
# Elastic Compliance Matrix: (Units=1/GPa)
#
#
# Indices 1 2 3 4 5 6 
#
# 1 0.074482 -0.005622 0.001903 0.000000 0.000000 0.000000
# 2 -0.005622 0.007346 -0.004490 0.000000 0.000000 0.000000
# 3 0.001903 -0.004490 0.009420 0.000000 0.000000 0.000000
# 4 0.000000 0.000000 0.000000 0.008352 0.000000 0.000000
# 5 0.000000 0.000000 0.000000 0.000000 -0.212048 0.000000
# 6 0.000000 0.000000 0.000000 0.000000 0.000000 0.043087
#
#
# Mechanical properties :
#
#
# Convention : Reuss Voigt Hill
#
# Bulk Modulus (GPa) = 13.36384 65.59756 39.48070
# Shear Modulus (GPa) = -178.56790 44.84058 -66.86366
#
# Velocity S-wave (km/s) = -9.46405 4.74254 -5.79123
# Velocity P-wave (km/s) = 10.61702 7.93046 4.99144
#
# Compressibility (1/GPa) = 0.07482882
#
# Stress axis : x y z
#
# Youngs Moduli (GPa) = 13.42610 136.13764 106.16109
#
# Poissons Ratio (x) = 0.76531 -0.20197
# Poissons Ratio (y) = 0.07548 0.47666
# Poissons Ratio (z) = -0.02554 0.61126
#
# Static dielectric constant tensor:
#      x y z
#    x 1.720450 0.000000 0.000000 
#    y 0.000000 1.752830 0.000000 
#    z 0.000000 0.000000 1.692850 
# 
# From -- ./inp_files/14878.got.cif
#   From: 2010.05.17/outbox.cif.g08.bks.cpg/sg59_8_cif.got.tgz:14878.got - 2010.06.03 14:40:33.
