data_PCOD9451966
_publ_section_title
;
Structure prediction by ZEFSAII (Michael W. Deem and Ramdas Pophale) SiO2 
 PCOD9451966
Probable space group: P M M N
;
_chemical_formula_sum "Si O2"
_cell_formula_units_Z 48
_cell_length_a 8.888678
_cell_length_b 9.257309
_cell_length_c 31.672819
_cell_angle_alpha 90.000000
_cell_angle_beta 90.000000
_cell_angle_gamma 90.000000
_cell_volume 2606.205476
_symmetry_space_group_name_H-M "P M M N"
_symmetry_group_IT_number 59
_space_group.IT_coordinate_system_code '2'
_symmetry_cell_setting 'orthorhombic'
loop_
_space_group_symop_operation_xyz
x,y,z
1/2-x,1/2-y,z
1/2+x,-y,-z
-x,1/2+y,-z
-x,-y,-z
1/2+x,1/2+y,-z
1/2-x,y,z
x,1/2-y,z
loop_
_atom_site_type_symbol
_atom_site_label
_atom_site_fract_x
_atom_site_fract_y
_atom_site_fract_z
Si Si1 0.570512 0.920486 0.285472
Si Si2 0.431496 0.081004 0.873964
Si Si3 0.569812 0.581292 0.793952
Si Si4 0.070182 0.920401 0.374996
Si Si5 0.431559 0.918202 0.960049
Si Si6 0.931523 0.582165 0.539782
O O1 0.750000 0.935326 0.283372
O O2 0.533401 0.750000 0.279622
O O3 0.511324 0.962986 0.331767
O O4 0.494488 0.012485 0.248802
O O5 0.250000 0.072100 0.870166
O O6 0.472169 0.250000 0.876320
O O7 0.504174 0.005588 0.833596
O O8 0.475922 0.998152 0.916756
O O9 0.750000 0.570786 0.793817
O O10 0.527623 0.750000 0.797089
O O11 0.250000 0.938909 0.369433
O O12 0.041685 0.750000 0.382330
O O13 0.021881 0.009109 0.416071
O O14 0.250000 0.923956 0.962749
O O15 0.476842 0.750000 0.959368
O O16 0.500000 0.000000 0.000000
O O17 0.750000 0.572375 0.537625
O O18 0.974281 0.750000 0.538909
O O19 0.000000 0.500000 0.500000
#
# Coordination Sequence:
#
# PCOD9451966 Si02
#       6
#     8   8   8   8   8   8
#     4  10  21  37  58  84 112 143 180 222 270 325
#     4  10  21  38  60  84 110 143 184 229 277 328
#     4  11  24  39  56  81 112 146 184 226 272 323
#     4   9  18  34  55  78 108 146 184 223 269 321
#     4  10  21  37  58  84 114 149 187 227 274 326
#     4  10  21  36  55  80 110 144 182 225 272 322
#
# _framework density 18.417580999999998
#
# number of rings (size 3 to 8) (size 9 to 14) (size 15 to 20)
#    0.000    2.000    0.000    3.000    0.000    9.333 
#    0.000    3.333    0.000    0.000    0.000    0.000 
#    0.000    0.000    0.000    0.000    0.000    0.000 
#
# Total GULP energy -268193.471635 kJ/mol
# GULP energy per Si atom -5587.363992 kJ/mol
# Density = 1.837566 g / cm^3
# Si number density = 18.417581 Si / 1000 Ang^3
#
#
#
# Elastic Constant Matrix: (Units=GPa)
#
#
# Indices 1 2 3 4 5 6 
#
# 1 22.5800 54.0524 52.6218 0.0000 0.0000 0.0000
# 2 54.0524 165.5344 130.4946 0.0000 0.0000 0.0000
# 3 52.6218 130.4946 204.4056 0.0000 0.0000 0.0000
# 4 0.0000 0.0000 0.0000 42.8121 0.0000 0.0000
# 5 0.0000 0.0000 0.0000 0.0000 41.5267 0.0000
# 6 0.0000 0.0000 0.0000 0.0000 0.0000 27.7416
#
#
#
# Elastic Compliance Matrix: (Units=1/GPa)
#
#
# Indices 1 2 3 4 5 6 
#
# 1 0.253609 -0.063099 -0.025005 0.000000 0.000000 0.000000
# 2 -0.063099 0.027861 -0.001543 0.000000 0.000000 0.000000
# 3 -0.025005 -0.001543 0.012314 0.000000 0.000000 0.000000
# 4 0.000000 0.000000 0.000000 0.023358 0.000000 0.000000
# 5 0.000000 0.000000 0.000000 0.000000 0.024081 0.000000
# 6 0.000000 0.000000 0.000000 0.000000 0.000000 0.036047
#
#
# Mechanical properties :
#
#
# Convention : Reuss Voigt Hill
#
# Bulk Modulus (GPa) = 8.73441 96.31751 52.52596
# Shear Modulus (GPa) = 8.40721 32.77284 20.59003
#
# Velocity S-wave (km/s) = 2.13885 4.22291 3.34721
# Velocity P-wave (km/s) = 3.29428 8.72853 6.59695
#
# Compressibility (1/GPa) = 0.11448973
#
# Stress axis : x y z
#
# Youngs Moduli (GPa) = 3.94308 35.89229 81.20558
#
# Poissons Ratio (x) = 2.26478 2.03057
# Poissons Ratio (y) = 0.24881 0.12527
# Poissons Ratio (z) = 0.09860 0.05537
#
# Static dielectric constant tensor:
#      x y z
#    x 1.621300 0.000000 0.000000 
#    y 0.000000 1.620470 0.000000 
#    z 0.000000 0.000000 1.591900 
# 
# From -- ./inp_files/32777.got.cif
#   From: 2010.05.17/outbox.cif.g08.bks.cpg/sg59_17_cif.got.tgz:32777.got - 2010.06.03 14:40:33.
