data_PCOD9451555
_publ_section_title
;
Structure prediction by ZEFSAII (Michael W. Deem and Ramdas Pophale) SiO2 
 PCOD9451555
Probable space group: P M M N
;
_chemical_formula_sum "Si O2"
_cell_formula_units_Z 48
_cell_length_a 14.525016
_cell_length_b 18.699216
_cell_length_c 8.815958
_cell_angle_alpha 90.000000
_cell_angle_beta 90.000000
_cell_angle_gamma 90.000000
_cell_volume 2394.470717
_symmetry_space_group_name_H-M "P M M N"
_symmetry_group_IT_number 59
_space_group.IT_coordinate_system_code '2'
_symmetry_cell_setting 'orthorhombic'
loop_
_space_group_symop_operation_xyz
x,y,z
1/2-x,1/2-y,z
1/2+x,-y,-z
-x,1/2+y,-z
-x,-y,-z
1/2+x,1/2+y,-z
1/2-x,y,z
x,1/2-y,z
loop_
_atom_site_type_symbol
_atom_site_label
_atom_site_fract_x
_atom_site_fract_y
_atom_site_fract_z
Si Si1 0.976006 0.443915 0.630839
Si Si2 0.858922 0.450616 0.921141
Si Si3 0.854695 0.164987 0.451035
Si Si4 0.852837 0.579037 0.162487
Si Si5 0.649901 0.665613 0.874256
Si Si6 0.054649 0.664521 0.866400
O O1 0.908714 0.471102 0.764985
O O2 0.924431 0.377556 0.554984
O O3 0.000000 0.500000 0.500000
O O4 0.070137 0.421514 0.711948
O O5 0.750000 0.437414 0.900320
O O6 0.869071 0.513593 0.044957
O O7 0.910051 0.381674 0.992381
O O8 0.750000 0.143209 0.483020
O O9 0.863010 0.250000 0.473225
O O10 0.878729 0.150452 0.275333
O O11 0.750000 0.571275 0.225585
O O12 0.855566 0.647912 0.053245
O O13 0.750000 0.634392 0.823385
O O14 0.654078 0.750000 0.846823
O O15 0.549255 0.642606 0.816945
O O16 0.054592 0.750000 0.897989
#
# Coordination Sequence:
#
# PCOD9451555 Si02
#       6
#     8   8   8   8   8   8
#     4  12  25  38  60  88 127 166 204 248 308 375
#     4  11  23  39  61  89 122 158 207 260 304 356
#     4  10  23  43  64  90 128 169 205 249 311 376
#     4  10  22  40  62  86 116 157 205 255 303 351
#     4   9  18  34  59  88 114 144 191 250 302 348
#     4  10  20  37  65  93 118 156 205 254 306 361
#
# _framework density 20.046182999999999
#
# number of rings (size 3 to 8) (size 9 to 14) (size 15 to 20)
#    0.000    1.667    1.667    2.500    2.333    5.000 
#    0.000    0.833    0.000    1.000    0.000    0.000 
#    0.000    0.000    0.000    0.000    0.000    0.000 
#
# Total GULP energy -268029.693639 kJ/mol
# GULP energy per Si atom -5583.951951 kJ/mol
# Density = 2.000056 g / cm^3
# Si number density = 20.046183 Si / 1000 Ang^3
#
#
#
# Elastic Constant Matrix: (Units=GPa)
#
#
# Indices 1 2 3 4 5 6 
#
# 1 147.3506 32.6157 54.1793 0.0000 0.0000 0.0000
# 2 32.6157 40.6443 26.2627 0.0000 0.0000 0.0000
# 3 54.1793 26.2627 71.9866 0.0000 0.0000 0.0000
# 4 0.0000 0.0000 0.0000 27.4812 0.0000 0.0000
# 5 0.0000 0.0000 0.0000 0.0000 29.5316 0.0000
# 6 0.0000 0.0000 0.0000 0.0000 0.0000 26.4243
#
#
#
# Elastic Compliance Matrix: (Units=1/GPa)
#
#
# Indices 1 2 3 4 5 6 
#
# 1 0.009876 -0.004085 -0.005942 0.000000 0.000000 0.000000
# 2 -0.004085 0.033883 -0.009287 0.000000 0.000000 0.000000
# 3 -0.005942 -0.009287 0.021752 0.000000 0.000000 0.000000
# 4 0.000000 0.000000 0.000000 0.036388 0.000000 0.000000
# 5 0.000000 0.000000 0.000000 0.000000 0.033862 0.000000
# 6 0.000000 0.000000 0.000000 0.000000 0.000000 0.037844
#
#
# Mechanical properties :
#
#
# Convention : Reuss Voigt Hill
#
# Bulk Modulus (GPa) = 37.19996 54.01078 45.60537
# Shear Modulus (GPa) = 22.60461 26.48234 24.54347
#
# Velocity S-wave (km/s) = 3.36166 3.63859 3.50286
# Velocity P-wave (km/s) = 5.80216 6.68237 6.25776
#
# Compressibility (1/GPa) = 0.02688175
#
# Stress axis : x y z
#
# Youngs Moduli (GPa) = 101.25808 29.51370 45.97297
#
# Poissons Ratio (x) = 0.12057 0.27319
# Poissons Ratio (y) = 0.41366 0.42693
# Poissons Ratio (z) = 0.60172 0.27408
#
# Static dielectric constant tensor:
#      x y z
#    x 1.742320 0.000000 0.000000 
#    y 0.000000 1.722510 0.000000 
#    z 0.000000 0.000000 1.676750 
# 
# From -- ./inp_files/8984.got.cif
#   From: 2010.05.17/outbox.cif.g08.bks.cpg/sg59_5_cif.got.tgz:8984.got - 2010.06.03 14:40:33.
