data_PCOD9451149
_publ_section_title
;
Structure prediction by ZEFSAII (Michael W. Deem and Ramdas Pophale) SiO2 
 PCOD9451149
Probable space group: P M M N
;
_chemical_formula_sum "Si O2"
_cell_formula_units_Z 64
_cell_length_a 31.001808
_cell_length_b 17.595375
_cell_length_c 5.248937
_cell_angle_alpha 90.000000
_cell_angle_beta 90.000000
_cell_angle_gamma 90.000000
_cell_volume 2863.234442
_symmetry_space_group_name_H-M "P M M N"
_symmetry_group_IT_number 59
_space_group.IT_coordinate_system_code '2'
_symmetry_cell_setting 'orthorhombic'
loop_
_space_group_symop_operation_xyz
x,y,z
1/2-x,1/2-y,z
1/2+x,-y,-z
-x,1/2+y,-z
-x,-y,-z
1/2+x,1/2+y,-z
1/2-x,y,z
x,1/2-y,z
loop_
_atom_site_type_symbol
_atom_site_label
_atom_site_fract_x
_atom_site_fract_y
_atom_site_fract_z
Si Si1 0.947801 0.836041 0.263690
Si Si2 0.147127 0.127195 0.898584
Si Si3 0.624040 0.161098 0.829768
Si Si4 0.937632 0.062139 0.555742
Si Si5 0.021333 0.420790 0.232223
Si Si6 0.135714 0.962347 0.791915
Si Si7 0.200180 0.116545 0.376274
Si Si8 0.798530 0.436563 0.586881
O O1 0.964022 0.750000 0.277012
O O2 0.897784 0.835387 0.179146
O O3 0.971858 0.881688 0.038509
O O4 0.954563 0.875078 0.538447
O O5 0.172048 0.153321 0.150554
O O6 0.134748 0.038730 0.950561
O O7 0.178210 0.128941 0.651440
O O8 0.630041 0.250000 0.857032
O O9 0.581979 0.139392 0.665949
O O10 0.617705 0.113924 0.087184
O O11 0.666654 0.119272 0.715272
O O12 0.972725 0.073835 0.336632
O O13 0.958961 0.005602 0.759661
O O14 0.895210 0.020409 0.446016
O O15 0.184060 0.944558 0.701954
O O16 0.250000 0.141739 0.375985
O O17 0.200957 0.024782 0.326826
O O18 0.750000 0.407953 0.607067
#
# Coordination Sequence:
#
# PCOD9451149 Si02
#       8
#     8   8   8   8   8   8   8   8
#     4  12  26  43  66 100 136 171 210 262 334 397
#     4  11  20  38  64  90 127 167 209 263 316 384
#     4  11  23  38  58  86 125 168 211 263 328 386
#     4  10  24  42  67  91 122 167 222 269 324 379
#     4  11  25  44  70  97 129 169 220 275 319 390
#     4  10  20  37  61  88 117 164 216 269 315 381
#     4  10  20  35  63  97 123 159 217 271 315 369
#     4   9  20  36  55  83 119 160 210 267 316 373
#
# _framework density 22.352343000000001
#
# number of rings (size 3 to 8) (size 9 to 14) (size 15 to 20)
#    0.000    1.500    2.500    2.250    3.500    5.250 
#    0.000    0.000    0.000    2.250    0.000    0.000 
#    0.000    0.000    0.000    0.000    0.000    0.000 
#
# Total GULP energy -357582.816153 kJ/mol
# GULP energy per Si atom -5587.231502 kJ/mol
# Density = 2.230147 g / cm^3
# Si number density = 22.352343 Si / 1000 Ang^3
#
#
#
# Elastic Constant Matrix: (Units=GPa)
#
#
# Indices 1 2 3 4 5 6 
#
# 1 115.1561 23.0748 17.4930 0.0000 0.0000 0.0000
# 2 23.0748 88.0656 21.5500 0.0000 0.0000 0.0000
# 3 17.4930 21.5500 76.5029 0.0000 0.0000 0.0000
# 4 0.0000 0.0000 0.0000 8.1927 0.0000 0.0000
# 5 0.0000 0.0000 0.0000 0.0000 25.4435 0.0000
# 6 0.0000 0.0000 0.0000 0.0000 0.0000 7.4187
#
#
#
# Elastic Compliance Matrix: (Units=1/GPa)
#
#
# Indices 1 2 3 4 5 6 
#
# 1 0.009334 -0.002066 -0.001552 0.000000 0.000000 0.000000
# 2 -0.002066 0.012653 -0.003092 0.000000 0.000000 0.000000
# 3 -0.001552 -0.003092 0.014297 0.000000 0.000000 0.000000
# 4 0.000000 0.000000 0.000000 0.122060 0.000000 0.000000
# 5 0.000000 0.000000 0.000000 0.000000 0.039303 0.000000
# 6 0.000000 0.000000 0.000000 0.000000 0.000000 0.134794
#
#
# Mechanical properties :
#
#
# Convention : Reuss Voigt Hill
#
# Bulk Modulus (GPa) = 43.73668 44.88448 44.31058
# Shear Modulus (GPa) = 14.14501 22.71811 18.43156
#
# Velocity S-wave (km/s) = 2.51832 3.19150 2.87469
# Velocity P-wave (km/s) = 5.29767 5.80560 5.55744
#
# Compressibility (1/GPa) = 0.02286411
#
# Stress axis : x y z
#
# Youngs Moduli (GPa) = 107.13987 79.03254 69.94332
#
# Poissons Ratio (x) = 0.16326 0.10857
# Poissons Ratio (y) = 0.22132 0.21626
# Poissons Ratio (z) = 0.16631 0.24436
#
# Static dielectric constant tensor:
#      x y z
#    x 1.819790 0.000000 0.000000 
#    y 0.000000 1.803000 0.000000 
#    z 0.000000 0.000000 1.903830 
# 
# From -- ./inp_files/4635.got.cif
#   From: 2010.05.17/outbox.cif.g08.bks.cpg/sg59_3_cif.got.tgz:4635.got - 2010.06.03 14:40:33.
