data_PCOD9451117
_publ_section_title
;
Structure prediction by ZEFSAII (Michael W. Deem and Ramdas Pophale) SiO2 
 PCOD9451117
Probable space group: P M M N
;
_chemical_formula_sum "Si O2"
_cell_formula_units_Z 64
_cell_length_a 18.748171
_cell_length_b 28.327742
_cell_length_c 6.541107
_cell_angle_alpha 90.000000
_cell_angle_beta 90.000000
_cell_angle_gamma 90.000000
_cell_volume 3473.938436
_symmetry_space_group_name_H-M "P M M N"
_symmetry_group_IT_number 59
_space_group.IT_coordinate_system_code '2'
_symmetry_cell_setting 'orthorhombic'
loop_
_space_group_symop_operation_xyz
x,y,z
1/2-x,1/2-y,z
1/2+x,-y,-z
-x,1/2+y,-z
-x,-y,-z
1/2+x,1/2+y,-z
1/2-x,y,z
x,1/2-y,z
loop_
_atom_site_type_symbol
_atom_site_label
_atom_site_fract_x
_atom_site_fract_y
_atom_site_fract_z
Si Si1 0.167866 0.386133 0.746122
Si Si2 0.572023 0.868628 0.869209
Si Si3 0.037030 0.528005 0.188610
Si Si4 0.057726 0.801866 0.437651
Si Si5 0.081711 0.052011 0.468575
Si Si6 0.578132 0.130518 0.927446
Si Si7 0.332070 0.803167 0.810536
Si Si8 0.889620 0.803725 0.539754
O O1 0.250000 0.385841 0.804033
O O2 0.149818 0.428791 0.590693
O O3 0.147095 0.338455 0.622611
O O4 0.117334 0.389332 0.943722
O O5 0.560317 0.906410 0.688404
O O6 0.615618 0.826030 0.765652
O O7 0.494823 0.855030 0.955219
O O8 0.086874 0.493556 0.323406
O O9 0.075201 0.574251 0.098566
O O10 0.977445 0.543904 0.355240
O O11 0.000000 0.500000 0.000000
O O12 0.067051 0.750000 0.337634
O O13 0.073334 0.845006 0.291104
O O14 0.112258 0.803974 0.624735
O O15 0.974981 0.804453 0.500832
O O16 0.643820 0.154800 0.041636
O O17 0.250000 0.808829 0.744819
O O18 0.337796 0.750000 0.902838
O O19 0.864507 0.750000 0.526284
#
# Coordination Sequence:
#
# PCOD9451117 Si02
#       8
#     8   8   8   8   8   8   8   8
#     4  11  23  40  59  83 121 163 204 258 312 362
#     4  11  20  36  59  91 116 154 209 253 302 361
#     4  11  21  36  63  97 123 150 198 259 311 364
#     4  10  20  35  59  87 117 156 198 245 289 350
#     4  10  21  38  60  88 119 156 200 254 311 370
#     4  12  20  34  63  93 118 150 201 247 295 358
#     4  10  23  40  58  87 126 162 195 241 306 371
#     4  10  21  36  57  87 119 156 205 252 301 361
#
# _framework density 18.422895
#
# number of rings (size 3 to 8) (size 9 to 14) (size 15 to 20)
#    0.000    1.375    5.000    1.125    0.000    3.750 
#    0.000    1.875    0.000    3.750    0.000    0.000 
#    0.000    0.000    0.000    0.000    0.000    0.000 
#
# Total GULP energy -356953.031716 kJ/mol
# GULP energy per Si atom -5577.391121 kJ/mol
# Density = 1.838096 g / cm^3
# Si number density = 18.422895 Si / 1000 Ang^3
#
#
#
# Elastic Constant Matrix: (Units=GPa)
#
#
# Indices 1 2 3 4 5 6 
#
# 1 62.1956 9.5369 12.3547 0.0000 0.0000 0.0000
# 2 9.5369 118.2591 35.7938 0.0000 0.0000 0.0000
# 3 12.3547 35.7938 79.0316 0.0000 0.0000 0.0000
# 4 0.0000 0.0000 0.0000 31.3086 0.0000 0.0000
# 5 0.0000 0.0000 0.0000 0.0000 14.2343 0.0000
# 6 0.0000 0.0000 0.0000 0.0000 0.0000 16.4543
#
#
#
# Elastic Compliance Matrix: (Units=1/GPa)
#
#
# Indices 1 2 3 4 5 6 
#
# 1 0.016636 -0.000643 -0.002310 0.000000 0.000000 0.000000
# 2 -0.000643 0.009824 -0.004349 0.000000 0.000000 0.000000
# 3 -0.002310 -0.004349 0.014984 0.000000 0.000000 0.000000
# 4 0.000000 0.000000 0.000000 0.031940 0.000000 0.000000
# 5 0.000000 0.000000 0.000000 0.000000 0.070253 0.000000
# 6 0.000000 0.000000 0.000000 0.000000 0.000000 0.060774
#
#
# Mechanical properties :
#
#
# Convention : Reuss Voigt Hill
#
# Bulk Modulus (GPa) = 37.25573 41.65080 39.45327
# Shear Modulus (GPa) = 21.93365 25.85283 23.89324
#
# Velocity S-wave (km/s) = 3.45420 3.75013 3.60520
# Velocity P-wave (km/s) = 6.01457 6.43495 6.22831
#
# Compressibility (1/GPa) = 0.02684151
#
# Stress axis : x y z
#
# Youngs Moduli (GPa) = 60.11206 101.79017 66.73843
#
# Poissons Ratio (x) = 0.06540 0.15414
# Poissons Ratio (y) = 0.03862 0.29024
# Poissons Ratio (z) = 0.13883 0.44268
#
# Static dielectric constant tensor:
#      x y z
#    x 1.608610 0.000000 0.000000 
#    y 0.000000 1.729990 0.000000 
#    z 0.000000 0.000000 1.641990 
# 
# From -- ./inp_files/3043.got.cif
#   From: 2010.05.17/outbox.cif.g08.bks.cpg/sg59_2_cif.got.tgz:3043.got - 2010.06.03 14:40:33.
