data_PCOD9451692
_publ_section_title
;
Structure prediction by ZEFSAII (Michael W. Deem and Ramdas Pophale) SiO2 
 PCOD9451692
Probable space group: P M M N
;
_chemical_formula_sum "Si O2"
_cell_formula_units_Z 64
_cell_length_a 18.659797
_cell_length_b 31.260308
_cell_length_c 5.534815
_cell_angle_alpha 90.000000
_cell_angle_beta 90.000000
_cell_angle_gamma 90.000000
_cell_volume 3228.518480
_symmetry_space_group_name_H-M "P M M N"
_symmetry_group_IT_number 59
_space_group.IT_coordinate_system_code '2'
_symmetry_cell_setting 'orthorhombic'
loop_
_space_group_symop_operation_xyz
x,y,z
1/2-x,1/2-y,z
1/2+x,-y,-z
-x,1/2+y,-z
-x,-y,-z
1/2+x,1/2+y,-z
1/2-x,y,z
x,1/2-y,z
loop_
_atom_site_type_symbol
_atom_site_label
_atom_site_fract_x
_atom_site_fract_y
_atom_site_fract_z
Si Si1 0.961349 0.203561 0.250131
Si Si2 0.332414 0.381279 0.337119
Si Si3 0.670367 0.703357 0.995032
Si Si4 0.554418 0.546956 0.762509
Si Si5 0.423605 0.861608 0.134572
Si Si6 0.465225 0.949404 0.263100
Si Si7 0.329936 0.703304 0.379218
Si Si8 0.065748 0.173120 0.621472
O O1 0.962426 0.250000 0.116000
O O2 0.891873 0.205234 0.421588
O O3 0.035504 0.199782 0.396020
O O4 0.950665 0.158460 0.115844
O O5 0.250000 0.392156 0.385752
O O6 0.378160 0.421295 0.243031
O O7 0.376380 0.363198 0.563595
O O8 0.333497 0.339481 0.164003
O O9 0.750000 0.701577 0.115859
O O10 0.668844 0.750000 0.868524
O O11 0.604716 0.701320 0.179496
O O12 0.569726 0.496415 0.732109
O O13 0.503855 0.557003 0.525665
O O14 0.517969 0.551545 0.027635
O O15 0.412234 0.910915 0.192705
O O16 0.354780 0.833757 0.201932
O O17 0.492943 0.848999 0.292387
O O18 0.250000 0.696519 0.476365
O O19 0.330311 0.750000 0.256376
#
# Coordination Sequence:
#
# PCOD9451692 Si02
#       8
#     8   8   8   8   8   8   8   8
#     4  10  21  34  54  84 118 155 200 251 302 356
#     4  11  23  38  58  83 119 161 206 256 312 367
#     4  10  22  37  52  75 112 161 209 250 299 356
#     4  10  21  41  63  95 119 162 199 256 309 379
#     4  11  21  34  58  88 115 151 193 253 301 365
#     4  10  21  38  68  92 124 151 205 253 318 369
#     4   9  20  38  57  81 116 158 201 245 304 375
#     4  11  20  34  54  79 114 152 201 250 301 351
#
# _framework density 19.823336000000001
#
# number of rings (size 3 to 8) (size 9 to 14) (size 15 to 20)
#    0.000    1.750    1.250    3.375    1.750    4.000 
#    0.000    3.125    0.000    0.000    0.000    0.000 
#    0.000    0.000    0.000    0.000    0.000    0.000 
#
# Total GULP energy -356418.406963 kJ/mol
# GULP energy per Si atom -5569.037609 kJ/mol
# Density = 1.977822 g / cm^3
# Si number density = 19.823336 Si / 1000 Ang^3
#
#
#
# Elastic Constant Matrix: (Units=GPa)
#
#
# Indices 1 2 3 4 5 6 
#
# 1 101.4482 42.0235 12.2937 0.0000 0.0000 0.0000
# 2 42.0235 110.5260 7.6103 0.0000 0.0000 0.0000
# 3 12.2937 7.6103 48.8009 0.0000 0.0000 0.0000
# 4 0.0000 0.0000 0.0000 24.8360 0.0000 0.0000
# 5 0.0000 0.0000 0.0000 0.0000 16.7178 0.0000
# 6 0.0000 0.0000 0.0000 0.0000 0.0000 23.9184
#
#
#
# Elastic Compliance Matrix: (Units=1/GPa)
#
#
# Indices 1 2 3 4 5 6 
#
# 1 0.011956 -0.004386 -0.002328 0.000000 0.000000 0.000000
# 2 -0.004386 0.010754 -0.000572 0.000000 0.000000 0.000000
# 3 -0.002328 -0.000572 0.021167 0.000000 0.000000 0.000000
# 4 0.000000 0.000000 0.000000 0.040264 0.000000 0.000000
# 5 0.000000 0.000000 0.000000 0.000000 0.059817 0.000000
# 6 0.000000 0.000000 0.000000 0.000000 0.000000 0.041809
#
#
# Mechanical properties :
#
#
# Convention : Reuss Voigt Hill
#
# Bulk Modulus (GPa) = 34.12285 42.73668 38.42976
# Shear Modulus (GPa) = 23.79735 26.35095 25.07415
#
# Velocity S-wave (km/s) = 3.46854 3.64990 3.56037
# Velocity P-wave (km/s) = 5.76991 6.27439 6.02743
#
# Compressibility (1/GPa) = 0.02930588
#
# Stress axis : x y z
#
# Youngs Moduli (GPa) = 83.63999 92.98436 47.24309
#
# Poissons Ratio (x) = 0.40779 0.10998
# Poissons Ratio (y) = 0.36681 0.02704
# Poissons Ratio (z) = 0.19471 0.05322
#
# Static dielectric constant tensor:
#      x y z
#    x 1.673070 0.000000 0.000000 
#    y 0.000000 1.750740 0.000000 
#    z 0.000000 0.000000 1.799720 
# 
# From -- ./inp_files/3054.got.cif
#   From: 2010.05.17/outbox.cif.g08.bks.cpg/sg59_2_cif.got.tgz:3054.got - 2010.06.03 14:40:33.
