data_PCOD9451934
_publ_section_title
;
Structure prediction by ZEFSAII (Michael W. Deem and Ramdas Pophale) SiO2 
 PCOD9451934
Probable space group: P M M N
;
_chemical_formula_sum "Si O2"
_cell_formula_units_Z 48
_cell_length_a 14.917075
_cell_length_b 8.668346
_cell_length_c 20.166185
_cell_angle_alpha 90.000000
_cell_angle_beta 90.000000
_cell_angle_gamma 90.000000
_cell_volume 2607.616127
_symmetry_space_group_name_H-M "P M M N"
_symmetry_group_IT_number 59
_space_group.IT_coordinate_system_code '2'
_symmetry_cell_setting 'orthorhombic'
loop_
_space_group_symop_operation_xyz
x,y,z
1/2-x,1/2-y,z
1/2+x,-y,-z
-x,1/2+y,-z
-x,-y,-z
1/2+x,1/2+y,-z
1/2-x,y,z
x,1/2-y,z
loop_
_atom_site_type_symbol
_atom_site_label
_atom_site_fract_x
_atom_site_fract_y
_atom_site_fract_z
Si Si1 0.750000 0.065000 0.879127
Si Si2 0.750000 0.566521 0.026823
Si Si3 0.984266 0.936721 0.674751
Si Si4 0.942135 0.065971 0.061450
Si Si5 0.645826 0.935427 0.555225
Si Si6 0.057296 0.934248 0.181035
Si Si7 0.852341 0.435806 0.413381
O O1 0.750000 0.250000 0.891859
O O2 0.659572 0.027063 0.839451
O O3 0.750000 0.979642 0.949290
O O4 0.750000 0.750000 0.033855
O O5 0.658819 0.497874 0.057157
O O6 0.981573 0.750000 0.681195
O O7 0.912870 0.982438 0.618108
O O8 0.080683 0.982398 0.644836
O O9 0.963171 0.010726 0.744985
O O10 0.940387 0.250000 0.056329
O O11 0.991326 0.013624 0.128421
O O12 0.000000 0.000000 0.000000
O O13 0.750000 0.979158 0.564678
O O14 0.640642 0.750000 0.550145
O O15 0.615876 0.005121 0.485090
O O16 0.047185 0.750000 0.175756
O O17 0.750000 0.489389 0.403633
O O18 0.852367 0.250000 0.415654
#
# Coordination Sequence:
#
# PCOD9451934 Si02
#       7
#     4   4   8   8   8   8   8
#     4  10  22  40  62  88 122 157 194 245 302 354
#     4  12  24  40  68  98 122 159 204 249 302 358
#     4  10  21  36  54  79 113 152 192 235 293 355
#     4  12  24  42  66  94 126 161 203 251 300 356
#     4   9  18  32  52  80 110 142 184 238 291 347
#     4  11  24  41  61  88 122 158 199 246 298 361
#     4   9  18  34  55  78 106 144 190 240 289 346
#
# _framework density 18.407616999999998
#
# number of rings (size 3 to 8) (size 9 to 14) (size 15 to 20)
#    0.000    1.667    1.667    3.250    1.167    2.000 
#    1.500    0.000    0.000    0.000    0.000    0.000 
#    0.000    0.000    0.000    0.000    0.000    0.000 
#
# Total GULP energy -268203.650040 kJ/mol
# GULP energy per Si atom -5587.576043 kJ/mol
# Density = 1.836572 g / cm^3
# Si number density = 18.407617 Si / 1000 Ang^3
#
#
#
# Elastic Constant Matrix: (Units=GPa)
#
#
# Indices 1 2 3 4 5 6 
#
# 1 159.0398 64.9744 93.0744 0.0000 0.0000 0.0000
# 2 64.9744 71.0966 58.8663 0.0000 0.0000 0.0000
# 3 93.0744 58.8663 142.7213 0.0000 0.0000 0.0000
# 4 0.0000 0.0000 0.0000 36.9240 0.0000 0.0000
# 5 0.0000 0.0000 0.0000 0.0000 11.6297 0.0000
# 6 0.0000 0.0000 0.0000 0.0000 0.0000 20.6995
#
#
#
# Elastic Compliance Matrix: (Units=1/GPa)
#
#
# Indices 1 2 3 4 5 6 
#
# 1 0.012013 -0.006821 -0.005020 0.000000 0.000000 0.000000
# 2 -0.006821 0.025233 -0.005959 0.000000 0.000000 0.000000
# 3 -0.005020 -0.005959 0.012739 0.000000 0.000000 0.000000
# 4 0.000000 0.000000 0.000000 0.027083 0.000000 0.000000
# 5 0.000000 0.000000 0.000000 0.000000 0.085987 0.000000
# 6 0.000000 0.000000 0.000000 0.000000 0.000000 0.048310
#
#
# Mechanical properties :
#
#
# Convention : Reuss Voigt Hill
#
# Bulk Modulus (GPa) = 69.52812 89.63198 79.58005
# Shear Modulus (GPa) = 19.86015 24.24683 22.05349
#
# Velocity S-wave (km/s) = 3.28824 3.63329 3.46506
# Velocity P-wave (km/s) = 7.22980 8.14860 7.70291
#
# Compressibility (1/GPa) = 0.01438267
#
# Stress axis : x y z
#
# Youngs Moduli (GPa) = 83.24553 39.62995 78.50190
#
# Poissons Ratio (x) = 0.27033 0.39411
# Poissons Ratio (y) = 0.56786 0.46780
# Poissons Ratio (z) = 0.41793 0.23616
#
# Static dielectric constant tensor:
#      x y z
#    x 1.646390 0.000000 0.000000 
#    y 0.000000 1.620790 0.000000 
#    z 0.000000 0.000000 1.587190 
# 
# From -- ./inp_files/27451.got.cif
#   From: 2010.05.17/outbox.cif.g08.bks.cpg/sg59_14_cif.got.tgz:27451.got - 2010.06.03 14:40:33.
