data_PCOD9451730
_publ_section_title
;
Structure prediction by ZEFSAII (Michael W. Deem and Ramdas Pophale) SiO2 
 PCOD9451730
Probable space group: P M M N
;
_chemical_formula_sum "Si O2"
_cell_formula_units_Z 48
_cell_length_a 9.258319
_cell_length_b 9.735822
_cell_length_c 31.384509
_cell_angle_alpha 90.000000
_cell_angle_beta 90.000000
_cell_angle_gamma 90.000000
_cell_volume 2828.916341
_symmetry_space_group_name_H-M "P M M N"
_symmetry_group_IT_number 59
_space_group.IT_coordinate_system_code '2'
_symmetry_cell_setting 'orthorhombic'
loop_
_space_group_symop_operation_xyz
x,y,z
1/2-x,1/2-y,z
1/2+x,-y,-z
-x,1/2+y,-z
-x,-y,-z
1/2+x,1/2+y,-z
1/2-x,y,z
x,1/2-y,z
loop_
_atom_site_type_symbol
_atom_site_label
_atom_site_fract_x
_atom_site_fract_y
_atom_site_fract_z
Si Si1 0.421653 0.412774 0.294802
Si Si2 0.078620 0.913515 0.036401
Si Si3 0.578351 0.412216 0.207048
Si Si4 0.576887 0.911125 0.464302
Si Si5 0.922418 0.586747 0.367031
Si Si6 0.421109 0.412421 0.875552
O O1 0.250000 0.433096 0.293605
O O2 0.450197 0.250000 0.301198
O O3 0.492106 0.451350 0.249471
O O4 0.492666 0.499501 0.332471
O O5 0.250000 0.938713 0.035954
O O6 0.054931 0.750000 0.029697
O O7 0.011032 0.948355 0.082413
O O8 0.000000 0.000000 0.000000
O O9 0.750000 0.432375 0.214450
O O10 0.554720 0.250000 0.199081
O O11 0.537032 0.499884 0.165722
O O12 0.750000 0.925340 0.467732
O O13 0.542333 0.750000 0.469733
O O14 0.536998 0.950103 0.415736
O O15 0.500000 0.000000 0.500000
O O16 0.750000 0.564776 0.362414
O O17 0.948189 0.750000 0.361717
O O18 0.250000 0.435659 0.883679
O O19 0.440484 0.250000 0.867094
#
# Coordination Sequence:
#
# PCOD9451730 Si02
#       6
#     8   8   8   8   8   8
#     4  10  21  35  51  75 106 136 168 209 255 301
#     4  10  21  36  54  77 105 137 173 212 254 302
#     4   9  18  33  52  73  99 133 171 208 247 296
#     4   9  19  35  53  75 103 133 167 208 252 300
#     4   9  19  36  55  74  99 133 172 211 251 299
#     4   9  18  33  52  74 101 132 167 208 252 298
#
# _framework density 16.967628000000001
#
# number of rings (size 3 to 8) (size 9 to 14) (size 15 to 20)
#    0.000    2.667    0.000    2.000    0.000    6.000 
#    0.000    8.333    0.000    0.000    0.000    0.000 
#    0.000    0.000    0.000    0.000    0.000    0.000 
#
# Total GULP energy -267771.706900 kJ/mol
# GULP energy per Si atom -5578.577227 kJ/mol
# Density = 1.692901 g / cm^3
# Si number density = 16.967628 Si / 1000 Ang^3
#
#
#
# Elastic Constant Matrix: (Units=GPa)
#
#
# Indices 1 2 3 4 5 6 
#
# 1 70.1865 61.9578 100.6127 0.0000 0.0000 0.0000
# 2 61.9578 64.5075 105.7953 0.0000 0.0000 0.0000
# 3 100.6127 105.7953 209.1077 0.0000 0.0000 0.0000
# 4 0.0000 0.0000 0.0000 42.4390 0.0000 0.0000
# 5 0.0000 0.0000 0.0000 0.0000 36.1942 0.0000
# 6 0.0000 0.0000 0.0000 0.0000 0.0000 27.2384
#
#
#
# Elastic Compliance Matrix: (Units=1/GPa)
#
#
# Indices 1 2 3 4 5 6 
#
# 1 0.093901 -0.094520 0.002640 0.000000 0.000000 0.000000
# 2 -0.094520 0.186202 -0.048728 0.000000 0.000000 0.000000
# 3 0.002640 -0.048728 0.028165 0.000000 0.000000 0.000000
# 4 0.000000 0.000000 0.000000 0.023563 0.000000 0.000000
# 5 0.000000 0.000000 0.000000 0.000000 0.027629 0.000000
# 6 0.000000 0.000000 0.000000 0.000000 0.000000 0.036713
#
#
# Mechanical properties :
#
#
# Convention : Reuss Voigt Hill
#
# Bulk Modulus (GPa) = 36.96414 97.83704 67.40059
# Shear Modulus (GPa) = 7.28432 26.20338 16.74385
#
# Velocity S-wave (km/s) = 2.07422 3.93404 3.14476
# Velocity P-wave (km/s) = 5.25061 8.85561 7.27979
#
# Compressibility (1/GPa) = 0.02705325
#
# Stress axis : x y z
#
# Youngs Moduli (GPa) = 10.64948 5.37052 35.50487
#
# Poissons Ratio (x) = 0.50762 -0.09374
# Poissons Ratio (y) = 1.00659 1.73008
# Poissons Ratio (z) = -0.02812 0.26169
#
# Static dielectric constant tensor:
#      x y z
#    x 1.561750 0.000000 0.000000 
#    y 0.000000 1.559500 0.000000 
#    z 0.000000 0.000000 1.544200 
# 
# From -- ./inp_files/32772.got.cif
#   From: 2010.05.17/outbox.cif.g08.bks.cpg/sg59_17_cif.got.tgz:32772.got - 2010.06.03 14:40:33.
