data_PCOD9451432
_publ_section_title
;
Structure prediction by ZEFSAII (Michael W. Deem and Ramdas Pophale) SiO2 
 PCOD9451432
Probable space group: P M M N
;
_chemical_formula_sum "Si O2"
_cell_formula_units_Z 48
_cell_length_a 16.241256
_cell_length_b 23.187752
_cell_length_c 5.361101
_cell_angle_alpha 90.000000
_cell_angle_beta 90.000000
_cell_angle_gamma 90.000000
_cell_volume 2018.981074
_symmetry_space_group_name_H-M "P M M N"
_symmetry_group_IT_number 59
_space_group.IT_coordinate_system_code '2'
_symmetry_cell_setting 'orthorhombic'
loop_
_space_group_symop_operation_xyz
x,y,z
1/2-x,1/2-y,z
1/2+x,-y,-z
-x,1/2+y,-z
-x,-y,-z
1/2+x,1/2+y,-z
1/2-x,y,z
x,1/2-y,z
loop_
_atom_site_type_symbol
_atom_site_label
_atom_site_fract_x
_atom_site_fract_y
_atom_site_fract_z
Si Si1 0.403982 0.819164 0.796641
Si Si2 0.345648 0.064477 0.020721
Si Si3 0.846420 0.690387 0.228010
Si Si4 0.494611 0.545948 0.279231
Si Si5 0.344864 0.618965 0.285099
Si Si6 0.931747 0.633385 0.629596
O O1 0.404857 0.750000 0.765512
O O2 0.363948 0.849938 0.552063
O O3 0.497090 0.845044 0.812686
O O4 0.360478 0.837680 0.053571
O O5 0.250000 0.045417 0.984594
O O6 0.353574 0.130571 0.919224
O O7 0.428745 0.034249 0.909528
O O8 0.370223 0.080700 0.302503
O O9 0.750000 0.695280 0.251856
O O10 0.879892 0.750000 0.113633
O O11 0.881545 0.683912 0.505175
O O12 0.500000 0.500000 0.500000
O O13 0.399958 0.562056 0.221187
O O14 0.517158 0.607302 0.400782
O O15 0.250000 0.601376 0.290202
#
# Coordination Sequence:
#
# PCOD9451432 Si02
#       6
#     8   8   8   8   8   8
#     4  11  23  40  66  97 132 173 214 263 326 394
#     4  10  20  37  59  87 121 157 204 257 310 377
#     4   9  18  31  50  80 119 161 200 241 293 358
#     4  10  23  43  65  86 121 163 212 271 329 386
#     4  11  24  44  66  97 134 170 218 274 327 390
#     4  10  20  37  57  86 121 159 206 259 312 374
#
# _framework density 23.774369
#
# number of rings (size 3 to 8) (size 9 to 14) (size 15 to 20)
#    0.000    1.833    1.667    2.000    0.000    5.333 
#    0.000    1.667    0.000    0.000    0.000    0.000 
#    0.000    0.000    0.000    0.000    0.000    0.000 
#
# Total GULP energy -267211.392834 kJ/mol
# GULP energy per Si atom -5566.904017 kJ/mol
# Density = 2.372026 g / cm^3
# Si number density = 23.774369 Si / 1000 Ang^3
#
#
#
# Elastic Constant Matrix: (Units=GPa)
#
#
# Indices 1 2 3 4 5 6 
#
# 1 162.2209 34.5956 24.8802 0.0000 0.0000 0.0000
# 2 34.5956 70.4485 14.5387 0.0000 0.0000 0.0000
# 3 24.8802 14.5387 77.3277 0.0000 0.0000 0.0000
# 4 0.0000 0.0000 0.0000 50.7360 0.0000 0.0000
# 5 0.0000 0.0000 0.0000 0.0000 30.8635 0.0000
# 6 0.0000 0.0000 0.0000 0.0000 0.0000 14.8538
#
#
#
# Elastic Compliance Matrix: (Units=1/GPa)
#
#
# Indices 1 2 3 4 5 6 
#
# 1 0.007092 -0.003134 -0.001693 0.000000 0.000000 0.000000
# 2 -0.003134 0.016152 -0.002029 0.000000 0.000000 0.000000
# 3 -0.001693 -0.002029 0.013858 0.000000 0.000000 0.000000
# 4 0.000000 0.000000 0.000000 0.019710 0.000000 0.000000
# 5 0.000000 0.000000 0.000000 0.000000 0.032401 0.000000
# 6 0.000000 0.000000 0.000000 0.000000 0.000000 0.067323
#
#
# Mechanical properties :
#
#
# Convention : Reuss Voigt Hill
#
# Bulk Modulus (GPa) = 42.74846 50.89179 46.82012
# Shear Modulus (GPa) = 28.08303 35.02283 31.55293
#
# Velocity S-wave (km/s) = 3.44063 3.84231 3.64700
# Velocity P-wave (km/s) = 5.81411 6.41382 6.12131
#
# Compressibility (1/GPa) = 0.02339266
#
# Stress axis : x y z
#
# Youngs Moduli (GPa) = 140.99752 61.91096 72.16025
#
# Poissons Ratio (x) = 0.19400 0.12215
# Poissons Ratio (y) = 0.44182 0.14639
# Poissons Ratio (z) = 0.23868 0.12560
#
# Static dielectric constant tensor:
#      x y z
#    x 1.969810 0.000000 0.000000 
#    y 0.000000 2.000090 0.000000 
#    z 0.000000 0.000000 2.316610 
# 
# From -- ./inp_files/2144.got.cif
#   From: 2010.05.17/outbox.cif.g08.bks.cpg/sg59_2_cif.got.tgz:2144.got - 2010.06.03 14:40:33.
