data_PCOD9451961
_publ_section_title
;
Structure prediction by ZEFSAII (Michael W. Deem and Ramdas Pophale) SiO2 
 PCOD9451961
Probable space group: P M M N
;
_chemical_formula_sum "Si O2"
_cell_formula_units_Z 56
_cell_length_a 14.708031
_cell_length_b 7.704972
_cell_length_c 22.346304
_cell_angle_alpha 90.000000
_cell_angle_beta 90.000000
_cell_angle_gamma 90.000000
_cell_volume 2532.394164
_symmetry_space_group_name_H-M "P M M N"
_symmetry_group_IT_number 59
_space_group.IT_coordinate_system_code '2'
_symmetry_cell_setting 'orthorhombic'
loop_
_space_group_symop_operation_xyz
x,y,z
1/2-x,1/2-y,z
1/2+x,-y,-z
-x,1/2+y,-z
-x,-y,-z
1/2+x,1/2+y,-z
1/2-x,y,z
x,1/2-y,z
loop_
_atom_site_type_symbol
_atom_site_label
_atom_site_fract_x
_atom_site_fract_y
_atom_site_fract_z
Si Si1 0.148421 0.042049 0.169048
Si Si2 0.651619 0.457876 0.148215
Si Si3 0.955500 0.042952 0.708725
Si Si4 0.646449 0.047099 0.459210
Si Si5 0.346969 0.049615 0.715291
Si Si6 0.551806 0.956527 0.580080
Si Si7 0.014478 0.041405 0.069085
O O1 0.250000 0.971599 0.175961
O O2 0.154035 0.250000 0.163494
O O3 0.099863 0.977175 0.108336
O O4 0.090619 0.010801 0.229291
O O5 0.750000 0.485077 0.119643
O O6 0.641107 0.250000 0.158721
O O7 0.651696 0.546094 0.212559
O O8 0.572366 0.521307 0.106278
O O9 0.963564 0.250000 0.711857
O O10 0.057000 0.964643 0.701260
O O11 0.910007 0.994753 0.646042
O O12 0.750000 0.975641 0.449834
O O13 0.651110 0.250000 0.442745
O O14 0.553403 0.974846 0.427756
O O15 0.616675 0.031815 0.528693
O O16 0.250000 0.970301 0.696178
O O17 0.346644 0.250000 0.694996
O O18 0.548258 0.750000 0.570677
O O19 0.016023 0.250000 0.072634
O O20 0.000000 0.000000 0.000000
#
# Coordination Sequence:
#
# PCOD9451961 Si02
#       7
#     8   8   8   8   8   8   8
#     4  10  22  41  61  81 110 149 192 237 283 332
#     4   9  17  31  52  76 101 131 169 215 267 322
#     4  11  22  36  57  84 116 151 188 232 282 335
#     4   9  19  38  61  84 114 151 192 238 283 329
#     4   9  18  32  51  77 107 138 173 216 269 328
#     4  10  21  36  57  86 117 151 192 234 281 336
#     4  10  21  36  55  80 109 141 181 227 278 336
#
# _framework density 22.113461999999998
#
# number of rings (size 3 to 8) (size 9 to 14) (size 15 to 20)
#    0.000    2.286    1.429    0.857    0.000    4.571 
#    0.000    0.000    0.000    0.000    0.000    0.000 
#    0.000    0.000    0.000    0.000    0.000    0.000 
#
# Total GULP energy -312284.370332 kJ/mol
# GULP energy per Si atom -5576.506613 kJ/mol
# Density = 2.206313 g / cm^3
# Si number density = 22.113462 Si / 1000 Ang^3
#
#
#
# Elastic Constant Matrix: (Units=GPa)
#
#
# Indices 1 2 3 4 5 6 
#
# 1 106.6556 9.5753 43.6223 0.0000 0.0000 0.0000
# 2 9.5753 46.8051 -8.6753 0.0000 0.0000 0.0000
# 3 43.6223 -8.6753 139.0993 0.0000 0.0000 0.0000
# 4 0.0000 0.0000 0.0000 16.4970 0.0000 0.0000
# 5 0.0000 0.0000 0.0000 0.0000 1.4230 0.0000
# 6 0.0000 0.0000 0.0000 0.0000 0.0000 13.0023
#
#
#
# Elastic Compliance Matrix: (Units=1/GPa)
#
#
# Indices 1 2 3 4 5 6 
#
# 1 0.011147 -0.002963 -0.003681 0.000000 0.000000 0.000000
# 2 -0.002963 0.022402 0.002326 0.000000 0.000000 0.000000
# 3 -0.003681 0.002326 0.008488 0.000000 0.000000 0.000000
# 4 0.000000 0.000000 0.000000 0.060617 0.000000 0.000000
# 5 0.000000 0.000000 0.000000 0.000000 0.702752 0.000000
# 6 0.000000 0.000000 0.000000 0.000000 0.000000 0.076909
#
#
# Mechanical properties :
#
#
# Convention : Reuss Voigt Hill
#
# Bulk Modulus (GPa) = 29.93637 42.40051 36.16844
# Shear Modulus (GPa) = 5.54271 22.72031 14.13151
#
# Velocity S-wave (km/s) = 1.58491 3.20885 2.53068
# Velocity P-wave (km/s) = 4.11294 5.73974 4.99304
#
# Compressibility (1/GPa) = 0.03340418
#
# Stress axis : x y z
#
# Youngs Moduli (GPa) = 89.70744 44.63795 117.80694
#
# Poissons Ratio (x) = 0.13225 0.43361
# Poissons Ratio (y) = 0.26578 -0.27405
# Poissons Ratio (z) = 0.33018 -0.10384
#
# Static dielectric constant tensor:
#      x y z
#    x 1.877940 0.000000 0.000000 
#    y 0.000000 1.831570 0.000000 
#    z 0.000000 0.000000 1.786460 
# 
# From -- ./inp_files/29055.got.cif
#   From: 2010.05.17/outbox.cif.g08.bks.cpg/sg59_15_cif.got.tgz:29055.got - 2010.06.03 14:40:33.
