data_PCOD9451944
_publ_section_title
;
Structure prediction by ZEFSAII (Michael W. Deem and Ramdas Pophale) SiO2 
 PCOD9451944
Probable space group: P M M N
;
_chemical_formula_sum "Si O2"
_cell_formula_units_Z 40
_cell_length_a 9.002324
_cell_length_b 30.518173
_cell_length_c 7.591561
_cell_angle_alpha 90.000000
_cell_angle_beta 90.000000
_cell_angle_gamma 90.000000
_cell_volume 2085.663573
_symmetry_space_group_name_H-M "P M M N"
_symmetry_group_IT_number 59
_space_group.IT_coordinate_system_code '2'
_symmetry_cell_setting 'orthorhombic'
loop_
_space_group_symop_operation_xyz
x,y,z
1/2-x,1/2-y,z
1/2+x,-y,-z
-x,1/2+y,-z
-x,-y,-z
1/2+x,1/2+y,-z
1/2-x,y,z
x,1/2-y,z
loop_
_atom_site_type_symbol
_atom_site_label
_atom_site_fract_x
_atom_site_fract_y
_atom_site_fract_z
Si Si1 0.081868 0.545347 0.038322
Si Si2 0.083909 0.544530 0.460373
Si Si3 0.429599 0.860269 0.436851
Si Si4 0.427644 0.365081 0.947795
Si Si5 0.927587 0.698751 0.730112
O O1 0.250000 0.545577 0.967973
O O2 0.091208 0.548159 0.249512
O O3 0.991843 0.588485 0.983557
O O4 0.000000 0.500000 0.000000
O O5 0.250000 0.540532 0.532763
O O6 0.020581 0.591939 0.513319
O O7 0.000000 0.500000 0.500000
O O8 0.250000 0.861194 0.424972
O O9 0.497981 0.855319 0.241618
O O10 0.486146 0.823271 0.568523
O O11 0.250000 0.368475 0.925605
O O12 0.461178 0.327791 0.091059
O O13 0.750000 0.694588 0.698891
O O14 0.962803 0.750000 0.747734
#
# Coordination Sequence:
#
# PCOD9451944 Si02
#       5
#     8   8   8   8   8
#     4  10  21  36  54  82 117 155 198 242 293 355
#     4   9  20  35  52  79 113 150 192 234 284 346
#     4  10  22  40  60  88 123 158 198 248 303 360
#     4  10  21  39  62  88 120 160 202 249 302 358
#     4  10  23  42  64  90 118 155 204 252 301 359
#
# _framework density 19.178546999999998
#
# number of rings (size 3 to 8) (size 9 to 14) (size 15 to 20)
#    0.000    2.200    0.000    3.000    2.800    7.600 
#    0.000    2.000    0.000    0.000    0.000    0.000 
#    0.000    0.000    0.000    0.000    0.000    0.000 
#
# Total GULP energy -223250.795161 kJ/mol
# GULP energy per Si atom -5581.269879 kJ/mol
# Density = 1.913490 g / cm^3
# Si number density = 19.178547 Si / 1000 Ang^3
#
#
#
# Elastic Constant Matrix: (Units=GPa)
#
#
# Indices 1 2 3 4 5 6 
#
# 1 87.0218 80.7177 51.4518 0.0000 0.0000 0.0000
# 2 80.7177 198.4604 73.7829 0.0000 0.0000 0.0000
# 3 51.4518 73.7829 91.5430 0.0000 0.0000 0.0000
# 4 0.0000 0.0000 0.0000 36.8312 0.0000 0.0000
# 5 0.0000 0.0000 0.0000 0.0000 23.5341 0.0000
# 6 0.0000 0.0000 0.0000 0.0000 0.0000 33.9368
#
#
#
# Elastic Compliance Matrix: (Units=1/GPa)
#
#
# Indices 1 2 3 4 5 6 
#
# 1 0.021267 -0.006005 -0.007113 0.000000 0.000000 0.000000
# 2 -0.006005 0.008890 -0.003790 0.000000 0.000000 0.000000
# 3 -0.007113 -0.003790 0.017977 0.000000 0.000000 0.000000
# 4 0.000000 0.000000 0.000000 0.027151 0.000000 0.000000
# 5 0.000000 0.000000 0.000000 0.000000 0.042492 0.000000
# 6 0.000000 0.000000 0.000000 0.000000 0.000000 0.029467
#
#
# Mechanical properties :
#
#
# Convention : Reuss Voigt Hill
#
# Bulk Modulus (GPa) = 69.84699 87.65888 78.75293
# Shear Modulus (GPa) = 26.90589 30.26528 28.58558
#
# Velocity S-wave (km/s) = 3.74962 3.97681 3.86488
# Velocity P-wave (km/s) = 7.43267 8.17880 7.81464
#
# Compressibility (1/GPa) = 0.01431701
#
# Stress axis : x y z
#
# Youngs Moduli (GPa) = 47.02064 112.48057 55.62780
#
# Poissons Ratio (x) = 0.67549 0.39568
# Poissons Ratio (y) = 0.28238 0.21085
# Poissons Ratio (z) = 0.33446 0.42633
#
# Static dielectric constant tensor:
#      x y z
#    x 1.670480 0.000000 0.000000 
#    y 0.000000 1.670750 0.000000 
#    z 0.000000 0.000000 1.660530 
# 
# From -- ./inp_files/5859.got.cif
#   From: 2010.05.17/outbox.cif.g08.bks.cpg/sg59_3_cif.got.tgz:5859.got - 2010.06.03 14:40:33.
