data_PCOD9451037
_publ_section_title
;
Structure prediction by ZEFSAII (Michael W. Deem and Ramdas Pophale) SiO2 
 PCOD9451037
Probable space group: P M M N
;
_chemical_formula_sum "Si O2"
_cell_formula_units_Z 64
_cell_length_a 22.105063
_cell_length_b 14.629148
_cell_length_c 9.123358
_cell_angle_alpha 90.000000
_cell_angle_beta 90.000000
_cell_angle_gamma 90.000000
_cell_volume 2950.295436
_symmetry_space_group_name_H-M "P M M N"
_symmetry_group_IT_number 59
_space_group.IT_coordinate_system_code '2'
_symmetry_cell_setting 'orthorhombic'
loop_
_space_group_symop_operation_xyz
x,y,z
1/2-x,1/2-y,z
1/2+x,-y,-z
-x,1/2+y,-z
-x,-y,-z
1/2+x,1/2+y,-z
1/2-x,y,z
x,1/2-y,z
loop_
_atom_site_type_symbol
_atom_site_label
_atom_site_fract_x
_atom_site_fract_y
_atom_site_fract_z
Si Si1 0.315893 0.355099 0.936371
Si Si2 0.679340 0.143198 0.113633
Si Si3 0.683301 0.440273 0.426254
Si Si4 0.441546 0.395335 0.088958
Si Si5 0.454064 0.113676 0.416642
Si Si6 0.559904 0.112672 0.916471
Si Si7 0.338168 0.149190 0.588937
Si Si8 0.432256 0.894357 0.413663
O O1 0.250000 0.399387 0.968357
O O2 0.311396 0.250000 0.982672
O O3 0.325687 0.355035 0.761710
O O4 0.377105 0.388085 0.009792
O O5 0.750000 0.127567 0.063967
O O6 0.676695 0.250000 0.159283
O O7 0.668367 0.077844 0.254534
O O8 0.623894 0.129397 0.999355
O O9 0.750000 0.403256 0.448837
O O10 0.683783 0.549073 0.463568
O O11 0.634922 0.389643 0.525229
O O12 0.438597 0.356039 0.252868
O O13 0.449904 0.504078 0.098036
O O14 0.499973 0.355800 0.004029
O O15 0.407713 0.146808 0.540000
O O16 0.520254 0.141722 0.468196
O O17 0.447219 0.003423 0.410747
O O18 0.561353 0.145057 0.748512
O O19 0.315493 0.250000 0.538670
#
# Coordination Sequence:
#
# PCOD9451037 Si02
#       8
#     8   8   8   8   8   8   8   8
#     4  10  21  36  53  76 110 151 192 233 276 329
#     4  10  22  40  61  87 119 157 204 254 307 367
#     4  10  20  36  59  85 119 162 200 243 299 354
#     4  10  20  35  58  86 114 149 193 238 292 355
#     4   9  18  34  55  80 114 151 187 237 291 342
#     4  10  20  35  59  87 113 145 188 243 300 353
#     4  10  20  35  57  86 119 156 200 244 292 356
#     4   9  18  34  56  82 112 147 190 236 289 352
#
# _framework density 21.692744000000001
#
# number of rings (size 3 to 8) (size 9 to 14) (size 15 to 20)
#    0.000    2.250    0.000    2.625    0.000    7.750 
#    0.000    8.750    0.000    3.000    0.000    0.000 
#    0.000    0.000    0.000    0.000    0.000    0.000 
#
# Total GULP energy -356739.097750 kJ/mol
# GULP energy per Si atom -5574.048402 kJ/mol
# Density = 2.164337 g / cm^3
# Si number density = 21.692744 Si / 1000 Ang^3
#
#
#
# Elastic Constant Matrix: (Units=GPa)
#
#
# Indices 1 2 3 4 5 6 
#
# 1 162.9604 -3.2034 70.8159 0.0000 0.0000 0.0000
# 2 -3.2034 86.7166 -6.6382 0.0000 0.0000 0.0000
# 3 70.8159 -6.6382 67.9337 0.0000 0.0000 0.0000
# 4 0.0000 0.0000 0.0000 -48.7461 0.0000 0.0000
# 5 0.0000 0.0000 0.0000 0.0000 24.2686 0.0000
# 6 0.0000 0.0000 0.0000 0.0000 0.0000 11.0159
#
#
#
# Elastic Compliance Matrix: (Units=1/GPa)
#
#
# Indices 1 2 3 4 5 6 
#
# 1 0.011239 -0.000485 -0.011763 0.000000 0.000000 0.000000
# 2 -0.000485 0.011640 0.001643 0.000000 0.000000 0.000000
# 3 -0.011763 0.001643 0.027143 0.000000 0.000000 0.000000
# 4 0.000000 0.000000 0.000000 -0.020514 0.000000 0.000000
# 5 0.000000 0.000000 0.000000 0.000000 0.041205 0.000000
# 6 0.000000 0.000000 0.000000 0.000000 0.000000 0.090778
#
#
# Mechanical properties :
#
#
# Convention : Reuss Voigt Hill
#
# Bulk Modulus (GPa) = 34.70864 48.83991 41.77427
# Shear Modulus (GPa) = 26.00061 14.41677 20.20869
#
# Velocity S-wave (km/s) = 3.46582 2.58076 3.05550
# Velocity P-wave (km/s) = 5.66133 5.60747 5.63447
#
# Compressibility (1/GPa) = 0.02881127
#
# Stress axis : x y z
#
# Youngs Moduli (GPa) = 88.97959 85.91296 36.84241
#
# Poissons Ratio (x) = 0.04169 0.43337
# Poissons Ratio (y) = 0.04318 -0.06054
# Poissons Ratio (z) = 1.04665 -0.14118
#
# Static dielectric constant tensor:
#      x y z
#    x 1.731760 0.000000 0.000000 
#    y 0.000000 1.865930 0.000000 
#    z 0.000000 0.000000 1.763370 
# 
# From -- ./inp_files/11633.got.cif
#   From: 2010.05.17/outbox.cif.g08.bks.cpg/sg59_6_cif.got.tgz:11633.got - 2010.06.03 14:40:33.
