data_PCOD9451398
_publ_section_title
;
Structure prediction by ZEFSAII (Michael W. Deem and Ramdas Pophale) SiO2 
 PCOD9451398
Probable space group: P M M N
;
_chemical_formula_sum "Si O2"
_cell_formula_units_Z 40
_cell_length_a 8.864575
_cell_length_b 22.917944
_cell_length_c 10.119397
_cell_angle_alpha 90.000000
_cell_angle_beta 90.000000
_cell_angle_gamma 90.000000
_cell_volume 2055.834770
_symmetry_space_group_name_H-M "P M M N"
_symmetry_group_IT_number 59
_space_group.IT_coordinate_system_code '2'
_symmetry_cell_setting 'orthorhombic'
loop_
_space_group_symop_operation_xyz
x,y,z
1/2-x,1/2-y,z
1/2+x,-y,-z
-x,1/2+y,-z
-x,-y,-z
1/2+x,1/2+y,-z
1/2-x,y,z
x,1/2-y,z
loop_
_atom_site_type_symbol
_atom_site_label
_atom_site_fract_x
_atom_site_fract_y
_atom_site_fract_z
Si Si1 0.429206 0.010478 0.354597
Si Si2 0.926303 0.317117 0.557420
Si Si3 0.071961 0.868142 0.725836
Si Si4 0.931690 0.317171 0.988530
Si Si5 0.427809 0.398926 0.766474
O O1 0.250000 0.006471 0.366003
O O2 0.479378 0.073305 0.300865
O O3 0.500000 0.000000 0.500000
O O4 0.490795 0.960381 0.257628
O O5 0.750000 0.330765 0.588388
O O6 0.953213 0.250000 0.592987
O O7 0.946809 0.327046 0.401672
O O8 0.031762 0.360057 0.638370
O O9 0.250000 0.883698 0.732145
O O10 0.032902 0.835818 0.861403
O O11 0.750000 0.320040 0.971916
O O12 0.977346 0.250000 0.963768
O O13 0.008173 0.362220 0.888973
O O14 0.250000 0.407614 0.778407
#
# Coordination Sequence:
#
# PCOD9451398 Si02
#       5
#     8   8   8   8   8
#     4  12  24  41  65  93 126 163 206 261 317 374
#     4  10  20  36  61  91 122 160 206 257 313 373
#     4  10  21  39  65  94 125 163 208 257 311 373
#     4  10  22  42  66  93 128 169 210 254 309 373
#     4  12  25  40  61  90 125 168 212 259 312 366
#
# _framework density 19.456816
#
# number of rings (size 3 to 8) (size 9 to 14) (size 15 to 20)
#    0.000    1.200    2.000    4.800    0.000    7.200 
#    0.000    0.000    0.000    3.600    0.000    0.000 
#    0.000    0.000    0.000    0.000    0.000    0.000 
#
# Total GULP energy -223722.313317 kJ/mol
# GULP energy per Si atom -5593.057833 kJ/mol
# Density = 1.941253 g / cm^3
# Si number density = 19.456816 Si / 1000 Ang^3
#
#
#
# Elastic Constant Matrix: (Units=GPa)
#
#
# Indices 1 2 3 4 5 6 
#
# 1 72.5325 28.5354 14.7796 0.0000 0.0000 0.0000
# 2 28.5354 73.2426 -11.0635 0.0000 0.0000 0.0000
# 3 14.7796 -11.0635 58.8494 0.0000 0.0000 0.0000
# 4 0.0000 0.0000 0.0000 30.5605 0.0000 0.0000
# 5 0.0000 0.0000 0.0000 0.0000 15.4363 0.0000
# 6 0.0000 0.0000 0.0000 0.0000 0.0000 30.1733
#
#
#
# Elastic Compliance Matrix: (Units=1/GPa)
#
#
# Indices 1 2 3 4 5 6 
#
# 1 0.018168 -0.007995 -0.006066 0.000000 0.000000 0.000000
# 2 -0.007995 0.017570 0.005311 0.000000 0.000000 0.000000
# 3 -0.006066 0.005311 0.019514 0.000000 0.000000 0.000000
# 4 0.000000 0.000000 0.000000 0.032722 0.000000 0.000000
# 5 0.000000 0.000000 0.000000 0.000000 0.064782 0.000000
# 6 0.000000 0.000000 0.000000 0.000000 0.000000 0.033142
#
#
# Mechanical properties :
#
#
# Convention : Reuss Voigt Hill
#
# Bulk Modulus (GPa) = 26.48737 29.90305 28.19521
# Shear Modulus (GPa) = 23.15007 26.72557 24.93782
#
# Velocity S-wave (km/s) = 3.45312 3.71021 3.58397
# Velocity P-wave (km/s) = 5.43522 5.81004 5.62575
#
# Compressibility (1/GPa) = 0.03775384
#
# Stress axis : x y z
#
# Youngs Moduli (GPa) = 55.04156 56.91462 51.24440
#
# Poissons Ratio (x) = 0.45501 0.31084
# Poissons Ratio (y) = 0.44003 -0.27216
# Poissons Ratio (z) = 0.33387 -0.30227
#
# Static dielectric constant tensor:
#      x y z
#    x 1.667730 0.000000 0.000000 
#    y 0.000000 1.691830 0.000000 
#    z 0.000000 0.000000 1.673580 
# 
# From -- ./inp_files/5663.got.cif
#   From: 2010.05.17/outbox.cif.g08.bks.cpg/sg59_3_cif.got.tgz:5663.got - 2010.06.03 14:40:33.
