data_PCOD9451393
_publ_section_title
;
Structure prediction by ZEFSAII (Michael W. Deem and Ramdas Pophale) SiO2 
 PCOD9451393
Probable space group: P M M N
;
_chemical_formula_sum "Si O2"
_cell_formula_units_Z 56
_cell_length_a 22.178224
_cell_length_b 13.792303
_cell_length_c 9.652461
_cell_angle_alpha 90.000000
_cell_angle_beta 90.000000
_cell_angle_gamma 90.000000
_cell_volume 2952.579572
_symmetry_space_group_name_H-M "P M M N"
_symmetry_group_IT_number 59
_space_group.IT_coordinate_system_code '2'
_symmetry_cell_setting 'orthorhombic'
loop_
_space_group_symop_operation_xyz
x,y,z
1/2-x,1/2-y,z
1/2+x,-y,-z
-x,1/2+y,-z
-x,-y,-z
1/2+x,1/2+y,-z
1/2-x,y,z
x,1/2-y,z
loop_
_atom_site_type_symbol
_atom_site_label
_atom_site_fract_x
_atom_site_fract_y
_atom_site_fract_z
Si Si1 0.250000 0.867687 0.248864
Si Si2 0.575676 0.865483 0.859631
Si Si3 0.489950 0.980162 0.661280
Si Si4 0.750000 0.368211 0.428663
Si Si5 0.144256 0.956159 0.752881
Si Si6 0.821692 0.865010 0.069521
Si Si7 0.355459 0.866400 0.049772
Si Si8 0.010272 0.864589 0.120739
O O1 0.250000 0.750000 0.245203
O O2 0.250000 0.893235 0.408947
O O3 0.307978 0.900847 0.163058
O O4 0.575661 0.750000 0.831900
O O5 0.544851 0.918685 0.729439
O O6 0.640483 0.889473 0.929521
O O7 0.530578 0.885513 0.988104
O O8 0.423786 0.937382 0.698993
O O9 0.500000 0.000000 0.500000
O O10 0.489443 0.081013 0.743786
O O11 0.750000 0.250000 0.412410
O O12 0.808222 0.416488 0.357653
O O13 0.155261 0.067119 0.804386
O O14 0.157845 0.899567 0.895266
O O15 0.750000 0.880138 0.052498
O O16 0.832387 0.750000 0.096373
O O17 0.354831 0.750000 0.051575
O O18 0.422423 0.898524 0.087036
O O19 0.010170 0.750000 0.141624
#
# Coordination Sequence:
#
# PCOD9451393 Si02
#       8
#     4   8   8   4   8   8   8   8
#     4   9  21  39  57  85 124 162 199 246 301 365
#     4  10  20  40  66  90 121 159 207 265 308 356
#     4  12  26  39  58  92 131 166 205 253 316 383
#     4  11  25  41  58  89 132 166 196 242 310 385
#     4  12  22  39  62  91 122 167 205 250 306 367
#     4  10  21  39  65  94 117 152 213 268 310 356
#     4  10  20  36  61  89 118 157 207 252 298 360
#     4  10  20  37  61  86 114 156 206 258 305 354
#
# _framework density 18.966467000000002
#
# number of rings (size 3 to 8) (size 9 to 14) (size 15 to 20)
#    0.000    1.429    3.571    2.143    2.000    1.714 
#    0.000    0.000    0.000    0.000    0.000    1.000 
#    0.000    0.000    0.000    0.000    0.000    0.000 
#
# Total GULP energy -312648.513104 kJ/mol
# GULP energy per Si atom -5583.009163 kJ/mol
# Density = 1.892330 g / cm^3
# Si number density = 18.966467 Si / 1000 Ang^3
#
#
#
# Elastic Constant Matrix: (Units=GPa)
#
#
# Indices 1 2 3 4 5 6 
#
# 1 108.5468 24.0260 49.5077 0.0000 0.0000 0.0000
# 2 24.0260 73.5235 33.3722 0.0000 0.0000 0.0000
# 3 49.5077 33.3722 152.8946 0.0000 0.0000 0.0000
# 4 0.0000 0.0000 0.0000 23.7055 0.0000 0.0000
# 5 0.0000 0.0000 0.0000 0.0000 19.8154 0.0000
# 6 0.0000 0.0000 0.0000 0.0000 0.0000 21.5454
#
#
#
# Elastic Compliance Matrix: (Units=1/GPa)
#
#
# Indices 1 2 3 4 5 6 
#
# 1 0.011126 -0.002221 -0.003118 0.000000 0.000000 0.000000
# 2 -0.002221 0.015540 -0.002673 0.000000 0.000000 0.000000
# 3 -0.003118 -0.002673 0.008133 0.000000 0.000000 0.000000
# 4 0.000000 0.000000 0.000000 0.042184 0.000000 0.000000
# 5 0.000000 0.000000 0.000000 0.000000 0.050466 0.000000
# 6 0.000000 0.000000 0.000000 0.000000 0.000000 0.046414
#
#
# Mechanical properties :
#
#
# Convention : Reuss Voigt Hill
#
# Bulk Modulus (GPa) = 53.25736 60.97519 57.11627
# Shear Modulus (GPa) = 25.49132 28.21719 26.85425
#
# Velocity S-wave (km/s) = 3.67007 3.86131 3.76690
# Velocity P-wave (km/s) = 6.78969 7.21792 7.00708
#
# Compressibility (1/GPa) = 0.01877675
#
# Stress axis : x y z
#
# Youngs Moduli (GPa) = 89.87762 64.35037 122.94850
#
# Poissons Ratio (x) = 0.14289 0.38336
# Poissons Ratio (y) = 0.19958 0.32862
# Poissons Ratio (z) = 0.28024 0.17200
#
# Static dielectric constant tensor:
#      x y z
#    x 1.693500 0.000000 0.000000 
#    y 0.000000 1.715860 0.000000 
#    z 0.000000 0.000000 1.607640 
# 
# From -- ./inp_files/9399.got.cif
#   From: 2010.05.17/outbox.cif.g08.bks.cpg/sg59_5_cif.got.tgz:9399.got - 2010.06.03 14:40:33.
