data_PCOD9451370
_publ_section_title
;
Structure prediction by ZEFSAII (Michael W. Deem and Ramdas Pophale) SiO2 
 PCOD9451370
Probable space group: P M M N
;
_chemical_formula_sum "Si O2"
_cell_formula_units_Z 56
_cell_length_a 8.991349
_cell_length_b 16.669807
_cell_length_c 18.769503
_cell_angle_alpha 90.000000
_cell_angle_beta 90.000000
_cell_angle_gamma 90.000000
_cell_volume 2813.249173
_symmetry_space_group_name_H-M "P M M N"
_symmetry_group_IT_number 59
_space_group.IT_coordinate_system_code '2'
_symmetry_cell_setting 'orthorhombic'
loop_
_space_group_symop_operation_xyz
x,y,z
1/2-x,1/2-y,z
1/2+x,-y,-z
-x,1/2+y,-z
-x,-y,-z
1/2+x,1/2+y,-z
1/2-x,y,z
x,1/2-y,z
loop_
_atom_site_type_symbol
_atom_site_label
_atom_site_fract_x
_atom_site_fract_y
_atom_site_fract_z
Si Si1 0.928315 0.158930 0.158156
Si Si2 0.428209 0.490026 0.077023
Si Si3 0.927274 0.336262 0.326981
Si Si4 0.429557 0.904839 0.207824
Si Si5 0.928705 0.750000 0.450721
Si Si6 0.428128 0.250000 0.719777
Si Si7 0.580041 0.991011 0.664121
Si Si8 0.422597 0.917200 0.474495
O O1 0.750000 0.147462 0.151718
O O2 0.962716 0.250000 0.133761
O O3 0.963716 0.156757 0.242709
O O4 0.012006 0.090450 0.114970
O O5 0.250000 0.486214 0.072000
O O6 0.465912 0.565345 0.128655
O O7 0.500000 0.500000 0.000000
O O8 0.750000 0.335890 0.332910
O O9 0.984615 0.250000 0.352446
O O10 0.989769 0.415020 0.363313
O O11 0.250000 0.896247 0.213598
O O12 0.506546 0.826543 0.238771
O O13 0.475703 0.977070 0.260554
O O14 0.750000 0.750000 0.458256
O O15 0.964417 0.750000 0.365111
O O16 0.996657 0.668088 0.483656
O O17 0.250000 0.250000 0.724231
O O18 0.750000 0.964157 0.671532
O O19 0.576921 0.065311 0.610625
O O20 0.250000 0.913612 0.497861
O O21 0.500000 0.000000 0.500000
#
# Coordination Sequence:
#
# PCOD9451370 Si02
#       8
#     8   8   8   8   4   4   8   8
#     4   9  18  34  56  81 110 145 184 228 281 338
#     4  11  23  39  59  83 114 154 196 243 301 362
#     4   9  18  32  53  83 116 149 187 234 285 341
#     4  10  21  39  61  86 118 155 198 247 305 369
#     4  11  23  41  67  99 131 166 211 260 319 385
#     4  11  23  37  63  99 125 152 199 260 311 359
#     4  10  20  36  60  88 117 153 197 247 301 359
#     4  11  24  43  66  92 126 168 212 261 316 376
#
# _framework density 19.905809000000001
#
# number of rings (size 3 to 8) (size 9 to 14) (size 15 to 20)
#    0.000    1.857    2.857    2.143    0.000    4.000 
#    2.571    1.429    0.000    0.000    0.000    0.000 
#    0.000    0.000    0.000    0.000    0.000    0.000 
#
# Total GULP energy -312604.624543 kJ/mol
# GULP energy per Si atom -5582.225438 kJ/mol
# Density = 1.986050 g / cm^3
# Si number density = 19.905809 Si / 1000 Ang^3
#
#
#
# Elastic Constant Matrix: (Units=GPa)
#
#
# Indices 1 2 3 4 5 6 
#
# 1 65.8463 73.4785 30.5169 0.0000 0.0000 0.0000
# 2 73.4785 180.6306 44.9088 0.0000 0.0000 0.0000
# 3 30.5169 44.9088 88.7510 0.0000 0.0000 0.0000
# 4 0.0000 0.0000 0.0000 25.6765 0.0000 0.0000
# 5 0.0000 0.0000 0.0000 0.0000 25.1744 0.0000
# 6 0.0000 0.0000 0.0000 0.0000 0.0000 40.2643
#
#
#
# Elastic Compliance Matrix: (Units=1/GPa)
#
#
# Indices 1 2 3 4 5 6 
#
# 1 0.029392 -0.010803 -0.004640 0.000000 0.000000 0.000000
# 2 -0.010803 0.010303 -0.001499 0.000000 0.000000 0.000000
# 3 -0.004640 -0.001499 0.013622 0.000000 0.000000 0.000000
# 4 0.000000 0.000000 0.000000 0.038946 0.000000 0.000000
# 5 0.000000 0.000000 0.000000 0.000000 0.039723 0.000000
# 6 0.000000 0.000000 0.000000 0.000000 0.000000 0.024836
#
#
# Mechanical properties :
#
#
# Convention : Reuss Voigt Hill
#
# Bulk Modulus (GPa) = 51.45856 70.33737 60.89797
# Shear Modulus (GPa) = 25.35701 30.64462 28.00082
#
# Velocity S-wave (km/s) = 3.57298 3.92788 3.75462
# Velocity P-wave (km/s) = 6.55200 7.48216 7.03248
#
# Compressibility (1/GPa) = 0.01943311
#
# Stress axis : x y z
#
# Youngs Moduli (GPa) = 34.02237 97.05594 73.41325
#
# Poissons Ratio (x) = 1.04848 0.34065
# Poissons Ratio (y) = 0.36754 0.11005
# Poissons Ratio (z) = 0.15787 0.14549
#
# Static dielectric constant tensor:
#      x y z
#    x 1.674920 0.000000 0.000000 
#    y 0.000000 1.701580 0.000000 
#    z 0.000000 0.000000 1.733980 
# 
# From -- ./inp_files/29200.got.cif
#   From: 2010.05.17/outbox.cif.g08.bks.cpg/sg59_15_cif.got.tgz:29200.got - 2010.06.03 14:40:33.
