data_PCOD9451604
_publ_section_title
;
Structure prediction by ZEFSAII (Michael W. Deem and Ramdas Pophale) SiO2 
 PCOD9451604
Probable space group: P M M N
;
_chemical_formula_sum "Si O2"
_cell_formula_units_Z 64
_cell_length_a 24.971796
_cell_length_b 13.794840
_cell_length_c 9.756465
_cell_angle_alpha 90.000000
_cell_angle_beta 90.000000
_cell_angle_gamma 90.000000
_cell_volume 3360.925896
_symmetry_space_group_name_H-M "P M M N"
_symmetry_group_IT_number 59
_space_group.IT_coordinate_system_code '2'
_symmetry_cell_setting 'orthorhombic'
loop_
_space_group_symop_operation_xyz
x,y,z
1/2-x,1/2-y,z
1/2+x,-y,-z
-x,1/2+y,-z
-x,-y,-z
1/2+x,1/2+y,-z
1/2-x,y,z
x,1/2-y,z
loop_
_atom_site_type_symbol
_atom_site_label
_atom_site_fract_x
_atom_site_fract_y
_atom_site_fract_z
Si Si1 0.110751 0.635722 0.714426
Si Si2 0.006621 0.971970 0.658760
Si Si3 0.311320 0.529755 0.511252
Si Si4 0.096933 0.866951 0.024810
Si Si5 0.811470 0.863244 0.684055
Si Si6 0.190627 0.866252 0.221357
Si Si7 0.918334 0.865372 0.837981
Si Si8 0.976371 0.866267 0.119775
O O1 0.122650 0.750000 0.702098
O O2 0.150185 0.572533 0.623736
O O3 0.113044 0.604826 0.872511
O O4 0.050725 0.612383 0.667574
O O5 0.953984 0.929590 0.734244
O O6 0.000000 0.000000 0.500000
O O7 0.027689 0.064025 0.748461
O O8 0.250000 0.528278 0.559627
O O9 0.325851 0.425047 0.450168
O O10 0.314087 0.596570 0.375735
O O11 0.099110 0.750000 0.027153
O O12 0.140639 0.902459 0.132996
O O13 0.035549 0.889162 0.059045
O O14 0.750000 0.890330 0.721879
O O15 0.811923 0.750000 0.652518
O O16 0.856147 0.879467 0.799746
O O17 0.250000 0.893806 0.168549
O O18 0.188643 0.750000 0.222205
O O19 0.930570 0.750000 0.817696
O O20 0.935095 0.886523 0.995261
O O21 0.974044 0.750000 0.151261
#
# Coordination Sequence:
#
# PCOD9451604 Si02
#       8
#     8   8   8   8   8   8   8   8
#     4  11  23  38  56  83 118 152 190 238 293 351
#     4  12  25  37  56  87 118 158 196 242 295 356
#     4  10  21  37  58  86 117 154 196 236 287 346
#     4   9  19  35  55  80 114 154 193 236 289 346
#     4   9  19  36  59  87 116 149 195 248 296 345
#     4   9  18  32  52  80 113 150 192 234 277 336
#     4  10  20  38  62  85 115 153 196 247 298 354
#     4  10  22  40  60  85 117 159 201 243 298 355
#
# _framework density 19.042373000000001
#
# number of rings (size 3 to 8) (size 9 to 14) (size 15 to 20)
#    0.000    2.000    1.250    1.875    3.500    2.250 
#    0.000    1.875    0.000    0.750    0.000    0.875 
#    0.000    8.000    0.000    0.000    0.000    0.000 
#
# Total GULP energy -357232.053942 kJ/mol
# GULP energy per Si atom -5581.750843 kJ/mol
# Density = 1.899903 g / cm^3
# Si number density = 19.042373 Si / 1000 Ang^3
#
#
#
# Elastic Constant Matrix: (Units=GPa)
#
#
# Indices 1 2 3 4 5 6 
#
# 1 80.7620 24.3814 38.8650 0.0000 0.0000 0.0000
# 2 24.3814 105.3644 41.1418 0.0000 0.0000 0.0000
# 3 38.8650 41.1418 105.0278 0.0000 0.0000 0.0000
# 4 0.0000 0.0000 0.0000 29.2704 0.0000 0.0000
# 5 0.0000 0.0000 0.0000 0.0000 29.6250 0.0000
# 6 0.0000 0.0000 0.0000 0.0000 0.0000 20.6950
#
#
#
# Elastic Compliance Matrix: (Units=1/GPa)
#
#
# Indices 1 2 3 4 5 6 
#
# 1 0.015281 -0.001568 -0.005040 0.000000 0.000000 0.000000
# 2 -0.001568 0.011366 -0.003872 0.000000 0.000000 0.000000
# 3 -0.005040 -0.003872 0.012903 0.000000 0.000000 0.000000
# 4 0.000000 0.000000 0.000000 0.034164 0.000000 0.000000
# 5 0.000000 0.000000 0.000000 0.000000 0.033755 0.000000
# 6 0.000000 0.000000 0.000000 0.000000 0.000000 0.048321
#
#
# Mechanical properties :
#
#
# Convention : Reuss Voigt Hill
#
# Bulk Modulus (GPa) = 53.79482 55.54787 54.67134
# Shear Modulus (GPa) = 27.33031 28.36917 27.84974
#
# Velocity S-wave (km/s) = 3.79256 3.86397 3.82843
# Velocity P-wave (km/s) = 6.89126 7.01006 6.95091
#
# Compressibility (1/GPa) = 0.01858915
#
# Stress axis : x y z
#
# Youngs Moduli (GPa) = 65.44068 87.98503 77.49998
#
# Poissons Ratio (x) = 0.13795 0.39064
# Poissons Ratio (y) = 0.10260 0.30008
# Poissons Ratio (z) = 0.32985 0.34068
#
# Static dielectric constant tensor:
#      x y z
#    x 1.678630 0.000000 0.000000 
#    y 0.000000 1.735580 0.000000 
#    z 0.000000 0.000000 1.660730 
# 
# From -- ./inp_files/12238.got.cif
#   From: 2010.05.17/outbox.cif.g08.bks.cpg/sg59_7_cif.got.tgz:12238.got - 2010.06.03 14:40:33.
