data_PCOD9451392
_publ_section_title
;
Structure prediction by ZEFSAII (Michael W. Deem and Ramdas Pophale) SiO2 
 PCOD9451392
Probable space group: P M M N
;
_chemical_formula_sum "Si O2"
_cell_formula_units_Z 56
_cell_length_a 22.005941
_cell_length_b 15.764809
_cell_length_c 8.060150
_cell_angle_alpha 90.000000
_cell_angle_beta 90.000000
_cell_angle_gamma 90.000000
_cell_volume 2796.222859
_symmetry_space_group_name_H-M "P M M N"
_symmetry_group_IT_number 59
_space_group.IT_coordinate_system_code '2'
_symmetry_cell_setting 'orthorhombic'
loop_
_space_group_symop_operation_xyz
x,y,z
1/2-x,1/2-y,z
1/2+x,-y,-z
-x,1/2+y,-z
-x,-y,-z
1/2+x,1/2+y,-z
1/2-x,y,z
x,1/2-y,z
loop_
_atom_site_type_symbol
_atom_site_label
_atom_site_fract_x
_atom_site_fract_y
_atom_site_fract_z
Si Si1 0.684760 0.653752 0.728204
Si Si2 0.408680 0.449484 0.081627
Si Si3 0.009477 0.153973 0.535737
Si Si4 0.920336 0.149916 0.244868
Si Si5 0.679383 0.484414 0.172168
Si Si6 0.983351 0.389726 0.891779
Si Si7 0.642401 0.848759 0.363325
O O1 0.750000 0.615925 0.781414
O O2 0.683196 0.750000 0.790643
O O3 0.681405 0.655434 0.530636
O O4 0.624155 0.609157 0.788981
O O5 0.354082 0.503610 0.003300
O O6 0.446035 0.395353 0.945751
O O7 0.458467 0.515799 0.143733
O O8 0.023211 0.250000 0.481622
O O9 0.968435 0.119769 0.386025
O O10 0.976352 0.155220 0.715185
O O11 0.075622 0.118120 0.579285
O O12 0.906907 0.250000 0.273199
O O13 0.861815 0.088749 0.256417
O O14 0.949347 0.142211 0.058743
O O15 0.750000 0.462295 0.165928
O O16 0.671309 0.578209 0.250957
O O17 0.638131 0.750000 0.299466
#
# Coordination Sequence:
#
# PCOD9451392 Si02
#       7
#     8   8   8   8   8   8   8
#     4  10  21  36  54  78 114 158 196 237 287 343
#     4  10  21  36  55  85 113 148 196 242 294 362
#     4  10  20  36  61  89 117 152 190 242 306 356
#     4  10  23  40  61  91 120 155 205 250 298 359
#     4  11  23  39  59  84 118 163 202 240 293 346
#     4  10  20  37  59  87 119 149 185 248 311 351
#     4  10  21  37  57  86 120 153 192 239 300 363
#
# _framework density 20.027014999999999
#
# number of rings (size 3 to 8) (size 9 to 14) (size 15 to 20)
#    0.000    1.857    1.429    2.143    2.000    4.571 
#    0.000    0.000    0.000    0.000    0.000    2.000 
#    0.000    0.000    0.000    0.000    0.000    0.000 
#
# Total GULP energy -312002.733115 kJ/mol
# GULP energy per Si atom -5571.477377 kJ/mol
# Density = 1.998143 g / cm^3
# Si number density = 20.027015 Si / 1000 Ang^3
#
#
#
# Elastic Constant Matrix: (Units=GPa)
#
#
# Indices 1 2 3 4 5 6 
#
# 1 114.1348 20.4348 26.7809 0.0000 0.0000 0.0000
# 2 20.4348 65.7764 12.0840 0.0000 0.0000 0.0000
# 3 26.7809 12.0840 67.8933 0.0000 0.0000 0.0000
# 4 0.0000 0.0000 0.0000 36.3125 0.0000 0.0000
# 5 0.0000 0.0000 0.0000 0.0000 15.8379 0.0000
# 6 0.0000 0.0000 0.0000 0.0000 0.0000 17.5269
#
#
#
# Elastic Compliance Matrix: (Units=1/GPa)
#
#
# Indices 1 2 3 4 5 6 
#
# 1 0.010029 -0.002470 -0.003516 0.000000 0.000000 0.000000
# 2 -0.002470 0.016325 -0.001931 0.000000 0.000000 0.000000
# 3 -0.003516 -0.001931 0.016460 0.000000 0.000000 0.000000
# 4 0.000000 0.000000 0.000000 0.027539 0.000000 0.000000
# 5 0.000000 0.000000 0.000000 0.000000 0.063140 0.000000
# 6 0.000000 0.000000 0.000000 0.000000 0.000000 0.057055
#
#
# Mechanical properties :
#
#
# Convention : Reuss Voigt Hill
#
# Bulk Modulus (GPa) = 37.06615 40.71153 38.88884
# Shear Modulus (GPa) = 23.21526 26.50242 24.85884
#
# Velocity S-wave (km/s) = 3.40839 3.64171 3.52698
# Velocity P-wave (km/s) = 5.83419 6.16889 6.00387
#
# Compressibility (1/GPa) = 0.02697879
#
# Stress axis : x y z
#
# Youngs Moduli (GPa) = 99.71250 61.25537 60.75399
#
# Poissons Ratio (x) = 0.15128 0.21363
# Poissons Ratio (y) = 0.24626 0.11734
# Poissons Ratio (z) = 0.35063 0.11831
#
# Static dielectric constant tensor:
#      x y z
#    x 1.730260 0.000000 0.000000 
#    y 0.000000 1.738710 0.000000 
#    z 0.000000 0.000000 1.773020 
# 
# From -- ./inp_files/11454.got.cif
#   From: 2010.05.17/outbox.cif.g08.bks.cpg/sg59_6_cif.got.tgz:11454.got - 2010.06.03 14:40:33.
