data_PCOD9451272
_publ_section_title
;
Structure prediction by ZEFSAII (Michael W. Deem and Ramdas Pophale) SiO2 
 PCOD9451272
Probable space group: P M M N
;
_chemical_formula_sum "Si O2"
_cell_formula_units_Z 64
_cell_length_a 8.823155
_cell_length_b 18.598616
_cell_length_c 21.802942
_cell_angle_alpha 90.000000
_cell_angle_beta 90.000000
_cell_angle_gamma 90.000000
_cell_volume 3577.829462
_symmetry_space_group_name_H-M "P M M N"
_symmetry_group_IT_number 59
_space_group.IT_coordinate_system_code '2'
_symmetry_cell_setting 'orthorhombic'
loop_
_space_group_symop_operation_xyz
x,y,z
1/2-x,1/2-y,z
1/2+x,-y,-z
-x,1/2+y,-z
-x,-y,-z
1/2+x,1/2+y,-z
1/2-x,y,z
x,1/2-y,z
loop_
_atom_site_type_symbol
_atom_site_label
_atom_site_fract_x
_atom_site_fract_y
_atom_site_fract_z
Si Si1 0.431845 0.665471 0.622907
Si Si2 0.068632 0.830227 0.871474
Si Si3 0.431325 0.958305 0.186521
Si Si4 0.569212 0.665852 0.265114
Si Si5 0.069420 0.392019 0.250950
Si Si6 0.426787 0.836026 0.397354
Si Si7 0.430251 0.078926 0.491324
Si Si8 0.068460 0.523642 0.935594
O O1 0.250000 0.660876 0.619350
O O2 0.474093 0.750000 0.617833
O O3 0.488122 0.634309 0.687739
O O4 0.503341 0.619232 0.568135
O O5 0.250000 0.834560 0.860526
O O6 0.032788 0.750000 0.893287
O O7 0.029559 0.893593 0.918630
O O8 0.985991 0.846082 0.807406
O O9 0.250000 0.952935 0.181649
O O10 0.501586 0.886540 0.214344
O O11 0.465935 0.025508 0.232004
O O12 0.501252 0.977931 0.120750
O O13 0.750000 0.656822 0.269843
O O14 0.537969 0.750000 0.252320
O O15 0.492027 0.647789 0.330170
O O16 0.250000 0.385345 0.258340
O O17 0.250000 0.856945 0.401242
O O18 0.436332 0.750000 0.406105
O O19 0.521337 0.875235 0.449451
O O20 0.250000 0.074034 0.486138
O O21 0.500000 0.000000 0.500000
O O22 0.250000 0.516786 0.936731
O O23 0.000000 0.500000 0.000000
#
# Coordination Sequence:
#
# PCOD9451272 Si02
#       8
#     8   8   8   8   8   8   8   8
#     4  11  24  41  60  83 114 151 189 231 283 342
#     4   9  18  34  56  82 112 147 188 232 279 334
#     4  10  21  37  58  84 116 152 190 234 284 338
#     4  10  21  37  59  87 116 148 190 239 290 342
#     4  10  21  35  55  85 117 149 186 231 281 336
#     4  10  21  39  62  85 112 147 187 233 287 346
#     4  12  26  42  60  82 111 147 189 238 288 342
#     4  10  20  36  58  83 114 152 193 235 282 338
#
# _framework density 17.887941000000001
#
# number of rings (size 3 to 8) (size 9 to 14) (size 15 to 20)
#    0.000    1.750    0.000    4.125    1.750    7.750 
#    0.000    0.625    0.000    2.250    0.000    0.000 
#    0.000    0.000    0.000    0.000    0.000    0.000 
#
# Total GULP energy -357617.850948 kJ/mol
# GULP energy per Si atom -5587.778921 kJ/mol
# Density = 1.784723 g / cm^3
# Si number density = 17.887941 Si / 1000 Ang^3
#
#
#
# Elastic Constant Matrix: (Units=GPa)
#
#
# Indices 1 2 3 4 5 6 
#
# 1 92.9356 63.7459 70.1463 0.0000 0.0000 0.0000
# 2 63.7459 99.6196 98.1510 0.0000 0.0000 0.0000
# 3 70.1463 98.1510 145.6465 0.0000 0.0000 0.0000
# 4 0.0000 0.0000 0.0000 19.3977 0.0000 0.0000
# 5 0.0000 0.0000 0.0000 0.0000 37.7582 0.0000
# 6 0.0000 0.0000 0.0000 0.0000 0.0000 30.1042
#
#
#
# Elastic Compliance Matrix: (Units=1/GPa)
#
#
# Indices 1 2 3 4 5 6 
#
# 1 0.019591 -0.009641 -0.002938 0.000000 0.000000 0.000000
# 2 -0.009641 0.034617 -0.018685 0.000000 0.000000 0.000000
# 3 -0.002938 -0.018685 0.020873 0.000000 0.000000 0.000000
# 4 0.000000 0.000000 0.000000 0.051553 0.000000 0.000000
# 5 0.000000 0.000000 0.000000 0.000000 0.026484 0.000000
# 6 0.000000 0.000000 0.000000 0.000000 0.000000 0.033218
#
#
# Mechanical properties :
#
#
# Convention : Reuss Voigt Hill
#
# Bulk Modulus (GPa) = 79.66850 89.14312 84.40581
# Shear Modulus (GPa) = 19.75906 24.52923 22.14415
#
# Velocity S-wave (km/s) = 3.32716 3.70709 3.52225
# Velocity P-wave (km/s) = 7.70677 8.26231 7.98937
#
# Compressibility (1/GPa) = 0.01255201
#
# Stress axis : x y z
#
# Youngs Moduli (GPa) = 51.04420 28.88744 47.90913
#
# Poissons Ratio (x) = 0.27851 0.14076
# Poissons Ratio (y) = 0.49213 0.89518
# Poissons Ratio (z) = 0.14998 0.53976
#
# Static dielectric constant tensor:
#      x y z
#    x 1.597250 0.000000 0.000000 
#    y 0.000000 1.610750 0.000000 
#    z 0.000000 0.000000 1.565640 
# 
# From -- ./inp_files/29363.got.cif
#   From: 2010.05.17/outbox.cif.g08.bks.cpg/sg59_15_cif.got.tgz:29363.got - 2010.06.03 14:40:33.
