data_PCOD9451575
_publ_section_title
;
Structure prediction by ZEFSAII (Michael W. Deem and Ramdas Pophale) SiO2 
 PCOD9451575
Probable space group: P M M N
;
_chemical_formula_sum "Si O2"
_cell_formula_units_Z 48
_cell_length_a 8.225402
_cell_length_b 15.446932
_cell_length_c 19.602205
_cell_angle_alpha 90.000000
_cell_angle_beta 90.000000
_cell_angle_gamma 90.000000
_cell_volume 2490.601778
_symmetry_space_group_name_H-M "P M M N"
_symmetry_group_IT_number 59
_space_group.IT_coordinate_system_code '2'
_symmetry_cell_setting 'orthorhombic'
loop_
_space_group_symop_operation_xyz
x,y,z
1/2-x,1/2-y,z
1/2+x,-y,-z
-x,1/2+y,-z
-x,-y,-z
1/2+x,1/2+y,-z
1/2-x,y,z
x,1/2-y,z
loop_
_atom_site_type_symbol
_atom_site_label
_atom_site_fract_x
_atom_site_fract_y
_atom_site_fract_z
Si Si1 0.053899 0.750000 0.733462
Si Si2 0.448371 0.750000 0.952534
Si Si3 0.553995 0.110165 0.156825
Si Si4 0.553819 0.750000 0.577699
Si Si5 0.443607 0.579680 0.190201
Si Si6 0.946393 0.595452 0.480361
Si Si7 0.449265 0.750000 0.109160
Si Si8 0.053832 0.348590 0.670124
O O1 0.250000 0.750000 0.733827
O O2 0.000372 0.834148 0.776925
O O3 0.997607 0.750000 0.656002
O O4 0.250000 0.750000 0.952898
O O5 0.499185 0.665643 0.909133
O O6 0.502309 0.750000 0.030490
O O7 0.750000 0.110404 0.156952
O O8 0.497654 0.011934 0.160154
O O9 0.750000 0.750000 0.575820
O O10 0.496899 0.834259 0.535827
O O11 0.250000 0.582743 0.188744
O O12 0.504634 0.663261 0.148001
O O13 0.499662 0.591128 0.268114
O O14 0.750000 0.598727 0.479457
O O15 0.002625 0.621005 0.404382
O O16 0.000000 0.500000 0.500000
O O17 0.250000 0.750000 0.109798
O O18 0.250000 0.347508 0.668996
O O19 0.997075 0.250000 0.682857
#
# Coordination Sequence:
#
# PCOD9451575 Si02
#       8
#     4   4   8   4   8   8   4   8
#     4   9  20  37  56  78 106 140 182 229 272 320
#     4   8  16  36  62  80 107 149 184 221 271 324
#     4   9  19  37  59  82 106 141 188 227 265 325
#     4  10  21  38  56  78 109 140 176 224 280 330
#     4  11  22  35  54  83 117 147 178 224 276 327
#     4  10  22  39  57  80 109 143 183 227 275 327
#     4   9  19  35  54  82 116 147 180 222 275 326
#     4  10  20  38  60  77 104 147 189 230 270 319
#
# _framework density 19.272452000000001
#
# number of rings (size 3 to 8) (size 9 to 14) (size 15 to 20)
#    0.000    2.333    1.667    1.500    2.333    2.667 
#    0.000    1.250    0.000    3.000    0.000    0.000 
#    0.000    0.000    0.000    0.000    0.000    0.000 
#
# Total GULP energy -267928.531279 kJ/mol
# GULP energy per Si atom -5581.844402 kJ/mol
# Density = 1.922859 g / cm^3
# Si number density = 19.272452 Si / 1000 Ang^3
#
#
#
# Elastic Constant Matrix: (Units=GPa)
#
#
# Indices 1 2 3 4 5 6 
#
# 1 9.2190 13.4625 13.0687 0.0000 0.0000 0.0000
# 2 13.4625 157.7067 69.6489 0.0000 0.0000 0.0000
# 3 13.0687 69.6489 155.5831 0.0000 0.0000 0.0000
# 4 0.0000 0.0000 0.0000 9.1569 0.0000 0.0000
# 5 0.0000 0.0000 0.0000 0.0000 15.3662 0.0000
# 6 0.0000 0.0000 0.0000 0.0000 0.0000 27.1792
#
#
#
# Elastic Compliance Matrix: (Units=1/GPa)
#
#
# Indices 1 2 3 4 5 6 
#
# 1 0.130492 -0.007851 -0.007447 0.000000 0.000000 0.000000
# 2 -0.007851 0.008376 -0.003090 0.000000 0.000000 0.000000
# 3 -0.007447 -0.003090 0.008436 0.000000 0.000000 0.000000
# 4 0.000000 0.000000 0.000000 0.109207 0.000000 0.000000
# 5 0.000000 0.000000 0.000000 0.000000 0.065078 0.000000
# 6 0.000000 0.000000 0.000000 0.000000 0.000000 0.036793
#
#
# Mechanical properties :
#
#
# Convention : Reuss Voigt Hill
#
# Bulk Modulus (GPa) = 9.04740 57.20766 33.12753
# Shear Modulus (GPa) = 11.57411 25.42906 18.50158
#
# Velocity S-wave (km/s) = 2.45327 3.63637 3.10175
# Velocity P-wave (km/s) = 3.56783 6.88324 5.48217
#
# Compressibility (1/GPa) = 0.11052897
#
# Stress axis : x y z
#
# Youngs Moduli (GPa) = 7.66333 119.39256 118.53601
#
# Poissons Ratio (x) = 0.93730 0.88270
# Poissons Ratio (y) = 0.06016 0.36629
# Poissons Ratio (z) = 0.05707 0.36893
#
# Static dielectric constant tensor:
#      x y z
#    x 1.558280 0.000000 0.000000 
#    y 0.000000 1.656610 0.000000 
#    z 0.000000 0.000000 1.655730 
# 
# From -- ./inp_files/25665.got.cif
#   From: 2010.05.17/outbox.cif.g08.bks.cpg/sg59_13_cif.got.tgz:25665.got - 2010.06.03 14:40:33.
