data_PCOD9451648
_publ_section_title
;
Structure prediction by ZEFSAII (Michael W. Deem and Ramdas Pophale) SiO2 
 PCOD9451648
Probable space group: P M M N
;
_chemical_formula_sum "Si O2"
_cell_formula_units_Z 38
_cell_length_a 25.053635
_cell_length_b 7.619155
_cell_length_c 10.201545
_cell_angle_alpha 90.000000
_cell_angle_beta 90.000000
_cell_angle_gamma 90.000000
_cell_volume 1947.347711
_symmetry_space_group_name_H-M "P M M N"
_symmetry_group_IT_number 59
_space_group.IT_coordinate_system_code '2'
_symmetry_cell_setting 'orthorhombic'
loop_
_space_group_symop_operation_xyz
x,y,z
1/2-x,1/2-y,z
1/2+x,-y,-z
-x,1/2+y,-z
-x,-y,-z
1/2+x,1/2+y,-z
1/2-x,y,z
x,1/2-y,z
loop_
_atom_site_type_symbol
_atom_site_label
_atom_site_fract_x
_atom_site_fract_y
_atom_site_fract_z
Si Si1 0.687446 0.250000 0.276019
Si Si2 0.250000 0.056881 0.310185
Si Si3 0.546324 0.540532 0.603173
Si Si4 0.132135 0.750000 0.989906
Si Si5 0.449252 0.039177 0.093157
Si Si6 0.343211 0.044734 0.520710
Si Si7 0.750000 0.250000 0.893006
O O1 0.750000 0.250000 0.232856
O O2 0.677755 0.421676 0.364442
O O3 0.641572 0.250000 0.165745
O O4 0.250000 0.250000 0.251772
O O5 0.300865 0.037764 0.403489
O O6 0.250000 0.917768 0.198550
O O7 0.500000 0.500000 0.500000
O O8 0.551106 0.750000 0.610818
O O9 0.539241 0.484923 0.754862
O O10 0.601244 0.476588 0.538455
O O11 0.099451 0.580216 0.040617
O O12 0.193247 0.750000 0.036193
O O13 0.438509 0.250000 0.089405
O O14 0.500000 0.000000 0.000000
O O15 0.348280 0.250000 0.561073
#
# Coordination Sequence:
#
# PCOD9451648 Si02
#       7
#     4   4   8   4   8   8   2
#     4  12  25  44  68  98 133 182 230 275 337 415
#     4  10  20  39  69  95 129 172 223 286 348 404
#     4  10  24  40  64  99 132 166 220 278 336 402
#     4  12  28  45  68  97 142 184 236 282 341 418
#     4  11  25  47  70  99 136 184 231 281 345 412
#     4  10  22  41  65  97 131 169 219 281 342 396
#     4  12  24  42  66  98 134 184 228 282 342 420
#
# _framework density 19.513719999999999
#
# number of rings (size 3 to 8) (size 9 to 14) (size 15 to 20)
#    0.000    1.263    2.632    1.895    5.895    3.368 
#    0.000    0.000    0.000    0.000    0.000    0.000 
#    0.000    0.000    0.000    0.000    0.000    0.000 
#
# Total GULP energy -212187.577767 kJ/mol
# GULP energy per Si atom -5583.883625 kJ/mol
# Density = 1.946931 g / cm^3
# Si number density = 19.513720 Si / 1000 Ang^3
#
#
#
# Elastic Constant Matrix: (Units=GPa)
#
#
# Indices 1 2 3 4 5 6 
#
# 1 156.2849 40.0989 48.6538 0.0000 0.0000 0.0000
# 2 40.0989 102.1231 46.0982 0.0000 0.0000 0.0000
# 3 48.6538 46.0982 95.9839 0.0000 0.0000 0.0000
# 4 0.0000 0.0000 0.0000 24.6883 0.0000 0.0000
# 5 0.0000 0.0000 0.0000 0.0000 0.5866 0.0000
# 6 0.0000 0.0000 0.0000 0.0000 0.0000 71.8480
#
#
#
# Elastic Compliance Matrix: (Units=1/GPa)
#
#
# Indices 1 2 3 4 5 6 
#
# 1 0.007805 -0.001633 -0.003172 0.000000 0.000000 0.000000
# 2 -0.001633 0.012844 -0.005341 0.000000 0.000000 0.000000
# 3 -0.003172 -0.005341 0.014592 0.000000 0.000000 0.000000
# 4 0.000000 0.000000 0.000000 0.040505 0.000000 0.000000
# 5 0.000000 0.000000 0.000000 0.000000 1.704830 0.000000
# 6 0.000000 0.000000 0.000000 0.000000 0.000000 0.013918
#
#
# Mechanical properties :
#
#
# Convention : Reuss Voigt Hill
#
# Bulk Modulus (GPa) = 66.89504 69.34372 68.11938
# Shear Modulus (GPa) = 2.74760 34.06063 18.40412
#
# Velocity S-wave (km/s) = 1.18789 4.18242 3.07439
# Velocity P-wave (km/s) = 6.01971 7.67701 6.89831
#
# Compressibility (1/GPa) = 0.01494879
#
# Stress axis : x y z
#
# Youngs Moduli (GPa) = 128.12235 77.85656 68.53299
#
# Poissons Ratio (x) = 0.12712 0.21740
# Poissons Ratio (y) = 0.20919 0.36604
# Poissons Ratio (z) = 0.40643 0.41583
#
# Static dielectric constant tensor:
#      x y z
#    x 1.691310 0.000000 0.000000 
#    y 0.000000 1.685110 0.000000 
#    z 0.000000 0.000000 1.665390 
# 
# From -- ./inp_files/11910.got.cif
#   From: 2010.05.17/outbox.cif.g08.bks.cpg/sg59_6_cif.got.tgz:11910.got - 2010.06.03 14:40:33.
