data_PCOD9451321
_publ_section_title
;
Structure prediction by ZEFSAII (Michael W. Deem and Ramdas Pophale) SiO2 
 PCOD9451321
Probable space group: P M M N
;
_chemical_formula_sum "Si O2"
_cell_formula_units_Z 48
_cell_length_a 8.734314
_cell_length_b 10.379430
_cell_length_c 29.678589
_cell_angle_alpha 90.000000
_cell_angle_beta 90.000000
_cell_angle_gamma 90.000000
_cell_volume 2690.577801
_symmetry_space_group_name_H-M "P M M N"
_symmetry_group_IT_number 59
_space_group.IT_coordinate_system_code '2'
_symmetry_cell_setting 'orthorhombic'
loop_
_space_group_symop_operation_xyz
x,y,z
1/2-x,1/2-y,z
1/2+x,-y,-z
-x,1/2+y,-z
-x,-y,-z
1/2+x,1/2+y,-z
1/2-x,y,z
x,1/2-y,z
loop_
_atom_site_type_symbol
_atom_site_label
_atom_site_fract_x
_atom_site_fract_y
_atom_site_fract_z
Si Si1 0.565841 0.250000 0.555696
Si Si2 0.435786 0.750000 0.548356
Si Si3 0.933639 0.100156 0.206088
Si Si4 0.066559 0.398550 0.964738
Si Si5 0.566424 0.101400 0.865068
Si Si6 0.565933 0.500824 0.395402
Si Si7 0.067389 0.098185 0.304376
O O1 0.750000 0.250000 0.556436
O O2 0.513924 0.250000 0.503465
O O3 0.502695 0.125505 0.581042
O O4 0.250000 0.750000 0.548100
O O5 0.484355 0.623335 0.575389
O O6 0.750000 0.093038 0.206743
O O7 0.976740 0.250000 0.196536
O O8 0.998634 0.067375 0.255507
O O9 0.999223 0.001665 0.169593
O O10 0.250000 0.409371 0.963111
O O11 0.027947 0.250000 0.977118
O O12 0.998854 0.422011 0.915054
O O13 0.000000 0.500000 0.000000
O O14 0.750000 0.091480 0.865966
O O15 0.526345 0.250000 0.852819
O O16 0.750000 0.506600 0.395342
O O17 0.506369 0.481635 0.344777
O O18 0.250000 0.081088 0.303705
O O19 0.034320 0.250000 0.312785
#
# Coordination Sequence:
#
# PCOD9451321 Si02
#       7
#     4   4   8   8   8   8   8
#     4  11  23  39  55  83 119 149 185 233 280 331
#     4   9  20  37  61  85 111 147 189 231 278 335
#     4  10  21  37  59  86 114 147 188 235 283 337
#     4  10  21  37  58  84 115 153 196 240 287 340
#     4  10  21  38  59  84 116 153 192 236 288 342
#     4  11  21  38  60  84 113 149 187 230 282 338
#     4  10  20  36  59  86 113 145 186 233 284 338
#
# _framework density 17.840035
#
# number of rings (size 3 to 8) (size 9 to 14) (size 15 to 20)
#    0.000    1.833    0.833    3.250    0.000    4.333 
#    1.500    2.500    0.000    0.000    0.000    0.000 
#    0.000    0.000    0.000    0.000    0.000    0.000 
#
# Total GULP energy -268139.356851 kJ/mol
# GULP energy per Si atom -5586.236601 kJ/mol
# Density = 1.779943 g / cm^3
# Si number density = 17.840035 Si / 1000 Ang^3
#
#
#
# Elastic Constant Matrix: (Units=GPa)
#
#
# Indices 1 2 3 4 5 6 
#
# 1 65.1045 56.1976 59.7812 0.0000 0.0000 0.0000
# 2 56.1976 152.5693 119.7515 0.0000 0.0000 0.0000
# 3 59.7812 119.7515 166.8858 0.0000 0.0000 0.0000
# 4 0.0000 0.0000 0.0000 30.9764 0.0000 0.0000
# 5 0.0000 0.0000 0.0000 0.0000 32.6477 0.0000
# 6 0.0000 0.0000 0.0000 0.0000 0.0000 24.1655
#
#
#
# Elastic Compliance Matrix: (Units=1/GPa)
#
#
# Indices 1 2 3 4 5 6 
#
# 1 0.024369 -0.004864 -0.005239 0.000000 0.000000 0.000000
# 2 -0.004864 0.015977 -0.009722 0.000000 0.000000 0.000000
# 3 -0.005239 -0.009722 0.014845 0.000000 0.000000 0.000000
# 4 0.000000 0.000000 0.000000 0.032283 0.000000 0.000000
# 5 0.000000 0.000000 0.000000 0.000000 0.030630 0.000000
# 6 0.000000 0.000000 0.000000 0.000000 0.000000 0.041381
#
#
# Mechanical properties :
#
#
# Convention : Reuss Voigt Hill
#
# Bulk Modulus (GPa) = 64.34719 95.11335 79.73027
# Shear Modulus (GPa) = 24.47187 27.47987 25.97587
#
# Velocity S-wave (km/s) = 3.70772 3.92899 3.81995
# Velocity P-wave (km/s) = 7.38084 8.60307 8.01529
#
# Compressibility (1/GPa) = 0.01554069
#
# Stress axis : x y z
#
# Youngs Moduli (GPa) = 41.03523 62.59058 67.36190
#
# Poissons Ratio (x) = 0.30443 0.35293
# Poissons Ratio (y) = 0.19959 0.65490
# Poissons Ratio (z) = 0.21500 0.60851
#
# Static dielectric constant tensor:
#      x y z
#    x 1.593020 0.000000 0.000000 
#    y 0.000000 1.599440 0.000000 
#    z 0.000000 0.000000 1.572170 
# 
# From -- ./inp_files/32972.got.cif
#   From: 2010.05.17/outbox.cif.g08.bks.cpg/sg59_17_cif.got.tgz:32972.got - 2010.06.03 14:40:33.
