data_PCOD9451134
_publ_section_title
;
Structure prediction by ZEFSAII (Michael W. Deem and Ramdas Pophale) SiO2 
 PCOD9451134
Probable space group: P M M N
;
_chemical_formula_sum "Si O2"
_cell_formula_units_Z 64
_cell_length_a 7.694726
_cell_length_b 19.066660
_cell_length_c 20.393567
_cell_angle_alpha 90.000000
_cell_angle_beta 90.000000
_cell_angle_gamma 90.000000
_cell_volume 2991.995776
_symmetry_space_group_name_H-M "P M M N"
_symmetry_group_IT_number 59
_space_group.IT_coordinate_system_code '2'
_symmetry_cell_setting 'orthorhombic'
loop_
_space_group_symop_operation_xyz
x,y,z
1/2-x,1/2-y,z
1/2+x,-y,-z
-x,1/2+y,-z
-x,-y,-z
1/2+x,1/2+y,-z
1/2-x,y,z
x,1/2-y,z
loop_
_atom_site_type_symbol
_atom_site_label
_atom_site_fract_x
_atom_site_fract_y
_atom_site_fract_z
Si Si1 0.537278 0.067342 0.784975
Si Si2 0.457338 0.172058 0.516028
Si Si3 0.456540 0.671260 0.102046
Si Si4 0.543008 0.579210 0.977979
Si Si5 0.539417 0.911964 0.829616
Si Si6 0.045362 0.829055 0.703783
Si Si7 0.960314 0.416478 0.636698
Si Si8 0.951940 0.566271 0.590966
O O1 0.750000 0.067152 0.786067
O O2 0.474678 0.121087 0.840369
O O3 0.481565 0.087614 0.711910
O O4 0.483917 0.988223 0.802662
O O5 0.250000 0.175102 0.504283
O O6 0.527671 0.250000 0.503852
O O7 0.486750 0.146642 0.589854
O O8 0.530887 0.112884 0.467187
O O9 0.250000 0.676209 0.113248
O O10 0.528558 0.750000 0.102456
O O11 0.480121 0.632971 0.032789
O O12 0.750000 0.584316 0.975537
O O13 0.477455 0.594502 0.904511
O O14 0.500000 0.500000 0.000000
O O15 0.750000 0.910982 0.829851
O O16 0.479840 0.853339 0.778591
O O17 0.250000 0.829603 0.689002
O O18 0.978639 0.750000 0.693090
O O19 0.960016 0.886156 0.656171
O O20 0.750000 0.419291 0.638092
O O21 0.027292 0.489807 0.605793
O O22 0.750000 0.554073 0.574248
#
# Coordination Sequence:
#
# PCOD9451134 Si02
#       8
#     8   8   8   8   8   8   8   8
#     4   9  17  35  59  85 113 144 191 237 279 339
#     4  10  22  38  55  80 117 156 191 230 284 348
#     4  10  21  38  60  86 120 159 195 239 296 350
#     4  11  22  37  61  88 116 151 195 243 290 344
#     4  10  20  38  61  82 111 151 193 234 278 343
#     4  11  24  38  55  86 122 149 182 234 290 340
#     4  10  20  35  60  88 111 141 192 247 285 330
#     4  10  20  38  62  85 111 151 195 233 280 345
#
# _framework density 21.390402999999999
#
# number of rings (size 3 to 8) (size 9 to 14) (size 15 to 20)
#    0.000    1.875    2.500    1.500    0.000    5.000 
#    0.000    4.375    0.000    0.000    0.000    0.000 
#    0.000    0.000    0.000    0.000    0.000    0.000 
#
# Total GULP energy -357644.554034 kJ/mol
# GULP energy per Si atom -5588.196157 kJ/mol
# Density = 2.134172 g / cm^3
# Si number density = 21.390403 Si / 1000 Ang^3
#
#
#
# Elastic Constant Matrix: (Units=GPa)
#
#
# Indices 1 2 3 4 5 6 
#
# 1 36.2968 -4.6477 -10.3460 0.0000 0.0000 0.0000
# 2 -4.6477 63.7966 1.4580 0.0000 0.0000 0.0000
# 3 -10.3460 1.4580 101.7412 0.0000 0.0000 0.0000
# 4 0.0000 0.0000 0.0000 19.4575 0.0000 0.0000
# 5 0.0000 0.0000 0.0000 0.0000 21.6786 0.0000
# 6 0.0000 0.0000 0.0000 0.0000 0.0000 12.4334
#
#
#
# Elastic Compliance Matrix: (Units=1/GPa)
#
#
# Indices 1 2 3 4 5 6 
#
# 1 0.028631 0.002020 0.002883 0.000000 0.000000 0.000000
# 2 0.002020 0.015822 -0.000021 0.000000 0.000000 0.000000
# 3 0.002883 -0.000021 0.010122 0.000000 0.000000 0.000000
# 4 0.000000 0.000000 0.000000 0.051394 0.000000 0.000000
# 5 0.000000 0.000000 0.000000 0.000000 0.046128 0.000000
# 6 0.000000 0.000000 0.000000 0.000000 0.000000 0.080428
#
#
# Mechanical properties :
#
#
# Convention : Reuss Voigt Hill
#
# Bulk Modulus (GPa) = 15.54293 19.41812 17.48053
# Shear Modulus (GPa) = 20.47415 25.07191 22.77303
#
# Velocity S-wave (km/s) = 3.09716 3.42732 3.26642
# Velocity P-wave (km/s) = 4.48018 4.97592 4.73454
#
# Compressibility (1/GPa) = 0.06433795
#
# Stress axis : x y z
#
# Youngs Moduli (GPa) = 34.92725 63.20128 98.79192
#
# Poissons Ratio (x) = -0.12766 -0.28477
# Poissons Ratio (y) = -0.07055 0.00211
# Poissons Ratio (z) = -0.10068 0.00135
#
# Static dielectric constant tensor:
#      x y z
#    x 1.809490 0.000000 0.000000 
#    y 0.000000 1.747220 0.000000 
#    z 0.000000 0.000000 1.755270 
# 
# From -- ./inp_files/29477.got.cif
#   From: 2010.05.17/outbox.cif.g08.bks.cpg/sg59_15_cif.got.tgz:29477.got - 2010.06.03 14:40:33.
