data_PCOD9451492
_publ_section_title
;
Structure prediction by ZEFSAII (Michael W. Deem and Ramdas Pophale) SiO2 
 PCOD9451492
Probable space group: P M M N
;
_chemical_formula_sum "Si O2"
_cell_formula_units_Z 48
_cell_length_a 8.631660
_cell_length_b 15.866457
_cell_length_c 18.315673
_cell_angle_alpha 90.000000
_cell_angle_beta 90.000000
_cell_angle_gamma 90.000000
_cell_volume 2508.402157
_symmetry_space_group_name_H-M "P M M N"
_symmetry_group_IT_number 59
_space_group.IT_coordinate_system_code '2'
_symmetry_cell_setting 'orthorhombic'
loop_
_space_group_symop_operation_xyz
x,y,z
1/2-x,1/2-y,z
1/2+x,-y,-z
-x,1/2+y,-z
-x,-y,-z
1/2+x,1/2+y,-z
1/2-x,y,z
x,1/2-y,z
loop_
_atom_site_type_symbol
_atom_site_label
_atom_site_fract_x
_atom_site_fract_y
_atom_site_fract_z
Si Si1 0.061433 0.250000 0.207455
Si Si2 0.064037 0.581616 0.541411
Si Si3 0.937593 0.583491 0.705223
Si Si4 0.437064 0.913844 0.209849
Si Si5 0.063328 0.250000 0.038242
Si Si6 0.563686 0.416975 0.960470
Si Si7 0.934147 0.750000 0.291011
Si Si8 0.937161 0.250000 0.545291
O O1 0.250000 0.250000 0.207284
O O2 0.011725 0.166144 0.250092
O O3 0.013271 0.250000 0.123099
O O4 0.250000 0.578502 0.541670
O O5 0.015471 0.666267 0.498576
O O6 0.000000 0.500000 0.500000
O O7 0.003331 0.583809 0.623905
O O8 0.750000 0.584506 0.701287
O O9 0.983700 0.498976 0.748206
O O10 0.250000 0.908201 0.213038
O O11 0.481625 0.917495 0.124880
O O12 0.505663 0.832571 0.249266
O O13 0.250000 0.250000 0.035923
O O14 0.001092 0.166631 0.998744
O O15 0.750000 0.416838 0.964303
O O16 0.500000 0.500000 0.000000
O O17 0.750000 0.750000 0.291927
O O18 0.996632 0.750000 0.373504
O O19 0.750000 0.250000 0.550155
#
# Coordination Sequence:
#
# PCOD9451492 Si02
#       8
#     4   8   8   8   4   8   4   4
#     4   9  19  37  61  87 117 153 192 231 282 348
#     4  11  23  39  59  85 115 149 188 233 284 339
#     4  10  20  37  61  86 112 149 192 233 280 339
#     4  10  22  40  60  82 116 159 195 229 287 358
#     4  11  22  39  62  89 122 159 200 247 296 354
#     4  11  23  40  62  89 120 158 202 247 296 354
#     4  12  25  38  59  89 115 144 193 250 292 328
#     4  10  23  42  60  79 114 158 189 220 282 356
#
# _framework density 19.135686
#
# number of rings (size 3 to 8) (size 9 to 14) (size 15 to 20)
#    0.000    1.500    0.000    5.000    0.000   12.000 
#    0.000    3.333    0.000    0.000    0.000    0.000 
#    0.000    0.000    0.000    0.000    0.000    0.000 
#
# Total GULP energy -268460.431615 kJ/mol
# GULP energy per Si atom -5592.925659 kJ/mol
# Density = 1.909213 g / cm^3
# Si number density = 19.135686 Si / 1000 Ang^3
#
#
#
# Elastic Constant Matrix: (Units=GPa)
#
#
# Indices 1 2 3 4 5 6 
#
# 1 33.8393 54.4225 55.8694 0.0000 0.0000 0.0000
# 2 54.4225 245.3566 151.0007 0.0000 0.0000 0.0000
# 3 55.8694 151.0007 243.3005 0.0000 0.0000 0.0000
# 4 0.0000 0.0000 0.0000 46.4953 0.0000 0.0000
# 5 0.0000 0.0000 0.0000 0.0000 37.4199 0.0000
# 6 0.0000 0.0000 0.0000 0.0000 0.0000 17.4671
#
#
#
# Elastic Compliance Matrix: (Units=1/GPa)
#
#
# Indices 1 2 3 4 5 6 
#
# 1 0.054235 -0.007063 -0.008071 0.000000 0.000000 0.000000
# 2 -0.007063 0.007514 -0.003042 0.000000 0.000000 0.000000
# 3 -0.008071 -0.003042 0.007851 0.000000 0.000000 0.000000
# 4 0.000000 0.000000 0.000000 0.021508 0.000000 0.000000
# 5 0.000000 0.000000 0.000000 0.000000 0.026724 0.000000
# 6 0.000000 0.000000 0.000000 0.000000 0.000000 0.057250
#
#
# Mechanical properties :
#
#
# Convention : Reuss Voigt Hill
#
# Bulk Modulus (GPa) = 30.07511 116.12019 73.09765
# Shear Modulus (GPa) = 22.47025 37.69006 30.08016
#
# Velocity S-wave (km/s) = 3.43046 4.44286 3.96907
# Velocity P-wave (km/s) = 5.60729 9.33450 7.69982
#
# Compressibility (1/GPa) = 0.03325008
#
# Stress axis : x y z
#
# Youngs Moduli (GPa) = 18.43823 133.07844 127.36871
#
# Poissons Ratio (x) = 0.93994 1.02793
# Poissons Ratio (y) = 0.13023 0.38743
# Poissons Ratio (z) = 0.14881 0.40480
#
# Static dielectric constant tensor:
#      x y z
#    x 1.651210 0.000000 0.000000 
#    y 0.000000 1.631950 0.000000 
#    z 0.000000 0.000000 1.627160 
# 
# From -- ./inp_files/25671.got.cif
#   From: 2010.05.17/outbox.cif.g08.bks.cpg/sg59_13_cif.got.tgz:25671.got - 2010.06.03 14:40:33.
