data_PCOD9451590
_publ_section_title
;
Structure prediction by ZEFSAII (Michael W. Deem and Ramdas Pophale) SiO2 
 PCOD9451590
Probable space group: P M M N
;
_chemical_formula_sum "Si O2"
_cell_formula_units_Z 48
_cell_length_a 9.689653
_cell_length_b 7.763264
_cell_length_c 29.514613
_cell_angle_alpha 90.000000
_cell_angle_beta 90.000000
_cell_angle_gamma 90.000000
_cell_volume 2220.187601
_symmetry_space_group_name_H-M "P M M N"
_symmetry_group_IT_number 59
_space_group.IT_coordinate_system_code '2'
_symmetry_cell_setting 'orthorhombic'
loop_
_space_group_symop_operation_xyz
x,y,z
1/2-x,1/2-y,z
1/2+x,-y,-z
-x,1/2+y,-z
-x,-y,-z
1/2+x,1/2+y,-z
1/2-x,y,z
x,1/2-y,z
loop_
_atom_site_type_symbol
_atom_site_label
_atom_site_fract_x
_atom_site_fract_y
_atom_site_fract_z
Si Si1 0.097993 0.541366 0.207511
Si Si2 0.409092 0.457740 0.543964
Si Si3 0.250000 0.956971 0.927937
Si Si4 0.750000 0.039493 0.968511
Si Si5 0.093474 0.546913 0.711521
Si Si6 0.042719 0.952642 0.106646
Si Si7 0.907148 0.045922 0.627354
O O1 0.250000 0.489864 0.225018
O O2 0.093738 0.750000 0.207001
O O3 0.975171 0.481952 0.239579
O O4 0.084153 0.477778 0.155748
O O5 0.500000 0.500000 0.500000
O O6 0.250000 0.521012 0.541655
O O7 0.400917 0.250000 0.547359
O O8 0.494457 0.524351 0.587480
O O9 0.250000 0.750000 0.928432
O O10 0.383445 0.021215 0.902081
O O11 0.250000 0.021361 0.979990
O O12 0.750000 0.250000 0.971358
O O13 0.621596 0.980412 0.937786
O O14 0.250000 0.476427 0.708449
O O15 0.101007 0.750000 0.703351
O O16 0.988350 0.474283 0.674341
O O17 0.076564 0.750000 0.108369
O O18 0.750000 0.975812 0.628112
O O19 0.894601 0.250000 0.618956
#
# Coordination Sequence:
#
# PCOD9451590 Si02
#       7
#     8   8   4   4   8   8   8
#     4  10  21  39  63  86 107 141 191 239 283 336
#     4  10  21  37  59  88 122 161 204 249 298 348
#     4  11  23  35  53  85 121 151 181 227 286 337
#     4   9  18  37  61  83 111 147 189 237 280 329
#     4  11  25  41  58  85 120 154 186 230 290 351
#     4  10  20  38  61  83 109 147 192 234 277 335
#     4  10  21  39  63  89 117 153 200 248 291 342
#
# _framework density 21.619795
#
# number of rings (size 3 to 8) (size 9 to 14) (size 15 to 20)
#    0.000    1.833    0.833    2.750    1.167    7.000 
#    0.000    1.250    0.000    0.000    0.000    0.000 
#    0.000    0.000    0.000    0.000    0.000    0.000 
#
# Total GULP energy -268120.671652 kJ/mol
# GULP energy per Si atom -5585.847326 kJ/mol
# Density = 2.157059 g / cm^3
# Si number density = 21.619795 Si / 1000 Ang^3
#
#
#
# Elastic Constant Matrix: (Units=GPa)
#
#
# Indices 1 2 3 4 5 6 
#
# 1 201.1269 3.3603 58.0066 0.0000 0.0000 0.0000
# 2 3.3603 29.9702 -2.6005 0.0000 0.0000 0.0000
# 3 58.0066 -2.6005 108.6994 0.0000 0.0000 0.0000
# 4 0.0000 0.0000 0.0000 18.9968 0.0000 0.0000
# 5 0.0000 0.0000 0.0000 0.0000 39.7451 0.0000
# 6 0.0000 0.0000 0.0000 0.0000 0.0000 -53.6703
#
#
#
# Elastic Compliance Matrix: (Units=1/GPa)
#
#
# Indices 1 2 3 4 5 6 
#
# 1 0.005903 -0.000937 -0.003172 0.000000 0.000000 0.000000
# 2 -0.000937 0.033585 0.001304 0.000000 0.000000 0.000000
# 3 -0.003172 0.001304 0.010924 0.000000 0.000000 0.000000
# 4 0.000000 0.000000 0.000000 0.052640 0.000000 0.000000
# 5 0.000000 0.000000 0.000000 0.000000 0.025160 0.000000
# 6 0.000000 0.000000 0.000000 0.000000 0.000000 -0.018632
#
#
# Mechanical properties :
#
#
# Convention : Reuss Voigt Hill
#
# Bulk Modulus (GPa) = 22.32176 50.81435 36.56805
# Shear Modulus (GPa) = 38.42488 19.74967 29.08728
#
# Velocity S-wave (km/s) = 4.22038 3.02569 3.67195
# Velocity P-wave (km/s) = 5.83917 5.98006 5.91003
#
# Compressibility (1/GPa) = 0.04479934
#
# Stress axis : x y z
#
# Youngs Moduli (GPa) = 169.41834 29.77550 91.54387
#
# Poissons Ratio (x) = 0.02790 0.29040
# Poissons Ratio (y) = 0.15875 -0.11933
# Poissons Ratio (z) = 0.53744 -0.03881
#
# Static dielectric constant tensor:
#      x y z
#    x 1.809330 0.000000 0.000000 
#    y 0.000000 1.810870 0.000000 
#    z 0.000000 0.000000 1.763520 
# 
# From -- ./inp_files/32927.got.cif
#   From: 2010.05.17/outbox.cif.g08.bks.cpg/sg59_17_cif.got.tgz:32927.got - 2010.06.03 14:40:33.
