data_PCOD9451494
_publ_section_title
;
Structure prediction by ZEFSAII (Michael W. Deem and Ramdas Pophale) SiO2 
 PCOD9451494
Probable space group: P M M N
;
_chemical_formula_sum "Si O2"
_cell_formula_units_Z 56
_cell_length_a 22.185540
_cell_length_b 13.197298
_cell_length_c 8.226203
_cell_angle_alpha 90.000000
_cell_angle_beta 90.000000
_cell_angle_gamma 90.000000
_cell_volume 2408.543253
_symmetry_space_group_name_H-M "P M M N"
_symmetry_group_IT_number 59
_space_group.IT_coordinate_system_code '2'
_symmetry_cell_setting 'orthorhombic'
loop_
_space_group_symop_operation_xyz
x,y,z
1/2-x,1/2-y,z
1/2+x,-y,-z
-x,1/2+y,-z
-x,-y,-z
1/2+x,1/2+y,-z
1/2-x,y,z
x,1/2-y,z
loop_
_atom_site_type_symbol
_atom_site_label
_atom_site_fract_x
_atom_site_fract_y
_atom_site_fract_z
Si Si1 0.319610 0.074204 0.289775
Si Si2 0.441628 0.133596 0.415345
Si Si3 0.557115 0.869971 0.232643
Si Si4 0.005088 0.872066 0.906637
Si Si5 0.183948 0.076156 0.910021
Si Si6 0.143594 0.634206 0.811533
Si Si7 0.322104 0.637985 0.440840
O O1 0.250000 0.092171 0.337569
O O2 0.369558 0.131346 0.393140
O O3 0.325321 0.100692 0.099948
O O4 0.333469 0.955065 0.321228
O O5 0.462990 0.250000 0.420363
O O6 0.456667 0.086194 0.589536
O O7 0.468665 0.089319 0.250202
O O8 0.545833 0.750000 0.243232
O O9 0.519672 0.910134 0.079246
O O10 0.627484 0.884799 0.191321
O O11 0.993460 0.750000 0.912485
O O12 0.075881 0.882235 0.874558
O O13 0.250000 0.113479 0.859294
O O14 0.182533 0.954450 0.889512
O O15 0.162381 0.750000 0.847401
O O16 0.146690 0.622707 0.615648
O O17 0.250000 0.638400 0.472367
O O18 0.339041 0.750000 0.378128
#
# Coordination Sequence:
#
# PCOD9451494 Si02
#       7
#     8   8   8   8   8   8   8
#     4  10  21  37  56  83 118 153 192 240 291 342
#     4  10  20  37  61  86 115 153 192 235 289 344
#     4  10  21  39  63  89 119 156 193 238 293 344
#     4   9  19  39  60  85 120 151 192 241 285 346
#     4  11  23  38  58  86 119 154 195 243 291 347
#     4  10  21  38  60  85 114 153 194 241 295 343
#     4   9  18  35  57  79 108 148 194 242 289 341
#
# _framework density 23.250568999999999
#
# number of rings (size 3 to 8) (size 9 to 14) (size 15 to 20)
#    0.000    2.143    1.429    1.286    0.000    4.286 
#    2.571    5.714    0.000    0.000    0.000    0.000 
#    0.000    0.000    0.000    0.000    0.000    0.000 
#
# Total GULP energy -313051.668119 kJ/mol
# GULP energy per Si atom -5590.208359 kJ/mol
# Density = 2.319765 g / cm^3
# Si number density = 23.250569 Si / 1000 Ang^3
#
#
#
# Elastic Constant Matrix: (Units=GPa)
#
#
# Indices 1 2 3 4 5 6 
#
# 1 61.9587 3.9737 55.2289 0.0000 0.0000 0.0000
# 2 3.9737 43.7931 20.3955 0.0000 0.0000 0.0000
# 3 55.2289 20.3955 144.2517 0.0000 0.0000 0.0000
# 4 0.0000 0.0000 0.0000 30.2283 0.0000 0.0000
# 5 0.0000 0.0000 0.0000 0.0000 10.2804 0.0000
# 6 0.0000 0.0000 0.0000 0.0000 0.0000 28.5375
#
#
#
# Elastic Compliance Matrix: (Units=1/GPa)
#
#
# Indices 1 2 3 4 5 6 
#
# 1 0.024719 0.002317 -0.009792 0.000000 0.000000 0.000000
# 2 0.002317 0.024662 -0.004374 0.000000 0.000000 0.000000
# 3 -0.009792 -0.004374 0.011300 0.000000 0.000000 0.000000
# 4 0.000000 0.000000 0.000000 0.033082 0.000000 0.000000
# 5 0.000000 0.000000 0.000000 0.000000 0.097272 0.000000
# 6 0.000000 0.000000 0.000000 0.000000 0.000000 0.035042
#
#
# Mechanical properties :
#
#
# Convention : Reuss Voigt Hill
#
# Bulk Modulus (GPa) = 27.03911 45.46662 36.25287
# Shear Modulus (GPa) = 19.07661 25.16959 22.12310
#
# Velocity S-wave (km/s) = 2.86751 3.29376 3.08800
# Velocity P-wave (km/s) = 4.75586 5.83632 5.32357
#
# Compressibility (1/GPa) = 0.03698346
#
# Stress axis : x y z
#
# Youngs Moduli (GPa) = 40.45402 40.54903 88.49789
#
# Poissons Ratio (x) = -0.09396 0.86656
# Poissons Ratio (y) = -0.09374 0.38709
# Poissons Ratio (z) = 0.39612 0.17736
#
# Static dielectric constant tensor:
#      x y z
#    x 1.845160 0.000000 0.000000 
#    y 0.000000 1.934910 0.000000 
#    z 0.000000 0.000000 1.852420 
# 
# From -- ./inp_files/11447.got.cif
#   From: 2010.05.17/outbox.cif.g08.bks.cpg/sg59_6_cif.got.tgz:11447.got - 2010.06.03 14:40:33.
