data_PCOD9451047
_publ_section_title
;
Structure prediction by ZEFSAII (Michael W. Deem and Ramdas Pophale) SiO2 
 PCOD9451047
Probable space group: P M M N
;
_chemical_formula_sum "Si O2"
_cell_formula_units_Z 64
_cell_length_a 14.652926
_cell_length_b 8.724972
_cell_length_c 25.814542
_cell_angle_alpha 90.000000
_cell_angle_beta 90.000000
_cell_angle_gamma 90.000000
_cell_volume 3300.295464
_symmetry_space_group_name_H-M "P M M N"
_symmetry_group_IT_number 59
_space_group.IT_coordinate_system_code '2'
_symmetry_cell_setting 'orthorhombic'
loop_
_space_group_symop_operation_xyz
x,y,z
1/2-x,1/2-y,z
1/2+x,-y,-z
-x,1/2+y,-z
-x,-y,-z
1/2+x,1/2+y,-z
1/2-x,y,z
x,1/2-y,z
loop_
_atom_site_type_symbol
_atom_site_label
_atom_site_fract_x
_atom_site_fract_y
_atom_site_fract_z
Si Si1 0.858354 0.569284 0.530038
Si Si2 0.144401 0.066875 0.279100
Si Si3 0.347436 0.067495 0.844954
Si Si4 0.618536 0.426769 0.047643
Si Si5 0.468951 0.567906 0.373876
Si Si6 0.575836 0.067028 0.938572
Si Si7 0.053805 0.933585 0.177893
Si Si8 0.355021 0.566744 0.583417
O O1 0.750000 0.551816 0.540630
O O2 0.878926 0.750000 0.527012
O O3 0.915414 0.494482 0.575853
O O4 0.876566 0.492750 0.474533
O O5 0.250000 0.019241 0.284947
O O6 0.140052 0.250000 0.284393
O O7 0.082919 0.991934 0.323433
O O8 0.106518 0.016563 0.223473
O O9 0.250000 0.008574 0.823018
O O10 0.348684 0.250000 0.837914
O O11 0.447024 0.013316 0.825304
O O12 0.345555 0.030422 0.906154
O O13 0.640331 0.250000 0.058634
O O14 0.510126 0.456975 0.051658
O O15 0.641655 0.459315 0.987573
O O16 0.469778 0.750000 0.374664
O O17 0.571613 0.504900 0.378161
O O18 0.549821 0.250000 0.942033
O O19 0.600031 0.042104 0.878616
O O20 0.053738 0.750000 0.187124
O O21 0.250000 0.523119 0.594610
O O22 0.361880 0.750000 0.584092
#
# Coordination Sequence:
#
# PCOD9451047 Si02
#       8
#     8   8   8   8   8   8   8   8
#     4  10  20  35  57  87 124 162 199 240 283 328
#     4  11  25  44  63  83 108 138 178 232 289 340
#     4   9  18  33  52  76 110 148 181 216 264 324
#     4   9  15  24  43  72 103 136 176 219 260 308
#     4  12  24  38  60  87 116 152 193 236 283 336
#     4   8  15  28  46  70 102 138 173 212 264 323
#     4   9  18  35  58  80 103 138 183 227 275 330
#     4  10  21  38  60  87 122 161 197 233 275 327
#
# _framework density 19.392204
#
# number of rings (size 3 to 8) (size 9 to 14) (size 15 to 20)
#    0.000    2.250    0.000    4.125    0.000    6.750 
#    0.000    1.250    0.000    6.000    0.000    0.000 
#    0.000    0.000    0.000    0.000    0.000    0.000 
#
# Total GULP energy -356946.100248 kJ/mol
# GULP energy per Si atom -5577.282816 kJ/mol
# Density = 1.934807 g / cm^3
# Si number density = 19.392204 Si / 1000 Ang^3
#
#
#
# Elastic Constant Matrix: (Units=GPa)
#
#
# Indices 1 2 3 4 5 6 
#
# 1 78.0917 37.3161 65.2223 0.0000 0.0000 0.0000
# 2 37.3161 51.3436 34.9249 0.0000 0.0000 0.0000
# 3 65.2223 34.9249 89.5498 0.0000 0.0000 0.0000
# 4 0.0000 0.0000 0.0000 32.8449 0.0000 0.0000
# 5 0.0000 0.0000 0.0000 0.0000 -10.0292 0.0000
# 6 0.0000 0.0000 0.0000 0.0000 0.0000 18.2715
#
#
#
# Elastic Compliance Matrix: (Units=1/GPa)
#
#
# Indices 1 2 3 4 5 6 
#
# 1 0.037248 -0.011730 -0.022554 0.000000 0.000000 0.000000
# 2 -0.011730 0.030203 -0.003236 0.000000 0.000000 0.000000
# 3 -0.022554 -0.003236 0.028856 0.000000 0.000000 0.000000
# 4 0.000000 0.000000 0.000000 0.030446 0.000000 0.000000
# 5 0.000000 0.000000 0.000000 0.000000 -0.099709 0.000000
# 6 0.000000 0.000000 0.000000 0.000000 0.000000 0.054730
#
#
# Mechanical properties :
#
#
# Convention : Reuss Voigt Hill
#
# Bulk Modulus (GPa) = 47.02176 54.87907 50.95042
# Shear Modulus (GPa) = 30.50585 13.65223 22.07904
#
# Velocity S-wave (km/s) = 3.97053 2.65619 3.37790
# Velocity P-wave (km/s) = 6.73206 6.14558 6.44549
#
# Compressibility (1/GPa) = 0.02126675
#
# Stress axis : x y z
#
# Youngs Moduli (GPa) = 26.84724 33.10933 34.65461
#
# Poissons Ratio (x) = 0.38836 0.78161
# Poissons Ratio (y) = 0.31491 0.11215
# Poissons Ratio (z) = 0.60552 0.10715
#
# Static dielectric constant tensor:
#      x y z
#    x 1.751240 0.000000 0.000000 
#    y 0.000000 1.648600 0.000000 
#    z 0.000000 0.000000 1.665160 
# 
# From -- ./inp_files/32167.got.cif
#   From: 2010.05.17/outbox.cif.g08.bks.cpg/sg59_17_cif.got.tgz:32167.got - 2010.06.03 14:40:33.
