data_PCOD9451218
_publ_section_title
;
Structure prediction by ZEFSAII (Michael W. Deem and Ramdas Pophale) SiO2 
 PCOD9451218
Probable space group: P M M N
;
_chemical_formula_sum "Si O2"
_cell_formula_units_Z 48
_cell_length_a 7.596093
_cell_length_b 29.924401
_cell_length_c 10.169751
_cell_angle_alpha 90.000000
_cell_angle_beta 90.000000
_cell_angle_gamma 90.000000
_cell_volume 2311.671180
_symmetry_space_group_name_H-M "P M M N"
_symmetry_group_IT_number 59
_space_group.IT_coordinate_system_code '2'
_symmetry_cell_setting 'orthorhombic'
loop_
_space_group_symop_operation_xyz
x,y,z
1/2-x,1/2-y,z
1/2+x,-y,-z
-x,1/2+y,-z
-x,-y,-z
1/2+x,1/2+y,-z
1/2-x,y,z
x,1/2-y,z
loop_
_atom_site_type_symbol
_atom_site_label
_atom_site_fract_x
_atom_site_fract_y
_atom_site_fract_z
Si Si1 0.039095 0.535168 0.613944
Si Si2 0.955096 0.125238 0.513984
Si Si3 0.465217 0.301403 0.004579
Si Si4 0.544638 0.620915 0.186508
Si Si5 0.961651 0.979450 0.141123
Si Si6 0.037468 0.198849 0.303115
O O1 0.250000 0.540218 0.629430
O O2 0.968820 0.582682 0.564694
O O3 0.969503 0.513284 0.747526
O O4 0.000000 0.500000 0.500000
O O5 0.750000 0.116300 0.539436
O O6 0.035216 0.130770 0.658253
O O7 0.972113 0.167047 0.417714
O O8 0.250000 0.300426 0.001413
O O9 0.521259 0.250000 0.978451
O O10 0.528712 0.338387 0.900914
O O11 0.516768 0.313781 0.154288
O O12 0.750000 0.618318 0.149237
O O13 0.469956 0.571249 0.159622
O O14 0.750000 0.977060 0.158508
O O15 0.000000 0.000000 0.000000
O O16 0.250000 0.197541 0.305586
O O17 0.982411 0.250000 0.324355
#
# Coordination Sequence:
#
# PCOD9451218 Si02
#       6
#     8   8   8   8   8   8
#     4  10  21  38  56  77 109 148 186 223 269 323
#     4  11  23  36  54  82 113 147 182 224 275 325
#     4   8  16  33  57  83 107 133 174 226 272 316
#     4  10  20  36  57  81 109 144 185 227 271 326
#     4  10  22  37  54  80 110 142 183 228 274 328
#     4   9  19  37  60  83 107 140 182 224 269 326
#
# _framework density 20.764199000000001
#
# number of rings (size 3 to 8) (size 9 to 14) (size 15 to 20)
#    0.000    2.333    1.667    1.500    2.333    3.000 
#    0.000    2.500    0.000    1.000    0.000    0.000 
#    0.000    0.000    0.000    0.000    0.000    0.000 
#
# Total GULP energy -267923.966825 kJ/mol
# GULP energy per Si atom -5581.749309 kJ/mol
# Density = 2.071694 g / cm^3
# Si number density = 20.764199 Si / 1000 Ang^3
#
#
#
# Elastic Constant Matrix: (Units=GPa)
#
#
# Indices 1 2 3 4 5 6 
#
# 1 38.5154 -6.9429 -17.8420 0.0000 0.0000 0.0000
# 2 -6.9429 129.6110 96.3672 0.0000 0.0000 0.0000
# 3 -17.8420 96.3672 166.5954 0.0000 0.0000 0.0000
# 4 0.0000 0.0000 0.0000 44.9886 0.0000 0.0000
# 5 0.0000 0.0000 0.0000 0.0000 13.4053 0.0000
# 6 0.0000 0.0000 0.0000 0.0000 0.0000 8.4086
#
#
#
# Elastic Compliance Matrix: (Units=1/GPa)
#
#
# Indices 1 2 3 4 5 6 
#
# 1 0.027435 -0.001255 0.003664 0.000000 0.000000 0.000000
# 2 -0.001255 0.013595 -0.007998 0.000000 0.000000 0.000000
# 3 0.003664 -0.007998 0.011022 0.000000 0.000000 0.000000
# 4 0.000000 0.000000 0.000000 0.022228 0.000000 0.000000
# 5 0.000000 0.000000 0.000000 0.000000 0.074597 0.000000
# 6 0.000000 0.000000 0.000000 0.000000 0.000000 0.118925
#
#
# Mechanical properties :
#
#
# Convention : Reuss Voigt Hill
#
# Bulk Modulus (GPa) = 24.46581 53.09849 38.78215
# Shear Modulus (GPa) = 17.08791 30.90314 23.99552
#
# Velocity S-wave (km/s) = 2.87182 3.86202 3.40313
# Velocity P-wave (km/s) = 4.77543 6.74645 5.84463
#
# Compressibility (1/GPa) = 0.04087337
#
# Stress axis : x y z
#
# Youngs Moduli (GPa) = 36.45007 73.55563 90.73022
#
# Poissons Ratio (x) = 0.09228 -0.33243
# Poissons Ratio (y) = 0.04573 0.72570
# Poissons Ratio (z) = -0.13355 0.58833
#
# Static dielectric constant tensor:
#      x y z
#    x 1.777990 0.000000 0.000000 
#    y 0.000000 1.731250 0.000000 
#    z 0.000000 0.000000 1.705150 
# 
# From -- ./inp_files/6205.got.cif
#   From: 2010.05.17/outbox.cif.g08.bks.cpg/sg59_4_cif.got.tgz:6205.got - 2010.06.03 14:40:33.
