data_PCOD9451237
_publ_section_title
;
Structure prediction by ZEFSAII (Michael W. Deem and Ramdas Pophale) SiO2 
 PCOD9451237
Probable space group: P M M N
;
_chemical_formula_sum "Si O2"
_cell_formula_units_Z 48
_cell_length_a 8.308217
_cell_length_b 31.860376
_cell_length_c 9.679645
_cell_angle_alpha 90.000000
_cell_angle_beta 90.000000
_cell_angle_gamma 90.000000
_cell_volume 2562.230272
_symmetry_space_group_name_H-M "P M M N"
_symmetry_group_IT_number 59
_space_group.IT_coordinate_system_code '2'
_symmetry_cell_setting 'orthorhombic'
loop_
_space_group_symop_operation_xyz
x,y,z
1/2-x,1/2-y,z
1/2+x,-y,-z
-x,1/2+y,-z
-x,-y,-z
1/2+x,1/2+y,-z
1/2-x,y,z
x,1/2-y,z
loop_
_atom_site_type_symbol
_atom_site_label
_atom_site_fract_x
_atom_site_fract_y
_atom_site_fract_z
Si Si1 0.941470 0.118559 0.809246
Si Si2 0.058349 0.750000 0.842108
Si Si3 0.941110 0.846443 0.470567
Si Si4 0.433023 0.335257 0.046266
Si Si5 0.945980 0.750000 0.527601
Si Si6 0.933603 0.394910 0.261027
Si Si7 0.555838 0.046948 0.027124
O O1 0.750000 0.122104 0.824399
O O2 0.983803 0.124923 0.649982
O O3 0.993149 0.077296 0.898179
O O4 0.032365 0.156077 0.887504
O O5 0.250000 0.750000 0.865392
O O6 0.971232 0.710944 0.909753
O O7 0.021534 0.750000 0.679856
O O8 0.750000 0.846014 0.453808
O O9 0.992766 0.796648 0.467967
O O10 0.981176 0.870247 0.614589
O O11 0.250000 0.347201 0.081693
O O12 0.558235 0.362694 0.133406
O O13 0.750000 0.750000 0.535596
O O14 0.750000 0.403161 0.303949
O O15 0.001707 0.435464 0.177714
O O16 0.750000 0.048239 0.032928
O O17 0.500000 0.000000 0.000000
#
# Coordination Sequence:
#
# PCOD9451237 Si02
#       7
#     8   4   8   8   4   8   8
#     4  10  22  40  58  82 117 152 189 236 291 349
#     4  12  22  33  54  81 110 148 196 240 286 337
#     4  11  22  37  58  85 118 158 198 240 288 340
#     4  11  21  35  55  80 110 146 191 240 284 332
#     4  10  22  37  54  81 118 152 196 244 284 327
#     4  10  20  36  57  84 115 150 190 234 285 344
#     4   9  20  38  62  88 114 145 187 241 294 350
#
# _framework density 18.73368
#
# number of rings (size 3 to 8) (size 9 to 14) (size 15 to 20)
#    0.000    1.667    1.667    4.750    0.000    5.333 
#    0.000    3.333    0.000    0.000    0.000    0.000 
#    0.000    0.000    0.000    0.000    0.000    0.000 
#
# Total GULP energy -267292.533739 kJ/mol
# GULP energy per Si atom -5568.594453 kJ/mol
# Density = 1.869104 g / cm^3
# Si number density = 18.733680 Si / 1000 Ang^3
#
#
#
# Elastic Constant Matrix: (Units=GPa)
#
#
# Indices 1 2 3 4 5 6 
#
# 1 51.3963 16.5830 14.8273 0.0000 0.0000 0.0000
# 2 16.5830 103.6786 37.6149 0.0000 0.0000 0.0000
# 3 14.8273 37.6149 90.6982 0.0000 0.0000 0.0000
# 4 0.0000 0.0000 0.0000 7.3999 0.0000 0.0000
# 5 0.0000 0.0000 0.0000 0.0000 19.7311 0.0000
# 6 0.0000 0.0000 0.0000 0.0000 0.0000 22.1563
#
#
#
# Elastic Compliance Matrix: (Units=1/GPa)
#
#
# Indices 1 2 3 4 5 6 
#
# 1 0.020948 -0.002482 -0.002395 0.000000 0.000000 0.000000
# 2 -0.002482 0.011647 -0.004425 0.000000 0.000000 0.000000
# 3 -0.002395 -0.004425 0.013252 0.000000 0.000000 0.000000
# 4 0.000000 0.000000 0.000000 0.135137 0.000000 0.000000
# 5 0.000000 0.000000 0.000000 0.000000 0.050681 0.000000
# 6 0.000000 0.000000 0.000000 0.000000 0.000000 0.045134
#
#
# Mechanical properties :
#
#
# Convention : Reuss Voigt Hill
#
# Bulk Modulus (GPa) = 36.70471 42.64705 39.67588
# Shear Modulus (GPa) = 16.42114 21.64066 19.03090
#
# Velocity S-wave (km/s) = 2.96388 3.40247 3.19072
# Velocity P-wave (km/s) = 5.59895 6.18467 5.89908
#
# Compressibility (1/GPa) = 0.02724446
#
# Stress axis : x y z
#
# Youngs Moduli (GPa) = 47.73640 85.85576 75.45877
#
# Poissons Ratio (x) = 0.21305 0.18076
# Poissons Ratio (y) = 0.11846 0.33389
# Poissons Ratio (z) = 0.11435 0.37990
#
# Static dielectric constant tensor:
#      x y z
#    x 1.653130 0.000000 0.000000 
#    y 0.000000 1.903940 0.000000 
#    z 0.000000 0.000000 1.643800 
# 
# From -- ./inp_files/6397.got.cif
#   From: 2010.05.17/outbox.cif.g08.bks.cpg/sg59_4_cif.got.tgz:6397.got - 2010.06.03 14:40:33.
