data_PCOD9451093
_publ_section_title
;
Structure prediction by ZEFSAII (Michael W. Deem and Ramdas Pophale) SiO2 
 PCOD9451093
Probable space group: P M M N
;
_chemical_formula_sum "Si O2"
_cell_formula_units_Z 64
_cell_length_a 14.849284
_cell_length_b 8.556633
_cell_length_c 25.019699
_cell_angle_alpha 90.000000
_cell_angle_beta 90.000000
_cell_angle_gamma 90.000000
_cell_volume 3178.999790
_symmetry_space_group_name_H-M "P M M N"
_symmetry_group_IT_number 59
_space_group.IT_coordinate_system_code '2'
_symmetry_cell_setting 'orthorhombic'
loop_
_space_group_symop_operation_xyz
x,y,z
1/2-x,1/2-y,z
1/2+x,-y,-z
-x,1/2+y,-z
-x,-y,-z
1/2+x,1/2+y,-z
1/2-x,y,z
x,1/2-y,z
loop_
_atom_site_type_symbol
_atom_site_label
_atom_site_fract_x
_atom_site_fract_y
_atom_site_fract_z
Si Si1 0.650879 0.933477 0.754334
Si Si2 0.646574 0.438407 0.151219
Si Si3 0.142634 0.433592 0.536498
Si Si4 0.650861 0.431429 0.870309
Si Si5 0.545330 0.566937 0.255764
Si Si6 0.963829 0.065201 0.365015
Si Si7 0.509522 0.062056 0.059914
Si Si8 0.648080 0.559463 0.585875
O O1 0.750000 0.986306 0.734179
O O2 0.642298 0.750000 0.741369
O O3 0.652890 0.961485 0.817986
O O4 0.559775 0.020501 0.739586
O O5 0.750000 0.494492 0.153393
O O6 0.647817 0.250000 0.151507
O O7 0.590822 0.489746 0.203756
O O8 0.595423 0.486304 0.096507
O O9 0.250000 0.445208 0.544676
O O10 0.117911 0.250000 0.540695
O O11 0.090396 0.528439 0.581183
O O12 0.125991 0.485449 0.475388
O O13 0.750000 0.437006 0.895554
O O14 0.634271 0.250000 0.854411
O O15 0.575153 0.493135 0.908706
O O16 0.555145 0.750000 0.249545
O O17 0.581651 0.512275 0.313325
O O18 0.967205 0.250000 0.355491
O O19 0.066456 0.008981 0.376535
O O20 0.507519 0.250000 0.059113
O O21 0.500000 0.000000 0.000000
O O22 0.750000 0.507590 0.598899
O O23 0.649718 0.750000 0.586732
#
# Coordination Sequence:
#
# PCOD9451093 Si02
#       8
#     8   8   8   8   8   8   8   8
#     4  10  20  36  60  87 115 150 191 235 289 353
#     4  10  23  45  69  90 117 158 206 253 302 355
#     4   9  18  35  58  82 112 150 193 243 299 357
#     4  10  20  35  58  88 121 155 191 235 288 345
#     4  12  25  40  60  86 120 159 202 251 303 358
#     4  11  22  35  56  85 117 153 197 247 298 354
#     4  11  23  39  63  93 127 162 198 246 301 355
#     4   8  16  33  57  84 114 151 193 238 294 359
#
# _framework density 20.132118999999999
#
# number of rings (size 3 to 8) (size 9 to 14) (size 15 to 20)
#    0.000    1.875    1.250    3.750    0.000    4.000 
#    0.000    3.125    0.000    2.625    0.000    0.000 
#    0.000    0.000    0.000    0.000    0.000    0.000 
#
# Total GULP energy -357240.584809 kJ/mol
# GULP energy per Si atom -5581.884138 kJ/mol
# Density = 2.008630 g / cm^3
# Si number density = 20.132119 Si / 1000 Ang^3
#
#
#
# Elastic Constant Matrix: (Units=GPa)
#
#
# Indices 1 2 3 4 5 6 
#
# 1 86.3839 21.4963 58.8446 0.0000 0.0000 0.0000
# 2 21.4963 33.1367 13.6973 0.0000 0.0000 0.0000
# 3 58.8446 13.6973 125.3844 0.0000 0.0000 0.0000
# 4 0.0000 0.0000 0.0000 25.1624 0.0000 0.0000
# 5 0.0000 0.0000 0.0000 0.0000 1.3016 0.0000
# 6 0.0000 0.0000 0.0000 0.0000 0.0000 22.5090
#
#
#
# Elastic Compliance Matrix: (Units=1/GPa)
#
#
# Indices 1 2 3 4 5 6 
#
# 1 0.019383 -0.009231 -0.008088 0.000000 0.000000 0.000000
# 2 -0.009231 0.036001 0.000399 0.000000 0.000000 0.000000
# 3 -0.008088 0.000399 0.011728 0.000000 0.000000 0.000000
# 4 0.000000 0.000000 0.000000 0.039742 0.000000 0.000000
# 5 0.000000 0.000000 0.000000 0.000000 0.768293 0.000000
# 6 0.000000 0.000000 0.000000 0.000000 0.000000 0.044427
#
#
# Mechanical properties :
#
#
# Convention : Reuss Voigt Hill
#
# Bulk Modulus (GPa) = 30.05498 48.10904 39.08201
# Shear Modulus (GPa) = 5.18401 19.85238 12.51820
#
# Velocity S-wave (km/s) = 1.60642 3.14364 2.49630
# Velocity P-wave (km/s) = 4.28976 6.09304 5.26912
#
# Compressibility (1/GPa) = 0.03327236
#
# Stress axis : x y z
#
# Youngs Moduli (GPa) = 51.59156 27.77694 85.26733
#
# Poissons Ratio (x) = 0.25640 0.68967
# Poissons Ratio (y) = 0.47623 -0.03404
# Poissons Ratio (z) = 0.41729 -0.01109
#
# Static dielectric constant tensor:
#      x y z
#    x 1.734790 0.000000 0.000000 
#    y 0.000000 1.683670 0.000000 
#    z 0.000000 0.000000 1.694030 
# 
# From -- ./inp_files/32156.got.cif
#   From: 2010.05.17/outbox.cif.g08.bks.cpg/sg59_17_cif.got.tgz:32156.got - 2010.06.03 14:40:33.
