data_PCOD9451434
_publ_section_title
;
Structure prediction by ZEFSAII (Michael W. Deem and Ramdas Pophale) SiO2 
 PCOD9451434
Probable space group: P M M N
;
_chemical_formula_sum "Si O2"
_cell_formula_units_Z 48
_cell_length_a 35.761707
_cell_length_b 8.003591
_cell_length_c 7.932191
_cell_angle_alpha 90.000000
_cell_angle_beta 90.000000
_cell_angle_gamma 90.000000
_cell_volume 2270.368178
_symmetry_space_group_name_H-M "P M M N"
_symmetry_group_IT_number 59
_space_group.IT_coordinate_system_code '2'
_symmetry_cell_setting 'orthorhombic'
loop_
_space_group_symop_operation_xyz
x,y,z
1/2-x,1/2-y,z
1/2+x,-y,-z
-x,1/2+y,-z
-x,-y,-z
1/2+x,1/2+y,-z
1/2-x,y,z
x,1/2-y,z
loop_
_atom_site_type_symbol
_atom_site_label
_atom_site_fract_x
_atom_site_fract_y
_atom_site_fract_z
Si Si1 0.925478 0.937987 0.350157
Si Si2 0.650881 0.047753 0.264716
Si Si3 0.500940 0.441201 0.189993
Si Si4 0.292656 0.545688 0.030803
Si Si5 0.921699 0.063022 0.704910
Si Si6 0.340750 0.953942 0.344258
O O1 0.919676 0.750000 0.413850
O O2 0.890997 0.980863 0.227898
O O3 0.967132 0.952644 0.280672
O O4 0.921621 0.066449 0.502390
O O5 0.649880 0.250000 0.262694
O O6 0.680382 0.993119 0.122958
O O7 0.661202 0.994532 0.458416
O O8 0.512543 0.250000 0.206104
O O9 0.458743 0.462865 0.252567
O O10 0.500000 0.500000 0.000000
O O11 0.250000 0.491086 0.006975
O O12 0.292905 0.750000 0.029892
O O13 0.308749 0.494208 0.213763
O O14 0.925395 0.250000 0.776382
O O15 0.880438 0.993922 0.739443
O O16 0.341606 0.750000 0.347308
#
# Coordination Sequence:
#
# PCOD9451434 Si02
#       6
#     8   8   8   8   8   8
#     4  11  22  38  58  81 109 148 193 239 289 344
#     4   9  18  33  54  80 111 148 188 235 288 344
#     4  12  25  39  55  82 116 151 191 238 285 340
#     4   9  17  29  50  82 114 144 181 231 291 349
#     4  10  20  37  58  81 110 150 194 238 288 342
#     4   8  16  30  49  76 109 145 184 229 281 336
#
# _framework density 21.141945
#
# number of rings (size 3 to 8) (size 9 to 14) (size 15 to 20)
#    0.000    2.167    0.000    5.000    2.333    0.667 
#    0.000    3.333    0.000    0.500    0.000    0.000 
#    0.000    0.000    0.000    0.000    0.000    0.000 
#
# Total GULP energy -267731.084987 kJ/mol
# GULP energy per Si atom -5577.730937 kJ/mol
# Density = 2.109383 g / cm^3
# Si number density = 21.141945 Si / 1000 Ang^3
#
#
#
# Elastic Constant Matrix: (Units=GPa)
#
#
# Indices 1 2 3 4 5 6 
#
# 1 69.4719 3.7322 -2.0266 0.0000 0.0000 0.0000
# 2 3.7322 53.1568 -1.6974 0.0000 0.0000 0.0000
# 3 -2.0266 -1.6974 27.7263 0.0000 0.0000 0.0000
# 4 0.0000 0.0000 0.0000 10.7730 0.0000 0.0000
# 5 0.0000 0.0000 0.0000 0.0000 40.3010 0.0000
# 6 0.0000 0.0000 0.0000 0.0000 0.0000 16.4308
#
#
#
# Elastic Compliance Matrix: (Units=1/GPa)
#
#
# Indices 1 2 3 4 5 6 
#
# 1 0.014476 -0.000985 0.000998 0.000000 0.000000 0.000000
# 2 -0.000985 0.018916 0.001086 0.000000 0.000000 0.000000
# 3 0.000998 0.001086 0.036206 0.000000 0.000000 0.000000
# 4 0.000000 0.000000 0.000000 0.092825 0.000000 0.000000
# 5 0.000000 0.000000 0.000000 0.000000 0.024813 0.000000
# 6 0.000000 0.000000 0.000000 0.000000 0.000000 0.060861
#
#
# Mechanical properties :
#
#
# Convention : Reuss Voigt Hill
#
# Bulk Modulus (GPa) = 13.92810 16.70795 15.31803
# Shear Modulus (GPa) = 18.53008 23.52407 21.02708
#
# Velocity S-wave (km/s) = 2.96372 3.33929 3.15710
# Velocity P-wave (km/s) = 4.27945 4.77365 4.53329
#
# Compressibility (1/GPa) = 0.07179728
#
# Stress axis : x y z
#
# Youngs Moduli (GPa) = 69.07841 52.86512 27.61958
#
# Poissons Ratio (x) = 0.05205 -0.02756
# Poissons Ratio (y) = 0.06801 -0.03000
# Poissons Ratio (z) = -0.06893 -0.05741
#
# Static dielectric constant tensor:
#      x y z
#    x 1.903330 0.000000 0.000000 
#    y 0.000000 1.762060 0.000000 
#    z 0.000000 0.000000 1.759800 
# 
# From -- ./inp_files/12946.got.cif
#   From: 2010.05.17/outbox.cif.g08.bks.cpg/sg59_7_cif.got.tgz:12946.got - 2010.06.03 14:40:33.
