data_PCOD9451608
_publ_section_title
;
Structure prediction by ZEFSAII (Michael W. Deem and Ramdas Pophale) SiO2 
 PCOD9451608
Probable space group: P M M N
;
_chemical_formula_sum "Si O2"
_cell_formula_units_Z 48
_cell_length_a 16.874790
_cell_length_b 7.801597
_cell_length_c 15.694131
_cell_angle_alpha 90.000000
_cell_angle_beta 90.000000
_cell_angle_gamma 90.000000
_cell_volume 2066.137228
_symmetry_space_group_name_H-M "P M M N"
_symmetry_group_IT_number 59
_space_group.IT_coordinate_system_code '2'
_symmetry_cell_setting 'orthorhombic'
loop_
_space_group_symop_operation_xyz
x,y,z
1/2-x,1/2-y,z
1/2+x,-y,-z
-x,1/2+y,-z
-x,-y,-z
1/2+x,1/2+y,-z
1/2-x,y,z
x,1/2-y,z
loop_
_atom_site_type_symbol
_atom_site_label
_atom_site_fract_x
_atom_site_fract_y
_atom_site_fract_z
Si Si1 0.618920 0.952710 0.139373
Si Si2 0.161821 0.049216 0.211402
Si Si3 0.577512 0.456784 0.445815
Si Si4 0.750000 0.445171 0.465977
Si Si5 0.998803 0.542923 0.726500
Si Si6 0.414018 0.555590 0.037117
Si Si7 0.250000 0.457497 0.726337
O O1 0.626466 0.750000 0.125568
O O2 0.676943 0.005765 0.214529
O O3 0.534667 0.993174 0.182124
O O4 0.635829 0.040492 0.050080
O O5 0.250000 0.973149 0.217609
O O6 0.168025 0.250000 0.232467
O O7 0.091904 0.978866 0.272080
O O8 0.128532 0.039697 0.114583
O O9 0.500000 0.500000 0.500000
O O10 0.585891 0.250000 0.441662
O O11 0.662057 0.522844 0.482695
O O12 0.553468 0.521211 0.351074
O O13 0.750000 0.250000 0.499262
O O14 0.750000 0.448452 0.362859
O O15 0.998277 0.750000 0.721519
O O16 0.420834 0.750000 0.065363
O O17 0.500000 0.500000 0.000000
O O18 0.250000 0.250000 0.712074
#
# Coordination Sequence:
#
# PCOD9451608 Si02
#       7
#     8   8   8   4   8   8   4
#     4  11  22  36  56  86 119 155 195 244 304 360
#     4  10  22  40  60  83 117 159 204 254 304 356
#     4  10  22  40  63  93 126 160 201 247 304 367
#     4  10  20  38  64  92 123 160 201 250 307 365
#     4  10  20  38  63  87 113 154 200 246 301 363
#     4  12  24  38  57  83 114 154 203 252 302 356
#     4  10  22  36  56  88 121 152 193 242 299 359
#
# _framework density 23.231757999999999
#
# number of rings (size 3 to 8) (size 9 to 14) (size 15 to 20)
#    0.000    1.500    3.333    2.000    1.167    2.333 
#    1.500    0.000    0.000    0.000    0.000    0.000 
#    0.000    0.000    0.000    0.000    0.000    0.000 
#
# Total GULP energy -267881.857820 kJ/mol
# GULP energy per Si atom -5580.872038 kJ/mol
# Density = 2.317888 g / cm^3
# Si number density = 23.231758 Si / 1000 Ang^3
#
#
#
# Elastic Constant Matrix: (Units=GPa)
#
#
# Indices 1 2 3 4 5 6 
#
# 1 172.2862 0.1390 14.0356 0.0000 0.0000 0.0000
# 2 0.1390 37.7900 -13.9901 0.0000 0.0000 0.0000
# 3 14.0356 -13.9901 39.0437 0.0000 0.0000 0.0000
# 4 0.0000 0.0000 0.0000 19.5484 0.0000 0.0000
# 5 0.0000 0.0000 0.0000 0.0000 25.8669 0.0000
# 6 0.0000 0.0000 0.0000 0.0000 0.0000 16.5691
#
#
#
# Elastic Compliance Matrix: (Units=1/GPa)
#
#
# Indices 1 2 3 4 5 6 
#
# 1 0.006009 -0.000947 -0.002500 0.000000 0.000000 0.000000
# 2 -0.000947 0.030659 0.011326 0.000000 0.000000 0.000000
# 3 -0.002500 0.011326 0.030569 0.000000 0.000000 0.000000
# 4 0.000000 0.000000 0.000000 0.051155 0.000000 0.000000
# 5 0.000000 0.000000 0.000000 0.000000 0.038659 0.000000
# 6 0.000000 0.000000 0.000000 0.000000 0.000000 0.060353
#
#
# Mechanical properties :
#
#
# Convention : Reuss Voigt Hill
#
# Bulk Modulus (GPa) = 12.04892 27.72097 19.88495
# Shear Modulus (GPa) = 21.80446 28.99258 25.39852
#
# Velocity S-wave (km/s) = 3.06692 3.53650 3.31005
# Velocity P-wave (km/s) = 4.21177 5.35108 4.81524
#
# Compressibility (1/GPa) = 0.08299497
#
# Stress axis : x y z
#
# Youngs Moduli (GPa) = 166.42569 32.61730 32.71260
#
# Poissons Ratio (x) = 0.03090 0.08177
# Poissons Ratio (y) = 0.15768 -0.37051
# Poissons Ratio (z) = 0.41598 -0.36943
#
# Static dielectric constant tensor:
#      x y z
#    x 2.029270 0.000000 0.000000 
#    y 0.000000 1.826090 0.000000 
#    z 0.000000 0.000000 1.896230 
# 
# From -- ./inp_files/27437.got.cif
#   From: 2010.05.17/outbox.cif.g08.bks.cpg/sg59_14_cif.got.tgz:27437.got - 2010.06.03 14:40:33.
