data_PCOD9451939
_publ_section_title
;
Structure prediction by ZEFSAII (Michael W. Deem and Ramdas Pophale) SiO2 
 PCOD9451939
Probable space group: P M M N
;
_chemical_formula_sum "Si O2"
_cell_formula_units_Z 64
_cell_length_a 8.951619
_cell_length_b 22.661910
_cell_length_c 15.685396
_cell_angle_alpha 90.000000
_cell_angle_beta 90.000000
_cell_angle_gamma 90.000000
_cell_volume 3181.951732
_symmetry_space_group_name_H-M "P M M N"
_symmetry_group_IT_number 59
_space_group.IT_coordinate_system_code '2'
_symmetry_cell_setting 'orthorhombic'
loop_
_space_group_symop_operation_xyz
x,y,z
1/2-x,1/2-y,z
1/2+x,-y,-z
-x,1/2+y,-z
-x,-y,-z
1/2+x,1/2+y,-z
1/2-x,y,z
x,1/2-y,z
loop_
_atom_site_type_symbol
_atom_site_label
_atom_site_fract_x
_atom_site_fract_y
_atom_site_fract_z
Si Si1 0.570812 0.317781 0.534638
Si Si2 0.427314 0.607126 0.630125
Si Si3 0.580571 0.678700 0.774376
Si Si4 0.572336 0.629423 0.298251
Si Si5 0.421224 0.647293 0.126574
Si Si6 0.918966 0.319694 0.057849
Si Si7 0.930258 0.000388 0.722477
Si Si8 0.580712 0.007196 0.909609
O O1 0.750000 0.322014 0.547593
O O2 0.537433 0.250000 0.509923
O O3 0.529965 0.363155 0.459519
O O4 0.488024 0.334988 0.621015
O O5 0.250000 0.596402 0.630066
O O6 0.471067 0.653682 0.703317
O O7 0.513643 0.547817 0.655545
O O8 0.750000 0.658069 0.758670
O O9 0.580782 0.750000 0.772041
O O10 0.523911 0.658163 0.867076
O O11 0.750000 0.624713 0.299429
O O12 0.516750 0.658839 0.210150
O O13 0.499231 0.564070 0.298956
O O14 0.250000 0.668115 0.138859
O O15 0.416177 0.576973 0.111254
O O16 0.479059 0.671960 0.037186
O O17 0.750000 0.345577 0.061306
O O18 0.904958 0.250000 0.071969
O O19 0.750000 0.004758 0.723427
O O20 0.979810 0.982196 0.819321
O O21 0.750000 0.985545 0.920484
O O22 0.500000 0.000000 0.000000
#
# Coordination Sequence:
#
# PCOD9451939 Si02
#       8
#     8   8   8   8   8   8   8   8
#     4  10  23  44  68  92 119 156 200 247 304 366
#     4  11  23  39  63  92 120 154 201 253 302 361
#     4  10  21  36  54  80 118 160 198 244 303 361
#     4  11  23  40  63  91 122 157 199 250 304 359
#     4   9  19  36  55  79 113 154 195 241 296 350
#     4   9  18  33  54  80 110 150 200 245 289 349
#     4  10  22  41  61  87 123 164 204 244 301 365
#     4   9  19  33  51  77 111 151 196 241 284 336
#
# _framework density 20.113441999999999
#
# number of rings (size 3 to 8) (size 9 to 14) (size 15 to 20)
#    0.000    2.125    0.000    3.375    1.750    6.500 
#    0.000    1.250    0.000    0.000    0.000    0.000 
#    0.000    0.000    0.000    0.000    0.000    0.000 
#
# Total GULP energy -357310.470938 kJ/mol
# GULP energy per Si atom -5582.976108 kJ/mol
# Density = 2.006766 g / cm^3
# Si number density = 20.113442 Si / 1000 Ang^3
#
#
#
# Elastic Constant Matrix: (Units=GPa)
#
#
# Indices 1 2 3 4 5 6 
#
# 1 34.6068 -1.0571 18.0400 0.0000 0.0000 0.0000
# 2 -1.0571 19.2414 -10.8017 0.0000 0.0000 0.0000
# 3 18.0400 -10.8017 83.1104 0.0000 0.0000 0.0000
# 4 0.0000 0.0000 0.0000 34.5674 0.0000 0.0000
# 5 0.0000 0.0000 0.0000 0.0000 25.0098 0.0000
# 6 0.0000 0.0000 0.0000 0.0000 0.0000 26.5518
#
#
#
# Elastic Compliance Matrix: (Units=1/GPa)
#
#
# Indices 1 2 3 4 5 6 
#
# 1 0.032682 -0.002359 -0.007401 0.000000 0.000000 0.000000
# 2 -0.002359 0.056232 0.007820 0.000000 0.000000 0.000000
# 3 -0.007401 0.007820 0.014655 0.000000 0.000000 0.000000
# 4 0.000000 0.000000 0.000000 0.028929 0.000000 0.000000
# 5 0.000000 0.000000 0.000000 0.000000 0.039984 0.000000
# 6 0.000000 0.000000 0.000000 0.000000 0.000000 0.037662
#
#
# Mechanical properties :
#
#
# Convention : Reuss Voigt Hill
#
# Bulk Modulus (GPa) = 10.03103 16.59120 13.31111
# Shear Modulus (GPa) = 20.22222 25.94429 23.08326
#
# Velocity S-wave (km/s) = 3.17426 3.59541 3.39138
# Velocity P-wave (km/s) = 4.29332 5.05002 4.68697
#
# Compressibility (1/GPa) = 0.09969070
#
# Stress axis : x y z
#
# Youngs Moduli (GPa) = 30.59804 17.78346 68.23620
#
# Poissons Ratio (x) = 0.04195 0.50499
# Poissons Ratio (y) = 0.07218 -0.53364
# Poissons Ratio (z) = 0.22644 -0.13907
#
# Static dielectric constant tensor:
#      x y z
#    x 1.693400 0.000000 0.000000 
#    y 0.000000 1.735180 0.000000 
#    z 0.000000 0.000000 1.709730 
# 
# From -- ./inp_files/21624.got.cif
#   From: 2010.05.17/outbox.cif.g08.bks.cpg/sg59_11_cif.got.tgz:21624.got - 2010.06.03 14:40:33.
