data_PCOD9451380
_publ_section_title
;
Structure prediction by ZEFSAII (Michael W. Deem and Ramdas Pophale) SiO2 
 PCOD9451380
Probable space group: P M M N
;
_chemical_formula_sum "Si O2"
_cell_formula_units_Z 40
_cell_length_a 20.981704
_cell_length_b 17.798266
_cell_length_c 5.294787
_cell_angle_alpha 90.000000
_cell_angle_beta 90.000000
_cell_angle_gamma 90.000000
_cell_volume 1977.274397
_symmetry_space_group_name_H-M "P M M N"
_symmetry_group_IT_number 59
_space_group.IT_coordinate_system_code '2'
_symmetry_cell_setting 'orthorhombic'
loop_
_space_group_symop_operation_xyz
x,y,z
1/2-x,1/2-y,z
1/2+x,-y,-z
-x,1/2+y,-z
-x,-y,-z
1/2+x,1/2+y,-z
1/2-x,y,z
x,1/2-y,z
loop_
_atom_site_type_symbol
_atom_site_label
_atom_site_fract_x
_atom_site_fract_y
_atom_site_fract_z
Si Si1 0.851501 0.417000 0.562040
Si Si2 0.325497 0.091944 0.354107
Si Si3 0.887123 0.839427 0.146808
Si Si4 0.534524 0.163411 0.763101
Si Si5 0.844478 0.164017 0.060391
O O1 0.839817 0.504096 0.601864
O O2 0.827504 0.387087 0.295503
O O3 0.926340 0.393507 0.586036
O O4 0.821960 0.370200 0.794988
O O5 0.250000 0.102967 0.327434
O O6 0.350902 0.135521 0.600065
O O7 0.359838 0.119735 0.099816
O O8 0.880950 0.750000 0.111326
O O9 0.962050 0.856435 0.185605
O O10 0.537880 0.250000 0.665411
O O11 0.578581 0.163100 0.014370
O O12 0.825305 0.250000 0.096843
#
# Coordination Sequence:
#
# PCOD9451380 Si02
#       5
#     8   8   8   8   8
#     4  10  20  36  60  90 125 161 192 242 302 360
#     4  12  27  44  61  85 121 165 208 251 295 345
#     4  11  25  43  66  90 115 153 205 257 307 362
#     4   8  19  36  62  95 125 152 189 243 306 364
#     4   9  17  33  59  91 125 158 187 228 293 363
#
# _framework density 20.229866000000001
#
# number of rings (size 3 to 8) (size 9 to 14) (size 15 to 20)
#    1.200    0.800    0.000    3.600    2.800    4.000 
#    0.000    0.000    0.000    6.600    0.000    0.000 
#    0.000    0.000    0.000    0.000    0.000    0.000 
#
# Total GULP energy -223163.977046 kJ/mol
# GULP energy per Si atom -5579.099426 kJ/mol
# Density = 2.018382 g / cm^3
# Si number density = 20.229866 Si / 1000 Ang^3
#
#
#
# Elastic Constant Matrix: (Units=GPa)
#
#
# Indices 1 2 3 4 5 6 
#
# 1 120.5655 16.1585 -1.2810 0.0000 0.0000 0.0000
# 2 16.1585 33.0586 -17.5816 0.0000 0.0000 0.0000
# 3 -1.2810 -17.5816 63.2558 0.0000 0.0000 0.0000
# 4 0.0000 0.0000 0.0000 37.5065 0.0000 0.0000
# 5 0.0000 0.0000 0.0000 0.0000 20.1585 0.0000
# 6 0.0000 0.0000 0.0000 0.0000 0.0000 53.5123
#
#
#
# Elastic Compliance Matrix: (Units=1/GPa)
#
#
# Indices 1 2 3 4 5 6 
#
# 1 0.008955 -0.005023 -0.001215 0.000000 0.000000 0.000000
# 2 -0.005023 0.038314 0.010547 0.000000 0.000000 0.000000
# 3 -0.001215 0.010547 0.018716 0.000000 0.000000 0.000000
# 4 0.000000 0.000000 0.000000 0.026662 0.000000 0.000000
# 5 0.000000 0.000000 0.000000 0.000000 0.049607 0.000000
# 6 0.000000 0.000000 0.000000 0.000000 0.000000 0.018687
#
#
# Mechanical properties :
#
#
# Convention : Reuss Voigt Hill
#
# Bulk Modulus (GPa) = 13.40417 23.49687 18.45052
# Shear Modulus (GPa) = 28.21849 36.87437 32.54643
#
# Velocity S-wave (km/s) = 3.73888 4.27402 4.01537
# Velocity P-wave (km/s) = 5.02785 5.99971 5.53515
#
# Compressibility (1/GPa) = 0.07460367
#
# Stress axis : x y z
#
# Youngs Moduli (GPa) = 111.67549 26.10026 53.43080
#
# Poissons Ratio (x) = 0.13110 0.06490
# Poissons Ratio (y) = 0.56093 -0.56355
# Poissons Ratio (z) = 0.13566 -0.27529
#
# Static dielectric constant tensor:
#      x y z
#    x 1.760240 0.000000 0.000000 
#    y 0.000000 1.679490 0.000000 
#    z 0.000000 0.000000 1.693220 
# 
# From -- ./inp_files/3257.got.cif
#   From: 2010.05.17/outbox.cif.g08.bks.cpg/sg59_2_cif.got.tgz:3257.got - 2010.06.03 14:40:33.
