data_PCOD9451850
_publ_section_title
;
Structure prediction by ZEFSAII (Michael W. Deem and Ramdas Pophale) SiO2 
 PCOD9451850
Probable space group: P M M N
;
_chemical_formula_sum "Si O2"
_cell_formula_units_Z 48
_cell_length_a 8.814534
_cell_length_b 9.981518
_cell_length_c 31.494324
_cell_angle_alpha 90.000000
_cell_angle_beta 90.000000
_cell_angle_gamma 90.000000
_cell_volume 2770.947150
_symmetry_space_group_name_H-M "P M M N"
_symmetry_group_IT_number 59
_space_group.IT_coordinate_system_code '2'
_symmetry_cell_setting 'orthorhombic'
loop_
_space_group_symop_operation_xyz
x,y,z
1/2-x,1/2-y,z
1/2+x,-y,-z
-x,1/2+y,-z
-x,-y,-z
1/2+x,1/2+y,-z
1/2-x,y,z
x,1/2-y,z
loop_
_atom_site_type_symbol
_atom_site_label
_atom_site_fract_x
_atom_site_fract_y
_atom_site_fract_z
Si Si1 0.068475 0.406562 0.036246
Si Si2 0.931514 0.093507 0.463782
Si Si3 0.565238 0.903668 0.203799
Si Si4 0.931159 0.593968 0.627734
Si Si5 0.067533 0.407693 0.699993
Si Si6 0.932839 0.406198 0.127493
O O1 0.250000 0.416030 0.035952
O O2 0.026520 0.250000 0.029276
O O3 0.005692 0.445118 0.082622
O O4 0.000000 0.500000 0.000000
O O5 0.750000 0.082439 0.463562
O O6 0.971718 0.250000 0.471290
O O7 0.995536 0.056618 0.417451
O O8 0.000000 0.000000 0.500000
O O9 0.750000 0.904684 0.203819
O O10 0.518213 0.750000 0.196016
O O11 0.519690 0.942265 0.251686
O O12 0.515150 0.002243 0.166592
O O13 0.750000 0.584239 0.624347
O O14 0.971059 0.750000 0.636098
O O15 0.990837 0.500019 0.665075
O O16 0.250000 0.422774 0.697343
O O17 0.033710 0.250000 0.693426
O O18 0.750000 0.417637 0.123866
O O19 0.968805 0.250000 0.135443
#
# Coordination Sequence:
#
# PCOD9451850 Si02
#       6
#     8   8   8   8   8   8
#     4  10  21  36  53  74 101 133 168 207 252 301
#     4  10  21  37  57  80 105 135 171 210 254 304
#     4   8  15  29  49  73 100 129 164 206 249 295
#     4  10  21  36  53  75 104 137 173 213 256 301
#     4   9  18  33  53  77 104 135 172 212 253 299
#     4   9  17  30  49  73 100 130 165 205 249 298
#
# _framework density 17.322597999999999
#
# number of rings (size 3 to 8) (size 9 to 14) (size 15 to 20)
#    0.000    2.667    0.000    2.500    0.000    5.333 
#    0.000    4.167    0.000    3.000    0.000    0.000 
#    0.000    0.000    0.000    0.000    0.000    0.000 
#
# Total GULP energy -267744.199055 kJ/mol
# GULP energy per Si atom -5578.004147 kJ/mol
# Density = 1.728317 g / cm^3
# Si number density = 17.322598 Si / 1000 Ang^3
#
#
#
# Elastic Constant Matrix: (Units=GPa)
#
#
# Indices 1 2 3 4 5 6 
#
# 1 29.7357 40.1084 54.4024 0.0000 0.0000 0.0000
# 2 40.1084 88.9039 120.5168 0.0000 0.0000 0.0000
# 3 54.4024 120.5168 203.3104 0.0000 0.0000 0.0000
# 4 0.0000 0.0000 0.0000 43.5927 0.0000 0.0000
# 5 0.0000 0.0000 0.0000 0.0000 30.3339 0.0000
# 6 0.0000 0.0000 0.0000 0.0000 0.0000 24.3780
#
#
#
# Elastic Compliance Matrix: (Units=1/GPa)
#
#
# Indices 1 2 3 4 5 6 
#
# 1 0.085903 -0.038661 -0.000069 0.000000 0.000000 0.000000
# 2 -0.038661 0.074658 -0.033910 0.000000 0.000000 0.000000
# 3 -0.000069 -0.033910 0.025038 0.000000 0.000000 0.000000
# 4 0.000000 0.000000 0.000000 0.022940 0.000000 0.000000
# 5 0.000000 0.000000 0.000000 0.000000 0.032966 0.000000
# 6 0.000000 0.000000 0.000000 0.000000 0.000000 0.041021
#
#
# Mechanical properties :
#
#
# Convention : Reuss Voigt Hill
#
# Bulk Modulus (GPa) = 24.80252 83.55615 54.17933
# Shear Modulus (GPa) = 11.33157 26.78909 19.06033
#
# Velocity S-wave (km/s) = 2.56041 3.93680 3.32070
# Velocity P-wave (km/s) = 4.80521 8.30690 6.78582
#
# Compressibility (1/GPa) = 0.04031849
#
# Stress axis : x y z
#
# Youngs Moduli (GPa) = 11.64102 13.39445 39.93945
#
# Poissons Ratio (x) = 0.51785 0.00275
# Poissons Ratio (y) = 0.45006 1.35435
# Poissons Ratio (z) = 0.00080 0.45421
#
# Static dielectric constant tensor:
#      x y z
#    x 1.583540 0.000000 0.000000 
#    y 0.000000 1.577890 0.000000 
#    z 0.000000 0.000000 1.560320 
# 
# From -- ./inp_files/32901.got.cif
#   From: 2010.05.17/outbox.cif.g08.bks.cpg/sg59_17_cif.got.tgz:32901.got - 2010.06.03 14:40:33.
