data_PCOD9451183
_publ_section_title
;
Structure prediction by ZEFSAII (Michael W. Deem and Ramdas Pophale) SiO2 
 PCOD9451183
Probable space group: P M M N
;
_chemical_formula_sum "Si O2"
_cell_formula_units_Z 48
_cell_length_a 32.139723
_cell_length_b 8.822612
_cell_length_c 9.275474
_cell_angle_alpha 90.000000
_cell_angle_beta 90.000000
_cell_angle_gamma 90.000000
_cell_volume 2630.119142
_symmetry_space_group_name_H-M "P M M N"
_symmetry_group_IT_number 59
_space_group.IT_coordinate_system_code '2'
_symmetry_cell_setting 'orthorhombic'
loop_
_space_group_symop_operation_xyz
x,y,z
1/2-x,1/2-y,z
1/2+x,-y,-z
-x,1/2+y,-z
-x,-y,-z
1/2+x,1/2+y,-z
1/2-x,y,z
x,1/2-y,z
loop_
_atom_site_type_symbol
_atom_site_label
_atom_site_fract_x
_atom_site_fract_y
_atom_site_fract_z
Si Si1 0.419145 0.565724 0.336533
Si Si2 0.663117 0.432827 0.830910
Si Si3 0.501165 0.932491 0.159716
Si Si4 0.250000 0.425669 0.825131
Si Si5 0.250000 0.073910 0.175297
Si Si6 0.579203 0.066164 0.330127
Si Si7 0.336603 0.567927 0.832716
O O1 0.418284 0.750000 0.335014
O O2 0.376474 0.514878 0.260941
O O3 0.459612 0.519742 0.246149
O O4 0.422120 0.519498 0.502776
O O5 0.664826 0.250000 0.826408
O O6 0.707172 0.496307 0.776906
O O7 0.657612 0.477087 0.999236
O O8 0.501965 0.750000 0.153109
O O9 0.541406 0.993463 0.243086
O O10 0.500000 0.000000 0.000000
O O11 0.250000 0.250000 0.786857
O O12 0.292975 0.502055 0.777404
O O13 0.250000 0.439059 0.000201
O O14 0.250000 0.250000 0.213374
O O15 0.575836 0.250000 0.322072
O O16 0.623231 0.022674 0.258851
O O17 0.333678 0.750000 0.829555
#
# Coordination Sequence:
#
# PCOD9451183 Si02
#       7
#     8   8   8   4   4   8   8
#     4   9  19  35  55  78 106 138 174 214 259 310
#     4   9  16  30  51  73  97 132 174 212 251 303
#     4  11  22  37  57  81 107 137 174 217 261 310
#     4   9  17  29  48  73 102 132 170 219 264 303
#     4   9  17  29  46  73 102 128 164 215 264 301
#     4  10  20  36  56  79 107 139 173 214 262 314
#     4   9  17  30  51  75 101 134 174 215 258 308
#
# _framework density 18.250125000000001
#
# number of rings (size 3 to 8) (size 9 to 14) (size 15 to 20)
#    0.000    2.500    0.000    2.500    0.000    5.333 
#    0.000    7.500    0.000    5.000    0.000    0.000 
#    0.000    0.000    0.000    0.000    0.000    0.000 
#
# Total GULP energy -267816.448996 kJ/mol
# GULP energy per Si atom -5579.509354 kJ/mol
# Density = 1.820859 g / cm^3
# Si number density = 18.250125 Si / 1000 Ang^3
#
#
#
# Elastic Constant Matrix: (Units=GPa)
#
#
# Indices 1 2 3 4 5 6 
#
# 1 226.2184 50.8687 109.5403 0.0000 0.0000 0.0000
# 2 50.8687 23.8194 33.1879 0.0000 0.0000 0.0000
# 3 109.5403 33.1879 127.1530 0.0000 0.0000 0.0000
# 4 0.0000 0.0000 0.0000 16.7876 0.0000 0.0000
# 5 0.0000 0.0000 0.0000 0.0000 -9.0062 0.0000
# 6 0.0000 0.0000 0.0000 0.0000 0.0000 29.8565
#
#
#
# Elastic Compliance Matrix: (Units=1/GPa)
#
#
# Indices 1 2 3 4 5 6 
#
# 1 0.010090 -0.014830 -0.004822 0.000000 0.000000 0.000000
# 2 -0.014830 0.087773 -0.010133 0.000000 0.000000 0.000000
# 3 -0.004822 -0.010133 0.014663 0.000000 0.000000 0.000000
# 4 0.000000 0.000000 0.000000 0.059568 0.000000 0.000000
# 5 0.000000 0.000000 0.000000 0.000000 -0.111034 0.000000
# 6 0.000000 0.000000 0.000000 0.000000 0.000000 0.033494
#
#
# Mechanical properties :
#
#
# Convention : Reuss Voigt Hill
#
# Bulk Modulus (GPa) = 18.88369 84.93165 51.90767
# Shear Modulus (GPa) = 29.10763 19.76716 24.43740
#
# Velocity S-wave (km/s) = 3.99799 3.29466 3.66324
# Velocity P-wave (km/s) = 5.62863 7.81739 6.81150
#
# Compressibility (1/GPa) = 0.05295574
#
# Stress axis : x y z
#
# Youngs Moduli (GPa) = 99.10734 11.39301 68.19808
#
# Poissons Ratio (x) = 0.16896 0.32882
# Poissons Ratio (y) = 1.46979 0.69108
# Poissons Ratio (z) = 0.47786 0.11545
#
# Static dielectric constant tensor:
#      x y z
#    x 1.609920 0.000000 0.000000 
#    y 0.000000 1.618650 0.000000 
#    z 0.000000 0.000000 1.611740 
# 
# From -- ./inp_files/13019.got.cif
#   From: 2010.05.17/outbox.cif.g08.bks.cpg/sg59_7_cif.got.tgz:13019.got - 2010.06.03 14:40:33.
