data_PCOD9451810
_publ_section_title
;
Structure prediction by ZEFSAII (Michael W. Deem and Ramdas Pophale) SiO2 
 PCOD9451810
Probable space group: P M M N
;
_chemical_formula_sum "Si O2"
_cell_formula_units_Z 40
_cell_length_a 9.981113
_cell_length_b 7.495267
_cell_length_c 27.724216
_cell_angle_alpha 90.000000
_cell_angle_beta 90.000000
_cell_angle_gamma 90.000000
_cell_volume 2074.079287
_symmetry_space_group_name_H-M "P M M N"
_symmetry_group_IT_number 59
_space_group.IT_coordinate_system_code '2'
_symmetry_cell_setting 'orthorhombic'
loop_
_space_group_symop_operation_xyz
x,y,z
1/2-x,1/2-y,z
1/2+x,-y,-z
-x,1/2+y,-z
-x,-y,-z
1/2+x,1/2+y,-z
1/2-x,y,z
x,1/2-y,z
loop_
_atom_site_type_symbol
_atom_site_label
_atom_site_fract_x
_atom_site_fract_y
_atom_site_fract_z
Si Si1 0.405565 0.963521 0.867020
Si Si2 0.750000 0.034672 0.540546
Si Si3 0.974363 0.543548 0.616917
Si Si4 0.400991 0.750000 0.305764
Si Si5 0.750000 0.032745 0.429872
Si Si6 0.595983 0.963367 0.954527
Si Si7 0.594376 0.750000 0.215184
O O1 0.250000 0.996659 0.882684
O O2 0.418052 0.750000 0.859330
O O3 0.512422 0.021996 0.907408
O O4 0.427703 0.077647 0.818883
O O5 0.750000 0.250000 0.541188
O O6 0.750000 0.972871 0.485363
O O7 0.622616 0.970634 0.570792
O O8 0.981857 0.750000 0.631915
O O9 0.921860 0.419930 0.659516
O O10 0.118343 0.478655 0.598732
O O11 0.250000 0.750000 0.287114
O O12 0.502627 0.750000 0.261743
O O13 0.750000 0.250000 0.431525
O O14 0.750000 0.031682 0.958518
O O15 0.606057 0.750000 0.950860
O O16 0.500000 0.000000 0.000000
O O17 0.750000 0.750000 0.229751
#
# Coordination Sequence:
#
# PCOD9451810 Si02
#       7
#     8   4   8   4   4   8   4
#     4   9  19  39  62  87 123 157 199 258 310 362
#     4  11  19  39  61  88 125 159 198 241 291 365
#     4  11  22  41  60  86 122 159 197 247 300 359
#     4  12  26  44  62  88 122 158 204 256 307 362
#     4   9  22  36  60  92 120 156 202 242 292 361
#     4  10  21  35  55  87 126 169 210 249 302 364
#     4  10  24  42  66  92 114 156 210 258 313 368
#
# _framework density 19.285665000000002
#
# number of rings (size 3 to 8) (size 9 to 14) (size 15 to 20)
#    0.000    1.800    2.000    1.500    2.800    2.800 
#    3.600    0.000    0.000    0.000    0.000    0.000 
#    0.000    0.000    0.000    0.000    0.000    0.000 
#
# Total GULP energy -223426.350038 kJ/mol
# GULP energy per Si atom -5585.658751 kJ/mol
# Density = 1.924177 g / cm^3
# Si number density = 19.285665 Si / 1000 Ang^3
#
#
#
# Elastic Constant Matrix: (Units=GPa)
#
#
# Indices 1 2 3 4 5 6 
#
# 1 135.2342 26.9241 58.3298 0.0000 0.0000 0.0000
# 2 26.9241 83.8749 32.3403 0.0000 0.0000 0.0000
# 3 58.3298 32.3403 99.1106 0.0000 0.0000 0.0000
# 4 0.0000 0.0000 0.0000 3.4071 0.0000 0.0000
# 5 0.0000 0.0000 0.0000 0.0000 41.5937 0.0000
# 6 0.0000 0.0000 0.0000 0.0000 0.0000 27.9151
#
#
#
# Elastic Compliance Matrix: (Units=1/GPa)
#
#
# Indices 1 2 3 4 5 6 
#
# 1 0.009994 -0.001076 -0.005531 0.000000 0.000000 0.000000
# 2 -0.001076 0.013754 -0.003855 0.000000 0.000000 0.000000
# 3 -0.005531 -0.003855 0.014603 0.000000 0.000000 0.000000
# 4 0.000000 0.000000 0.000000 0.293505 0.000000 0.000000
# 5 0.000000 0.000000 0.000000 0.000000 0.024042 0.000000
# 6 0.000000 0.000000 0.000000 0.000000 0.000000 0.035823
#
#
# Mechanical properties :
#
#
# Convention : Reuss Voigt Hill
#
# Bulk Modulus (GPa) = 57.37862 61.48978 59.43420
# Shear Modulus (GPa) = 11.94874 27.95821 19.95348
#
# Velocity S-wave (km/s) = 2.49181 3.81161 3.22005
# Velocity P-wave (km/s) = 6.17214 7.16408 6.68653
#
# Compressibility (1/GPa) = 0.01742809
#
# Stress axis : x y z
#
# Youngs Moduli (GPa) = 100.05603 72.70502 68.47974
#
# Poissons Ratio (x) = 0.07820 0.37877
# Poissons Ratio (y) = 0.10762 0.26399
# Poissons Ratio (z) = 0.55342 0.28028
#
# Static dielectric constant tensor:
#      x y z
#    x 1.554530 0.000000 0.000000 
#    y 0.000000 1.566570 0.000000 
#    z 0.000000 0.000000 1.616430 
# 
# From -- ./inp_files/32457.got.cif
#   From: 2010.05.17/outbox.cif.g08.bks.cpg/sg59_17_cif.got.tgz:32457.got - 2010.06.03 14:40:33.
