data_PCOD9451772
_publ_section_title
;
Structure prediction by ZEFSAII (Michael W. Deem and Ramdas Pophale) SiO2 
 PCOD9451772
Probable space group: P M M N
;
_chemical_formula_sum "Si O2"
_cell_formula_units_Z 48
_cell_length_a 16.469791
_cell_length_b 8.860814
_cell_length_c 18.423655
_cell_angle_alpha 90.000000
_cell_angle_beta 90.000000
_cell_angle_gamma 90.000000
_cell_volume 2688.669996
_symmetry_space_group_name_H-M "P M M N"
_symmetry_group_IT_number 59
_space_group.IT_coordinate_system_code '2'
_symmetry_cell_setting 'orthorhombic'
loop_
_space_group_symop_operation_xyz
x,y,z
1/2-x,1/2-y,z
1/2+x,-y,-z
-x,1/2+y,-z
-x,-y,-z
1/2+x,1/2+y,-z
1/2-x,y,z
x,1/2-y,z
loop_
_atom_site_type_symbol
_atom_site_label
_atom_site_fract_x
_atom_site_fract_y
_atom_site_fract_z
Si Si1 0.560228 0.929354 0.805358
Si Si2 0.915545 0.568231 0.971073
Si Si3 0.989334 0.070558 0.578729
Si Si4 0.250000 0.930130 0.783785
Si Si5 0.250000 0.433239 0.945210
Si Si6 0.657373 0.570463 0.662238
Si Si7 0.087658 0.430755 0.720619
O O1 0.540606 0.750000 0.804907
O O2 0.588516 0.970236 0.885740
O O3 0.629205 0.954540 0.745074
O O4 0.481603 0.019232 0.777817
O O5 0.920311 0.750000 0.977450
O O6 0.833301 0.521352 0.013170
O O7 0.000000 0.500000 0.000000
O O8 0.993145 0.250000 0.573036
O O9 0.054806 0.024340 0.640612
O O10 0.903616 0.018702 0.611290
O O11 0.000000 0.000000 0.500000
O O12 0.250000 0.750000 0.787588
O O13 0.250000 0.998503 0.864875
O O14 0.329470 0.989530 0.742426
O O15 0.250000 0.250000 0.940850
O O16 0.750000 0.526750 0.651602
O O17 0.649000 0.750000 0.648156
O O18 0.097012 0.250000 0.722702
#
# Coordination Sequence:
#
# PCOD9451772 Si02
#       7
#     8   8   8   4   4   8   8
#     4   9  18  33  55  81 110 145 188 233 273 326
#     4  10  21  35  53  78 110 147 189 234 284 334
#     4  10  21  38  60  84 114 147 180 222 271 326
#     4  12  24  38  58  82 109 142 189 240 279 328
#     4  10  22  38  56  80 113 154 191 234 287 342
#     4   9  18  33  56  84 112 146 184 223 270 324
#     4  10  21  38  59  83 110 147 186 226 278 332
#
# _framework density 17.852694
#
# number of rings (size 3 to 8) (size 9 to 14) (size 15 to 20)
#    0.000    2.167    0.000    2.750    1.167    6.333 
#    1.500    0.000    0.000    0.000    0.000    0.000 
#    0.000    0.000    0.000    0.000    0.000    0.000 
#
# Total GULP energy -267923.440921 kJ/mol
# GULP energy per Si atom -5581.738353 kJ/mol
# Density = 1.781206 g / cm^3
# Si number density = 17.852694 Si / 1000 Ang^3
#
#
#
# Elastic Constant Matrix: (Units=GPa)
#
#
# Indices 1 2 3 4 5 6 
#
# 1 151.7193 52.7681 94.9354 0.0000 0.0000 0.0000
# 2 52.7681 42.9199 57.1580 0.0000 0.0000 0.0000
# 3 94.9354 57.1580 158.6920 0.0000 0.0000 0.0000
# 4 0.0000 0.0000 0.0000 24.5169 0.0000 0.0000
# 5 0.0000 0.0000 0.0000 0.0000 10.2154 0.0000
# 6 0.0000 0.0000 0.0000 0.0000 0.0000 29.2316
#
#
#
# Elastic Compliance Matrix: (Units=1/GPa)
#
#
# Indices 1 2 3 4 5 6 
#
# 1 0.012582 -0.010465 -0.003758 0.000000 0.000000 0.000000
# 2 -0.010465 0.053481 -0.013003 0.000000 0.000000 0.000000
# 3 -0.003758 -0.013003 0.013233 0.000000 0.000000 0.000000
# 4 0.000000 0.000000 0.000000 0.040788 0.000000 0.000000
# 5 0.000000 0.000000 0.000000 0.000000 0.097892 0.000000
# 6 0.000000 0.000000 0.000000 0.000000 0.000000 0.034210
#
#
# Mechanical properties :
#
#
# Convention : Reuss Voigt Hill
#
# Bulk Modulus (GPa) = 40.24816 84.78379 62.51597
# Shear Modulus (GPa) = 15.87715 22.69074 19.28394
#
# Velocity S-wave (km/s) = 2.98542 3.56897 3.29016
# Velocity P-wave (km/s) = 5.87173 8.03600 7.03756
#
# Compressibility (1/GPa) = 0.02484586
#
# Stress axis : x y z
#
# Youngs Moduli (GPa) = 79.47736 18.69821 75.56893
#
# Poissons Ratio (x) = 0.19567 0.28398
# Poissons Ratio (y) = 0.83170 0.98259
# Poissons Ratio (z) = 0.29867 0.24312
#
# Static dielectric constant tensor:
#      x y z
#    x 1.589110 0.000000 0.000000 
#    y 0.000000 1.609750 0.000000 
#    z 0.000000 0.000000 1.598940 
# 
# From -- ./inp_files/25580.got.cif
#   From: 2010.05.17/outbox.cif.g08.bks.cpg/sg59_13_cif.got.tgz:25580.got - 2010.06.03 14:40:33.
