data_PCOD9451157
_publ_section_title
;
Structure prediction by ZEFSAII (Michael W. Deem and Ramdas Pophale) SiO2 
 PCOD9451157
Probable space group: P M M N
;
_chemical_formula_sum "Si O2"
_cell_formula_units_Z 56
_cell_length_a 8.837145
_cell_length_b 23.872346
_cell_length_c 15.906635
_cell_angle_alpha 90.000000
_cell_angle_beta 90.000000
_cell_angle_gamma 90.000000
_cell_volume 3355.717533
_symmetry_space_group_name_H-M "P M M N"
_symmetry_group_IT_number 59
_space_group.IT_coordinate_system_code '2'
_symmetry_cell_setting 'orthorhombic'
loop_
_space_group_symop_operation_xyz
x,y,z
1/2-x,1/2-y,z
1/2+x,-y,-z
-x,1/2+y,-z
-x,-y,-z
1/2+x,1/2+y,-z
1/2-x,y,z
x,1/2-y,z
loop_
_atom_site_type_symbol
_atom_site_label
_atom_site_fract_x
_atom_site_fract_y
_atom_site_fract_z
Si Si1 0.932197 0.562191 0.679136
Si Si2 0.931705 0.938733 0.004190
Si Si3 0.931784 0.250000 0.903886
Si Si4 0.931940 0.430375 0.681195
Si Si5 0.932853 0.866055 0.842340
Si Si6 0.431524 0.364519 0.835727
Si Si7 0.568698 0.250000 0.101995
Si Si8 0.930867 0.062108 0.494062
O O1 0.750000 0.562421 0.671784
O O2 0.976088 0.496414 0.690794
O O3 0.976024 0.599851 0.758655
O O4 0.001648 0.585270 0.592360
O O5 0.750000 0.942873 0.002725
O O6 0.976061 0.906698 0.088953
O O7 0.978288 0.902476 0.923520
O O8 0.000000 0.000000 0.000000
O O9 0.750000 0.250000 0.900766
O O10 0.995927 0.194977 0.858555
O O11 0.977979 0.250000 0.002907
O O12 0.750000 0.427833 0.692154
O O13 0.967249 0.411987 0.585204
O O14 0.011057 0.391731 0.749538
O O15 0.750000 0.860768 0.842720
O O16 0.004996 0.805326 0.853430
O O17 0.250000 0.359307 0.835127
O O18 0.750000 0.250000 0.104447
O O19 0.750000 0.058821 0.487678
O O20 0.000000 0.000000 0.500000
#
# Coordination Sequence:
#
# PCOD9451157 Si02
#       8
#     8   8   4   8   8   8   4   8
#     4   9  18  32  53  80 108 141 177 213 260 314
#     4  10  21  34  50  74 105 138 169 205 255 309
#     4  11  23  39  57  74  99 138 179 221 266 310
#     4   9  18  33  52  77 110 142 172 209 262 319
#     4  10  20  36  55  74 104 142 174 213 263 312
#     4  11  22  35  54  78 103 135 177 221 258 303
#     4  11  23  37  55  78  99 132 183 227 260 302
#     4   9  17  30  50  75 107 143 175 213 259 310
#
# _framework density 16.687936000000001
#
# number of rings (size 3 to 8) (size 9 to 14) (size 15 to 20)
#    0.000    2.143    1.429    3.000    0.000    6.857 
#    0.000    0.000    0.000    0.857    0.000    4.000 
#    0.000    0.000    0.000    0.000    0.000    0.000 
#
# Total GULP energy -312383.280827 kJ/mol
# GULP energy per Si atom -5578.272872 kJ/mol
# Density = 1.664995 g / cm^3
# Si number density = 16.687936 Si / 1000 Ang^3
#
#
#
# Elastic Constant Matrix: (Units=GPa)
#
#
# Indices 1 2 3 4 5 6 
#
# 1 22.1766 20.1396 29.1731 0.0000 0.0000 0.0000
# 2 20.1396 83.6467 26.0887 0.0000 0.0000 0.0000
# 3 29.1731 26.0887 112.2734 0.0000 0.0000 0.0000
# 4 0.0000 0.0000 0.0000 3.5818 0.0000 0.0000
# 5 0.0000 0.0000 0.0000 0.0000 27.0209 0.0000
# 6 0.0000 0.0000 0.0000 0.0000 0.0000 29.0262
#
#
#
# Elastic Compliance Matrix: (Units=1/GPa)
#
#
# Indices 1 2 3 4 5 6 
#
# 1 0.081331 -0.014006 -0.017878 0.000000 0.000000 0.000000
# 2 -0.014006 0.015301 0.000084 0.000000 0.000000 0.000000
# 3 -0.017878 0.000084 0.013533 0.000000 0.000000 0.000000
# 4 0.000000 0.000000 0.000000 0.279191 0.000000 0.000000
# 5 0.000000 0.000000 0.000000 0.000000 0.037008 0.000000
# 6 0.000000 0.000000 0.000000 0.000000 0.000000 0.034452
#
#
# Mechanical properties :
#
#
# Convention : Reuss Voigt Hill
#
# Bulk Modulus (GPa) = 21.47593 40.98883 31.23238
# Shear Modulus (GPa) = 9.26031 21.43879 15.34955
#
# Velocity S-wave (km/s) = 2.35821 3.58814 3.03611
# Velocity P-wave (km/s) = 4.50688 6.46387 5.57196
#
# Compressibility (1/GPa) = 0.04656375
#
# Stress axis : x y z
#
# Youngs Moduli (GPa) = 12.29547 65.35475 73.89405
#
# Poissons Ratio (x) = 0.91535 1.32111
# Poissons Ratio (y) = 0.17221 -0.00619
# Poissons Ratio (z) = 0.21982 -0.00548
#
# Static dielectric constant tensor:
#      x y z
#    x 1.561730 0.000000 0.000000 
#    y 0.000000 1.546410 0.000000 
#    z 0.000000 0.000000 1.551220 
# 
# From -- ./inp_files/21167.got.cif
#   From: 2010.05.17/outbox.cif.g08.bks.cpg/sg59_11_cif.got.tgz:21167.got - 2010.06.03 14:40:33.
