data_PCOD9451078
_publ_section_title
;
Structure prediction by ZEFSAII (Michael W. Deem and Ramdas Pophale) SiO2 
 PCOD9451078
Probable space group: P M M N
;
_chemical_formula_sum "Si O2"
_cell_formula_units_Z 48
_cell_length_a 18.904973
_cell_length_b 14.061819
_cell_length_c 8.540373
_cell_angle_alpha 90.000000
_cell_angle_beta 90.000000
_cell_angle_gamma 90.000000
_cell_volume 2270.358313
_symmetry_space_group_name_H-M "P M M N"
_symmetry_group_IT_number 59
_space_group.IT_coordinate_system_code '2'
_symmetry_cell_setting 'orthorhombic'
loop_
_space_group_symop_operation_xyz
x,y,z
1/2-x,1/2-y,z
1/2+x,-y,-z
-x,1/2+y,-z
-x,-y,-z
1/2+x,1/2+y,-z
1/2-x,y,z
x,1/2-y,z
loop_
_atom_site_type_symbol
_atom_site_label
_atom_site_fract_x
_atom_site_fract_y
_atom_site_fract_z
Si Si1 0.972648 0.365464 0.607916
Si Si2 0.750000 0.362303 0.376988
Si Si3 0.099225 0.634927 0.067348
Si Si4 0.250000 0.353968 0.846892
Si Si5 0.635564 0.857887 0.422378
Si Si6 0.250000 0.474937 0.397597
Si Si7 0.250000 0.536719 0.058898
Si Si8 0.093998 0.865104 0.724451
O O1 0.965417 0.250000 0.610006
O O2 0.935998 0.399469 0.769461
O O3 0.941003 0.396845 0.439615
O O4 0.055710 0.387407 0.609134
O O5 0.750000 0.250000 0.402175
O O6 0.750000 0.417788 0.539138
O O7 0.822361 0.387916 0.289356
O O8 0.096358 0.750000 0.069176
O O9 0.180069 0.600757 0.062270
O O10 0.067756 0.603120 0.896967
O O11 0.250000 0.250000 0.930643
O O12 0.318845 0.354845 0.735915
O O13 0.250000 0.453874 0.931965
O O14 0.634094 0.750000 0.486518
O O15 0.680664 0.923942 0.535480
O O16 0.250000 0.475172 0.215529
O O17 0.087920 0.750000 0.724439
#
# Coordination Sequence:
#
# PCOD9451078 Si02
#       8
#     8   4   8   4   8   4   4   8
#     4   9  18  37  62  89 123 160 203 246 299 367
#     4  10  20  35  58  86 119 161 202 238 295 365
#     4  10  21  37  60  94 132 164 198 240 295 374
#     4   9  21  42  65  81 110 158 208 258 311 358
#     4   9  20  42  67  87 113 159 204 253 311 359
#     4  11  23  37  63  90 116 152 205 256 304 353
#     4  12  24  38  58  93 125 157 203 252 308 352
#     4   9  18  33  57  87 118 162 202 238 291 349
#
# _framework density 21.142036000000001
#
# number of rings (size 3 to 8) (size 9 to 14) (size 15 to 20)
#    0.000    2.333    0.000    2.500    4.667    4.000 
#    3.000    4.167    0.000    0.000    0.000    0.000 
#    0.000    0.000    0.000    0.000    0.000    0.000 
#
# Total GULP energy -267881.539055 kJ/mol
# GULP energy per Si atom -5580.865397 kJ/mol
# Density = 2.109392 g / cm^3
# Si number density = 21.142036 Si / 1000 Ang^3
#
#
#
# Elastic Constant Matrix: (Units=GPa)
#
#
# Indices 1 2 3 4 5 6 
#
# 1 130.7083 8.6374 85.2277 0.0000 0.0000 0.0000
# 2 8.6374 52.9654 30.8073 0.0000 0.0000 0.0000
# 3 85.2277 30.8073 167.9369 0.0000 0.0000 0.0000
# 4 0.0000 0.0000 0.0000 18.1256 0.0000 0.0000
# 5 0.0000 0.0000 0.0000 0.0000 2568.9791 0.0000
# 6 0.0000 0.0000 0.0000 0.0000 0.0000 7.8666
#
#
#
# Elastic Compliance Matrix: (Units=1/GPa)
#
#
# Indices 1 2 3 4 5 6 
#
# 1 0.011571 0.001711 -0.006186 0.000000 0.000000 0.000000
# 2 0.001711 0.021388 -0.004792 0.000000 0.000000 0.000000
# 3 -0.006186 -0.004792 0.009973 0.000000 0.000000 0.000000
# 4 0.000000 0.000000 0.000000 0.055170 0.000000 0.000000
# 5 0.000000 0.000000 0.000000 0.000000 0.000389 0.000000
# 6 0.000000 0.000000 0.000000 0.000000 0.000000 0.127120
#
#
# Mechanical properties :
#
#
# Convention : Reuss Voigt Hill
#
# Bulk Modulus (GPa) = 40.98571 66.77282 53.87927
# Shear Modulus (GPa) = 19.81926 534.12348 276.97137
#
# Velocity S-wave (km/s) = 3.06508 15.91176 11.45816
# Velocity P-wave (km/s) = 5.65281 19.21537 14.16306
#
# Compressibility (1/GPa) = 0.02439875
#
# Stress axis : x y z
#
# Youngs Moduli (GPa) = 86.42055 46.75411 100.26801
#
# Poissons Ratio (x) = -0.08001 0.62029
# Poissons Ratio (y) = -0.14789 0.48049
# Poissons Ratio (z) = 0.53463 0.22405
#
# Static dielectric constant tensor:
#      x y z
#    x 1.728500 0.000000 0.000000 
#    y 0.000000 1.775240 0.000000 
#    z 0.000000 0.000000 1.788250 
# 
# From -- ./inp_files/10292.got.cif
#   From: 2010.05.17/outbox.cif.g08.bks.cpg/sg59_6_cif.got.tgz:10292.got - 2010.06.03 14:40:33.
