data_PCOD9451296
_publ_section_title
;
Structure prediction by ZEFSAII (Michael W. Deem and Ramdas Pophale) SiO2 
 PCOD9451296
Probable space group: P M M N
;
_chemical_formula_sum "Si O2"
_cell_formula_units_Z 64
_cell_length_a 8.848050
_cell_length_b 15.110252
_cell_length_c 24.266940
_cell_angle_alpha 90.000000
_cell_angle_beta 90.000000
_cell_angle_gamma 90.000000
_cell_volume 3244.399246
_symmetry_space_group_name_H-M "P M M N"
_symmetry_group_IT_number 59
_space_group.IT_coordinate_system_code '2'
_symmetry_cell_setting 'orthorhombic'
loop_
_space_group_symop_operation_xyz
x,y,z
1/2-x,1/2-y,z
1/2+x,-y,-z
-x,1/2+y,-z
-x,-y,-z
1/2+x,1/2+y,-z
1/2-x,y,z
x,1/2-y,z
loop_
_atom_site_type_symbol
_atom_site_label
_atom_site_fract_x
_atom_site_fract_y
_atom_site_fract_z
Si Si1 0.919838 0.650473 0.518127
Si Si2 0.570412 0.513651 0.789687
Si Si3 0.430884 0.649638 0.707004
Si Si4 0.067522 0.997821 0.083764
Si Si5 0.932466 0.853370 0.004434
Si Si6 0.430155 0.969005 0.600091
Si Si7 0.422315 0.347847 0.733249
Si Si8 0.003635 0.653466 0.392786
O O1 0.750000 0.628475 0.536246
O O2 0.957563 0.750000 0.537128
O O3 0.037088 0.582270 0.543624
O O4 0.920749 0.653958 0.451825
O O5 0.750000 0.522107 0.789638
O O6 0.500148 0.595710 0.757337
O O7 0.518952 0.506679 0.852986
O O8 0.522900 0.425466 0.756916
O O9 0.250000 0.650840 0.713558
O O10 0.486618 0.750000 0.703943
O O11 0.460013 0.597118 0.650468
O O12 0.250000 0.990332 0.081916
O O13 0.998544 0.910815 0.054914
O O14 0.026062 0.085883 0.048669
O O15 0.750000 0.853187 0.008103
O O16 0.981137 0.750000 0.002227
O O17 0.250000 0.994570 0.602779
O O18 0.548338 0.050296 0.605791
O O19 0.250000 0.362171 0.751248
O O20 0.472886 0.250000 0.751261
O O21 0.422907 0.346417 0.666607
O O22 0.085251 0.750000 0.392930
#
# Coordination Sequence:
#
# PCOD9451296 Si02
#       8
#     8   8   8   8   8   8   8   8
#     4  10  21  36  55  81 111 141 178 227 283 347
#     4  11  23  38  58  85 119 155 191 234 284 336
#     4  10  22  40  60  82 110 146 191 240 285 336
#     4   9  20  37  56  83 119 156 189 228 279 331
#     4   9  18  35  60  87 115 150 193 236 273 318
#     4  11  21  36  59  82 107 141 182 231 284 339
#     4  10  20  37  61  83 108 149 196 237 283 341
#     4  10  20  36  59  83 107 141 185 231 283 343
#
# _framework density 19.726303999999999
#
# number of rings (size 3 to 8) (size 9 to 14) (size 15 to 20)
#    0.000    2.000    1.250    2.250    0.000    6.750 
#    0.000    4.375    0.000    3.375    0.000    0.000 
#    0.000    0.000    0.000    0.000    0.000    0.000 
#
# Total GULP energy -356450.390384 kJ/mol
# GULP energy per Si atom -5569.537350 kJ/mol
# Density = 1.968141 g / cm^3
# Si number density = 19.726304 Si / 1000 Ang^3
#
#
#
# Elastic Constant Matrix: (Units=GPa)
#
#
# Indices 1 2 3 4 5 6 
#
# 1 20.9316 37.4534 24.7962 0.0000 0.0000 0.0000
# 2 37.4534 174.1731 68.6294 0.0000 0.0000 0.0000
# 3 24.7962 68.6294 124.4690 0.0000 0.0000 0.0000
# 4 0.0000 0.0000 0.0000 13.4403 0.0000 0.0000
# 5 0.0000 0.0000 0.0000 0.0000 -20.9594 0.0000
# 6 0.0000 0.0000 0.0000 0.0000 0.0000 12.1142
#
#
#
# Elastic Compliance Matrix: (Units=1/GPa)
#
#
# Indices 1 2 3 4 5 6 
#
# 1 0.084435 -0.014729 -0.008700 0.000000 0.000000 0.000000
# 2 -0.014729 0.009904 -0.002527 0.000000 0.000000 0.000000
# 3 -0.008700 -0.002527 0.011160 0.000000 0.000000 0.000000
# 4 0.000000 0.000000 0.000000 0.074403 0.000000 0.000000
# 5 0.000000 0.000000 0.000000 0.000000 -0.047711 0.000000
# 6 0.000000 0.000000 0.000000 0.000000 0.000000 0.082548
#
#
# Mechanical properties :
#
#
# Convention : Reuss Voigt Hill
#
# Bulk Modulus (GPa) = 18.66042 64.59243 41.62642
# Shear Modulus (GPa) = 17.57389 13.49866 15.53628
#
# Velocity S-wave (km/s) = 2.98801 2.61875 2.80945
# Velocity P-wave (km/s) = 4.62433 6.47759 5.62777
#
# Compressibility (1/GPa) = 0.05358937
#
# Stress axis : x y z
#
# Youngs Moduli (GPa) = 11.84343 100.96731 89.60173
#
# Poissons Ratio (x) = 1.48710 0.77952
# Poissons Ratio (y) = 0.17444 0.22641
# Poissons Ratio (z) = 0.10304 0.25512
#
# Static dielectric constant tensor:
#      x y z
#    x 1.659580 0.000000 0.000000 
#    y 0.000000 1.728480 0.000000 
#    z 0.000000 0.000000 1.683000 
# 
# From -- ./inp_files/31473.got.cif
#   From: 2010.05.17/outbox.cif.g08.bks.cpg/sg59_16_cif.got.tgz:31473.got - 2010.06.03 14:40:33.
