data_PCOD9451946
_publ_section_title
;
Structure prediction by ZEFSAII (Michael W. Deem and Ramdas Pophale) SiO2 
 PCOD9451946
Probable space group: P M M N
;
_chemical_formula_sum "Si O2"
_cell_formula_units_Z 64
_cell_length_a 22.975746
_cell_length_b 9.116446
_cell_length_c 15.432955
_cell_angle_alpha 90.000000
_cell_angle_beta 90.000000
_cell_angle_gamma 90.000000
_cell_volume 3232.542735
_symmetry_space_group_name_H-M "P M M N"
_symmetry_group_IT_number 59
_space_group.IT_coordinate_system_code '2'
_symmetry_cell_setting 'orthorhombic'
loop_
_space_group_symop_operation_xyz
x,y,z
1/2-x,1/2-y,z
1/2+x,-y,-z
-x,1/2+y,-z
-x,-y,-z
1/2+x,1/2+y,-z
1/2-x,y,z
x,1/2-y,z
loop_
_atom_site_type_symbol
_atom_site_label
_atom_site_fract_x
_atom_site_fract_y
_atom_site_fract_z
Si Si1 0.123595 0.577262 0.795579
Si Si2 0.005593 0.415886 0.590905
Si Si3 0.180705 0.587453 0.463915
Si Si4 0.320063 0.921101 0.268971
Si Si5 0.356520 0.414074 0.628043
Si Si6 0.392895 0.423888 0.125174
Si Si7 0.317700 0.924295 0.979483
Si Si8 0.001591 0.572469 0.217160
O O1 0.110907 0.750000 0.787118
O O2 0.154837 0.518949 0.709087
O O3 0.062701 0.489681 0.802252
O O4 0.162876 0.555248 0.880188
O O5 0.983801 0.250000 0.577883
O O6 0.074088 0.410389 0.613031
O O7 0.000000 0.500000 0.500000
O O8 0.980825 0.472402 0.683375
O O9 0.250000 0.598263 0.456318
O O10 0.157967 0.750000 0.487082
O O11 0.160218 0.548993 0.367535
O O12 0.167598 0.474555 0.538603
O O13 0.250000 0.932057 0.263678
O O14 0.335137 0.750000 0.249409
O O15 0.349676 0.029991 0.202751
O O16 0.336091 0.250000 0.646795
O O17 0.401357 0.250000 0.119990
O O18 0.361656 0.486624 0.039904
O O19 0.452837 0.505462 0.149664
O O20 0.250000 0.965839 0.992791
O O21 0.322585 0.750000 0.999595
O O22 0.001146 0.750000 0.215048
#
# Coordination Sequence:
#
# PCOD9451946 Si02
#       8
#     8   8   8   8   8   8   8   8
#     4  10  21  40  65  91 119 154 200 252 300 354
#     4   9  20  35  53  79 112 151 195 239 283 337
#     4   9  19  35  55  80 110 151 202 246 289 348
#     4   9  19  37  58  80 113 157 200 246 302 360
#     4  10  21  36  54  82 118 155 192 237 295 352
#     4  12  25  38  59  91 123 156 198 249 301 360
#     4  10  23  44  68  92 119 155 198 245 302 365
#     4  10  22  41  61  86 121 163 204 244 301 364
#
# _framework density 19.798656000000001
#
# number of rings (size 3 to 8) (size 9 to 14) (size 15 to 20)
#    0.000    2.125    0.000    4.125    1.750    7.750 
#    0.000    2.500    0.000    0.000    0.000    0.000 
#    0.000    0.000    0.000    0.000    0.000    0.000 
#
# Total GULP energy -357288.765606 kJ/mol
# GULP energy per Si atom -5582.636963 kJ/mol
# Density = 1.975359 g / cm^3
# Si number density = 19.798656 Si / 1000 Ang^3
#
#
#
# Elastic Constant Matrix: (Units=GPa)
#
#
# Indices 1 2 3 4 5 6 
#
# 1 21.0653 1.8812 -7.7156 0.0000 0.0000 0.0000
# 2 1.8812 70.9324 33.7177 0.0000 0.0000 0.0000
# 3 -7.7156 33.7177 67.1290 0.0000 0.0000 0.0000
# 4 0.0000 0.0000 0.0000 23.0370 0.0000 0.0000
# 5 0.0000 0.0000 0.0000 0.0000 31.9036 0.0000
# 6 0.0000 0.0000 0.0000 0.0000 0.0000 24.6772
#
#
#
# Elastic Compliance Matrix: (Units=1/GPa)
#
#
# Indices 1 2 3 4 5 6 
#
# 1 0.051112 -0.005449 0.008612 0.000000 0.000000 0.000000
# 2 -0.005449 0.019101 -0.010220 0.000000 0.000000 0.000000
# 3 0.008612 -0.010220 0.021020 0.000000 0.000000 0.000000
# 4 0.000000 0.000000 0.000000 0.043409 0.000000 0.000000
# 5 0.000000 0.000000 0.000000 0.000000 0.031344 0.000000
# 6 0.000000 0.000000 0.000000 0.000000 0.000000 0.040523
#
#
# Mechanical properties :
#
#
# Convention : Reuss Voigt Hill
#
# Bulk Modulus (GPa) = 12.96723 23.87703 18.42213
# Shear Modulus (GPa) = 20.29797 24.67311 22.48554
#
# Velocity S-wave (km/s) = 3.20538 3.53399 3.37369
# Velocity P-wave (km/s) = 4.50145 5.36080 4.94981
#
# Compressibility (1/GPa) = 0.07711748
#
# Stress axis : x y z
#
# Youngs Moduli (GPa) = 19.56481 52.35435 47.57394
#
# Poissons Ratio (x) = 0.28528 -0.40969
# Poissons Ratio (y) = 0.10661 0.48621
# Poissons Ratio (z) = -0.16849 0.53507
#
# Static dielectric constant tensor:
#      x y z
#    x 1.718730 0.000000 0.000000 
#    y 0.000000 1.686150 0.000000 
#    z 0.000000 0.000000 1.712650 
# 
# From -- ./inp_files/24647.got.cif
#   From: 2010.05.17/outbox.cif.g08.bks.cpg/sg59_13_cif.got.tgz:24647.got - 2010.06.03 14:40:33.
