data_PCOD9451733
_publ_section_title
;
Structure prediction by ZEFSAII (Michael W. Deem and Ramdas Pophale) SiO2 
 PCOD9451733
Probable space group: P M M N
;
_chemical_formula_sum "Si O2"
_cell_formula_units_Z 64
_cell_length_a 9.051040
_cell_length_b 14.838745
_cell_length_c 24.854216
_cell_angle_alpha 90.000000
_cell_angle_beta 90.000000
_cell_angle_gamma 90.000000
_cell_volume 3338.072187
_symmetry_space_group_name_H-M "P M M N"
_symmetry_group_IT_number 59
_space_group.IT_coordinate_system_code '2'
_symmetry_cell_setting 'orthorhombic'
loop_
_space_group_symop_operation_xyz
x,y,z
1/2-x,1/2-y,z
1/2+x,-y,-z
-x,1/2+y,-z
-x,-y,-z
1/2+x,1/2+y,-z
1/2-x,y,z
x,1/2-y,z
loop_
_atom_site_type_symbol
_atom_site_label
_atom_site_fract_x
_atom_site_fract_y
_atom_site_fract_z
Si Si1 0.573830 0.461595 0.743240
Si Si2 0.072390 0.851920 0.585327
Si Si3 0.424481 0.511211 0.057472
Si Si4 0.916531 0.351751 0.111050
Si Si5 0.576863 0.643105 0.471923
Si Si6 0.927867 0.963541 0.364975
Si Si7 0.569874 0.353937 0.850553
Si Si8 0.080134 0.850768 0.759363
O O1 0.750000 0.456215 0.740759
O O2 0.502455 0.425198 0.688395
O O3 0.523588 0.408896 0.797102
O O4 0.521259 0.565168 0.745854
O O5 0.250000 0.850747 0.583805
O O6 0.021307 0.750000 0.598418
O O7 0.013359 0.876064 0.525983
O O8 0.029274 0.931730 0.625498
O O9 0.250000 0.520801 0.050260
O O10 0.464577 0.421490 0.090422
O O11 0.477535 0.593602 0.095434
O O12 0.500000 0.500000 0.000000
O O13 0.750000 0.379046 0.093982
O O14 0.942844 0.250000 0.091497
O O15 0.916442 0.348865 0.175649
O O16 0.750000 0.622461 0.481676
O O17 0.564279 0.750000 0.461521
O O18 0.529158 0.589024 0.419219
O O19 0.750000 0.958178 0.359870
O O20 0.750000 0.354841 0.850560
O O21 0.522127 0.250000 0.849153
O O22 0.250000 0.866033 0.740569
O O23 0.035756 0.750000 0.741068
#
# Coordination Sequence:
#
# PCOD9451733 Si02
#       8
#     8   8   8   8   8   8   8   8
#     4  11  22  36  56  83 110 142 190 241 280 322
#     4   9  18  33  53  76 103 138 179 220 267 329
#     4  11  22  37  59  87 117 150 188 235 285 334
#     4   9  18  34  57  83 111 144 179 218 272 336
#     4   9  18  33  53  76 104 138 178 227 281 332
#     4  10  21  35  51  75 109 146 180 221 277 337
#     4   9  20  40  61  80 109 151 192 230 279 333
#     4   9  18  34  57  81 107 142 178 215 270 339
#
# _framework density 19.172742
#
# number of rings (size 3 to 8) (size 9 to 14) (size 15 to 20)
#    0.000    2.375    1.250    1.875    0.000    3.000 
#    0.000    3.750    0.000    5.250    0.000    0.000 
#    0.000    0.000    0.000    0.000    0.000    0.000 
#
# Total GULP energy -357056.372199 kJ/mol
# GULP energy per Si atom -5579.005816 kJ/mol
# Density = 1.912910 g / cm^3
# Si number density = 19.172742 Si / 1000 Ang^3
#
#
#
# Elastic Constant Matrix: (Units=GPa)
#
#
# Indices 1 2 3 4 5 6 
#
# 1 22.0427 24.2707 29.4994 0.0000 0.0000 0.0000
# 2 24.2707 82.1011 55.6616 0.0000 0.0000 0.0000
# 3 29.4994 55.6616 121.6165 0.0000 0.0000 0.0000
# 4 0.0000 0.0000 0.0000 4.0480 0.0000 0.0000
# 5 0.0000 0.0000 0.0000 0.0000 32.1501 0.0000
# 6 0.0000 0.0000 0.0000 0.0000 0.0000 22.6617
#
#
#
# Elastic Compliance Matrix: (Units=1/GPa)
#
#
# Indices 1 2 3 4 5 6 
#
# 1 0.077887 -0.014813 -0.012113 0.000000 0.000000 0.000000
# 2 -0.014813 0.020477 -0.005779 0.000000 0.000000 0.000000
# 3 -0.012113 -0.005779 0.013806 0.000000 0.000000 0.000000
# 4 0.000000 0.000000 0.000000 0.247035 0.000000 0.000000
# 5 0.000000 0.000000 0.000000 0.000000 0.031104 0.000000
# 6 0.000000 0.000000 0.000000 0.000000 0.000000 0.044127
#
#
# Mechanical properties :
#
#
# Convention : Reuss Voigt Hill
#
# Bulk Modulus (GPa) = 21.38561 49.40265 35.39413
# Shear Modulus (GPa) = 9.70059 19.52720 14.61390
#
# Velocity S-wave (km/s) = 2.25179 3.19484 2.76383
# Velocity P-wave (km/s) = 4.23546 6.27952 5.35591
#
# Compressibility (1/GPa) = 0.04676041
#
# Stress axis : x y z
#
# Youngs Moduli (GPa) = 12.83909 48.83530 72.43471
#
# Poissons Ratio (x) = 0.72340 0.87738
# Poissons Ratio (y) = 0.19019 0.41859
# Poissons Ratio (z) = 0.15552 0.28221
#
# Static dielectric constant tensor:
#      x y z
#    x 1.651250 0.000000 0.000000 
#    y 0.000000 1.683830 0.000000 
#    z 0.000000 0.000000 1.675980 
# 
# From -- ./inp_files/31676.got.cif
#   From: 2010.05.17/outbox.cif.g08.bks.cpg/sg59_16_cif.got.tgz:31676.got - 2010.06.03 14:40:33.
