data_PCOD9451598
_publ_section_title
;
Structure prediction by ZEFSAII (Michael W. Deem and Ramdas Pophale) SiO2 
 PCOD9451598
Probable space group: P M M N
;
_chemical_formula_sum "Si O2"
_cell_formula_units_Z 56
_cell_length_a 16.094144
_cell_length_b 8.947679
_cell_length_c 20.010983
_cell_angle_alpha 90.000000
_cell_angle_beta 90.000000
_cell_angle_gamma 90.000000
_cell_volume 2881.686295
_symmetry_space_group_name_H-M "P M M N"
_symmetry_group_IT_number 59
_space_group.IT_coordinate_system_code '2'
_symmetry_cell_setting 'orthorhombic'
loop_
_space_group_symop_operation_xyz
x,y,z
1/2-x,1/2-y,z
1/2+x,-y,-z
-x,1/2+y,-z
-x,-y,-z
1/2+x,1/2+y,-z
1/2-x,y,z
x,1/2-y,z
loop_
_atom_site_type_symbol
_atom_site_label
_atom_site_fract_x
_atom_site_fract_y
_atom_site_fract_z
Si Si1 0.412941 0.428056 0.977504
Si Si2 0.649534 0.922311 0.421704
Si Si3 0.250000 0.931183 0.048177
Si Si4 0.250000 0.931235 0.204854
Si Si5 0.580390 0.427061 0.289169
Si Si6 0.649974 0.074171 0.558971
Si Si7 0.153198 0.575362 0.851683
Si Si8 0.594323 0.430786 0.705980
O O1 0.413433 0.250000 0.987503
O O2 0.333738 0.501765 0.015354
O O3 0.500000 0.500000 0.000000
O O4 0.399021 0.470140 0.899918
O O5 0.750000 0.931875 0.420288
O O6 0.624622 0.750000 0.416460
O O7 0.614469 0.009484 0.358488
O O8 0.621939 0.987807 0.492993
O O9 0.250000 0.750000 0.040605
O O10 0.250000 0.970545 0.127032
O O11 0.250000 0.750000 0.207537
O O12 0.331413 0.980642 0.245487
O O13 0.570764 0.250000 0.295253
O O14 0.639861 0.457398 0.226271
O O15 0.492793 0.502259 0.272950
O O16 0.750000 0.058692 0.564905
O O17 0.632247 0.250000 0.550268
O O18 0.611954 0.023651 0.629201
O O19 0.250000 0.558998 0.868477
O O20 0.130210 0.750000 0.862999
O O21 0.591960 0.250000 0.706929
#
# Coordination Sequence:
#
# PCOD9451598 Si02
#       8
#     8   8   4   4   8   8   8   8
#     4  12  26  44  68  99 133 173 217 264 318 381
#     4  10  21  37  58  85 116 153 199 250 302 362
#     4  11  23  43  69 101 136 171 212 263 319 384
#     4   9  20  39  65  91 120 159 200 243 299 362
#     4  11  24  39  58  89 123 158 199 249 307 362
#     4   9  17  33  59  84 112 153 200 249 301 359
#     4  10  22  43  68  91 123 164 206 257 313 372
#     4  10  20  38  61  88 119 157 203 249 300 362
#
# _framework density 19.433067000000001
#
# number of rings (size 3 to 8) (size 9 to 14) (size 15 to 20)
#    0.000    1.714    1.429    2.786    2.000    3.714 
#    0.000    1.071    0.000    0.000    0.000    0.000 
#    0.000    0.000    0.000    0.000    0.000    0.000 
#
# Total GULP energy -312904.609487 kJ/mol
# GULP energy per Si atom -5587.582312 kJ/mol
# Density = 1.938884 g / cm^3
# Si number density = 19.433067 Si / 1000 Ang^3
#
#
#
# Elastic Constant Matrix: (Units=GPa)
#
#
# Indices 1 2 3 4 5 6 
#
# 1 80.3938 46.7427 38.6852 0.0000 0.0000 0.0000
# 2 46.7427 75.7208 47.3335 0.0000 0.0000 0.0000
# 3 38.6852 47.3335 107.5441 0.0000 0.0000 0.0000
# 4 0.0000 0.0000 0.0000 24.8232 0.0000 0.0000
# 5 0.0000 0.0000 0.0000 0.0000 391.4355 0.0000
# 6 0.0000 0.0000 0.0000 0.0000 0.0000 28.0616
#
#
#
# Elastic Compliance Matrix: (Units=1/GPa)
#
#
# Indices 1 2 3 4 5 6 
#
# 1 0.019845 -0.010744 -0.002410 0.000000 0.000000 0.000000
# 2 -0.010744 0.024036 -0.006714 0.000000 0.000000 0.000000
# 3 -0.002410 -0.006714 0.013120 0.000000 0.000000 0.000000
# 4 0.000000 0.000000 0.000000 0.040285 0.000000 0.000000
# 5 0.000000 0.000000 0.000000 0.000000 0.002555 0.000000
# 6 0.000000 0.000000 0.000000 0.000000 0.000000 0.035636
#
#
# Mechanical properties :
#
#
# Convention : Reuss Voigt Hill
#
# Bulk Modulus (GPa) = 57.91920 58.79794 58.35857
# Shear Modulus (GPa) = 27.62915 97.59053 62.60984
#
# Velocity S-wave (km/s) = 3.77471 7.09421 5.68227
# Velocity P-wave (km/s) = 6.99050 9.87047 8.55258
#
# Compressibility (1/GPa) = 0.01726543
#
# Stress axis : x y z
#
# Youngs Moduli (GPa) = 50.38987 41.60449 76.21711
#
# Poissons Ratio (x) = 0.44701 0.18367
# Poissons Ratio (y) = 0.54140 0.51173
# Poissons Ratio (z) = 0.12143 0.27934
#
# Static dielectric constant tensor:
#      x y z
#    x 1.666730 0.000000 0.000000 
#    y 0.000000 1.653310 0.000000 
#    z 0.000000 0.000000 1.670550 
# 
# From -- ./inp_files/30504.got.cif
#   From: 2010.05.17/outbox.cif.g08.bks.cpg/sg59_16_cif.got.tgz:30504.got - 2010.06.03 14:40:33.
