data_PCOD9451948
_publ_section_title
;
Structure prediction by ZEFSAII (Michael W. Deem and Ramdas Pophale) SiO2 
 PCOD9451948
Probable space group: P M M N
;
_chemical_formula_sum "Si O2"
_cell_formula_units_Z 64
_cell_length_a 19.442598
_cell_length_b 18.131551
_cell_length_c 9.353896
_cell_angle_alpha 90.000000
_cell_angle_beta 90.000000
_cell_angle_gamma 90.000000
_cell_volume 3297.477110
_symmetry_space_group_name_H-M "P M M N"
_symmetry_group_IT_number 59
_space_group.IT_coordinate_system_code '2'
_symmetry_cell_setting 'orthorhombic'
loop_
_space_group_symop_operation_xyz
x,y,z
1/2-x,1/2-y,z
1/2+x,-y,-z
-x,1/2+y,-z
-x,-y,-z
1/2+x,1/2+y,-z
1/2-x,y,z
x,1/2-y,z
loop_
_atom_site_type_symbol
_atom_site_label
_atom_site_fract_x
_atom_site_fract_y
_atom_site_fract_z
Si Si1 0.932901 0.981422 0.690329
Si Si2 0.674249 0.467764 0.462797
Si Si3 0.326724 0.982329 0.082880
Si Si4 0.326466 0.073366 0.800539
Si Si5 0.519780 0.669441 0.548527
Si Si6 0.874544 0.169254 0.294992
Si Si7 0.601999 0.165253 0.959055
Si Si8 0.524452 0.614226 0.229800
O O1 0.947385 0.902356 0.622008
O O2 0.887166 0.027426 0.576277
O O3 0.885034 0.975530 0.829020
O O4 0.999877 0.029843 0.732437
O O5 0.750000 0.468414 0.530867
O O6 0.669194 0.537282 0.356256
O O7 0.668490 0.396606 0.361717
O O8 0.250000 0.998152 0.134350
O O9 0.344492 0.895969 0.095303
O O10 0.329708 0.009069 0.919402
O O11 0.250000 0.108086 0.815389
O O12 0.396603 0.118420 0.819141
O O13 0.551848 0.750000 0.580107
O O14 0.443219 0.671358 0.610756
O O15 0.517877 0.657199 0.378830
O O16 0.840592 0.250000 0.302275
O O17 0.897177 0.157789 0.130776
O O18 0.618716 0.250000 0.923724
O O19 0.529287 0.144035 0.887034
#
# Coordination Sequence:
#
# PCOD9451948 Si02
#       8
#     8   8   8   8   8   8   8   8
#     4  11  22  36  61  87 115 152 203 240 296 342
#     4  11  20  36  58  83 118 155 197 241 284 340
#     4  10  22  38  57  85 120 156 194 239 289 349
#     4  10  21  36  57  84 112 145 194 245 291 343
#     4  11  22  37  58  85 117 148 186 242 298 347
#     4  10  21  36  54  85 123 154 191 233 287 350
#     4  10  22  36  57  88 119 154 195 237 287 351
#     4  11  21  37  63  85 117 153 195 247 296 342
#
# _framework density 19.408777000000001
#
# number of rings (size 3 to 8) (size 9 to 14) (size 15 to 20)
#    0.000    1.500    3.750    1.875    1.750    1.500 
#    0.000    1.250    0.000    6.000    0.000    3.500 
#    0.000    0.000    0.000    0.000    0.000    0.000 
#
# Total GULP energy -357082.298652 kJ/mol
# GULP energy per Si atom -5579.410916 kJ/mol
# Density = 1.936460 g / cm^3
# Si number density = 19.408777 Si / 1000 Ang^3
#
#
#
# Elastic Constant Matrix: (Units=GPa)
#
#
# Indices 1 2 3 4 5 6 
#
# 1 79.0068 3.2966 12.8259 0.0000 0.0000 0.0000
# 2 3.2966 63.4806 5.1613 0.0000 0.0000 0.0000
# 3 12.8259 5.1613 49.3619 0.0000 0.0000 0.0000
# 4 0.0000 0.0000 0.0000 17.4354 0.0000 0.0000
# 5 0.0000 0.0000 0.0000 0.0000 15.8593 0.0000
# 6 0.0000 0.0000 0.0000 0.0000 0.0000 7.5413
#
#
#
# Elastic Compliance Matrix: (Units=1/GPa)
#
#
# Indices 1 2 3 4 5 6 
#
# 1 0.013225 -0.000411 -0.003393 0.000000 0.000000 0.000000
# 2 -0.000411 0.015901 -0.001556 0.000000 0.000000 0.000000
# 3 -0.003393 -0.001556 0.021303 0.000000 0.000000 0.000000
# 4 0.000000 0.000000 0.000000 0.057354 0.000000 0.000000
# 5 0.000000 0.000000 0.000000 0.000000 0.063055 0.000000
# 6 0.000000 0.000000 0.000000 0.000000 0.000000 0.132602
#
#
# Mechanical properties :
#
#
# Convention : Reuss Voigt Hill
#
# Bulk Modulus (GPa) = 25.18347 26.04631 25.61489
# Shear Modulus (GPa) = 15.27200 19.53824 17.40512
#
# Velocity S-wave (km/s) = 2.80815 3.17625 2.99785
# Velocity P-wave (km/s) = 4.84951 5.18656 5.02086
#
# Compressibility (1/GPa) = 0.03970859
#
# Stress axis : x y z
#
# Youngs Moduli (GPa) = 75.61341 62.89039 46.94188
#
# Poissons Ratio (x) = 0.02584 0.15929
# Poissons Ratio (y) = 0.03107 0.07303
# Poissons Ratio (z) = 0.25659 0.09785
#
# Static dielectric constant tensor:
#      x y z
#    x 1.682090 0.000000 0.000000 
#    y 0.000000 1.704060 0.000000 
#    z 0.000000 0.000000 1.677080 
# 
# From -- ./inp_files/11604.got.cif
#   From: 2010.05.17/outbox.cif.g08.bks.cpg/sg59_6_cif.got.tgz:11604.got - 2010.06.03 14:40:33.
