data_PCOD9451567
_publ_section_title
;
Structure prediction by ZEFSAII (Michael W. Deem and Ramdas Pophale) SiO2 
 PCOD9451567
Probable space group: P M M N
;
_chemical_formula_sum "Si O2"
_cell_formula_units_Z 40
_cell_length_a 10.404329
_cell_length_b 8.253286
_cell_length_c 24.524104
_cell_angle_alpha 90.000000
_cell_angle_beta 90.000000
_cell_angle_gamma 90.000000
_cell_volume 2105.882429
_symmetry_space_group_name_H-M "P M M N"
_symmetry_group_IT_number 59
_space_group.IT_coordinate_system_code '2'
_symmetry_cell_setting 'orthorhombic'
loop_
_space_group_symop_operation_xyz
x,y,z
1/2-x,1/2-y,z
1/2+x,-y,-z
-x,1/2+y,-z
-x,-y,-z
1/2+x,1/2+y,-z
1/2-x,y,z
x,1/2-y,z
loop_
_atom_site_type_symbol
_atom_site_label
_atom_site_fract_x
_atom_site_fract_y
_atom_site_fract_z
Si Si1 0.104683 0.554730 0.043257
Si Si2 0.750000 0.056187 0.578917
Si Si3 0.520444 0.054453 0.375291
Si Si4 0.104641 0.945503 0.745044
Si Si5 0.750000 0.052018 0.453819
Si Si6 0.603933 0.054440 0.832329
O O1 0.250000 0.500022 0.029459
O O2 0.105946 0.750000 0.043811
O O3 0.076500 0.501148 0.105406
O O4 0.000000 0.500000 0.000000
O O5 0.750000 0.250000 0.577690
O O6 0.750000 0.996195 0.516189
O O7 0.621608 0.998795 0.608800
O O8 0.524584 0.250000 0.374743
O O9 0.562226 0.997906 0.315195
O O10 0.624045 0.999464 0.420370
O O11 0.250000 0.002108 0.756874
O O12 0.107430 0.750000 0.743517
O O13 0.001713 0.996227 0.789988
O O14 0.750000 0.250000 0.454296
O O15 0.750000 0.001646 0.818391
O O16 0.603901 0.250000 0.832074
#
# Coordination Sequence:
#
# PCOD9451567 Si02
#       6
#     8   4   8   8   4   8
#     4   9  19  36  56  80 112 148 184 221 265 316
#     4  11  23  35  53  85 113 137 176 223 270 325
#     4  10  20  38  59  78 105 144 182 220 270 325
#     4  10  21  37  57  80 105 138 183 228 269 319
#     4   9  18  37  61  79 105 143 180 221 270 323
#     4   9  20  38  57  79 111 148 180 218 271 323
#
# _framework density 18.994413999999999
#
# number of rings (size 3 to 8) (size 9 to 14) (size 15 to 20)
#    0.000    2.400    1.000    2.100    1.400    3.600 
#    0.000    7.500    0.000    0.000    0.000    0.000 
#    0.000    0.000    0.000    0.000    0.000    0.000 
#
# Total GULP energy -223269.546748 kJ/mol
# GULP energy per Si atom -5581.738669 kJ/mol
# Density = 1.895118 g / cm^3
# Si number density = 18.994414 Si / 1000 Ang^3
#
#
#
# Elastic Constant Matrix: (Units=GPa)
#
#
# Indices 1 2 3 4 5 6 
#
# 1 194.9916 16.9768 119.8981 0.0000 0.0000 0.0000
# 2 16.9768 7.5101 17.8149 0.0000 0.0000 0.0000
# 3 119.8981 17.8149 147.0479 0.0000 0.0000 0.0000
# 4 0.0000 0.0000 0.0000 26.0696 0.0000 0.0000
# 5 0.0000 0.0000 0.0000 0.0000 44.0173 0.0000
# 6 0.0000 0.0000 0.0000 0.0000 0.0000 16.5513
#
#
#
# Elastic Compliance Matrix: (Units=1/GPa)
#
#
# Indices 1 2 3 4 5 6 
#
# 1 0.010405 -0.004765 -0.007907 0.000000 0.000000 0.000000
# 2 -0.004765 0.189033 -0.019016 0.000000 0.000000 0.000000
# 3 -0.007907 -0.019016 0.015551 0.000000 0.000000 0.000000
# 4 0.000000 0.000000 0.000000 0.038359 0.000000 0.000000
# 5 0.000000 0.000000 0.000000 0.000000 0.022718 0.000000
# 6 0.000000 0.000000 0.000000 0.000000 0.000000 0.060418
#
#
# Mechanical properties :
#
#
# Convention : Reuss Voigt Hill
#
# Bulk Modulus (GPa) = 6.59572 73.21435 39.90503
# Shear Modulus (GPa) = 11.10129 30.31829 20.70979
#
# Velocity S-wave (km/s) = 2.42016 3.99954 3.30557
# Velocity P-wave (km/s) = 3.36000 7.74321 5.96854
#
# Compressibility (1/GPa) = 0.15161352
#
# Stress axis : x y z
#
# Youngs Moduli (GPa) = 96.10798 5.29008 64.30453
#
# Poissons Ratio (x) = 0.02521 0.50843
# Poissons Ratio (y) = 0.45800 1.22280
# Poissons Ratio (z) = 0.75988 0.10060
#
# Static dielectric constant tensor:
#      x y z
#    x 1.634580 0.000000 0.000000 
#    y 0.000000 1.506870 0.000000 
#    z 0.000000 0.000000 1.643130 
# 
# From -- ./inp_files/32402.got.cif
#   From: 2010.05.17/outbox.cif.g08.bks.cpg/sg59_17_cif.got.tgz:32402.got - 2010.06.03 14:40:33.
