data_PCOD9451985
_publ_section_title
;
Structure prediction by ZEFSAII (Michael W. Deem and Ramdas Pophale) SiO2 
 PCOD9451985
Probable space group: P M M N
;
_chemical_formula_sum "Si O2"
_cell_formula_units_Z 56
_cell_length_a 23.666177
_cell_length_b 13.785022
_cell_length_c 7.612152
_cell_angle_alpha 90.000000
_cell_angle_beta 90.000000
_cell_angle_gamma 90.000000
_cell_volume 2483.379110
_symmetry_space_group_name_H-M "P M M N"
_symmetry_group_IT_number 59
_space_group.IT_coordinate_system_code '2'
_symmetry_cell_setting 'orthorhombic'
loop_
_space_group_symop_operation_xyz
x,y,z
1/2-x,1/2-y,z
1/2+x,-y,-z
-x,1/2+y,-z
-x,-y,-z
1/2+x,1/2+y,-z
1/2-x,y,z
x,1/2-y,z
loop_
_atom_site_type_symbol
_atom_site_label
_atom_site_fract_x
_atom_site_fract_y
_atom_site_fract_z
Si Si1 0.310121 0.439622 0.147390
Si Si2 0.432229 0.365486 0.554876
Si Si3 0.187135 0.065586 0.554568
Si Si4 0.183556 0.644656 0.687703
Si Si5 0.856930 0.138403 0.922287
Si Si6 0.071250 0.366797 0.152593
Si Si7 0.985507 0.131770 0.855337
O O1 0.250000 0.410627 0.066610
O O2 0.310213 0.406399 0.349872
O O3 0.314906 0.556120 0.144376
O O4 0.368676 0.400112 0.072917
O O5 0.439543 0.250000 0.545850
O O6 0.369162 0.385511 0.627437
O O7 0.435169 0.401964 0.353874
O O8 0.479918 0.403769 0.686064
O O9 0.250000 0.085574 0.629299
O O10 0.176414 0.950130 0.571183
O O11 0.250000 0.645538 0.739389
O O12 0.170959 0.750000 0.605087
O O13 0.147798 0.635900 0.865727
O O14 0.845016 0.250000 0.869986
O O15 0.919589 0.108269 0.862645
O O16 0.072395 0.250000 0.157566
O O17 0.019790 0.397198 0.029437
O O18 0.986894 0.250000 0.852751
#
# Coordination Sequence:
#
# PCOD9451985 Si02
#       7
#     8   8   8   8   8   8   8
#     4  10  21  36  55  82 110 141 183 226 274 327
#     4   9  18  35  57  81 111 145 179 221 272 324
#     4   9  19  35  53  79 111 140 178 225 271 323
#     4   9  18  34  54  74 101 140 181 222 271 322
#     4  10  21  37  55  79 108 142 183 227 276 325
#     4   9  19  37  58  82 114 148 181 223 273 325
#     4   9  19  37  57  80 110 144 186 227 269 326
#
# _framework density 22.549918999999999
#
# number of rings (size 3 to 8) (size 9 to 14) (size 15 to 20)
#    0.000    2.714    0.000    0.429    2.000    2.571 
#    2.571    5.714    0.000    2.571    0.000    0.000 
#    0.000    0.000    0.000    0.000    0.000    0.000 
#
# Total GULP energy -312529.053818 kJ/mol
# GULP energy per Si atom -5580.875961 kJ/mol
# Density = 2.249859 g / cm^3
# Si number density = 22.549919 Si / 1000 Ang^3
#
#
#
# Elastic Constant Matrix: (Units=GPa)
#
#
# Indices 1 2 3 4 5 6 
#
# 1 89.5130 20.3406 13.9741 0.0000 0.0000 0.0000
# 2 20.3406 26.4613 10.9859 0.0000 0.0000 0.0000
# 3 13.9741 10.9859 56.9965 0.0000 0.0000 0.0000
# 4 0.0000 0.0000 0.0000 16.6114 0.0000 0.0000
# 5 0.0000 0.0000 0.0000 0.0000 19.8964 0.0000
# 6 0.0000 0.0000 0.0000 0.0000 0.0000 31.1410
#
#
#
# Elastic Compliance Matrix: (Units=1/GPa)
#
#
# Indices 1 2 3 4 5 6 
#
# 1 0.013644 -0.009890 -0.001439 0.000000 0.000000 0.000000
# 2 -0.009890 0.048248 -0.006875 0.000000 0.000000 0.000000
# 3 -0.001439 -0.006875 0.019223 0.000000 0.000000 0.000000
# 4 0.000000 0.000000 0.000000 0.060199 0.000000 0.000000
# 5 0.000000 0.000000 0.000000 0.000000 0.050260 0.000000
# 6 0.000000 0.000000 0.000000 0.000000 0.000000 0.032112
#
#
# Mechanical properties :
#
#
# Convention : Reuss Voigt Hill
#
# Bulk Modulus (GPa) = 22.36814 29.28579 25.82696
# Shear Modulus (GPa) = 18.18207 22.04112 20.11159
#
# Velocity S-wave (km/s) = 2.84263 3.12979 2.98966
# Velocity P-wave (km/s) = 4.55137 5.10647 4.83689
#
# Compressibility (1/GPa) = 0.04470645
#
# Stress axis : x y z
#
# Youngs Moduli (GPa) = 73.29420 20.72627 52.02161
#
# Poissons Ratio (x) = 0.20499 0.07484
# Poissons Ratio (y) = 0.72491 0.35764
# Poissons Ratio (z) = 0.10545 0.14249
#
# Static dielectric constant tensor:
#      x y z
#    x 1.785270 0.000000 0.000000 
#    y 0.000000 1.853110 0.000000 
#    z 0.000000 0.000000 1.831270 
# 
# From -- ./inp_files/9354.got.cif
#   From: 2010.05.17/outbox.cif.g08.bks.cpg/sg59_5_cif.got.tgz:9354.got - 2010.06.03 14:40:33.
