data_PCOD9451511
_publ_section_title
;
Structure prediction by ZEFSAII (Michael W. Deem and Ramdas Pophale) SiO2 
 PCOD9451511
Probable space group: P M M N
;
_chemical_formula_sum "Si O2"
_cell_formula_units_Z 48
_cell_length_a 19.485666
_cell_length_b 8.645645
_cell_length_c 15.451565
_cell_angle_alpha 90.000000
_cell_angle_beta 90.000000
_cell_angle_gamma 90.000000
_cell_volume 2603.065680
_symmetry_space_group_name_H-M "P M M N"
_symmetry_group_IT_number 59
_space_group.IT_coordinate_system_code '2'
_symmetry_cell_setting 'orthorhombic'
loop_
_space_group_symop_operation_xyz
x,y,z
1/2-x,1/2-y,z
1/2+x,-y,-z
-x,1/2+y,-z
-x,-y,-z
1/2+x,1/2+y,-z
1/2-x,y,z
x,1/2-y,z
loop_
_atom_site_type_symbol
_atom_site_label
_atom_site_fract_x
_atom_site_fract_y
_atom_site_fract_z
Si Si1 0.078677 0.064562 0.721744
Si Si2 0.925417 0.565764 0.974235
Si Si3 0.171523 0.561529 0.374500
Si Si4 0.170058 0.564401 0.875652
Si Si5 0.424588 0.936752 0.215403
Si Si6 0.426578 0.563964 0.530760
O O1 0.082900 0.250000 0.719022
O O2 0.001743 0.023708 0.753992
O O3 0.132502 0.999185 0.790430
O O4 0.089027 0.997469 0.626243
O O5 0.927574 0.750000 0.980065
O O6 0.910085 0.512218 0.876819
O O7 0.870111 0.501090 0.041629
O O8 0.000000 0.500000 0.000000
O O9 0.250000 0.507891 0.373398
O O10 0.172298 0.750000 0.374144
O O11 0.128588 0.514732 0.289838
O O12 0.130256 0.514897 0.460402
O O13 0.250000 0.520357 0.877082
O O14 0.165238 0.750000 0.876265
O O15 0.421442 0.750000 0.206555
O O16 0.500000 0.500000 0.500000
O O17 0.429412 0.750000 0.531601
#
# Coordination Sequence:
#
# PCOD9451511 Si02
#       6
#     8   8   8   8   8   8
#     4  11  22  38  62  92 123 159 203 253 309 368
#     4  12  24  39  63  93 125 161 204 252 305 367
#     4   9  19  37  60  86 118 156 199 248 299 353
#     4  11  25  44  65  91 123 161 206 255 310 371
#     4  10  20  37  61  90 120 156 204 252 300 362
#     4  11  21  36  60  90 122 160 209 256 305 364
#
# _framework density 18.439796000000001
#
# number of rings (size 3 to 8) (size 9 to 14) (size 15 to 20)
#    0.000    1.333    3.333    3.000    0.000    3.333 
#    0.000    3.333    0.000    3.500    0.000    0.000 
#    0.000    0.000    0.000    0.000    0.000    0.000 
#
# Total GULP energy -268340.510189 kJ/mol
# GULP energy per Si atom -5590.427296 kJ/mol
# Density = 1.839783 g / cm^3
# Si number density = 18.439796 Si / 1000 Ang^3
#
#
#
# Elastic Constant Matrix: (Units=GPa)
#
#
# Indices 1 2 3 4 5 6 
#
# 1 194.5936 59.4101 122.6352 0.0000 0.0000 0.0000
# 2 59.4101 58.5334 59.4638 0.0000 0.0000 0.0000
# 3 122.6352 59.4638 221.1006 0.0000 0.0000 0.0000
# 4 0.0000 0.0000 0.0000 35.9956 0.0000 0.0000
# 5 0.0000 0.0000 0.0000 0.0000 34.1233 0.0000
# 6 0.0000 0.0000 0.0000 0.0000 0.0000 26.2321
#
#
#
# Elastic Compliance Matrix: (Units=1/GPa)
#
#
# Indices 1 2 3 4 5 6 
#
# 1 0.009078 -0.005640 -0.003518 0.000000 0.000000 0.000000
# 2 -0.005640 0.027010 -0.004136 0.000000 0.000000 0.000000
# 3 -0.003518 -0.004136 0.007587 0.000000 0.000000 0.000000
# 4 0.000000 0.000000 0.000000 0.027781 0.000000 0.000000
# 5 0.000000 0.000000 0.000000 0.000000 0.029306 0.000000
# 6 0.000000 0.000000 0.000000 0.000000 0.000000 0.038121
#
#
# Mechanical properties :
#
#
# Convention : Reuss Voigt Hill
#
# Bulk Modulus (GPa) = 58.52564 106.36064 82.44314
# Shear Modulus (GPa) = 29.21118 34.78477 31.99798
#
# Velocity S-wave (km/s) = 3.98444 4.34798 4.17017
# Velocity P-wave (km/s) = 7.27842 9.11108 8.24582
#
# Compressibility (1/GPa) = 0.01708653
#
# Stress axis : x y z
#
# Youngs Moduli (GPa) = 110.15494 37.02291 131.80796
#
# Poissons Ratio (x) = 0.20880 0.46377
# Poissons Ratio (y) = 0.62124 0.54518
# Poissons Ratio (z) = 0.38758 0.15313
#
# Static dielectric constant tensor:
#      x y z
#    x 1.620060 0.000000 0.000000 
#    y 0.000000 1.626360 0.000000 
#    z 0.000000 0.000000 1.605690 
# 
# From -- ./inp_files/20360.got.cif
#   From: 2010.05.17/outbox.cif.g08.bks.cpg/sg59_11_cif.got.tgz:20360.got - 2010.06.03 14:40:33.
