data_PCOD9451042
_publ_section_title
;
Structure prediction by ZEFSAII (Michael W. Deem and Ramdas Pophale) SiO2 
 PCOD9451042
Probable space group: P M M N
;
_chemical_formula_sum "Si O2"
_cell_formula_units_Z 64
_cell_length_a 8.683921
_cell_length_b 15.011430
_cell_length_c 25.086675
_cell_angle_alpha 90.000000
_cell_angle_beta 90.000000
_cell_angle_gamma 90.000000
_cell_volume 3270.250591
_symmetry_space_group_name_H-M "P M M N"
_symmetry_group_IT_number 59
_space_group.IT_coordinate_system_code '2'
_symmetry_cell_setting 'orthorhombic'
loop_
_space_group_symop_operation_xyz
x,y,z
1/2-x,1/2-y,z
1/2+x,-y,-z
-x,1/2+y,-z
-x,-y,-z
1/2+x,1/2+y,-z
1/2-x,y,z
x,1/2-y,z
loop_
_atom_site_type_symbol
_atom_site_label
_atom_site_fract_x
_atom_site_fract_y
_atom_site_fract_z
Si Si1 0.933437 0.464586 0.379357
Si Si2 0.063329 0.146004 0.280664
Si Si3 0.565428 0.149260 0.594827
Si Si4 0.433337 0.147337 0.475578
Si Si5 0.569294 0.152874 0.086960
Si Si6 0.435665 0.031922 0.178029
Si Si7 0.063962 0.849590 0.133474
Si Si8 0.932826 0.905513 0.018865
O O1 0.750000 0.465242 0.379969
O O2 0.995759 0.401581 0.332517
O O3 0.995227 0.565542 0.374113
O O4 0.995607 0.421917 0.434301
O O5 0.250000 0.143449 0.283682
O O6 0.018234 0.250000 0.276576
O O7 0.014110 0.087927 0.229395
O O8 0.750000 0.143388 0.596331
O O9 0.521107 0.250000 0.612426
O O10 0.508034 0.139926 0.533821
O O11 0.250000 0.133195 0.479782
O O12 0.458410 0.250000 0.457043
O O13 0.750000 0.136227 0.077577
O O14 0.552401 0.250000 0.113035
O O15 0.500000 0.079335 0.125476
O O16 0.483229 0.154249 0.030811
O O17 0.250000 0.035832 0.176448
O O18 0.482547 0.928491 0.173758
O O19 0.250000 0.849768 0.131136
O O20 0.012606 0.750000 0.147969
O O21 0.003428 0.873778 0.074581
O O22 0.750000 0.909865 0.023956
O O23 0.000000 0.000000 0.000000
#
# Coordination Sequence:
#
# PCOD9451042 Si02
#       8
#     8   8   8   8   8   8   8   8
#     4  12  24  37  57  85 119 158 199 245 298 355
#     4  10  22  41  63  87 116 150 194 246 296 348
#     4  10  21  38  60  86 118 157 200 244 291 348
#     4  10  20  35  57  86 122 161 200 245 295 349
#     4  11  23  37  56  84 117 151 187 231 284 343
#     4  10  21  39  63  86 112 150 193 240 290 342
#     4  10  21  38  60  87 119 153 190 235 287 344
#     4  12  23  36  56  83 116 154 193 234 284 341
#
# _framework density 19.570366
#
# number of rings (size 3 to 8) (size 9 to 14) (size 15 to 20)
#    0.000    1.375    1.250    4.875    0.000    7.000 
#    0.000    0.625    0.000    2.250    0.000    0.000 
#    0.000    0.000    0.000    0.000    0.000    0.000 
#
# Total GULP energy -357617.362623 kJ/mol
# GULP energy per Si atom -5587.771291 kJ/mol
# Density = 1.952582 g / cm^3
# Si number density = 19.570366 Si / 1000 Ang^3
#
#
#
# Elastic Constant Matrix: (Units=GPa)
#
#
# Indices 1 2 3 4 5 6 
#
# 1 36.8366 42.4075 16.1030 0.0000 0.0000 0.0000
# 2 42.4075 182.9929 53.8412 0.0000 0.0000 0.0000
# 3 16.1030 53.8412 54.6335 0.0000 0.0000 0.0000
# 4 0.0000 0.0000 0.0000 21.6804 0.0000 0.0000
# 5 0.0000 0.0000 0.0000 0.0000 24.8673 0.0000
# 6 0.0000 0.0000 0.0000 0.0000 0.0000 20.4450
#
#
#
# Elastic Compliance Matrix: (Units=1/GPa)
#
#
# Indices 1 2 3 4 5 6 
#
# 1 0.037495 -0.007658 -0.003504 0.000000 0.000000 0.000000
# 2 -0.007658 0.009260 -0.006869 0.000000 0.000000 0.000000
# 3 -0.003504 -0.006869 0.026106 0.000000 0.000000 0.000000
# 4 0.000000 0.000000 0.000000 0.046125 0.000000 0.000000
# 5 0.000000 0.000000 0.000000 0.000000 0.040214 0.000000
# 6 0.000000 0.000000 0.000000 0.000000 0.000000 0.048912
#
#
# Mechanical properties :
#
#
# Convention : Reuss Voigt Hill
#
# Bulk Modulus (GPa) = 27.17495 55.46294 41.31894
# Shear Modulus (GPa) = 19.49766 24.20595 21.85180
#
# Velocity S-wave (km/s) = 3.15982 3.52073 3.34515
# Velocity P-wave (km/s) = 5.21810 6.70292 6.00657
#
# Compressibility (1/GPa) = 0.03679860
#
# Stress axis : x y z
#
# Youngs Moduli (GPa) = 26.67001 107.98601 38.30530
#
# Poissons Ratio (x) = 0.82698 0.13424
# Poissons Ratio (y) = 0.20424 0.26312
# Poissons Ratio (z) = 0.09346 0.74175
#
# Static dielectric constant tensor:
#      x y z
#    x 1.652700 0.000000 0.000000 
#    y 0.000000 1.756910 0.000000 
#    z 0.000000 0.000000 1.716080 
# 
# From -- ./inp_files/31409.got.cif
#   From: 2010.05.17/outbox.cif.g08.bks.cpg/sg59_16_cif.got.tgz:31409.got - 2010.06.03 14:40:33.
