data_PCOD9451502
_publ_section_title
;
Structure prediction by ZEFSAII (Michael W. Deem and Ramdas Pophale) SiO2 
 PCOD9451502
Probable space group: P M M N
;
_chemical_formula_sum "Si O2"
_cell_formula_units_Z 64
_cell_length_a 27.418256
_cell_length_b 9.304610
_cell_length_c 13.500930
_cell_angle_alpha 90.000000
_cell_angle_beta 90.000000
_cell_angle_gamma 90.000000
_cell_volume 3444.305674
_symmetry_space_group_name_H-M "P M M N"
_symmetry_group_IT_number 59
_space_group.IT_coordinate_system_code '2'
_symmetry_cell_setting 'orthorhombic'
loop_
_space_group_symop_operation_xyz
x,y,z
1/2-x,1/2-y,z
1/2+x,-y,-z
-x,1/2+y,-z
-x,-y,-z
1/2+x,1/2+y,-z
1/2-x,y,z
x,1/2-y,z
loop_
_atom_site_type_symbol
_atom_site_label
_atom_site_fract_x
_atom_site_fract_y
_atom_site_fract_z
Si Si1 0.545435 0.592733 0.230921
Si Si2 0.980075 0.918559 0.905797
Si Si3 0.838617 0.580541 0.239397
Si Si4 0.867488 0.577505 0.865312
Si Si5 0.305451 0.424564 0.540785
Si Si6 0.525154 0.088299 0.585954
Si Si7 0.807866 0.080626 0.038651
Si Si8 0.376665 0.076496 0.360105
O O1 0.538208 0.750000 0.180058
O O2 0.518442 0.464685 0.176642
O O3 0.602770 0.571654 0.241071
O O4 0.517324 0.601146 0.333474
O O5 0.980051 0.750000 0.921156
O O6 0.924678 0.960357 0.879453
O O7 0.000000 0.000000 0.000000
O O8 0.825269 0.750000 0.227954
O O9 0.819838 0.530348 0.347409
O O10 0.820004 0.493455 0.144236
O O11 0.862145 0.750000 0.879585
O O12 0.855531 0.545306 0.749896
O O13 0.836662 0.495906 0.948830
O O14 0.250000 0.469577 0.519819
O O15 0.306776 0.250000 0.542464
O O16 0.341814 0.466309 0.451871
O O17 0.539638 0.250000 0.555794
O O18 0.500000 0.000000 0.500000
O O19 0.572064 0.004248 0.627015
O O20 0.750000 0.067115 0.021489
O O21 0.820381 0.250000 0.042402
O O22 0.384328 0.250000 0.364203
#
# Coordination Sequence:
#
# PCOD9451502 Si02
#       8
#     8   8   8   8   8   8   8   8
#     4  10  21  36  55  83 114 150 191 233 286 344
#     4  11  22  36  55  83 116 152 191 235 285 343
#     4  10  20  37  61  88 117 149 194 245 293 352
#     4  10  22  39  60  86 118 156 199 245 292 352
#     4   9  18  34  60  90 117 151 195 246 301 351
#     4  11  22  36  57  84 118 158 197 238 290 349
#     4  11  25  42  60  85 117 154 197 248 304 355
#     4  10  20  38  61  88 122 155 197 248 295 354
#
# _framework density 18.581394
#
# number of rings (size 3 to 8) (size 9 to 14) (size 15 to 20)
#    0.000    1.750    1.250    3.000    0.000    9.500 
#    0.000    3.125    0.000    1.125    0.000    0.000 
#    0.000    0.000    0.000    0.000    0.000    0.000 
#
# Total GULP energy -357069.331513 kJ/mol
# GULP energy per Si atom -5579.208305 kJ/mol
# Density = 1.853910 g / cm^3
# Si number density = 18.581394 Si / 1000 Ang^3
#
#
#
# Elastic Constant Matrix: (Units=GPa)
#
#
# Indices 1 2 3 4 5 6 
#
# 1 78.7599 37.9833 41.1648 0.0000 0.0000 0.0000
# 2 37.9833 58.6204 53.5808 0.0000 0.0000 0.0000
# 3 41.1648 53.5808 135.1893 0.0000 0.0000 0.0000
# 4 0.0000 0.0000 0.0000 23.4432 0.0000 0.0000
# 5 0.0000 0.0000 0.0000 0.0000 33.2048 0.0000
# 6 0.0000 0.0000 0.0000 0.0000 0.0000 -37.7346
#
#
#
# Elastic Compliance Matrix: (Units=1/GPa)
#
#
# Indices 1 2 3 4 5 6 
#
# 1 0.018634 -0.010800 -0.001393 0.000000 0.000000 0.000000
# 2 -0.010800 0.033009 -0.009794 0.000000 0.000000 0.000000
# 3 -0.001393 -0.009794 0.011703 0.000000 0.000000 0.000000
# 4 0.000000 0.000000 0.000000 0.042656 0.000000 0.000000
# 5 0.000000 0.000000 0.000000 0.000000 0.030116 0.000000
# 6 0.000000 0.000000 0.000000 0.000000 0.000000 -0.026501
#
#
# Mechanical properties :
#
#
# Convention : Reuss Voigt Hill
#
# Bulk Modulus (GPa) = 51.62505 59.78081 55.70293
# Shear Modulus (GPa) = 31.24035 13.10540 22.17288
#
# Velocity S-wave (km/s) = 4.10478 2.65862 3.45814
# Velocity P-wave (km/s) = 7.09289 6.45497 6.78144
#
# Compressibility (1/GPa) = 0.01937044
#
# Stress axis : x y z
#
# Youngs Moduli (GPa) = 53.66640 30.29474 85.44730
#
# Poissons Ratio (x) = 0.32719 0.11906
# Poissons Ratio (y) = 0.57961 0.83688
# Poissons Ratio (z) = 0.07478 0.29671
#
# Static dielectric constant tensor:
#      x y z
#    x 1.619950 0.000000 0.000000 
#    y 0.000000 1.652800 0.000000 
#    z 0.000000 0.000000 1.644750 
# 
# From -- ./inp_files/19292.got.cif
#   From: 2010.05.17/outbox.cif.g08.bks.cpg/sg59_10_cif.got.tgz:19292.got - 2010.06.03 14:40:33.
