data_PCOD9451463
_publ_section_title
;
Structure prediction by ZEFSAII (Michael W. Deem and Ramdas Pophale) SiO2 
 PCOD9451463
Probable space group: P M M N
;
_chemical_formula_sum "Si O2"
_cell_formula_units_Z 56
_cell_length_a 14.002727
_cell_length_b 20.396364
_cell_length_c 9.738130
_cell_angle_alpha 90.000000
_cell_angle_beta 90.000000
_cell_angle_gamma 90.000000
_cell_volume 2781.255862
_symmetry_space_group_name_H-M "P M M N"
_symmetry_group_IT_number 59
_space_group.IT_coordinate_system_code '2'
_symmetry_cell_setting 'orthorhombic'
loop_
_space_group_symop_operation_xyz
x,y,z
1/2-x,1/2-y,z
1/2+x,-y,-z
-x,1/2+y,-z
-x,-y,-z
1/2+x,1/2+y,-z
1/2-x,y,z
x,1/2-y,z
loop_
_atom_site_type_symbol
_atom_site_label
_atom_site_fract_x
_atom_site_fract_y
_atom_site_fract_z
Si Si1 0.974409 0.573751 0.453741
Si Si2 0.857764 0.486739 0.906221
Si Si3 0.042470 0.175933 0.040860
Si Si4 0.066899 0.064187 0.845539
Si Si5 0.354260 0.670773 0.817165
Si Si6 0.357920 0.382578 0.284573
Si Si7 0.138587 0.672201 0.491206
O O1 0.913129 0.566879 0.315054
O O2 0.919937 0.606914 0.580480
O O3 0.000000 0.500000 0.500000
O O4 0.065955 0.620636 0.424866
O O5 0.750000 0.459204 0.892722
O O6 0.860484 0.551361 0.808365
O O7 0.952782 0.448782 0.860025
O O8 0.878310 0.510416 0.062706
O O9 0.030516 0.250000 0.994951
O O10 0.102584 0.171729 0.180708
O O11 0.940415 0.146826 0.089946
O O12 0.086718 0.132153 0.922476
O O13 0.250000 0.646393 0.858593
O O14 0.354406 0.750000 0.829222
O O15 0.367608 0.658420 0.655443
O O16 0.250000 0.368964 0.323932
O O17 0.250000 0.662836 0.451571
O O18 0.115996 0.750000 0.469782
#
# Coordination Sequence:
#
# PCOD9451463 Si02
#       7
#     8   8   8   8   8   8   8
#     4  12  23  37  59  92 128 161 201 256 316 372
#     4   9  19  39  60  79 112 155 197 243 290 351
#     4  10  20  37  59  85 116 154 199 250 300 354
#     4  10  22  36  57  87 119 151 197 243 305 366
#     4   8  14  28  53  82 109 143 193 244 287 344
#     4  10  21  38  60  83 113 157 205 246 290 359
#     4   9  19  36  59  87 121 162 202 244 302 368
#
# _framework density 20.134789999999999
#
# number of rings (size 3 to 8) (size 9 to 14) (size 15 to 20)
#    0.000    2.286    2.857    0.857    0.000    3.143 
#    0.000    1.429    0.000    1.714    0.000    2.000 
#    0.000    0.000    0.000    0.000    0.000    0.000 
#
# Total GULP energy -312326.296400 kJ/mol
# GULP energy per Si atom -5577.255293 kJ/mol
# Density = 2.008896 g / cm^3
# Si number density = 20.134790 Si / 1000 Ang^3
#
#
#
# Elastic Constant Matrix: (Units=GPa)
#
#
# Indices 1 2 3 4 5 6 
#
# 1 73.7823 5.0684 -1.0481 0.0000 0.0000 0.0000
# 2 5.0684 48.7875 7.2954 0.0000 0.0000 0.0000
# 3 -1.0481 7.2954 92.9057 0.0000 0.0000 0.0000
# 4 0.0000 0.0000 0.0000 16.8899 0.0000 0.0000
# 5 0.0000 0.0000 0.0000 0.0000 12.1928 0.0000
# 6 0.0000 0.0000 0.0000 0.0000 0.0000 21.7171
#
#
#
# Elastic Compliance Matrix: (Units=1/GPa)
#
#
# Indices 1 2 3 4 5 6 
#
# 1 0.013657 -0.001459 0.000269 0.000000 0.000000 0.000000
# 2 -0.001459 0.020896 -0.001657 0.000000 0.000000 0.000000
# 3 0.000269 -0.001657 0.010897 0.000000 0.000000 0.000000
# 4 0.000000 0.000000 0.000000 0.059207 0.000000 0.000000
# 5 0.000000 0.000000 0.000000 0.000000 0.082015 0.000000
# 6 0.000000 0.000000 0.000000 0.000000 0.000000 0.046047
#
#
# Mechanical properties :
#
#
# Convention : Reuss Voigt Hill
#
# Bulk Modulus (GPa) = 25.15392 26.45632 25.80512
# Shear Modulus (GPa) = 19.86754 23.77062 21.81908
#
# Velocity S-wave (km/s) = 3.14463 3.43968 3.29546
# Velocity P-wave (km/s) = 5.06999 5.37990 5.22724
#
# Compressibility (1/GPa) = 0.03975524
#
# Stress axis : x y z
#
# Youngs Moduli (GPa) = 73.22025 47.85499 91.77030
#
# Poissons Ratio (x) = 0.06982 -0.02465
# Poissons Ratio (y) = 0.10683 0.15209
# Poissons Ratio (z) = -0.01967 0.07931
#
# Static dielectric constant tensor:
#      x y z
#    x 1.754780 0.000000 0.000000 
#    y 0.000000 1.709710 0.000000 
#    z 0.000000 0.000000 1.701030 
# 
# From -- ./inp_files/9347.got.cif
#   From: 2010.05.17/outbox.cif.g08.bks.cpg/sg59_5_cif.got.tgz:9347.got - 2010.06.03 14:40:33.
