data_PCOD9451721
_publ_section_title
;
Structure prediction by ZEFSAII (Michael W. Deem and Ramdas Pophale) SiO2 
 PCOD9451721
Probable space group: P M M N
;
_chemical_formula_sum "Si O2"
_cell_formula_units_Z 48
_cell_length_a 9.247614
_cell_length_b 7.827027
_cell_length_c 35.788133
_cell_angle_alpha 90.000000
_cell_angle_beta 90.000000
_cell_angle_gamma 90.000000
_cell_volume 2590.392467
_symmetry_space_group_name_H-M "P M M N"
_symmetry_group_IT_number 59
_space_group.IT_coordinate_system_code '2'
_symmetry_cell_setting 'orthorhombic'
loop_
_space_group_symop_operation_xyz
x,y,z
1/2-x,1/2-y,z
1/2+x,-y,-z
-x,1/2+y,-z
-x,-y,-z
1/2+x,1/2+y,-z
1/2-x,y,z
x,1/2-y,z
loop_
_atom_site_type_symbol
_atom_site_label
_atom_site_fract_x
_atom_site_fract_y
_atom_site_fract_z
Si Si1 0.572988 0.250000 0.245567
Si Si2 0.426146 0.059813 0.806729
Si Si3 0.423846 0.049173 0.613001
Si Si4 0.085939 0.544805 0.462619
Si Si5 0.925631 0.250000 0.331094
Si Si6 0.917895 0.042956 0.110657
Si Si7 0.913555 0.544119 0.962723
O O1 0.750000 0.250000 0.245967
O O2 0.526249 0.415718 0.222170
O O3 0.523651 0.250000 0.288360
O O4 0.250000 0.052552 0.807547
O O5 0.469202 0.250000 0.795504
O O6 0.471857 0.022550 0.849302
O O7 0.250000 0.037588 0.608100
O O8 0.457276 0.250000 0.620412
O O9 0.501182 0.992471 0.574754
O O10 0.467180 0.920042 0.645980
O O11 0.250000 0.477718 0.463581
O O12 0.092856 0.750000 0.461022
O O13 0.000000 0.500000 0.500000
O O14 0.750000 0.250000 0.329983
O O15 0.750000 0.992087 0.106110
O O16 0.921515 0.250000 0.112172
O O17 0.007562 0.983315 0.074898
O O18 0.750000 0.479413 0.965041
O O19 0.909213 0.750000 0.960272
O O20 0.000000 0.500000 0.000000
#
# Coordination Sequence:
#
# PCOD9451721 Si02
#       7
#     4   8   8   8   4   8   8
#     4   9  16  28  44  71 107 135 167 215 263 311
#     4   9  16  26  44  71 102 135 169 207 257 314
#     4   9  18  33  50  71 103 139 176 219 264 312
#     4  10  21  35  52  76 105 137 174 220 269 316
#     4   9  18  30  49  73 101 141 179 213 263 319
#     4   9  16  29  48  68  96 134 170 210 261 308
#     4  10  21  35  51  73 101 135 174 214 258 309
#
# _framework density 18.530010999999998
#
# number of rings (size 3 to 8) (size 9 to 14) (size 15 to 20)
#    0.000    2.667    0.833    1.000    1.167    3.333 
#    0.000    5.000    0.000    0.000    0.000    2.333 
#    0.000    0.000    0.000    0.000    0.000    0.000 
#
# Total GULP energy -267715.142894 kJ/mol
# GULP energy per Si atom -5577.398810 kJ/mol
# Density = 1.848784 g / cm^3
# Si number density = 18.530011 Si / 1000 Ang^3
#
#
#
# Elastic Constant Matrix: (Units=GPa)
#
#
# Indices 1 2 3 4 5 6 
#
# 1 55.8547 30.4220 58.2311 0.0000 0.0000 0.0000
# 2 30.4220 86.1931 80.3995 0.0000 0.0000 0.0000
# 3 58.2311 80.3995 206.1634 0.0000 0.0000 0.0000
# 4 0.0000 0.0000 0.0000 24.4416 0.0000 0.0000
# 5 0.0000 0.0000 0.0000 0.0000 20.7027 0.0000
# 6 0.0000 0.0000 0.0000 0.0000 0.0000 10.4922
#
#
#
# Elastic Compliance Matrix: (Units=1/GPa)
#
#
# Indices 1 2 3 4 5 6 
#
# 1 0.026094 -0.003670 -0.005939 0.000000 0.000000 0.000000
# 2 -0.003670 0.018751 -0.006276 0.000000 0.000000 0.000000
# 3 -0.005939 -0.006276 0.008976 0.000000 0.000000 0.000000
# 4 0.000000 0.000000 0.000000 0.040914 0.000000 0.000000
# 5 0.000000 0.000000 0.000000 0.000000 0.048303 0.000000
# 6 0.000000 0.000000 0.000000 0.000000 0.000000 0.095308
#
#
# Mechanical properties :
#
#
# Convention : Reuss Voigt Hill
#
# Bulk Modulus (GPa) = 45.34987 76.25737 60.80362
# Shear Modulus (GPa) = 18.02013 23.07120 20.54566
#
# Velocity S-wave (km/s) = 3.12185 3.53239 3.33344
# Velocity P-wave (km/s) = 6.12548 7.60788 6.90656
#
# Compressibility (1/GPa) = 0.02205078
#
# Stress axis : x y z
#
# Youngs Moduli (GPa) = 38.32238 53.32925 111.41372
#
# Poissons Ratio (x) = 0.19573 0.66170
# Poissons Ratio (y) = 0.14065 0.69924
# Poissons Ratio (z) = 0.22760 0.33470
#
# Static dielectric constant tensor:
#      x y z
#    x 1.634950 0.000000 0.000000 
#    y 0.000000 1.671560 0.000000 
#    z 0.000000 0.000000 1.610110 
# 
# From -- ./inp_files/33079.got.cif
#   From: 2010.05.17/outbox.cif.g08.bks.cpg/sg59_17_cif.got.tgz:33079.got - 2010.06.03 14:40:33.
