data_PCOD9451030
_publ_section_title
;
Structure prediction by ZEFSAII (Michael W. Deem and Ramdas Pophale) SiO2 
 PCOD9451030
Probable space group: P M M N
;
_chemical_formula_sum "Si O2"
_cell_formula_units_Z 32
_cell_length_a 16.703933
_cell_length_b 8.453144
_cell_length_c 11.627993
_cell_angle_alpha 90.000000
_cell_angle_beta 90.000000
_cell_angle_gamma 90.000000
_cell_volume 1641.881344
_symmetry_space_group_name_H-M "P M M N"
_symmetry_group_IT_number 59
_space_group.IT_coordinate_system_code '2'
_symmetry_cell_setting 'orthorhombic'
loop_
_space_group_symop_operation_xyz
x,y,z
1/2-x,1/2-y,z
1/2+x,-y,-z
-x,1/2+y,-z
-x,-y,-z
1/2+x,1/2+y,-z
1/2-x,y,z
x,1/2-y,z
loop_
_atom_site_type_symbol
_atom_site_label
_atom_site_fract_x
_atom_site_fract_y
_atom_site_fract_z
Si Si1 0.078025 0.063974 0.929852
Si Si2 0.101419 0.941607 0.433509
Si Si3 0.250000 0.941753 0.278818
Si Si4 0.060587 0.935434 0.676021
Si Si5 0.250000 0.940122 0.017571
O O1 0.080384 0.250000 0.950619
O O2 0.067495 0.028608 0.794299
O O3 0.165034 0.994206 0.964396
O O4 0.000000 0.000000 0.000000
O O5 0.088399 0.750000 0.427627
O O6 0.173247 0.987371 0.351311
O O7 0.117435 0.978239 0.567837
O O8 0.024927 0.030059 0.382299
O O9 0.250000 0.750000 0.273124
O O10 0.250000 0.999665 0.149118
O O11 0.070150 0.750000 0.702275
O O12 0.250000 0.750000 0.014976
#
# Coordination Sequence:
#
# PCOD9451030 Si02
#       5
#     8   8   4   8   4
#     4  12  25  42  63  88 122 163 207 256 309 363
#     4   9  18  34  57  84 114 149 190 239 295 357
#     4   9  18  34  57  82 108 143 186 233 288 349
#     4  10  20  35  57  85 116 152 195 241 295 356
#     4  11  23  40  63  92 124 159 202 251 306 369
#
# _framework density 19.489837000000001
#
# number of rings (size 3 to 8) (size 9 to 14) (size 15 to 20)
#    0.000    1.750    0.000    4.875    0.000    4.000 
#    0.000    4.375    0.000    0.000    0.000    0.000 
#    0.000    0.000    0.000    0.000    0.000    0.000 
#
# Total GULP energy -178499.584759 kJ/mol
# GULP energy per Si atom -5578.112024 kJ/mol
# Density = 1.944548 g / cm^3
# Si number density = 19.489837 Si / 1000 Ang^3
#
#
#
# Elastic Constant Matrix: (Units=GPa)
#
#
# Indices 1 2 3 4 5 6 
#
# 1 100.3336 30.5796 57.4081 0.0000 0.0000 0.0000
# 2 30.5796 72.6338 26.1183 0.0000 0.0000 0.0000
# 3 57.4081 26.1183 141.7543 0.0000 0.0000 0.0000
# 4 0.0000 0.0000 0.0000 29.6978 0.0000 0.0000
# 5 0.0000 0.0000 0.0000 0.0000 31.9099 0.0000
# 6 0.0000 0.0000 0.0000 0.0000 0.0000 28.5250
#
#
#
# Elastic Compliance Matrix: (Units=1/GPa)
#
#
# Indices 1 2 3 4 5 6 
#
# 1 0.014048 -0.004143 -0.004926 0.000000 0.000000 0.000000
# 2 -0.004143 0.015966 -0.001264 0.000000 0.000000 0.000000
# 3 -0.004926 -0.001264 0.009282 0.000000 0.000000 0.000000
# 4 0.000000 0.000000 0.000000 0.033673 0.000000 0.000000
# 5 0.000000 0.000000 0.000000 0.000000 0.031338 0.000000
# 6 0.000000 0.000000 0.000000 0.000000 0.000000 0.035057
#
#
# Mechanical properties :
#
#
# Convention : Reuss Voigt Hill
#
# Bulk Modulus (GPa) = 53.67412 60.32594 57.00003
# Shear Modulus (GPa) = 30.07698 31.40093 30.73896
#
# Velocity S-wave (km/s) = 3.93264 4.01826 3.97568
# Velocity P-wave (km/s) = 6.94407 7.24902 7.09818
#
# Compressibility (1/GPa) = 0.01863095
#
# Stress axis : x y z
#
# Youngs Moduli (GPa) = 71.18527 62.63126 107.73297
#
# Poissons Ratio (x) = 0.25948 0.53067
# Poissons Ratio (y) = 0.29492 0.13617
# Poissons Ratio (z) = 0.35064 0.07916
#
# Static dielectric constant tensor:
#      x y z
#    x 1.697460 0.000000 0.000000 
#    y 0.000000 1.674910 0.000000 
#    z 0.000000 0.000000 1.686050 
# 
# From -- ./inp_files/13679.got.cif
#   From: 2010.05.17/outbox.cif.g08.bks.cpg/sg59_7_cif.got.tgz:13679.got - 2010.06.03 14:40:33.
