data_PCOD9451151
_publ_section_title
;
Structure prediction by ZEFSAII (Michael W. Deem and Ramdas Pophale) SiO2 
 PCOD9451151
Probable space group: P M M N
;
_chemical_formula_sum "Si O2"
_cell_formula_units_Z 56
_cell_length_a 17.139710
_cell_length_b 8.681521
_cell_length_c 21.020523
_cell_angle_alpha 90.000000
_cell_angle_beta 90.000000
_cell_angle_gamma 90.000000
_cell_volume 3127.827595
_symmetry_space_group_name_H-M "P M M N"
_symmetry_group_IT_number 59
_space_group.IT_coordinate_system_code '2'
_symmetry_cell_setting 'orthorhombic'
loop_
_space_group_symop_operation_xyz
x,y,z
1/2-x,1/2-y,z
1/2+x,-y,-z
-x,1/2+y,-z
-x,-y,-z
1/2+x,1/2+y,-z
1/2-x,y,z
x,1/2-y,z
loop_
_atom_site_type_symbol
_atom_site_label
_atom_site_fract_x
_atom_site_fract_y
_atom_site_fract_z
Si Si1 0.838648 0.435740 0.848013
Si Si2 0.937260 0.935569 0.588273
Si Si3 0.750000 0.566919 0.228891
Si Si4 0.436448 0.435922 0.267307
Si Si5 0.391839 0.564974 0.538916
Si Si6 0.250000 0.563581 0.629665
Si Si7 0.485786 0.935099 0.069850
Si Si8 0.585444 0.065051 0.185085
O O1 0.750000 0.488645 0.858495
O O2 0.838379 0.250000 0.845433
O O3 0.874165 0.497819 0.782166
O O4 0.900548 0.480752 0.902549
O O5 0.934245 0.750000 0.587841
O O6 0.922714 0.987828 0.660344
O O7 0.024840 0.983413 0.567895
O O8 0.883318 0.998015 0.531809
O O9 0.750000 0.750000 0.223539
O O10 0.750000 0.514863 0.302289
O O11 0.829190 0.500650 0.198317
O O12 0.432108 0.250000 0.266032
O O13 0.522758 0.477340 0.240606
O O14 0.391805 0.750000 0.534107
O O15 0.324847 0.520621 0.587837
O O16 0.250000 0.750000 0.638734
O O17 0.490361 0.750000 0.069320
O O18 0.548065 0.000989 0.120214
O O19 0.500000 0.000000 0.000000
O O20 0.589186 0.250000 0.182635
#
# Coordination Sequence:
#
# PCOD9451151 Si02
#       8
#     8   8   4   8   8   4   8   8
#     4   9  19  36  56  80 109 142 181 225 267 317
#     4   9  17  31  49  71  98 130 169 216 267 320
#     4  12  24  36  54  84 116 143 180 229 278 330
#     4   9  18  33  55  79 104 139 181 224 274 327
#     4   9  18  32  50  70  95 130 174 218 262 321
#     4  10  20  36  54  72 100 139 178 221 274 326
#     4  10  20  37  60  85 116 150 187 227 272 323
#     4  10  20  37  59  82 111 148 187 226 273 327
#
# _framework density 17.9038
#
# number of rings (size 3 to 8) (size 9 to 14) (size 15 to 20)
#    0.000    2.429    0.000    2.357    0.000    4.857 
#    2.571    2.857    0.000    0.000    0.000    0.000 
#    0.000    0.000    0.000    0.000    0.000    0.000 
#
# Total GULP energy -312429.932137 kJ/mol
# GULP energy per Si atom -5579.105931 kJ/mol
# Density = 1.786305 g / cm^3
# Si number density = 17.903800 Si / 1000 Ang^3
#
#
#
# Elastic Constant Matrix: (Units=GPa)
#
#
# Indices 1 2 3 4 5 6 
#
# 1 140.6129 39.5478 80.2352 0.0000 0.0000 0.0000
# 2 39.5478 35.9942 41.1446 0.0000 0.0000 0.0000
# 3 80.2352 41.1446 167.8089 0.0000 0.0000 0.0000
# 4 0.0000 0.0000 0.0000 33.4131 0.0000 0.0000
# 5 0.0000 0.0000 0.0000 0.0000 14.5832 0.0000
# 6 0.0000 0.0000 0.0000 0.0000 0.0000 23.2427
#
#
#
# Elastic Compliance Matrix: (Units=1/GPa)
#
#
# Indices 1 2 3 4 5 6 
#
# 1 0.011494 -0.008818 -0.003334 0.000000 0.000000 0.000000
# 2 -0.008818 0.045366 -0.006907 0.000000 0.000000 0.000000
# 3 -0.003334 -0.006907 0.009247 0.000000 0.000000 0.000000
# 4 0.000000 0.000000 0.000000 0.029928 0.000000 0.000000
# 5 0.000000 0.000000 0.000000 0.000000 0.068572 0.000000
# 6 0.000000 0.000000 0.000000 0.000000 0.000000 0.043024
#
#
# Mechanical properties :
#
#
# Convention : Reuss Voigt Hill
#
# Bulk Modulus (GPa) = 35.72783 74.03015 54.87899
# Shear Modulus (GPa) = 19.60178 26.48036 23.04107
#
# Velocity S-wave (km/s) = 3.31242 3.85000 3.59128
# Velocity P-wave (km/s) = 5.88458 7.82316 6.92207
#
# Compressibility (1/GPa) = 0.02798938
#
# Stress axis : x y z
#
# Youngs Moduli (GPa) = 87.00147 22.04280 108.14839
#
# Poissons Ratio (x) = 0.19438 0.36052
# Poissons Ratio (y) = 0.76720 0.74697
# Poissons Ratio (z) = 0.29003 0.15225
#
# Static dielectric constant tensor:
#      x y z
#    x 1.611520 0.000000 0.000000 
#    y 0.000000 1.606120 0.000000 
#    z 0.000000 0.000000 1.591510 
# 
# From -- ./inp_files/30420.got.cif
#   From: 2010.05.17/outbox.cif.g08.bks.cpg/sg59_16_cif.got.tgz:30420.got - 2010.06.03 14:40:33.
