data_PCOD9451633
_publ_section_title
;
Structure prediction by ZEFSAII (Michael W. Deem and Ramdas Pophale) SiO2 
 PCOD9451633
Probable space group: P M M N
;
_chemical_formula_sum "Si O2"
_cell_formula_units_Z 64
_cell_length_a 19.271822
_cell_length_b 8.743638
_cell_length_c 20.231170
_cell_angle_alpha 90.000000
_cell_angle_beta 90.000000
_cell_angle_gamma 90.000000
_cell_volume 3409.070197
_symmetry_space_group_name_H-M "P M M N"
_symmetry_group_IT_number 59
_space_group.IT_coordinate_system_code '2'
_symmetry_cell_setting 'orthorhombic'
loop_
_space_group_symop_operation_xyz
x,y,z
1/2-x,1/2-y,z
1/2+x,-y,-z
-x,1/2+y,-z
-x,-y,-z
1/2+x,1/2+y,-z
1/2-x,y,z
x,1/2-y,z
loop_
_atom_site_type_symbol
_atom_site_label
_atom_site_fract_x
_atom_site_fract_y
_atom_site_fract_z
Si Si1 0.056426 0.565540 0.790357
Si Si2 0.668805 0.066971 0.968336
Si Si3 0.566829 0.434376 0.363435
Si Si4 0.830370 0.067009 0.714937
Si Si5 0.329940 0.434627 0.535171
Si Si6 0.916409 0.934905 0.593105
Si Si7 0.669560 0.567125 0.112088
Si Si8 0.595956 0.566518 0.841694
O O1 0.061186 0.750000 0.792947
O O2 0.059401 0.520454 0.713279
O O3 0.118630 0.494482 0.832028
O O4 0.982572 0.521717 0.822297
O O5 0.750000 0.026958 0.955456
O O6 0.663000 0.250000 0.967524
O O7 0.620918 0.995876 0.911951
O O8 0.651229 0.004630 0.040982
O O9 0.570933 0.250000 0.365828
O O10 0.633085 0.504190 0.399358
O O11 0.496731 0.482515 0.401979
O O12 0.750000 0.028312 0.702847
O O13 0.837419 0.250000 0.715691
O O14 0.877225 0.996834 0.657367
O O15 0.854801 0.000748 0.784843
O O16 0.250000 0.484308 0.529097
O O17 0.330769 0.250000 0.535948
O O18 0.375756 0.486115 0.472311
O O19 0.914738 0.750000 0.595193
O O20 0.750000 0.526123 0.125934
O O21 0.664823 0.750000 0.107684
O O22 0.600049 0.750000 0.840979
#
# Coordination Sequence:
#
# PCOD9451633 Si02
#       8
#     8   8   8   8   8   8   8   8
#     4  10  22  40  60  85 116 151 195 242 290 346
#     4  10  21  38  60  87 120 156 195 241 292 345
#     4  10  21  39  61  85 115 152 197 243 291 350
#     4  11  23  36  54  85 121 155 194 238 286 342
#     4  10  22  38  58  87 119 152 194 242 294 351
#     4  10  20  39  62  84 114 154 196 239 288 347
#     4  10  22  40  62  88 115 149 196 243 291 349
#     4  11  22  38  59  84 118 157 197 240 285 344
#
# _framework density 18.773446
#
# number of rings (size 3 to 8) (size 9 to 14) (size 15 to 20)
#    0.000    1.750    1.250    2.625    0.000    8.250 
#    0.000    2.500    0.000    0.000    0.000    0.000 
#    0.000    0.000    0.000    0.000    0.000    0.000 
#
# Total GULP energy -357640.913186 kJ/mol
# GULP energy per Si atom -5588.139269 kJ/mol
# Density = 1.873072 g / cm^3
# Si number density = 18.773446 Si / 1000 Ang^3
#
#
#
# Elastic Constant Matrix: (Units=GPa)
#
#
# Indices 1 2 3 4 5 6 
#
# 1 82.1792 13.1069 65.9161 0.0000 0.0000 0.0000
# 2 13.1069 8.1052 17.3404 0.0000 0.0000 0.0000
# 3 65.9161 17.3404 111.3994 0.0000 0.0000 0.0000
# 4 0.0000 0.0000 0.0000 32.2992 0.0000 0.0000
# 5 0.0000 0.0000 0.0000 0.0000 33.5557 0.0000
# 6 0.0000 0.0000 0.0000 0.0000 0.0000 24.9553
#
#
#
# Elastic Compliance Matrix: (Units=1/GPa)
#
#
# Indices 1 2 3 4 5 6 
#
# 1 0.023994 -0.012633 -0.012231 0.000000 0.000000 0.000000
# 2 -0.012633 0.191631 -0.022354 0.000000 0.000000 0.000000
# 3 -0.012231 -0.022354 0.019693 0.000000 0.000000 0.000000
# 4 0.000000 0.000000 0.000000 0.030960 0.000000 0.000000
# 5 0.000000 0.000000 0.000000 0.000000 0.029801 0.000000
# 6 0.000000 0.000000 0.000000 0.000000 0.000000 0.040072
#
#
# Mechanical properties :
#
#
# Convention : Reuss Voigt Hill
#
# Bulk Modulus (GPa) = 7.09815 43.82339 25.46077
# Shear Modulus (GPa) = 10.47015 25.18342 17.82678
#
# Velocity S-wave (km/s) = 2.36415 3.66654 3.08486
# Velocity P-wave (km/s) = 3.35283 6.42796 5.12641
#
# Compressibility (1/GPa) = 0.14088184
#
# Stress axis : x y z
#
# Youngs Moduli (GPa) = 41.67736 5.21837 50.77840
#
# Poissons Ratio (x) = 0.06593 0.62106
# Poissons Ratio (y) = 0.52653 1.13509
# Poissons Ratio (z) = 0.50975 0.11665
#
# Static dielectric constant tensor:
#      x y z
#    x 1.640200 0.000000 0.000000 
#    y 0.000000 1.632210 0.000000 
#    z 0.000000 0.000000 1.616280 
# 
# From -- ./inp_files/28248.got.cif
#   From: 2010.05.17/outbox.cif.g08.bks.cpg/sg59_15_cif.got.tgz:28248.got - 2010.06.03 14:40:33.
