data_PCOD9451859
_publ_section_title
;
Structure prediction by ZEFSAII (Michael W. Deem and Ramdas Pophale) SiO2 
 PCOD9451859
Probable space group: P M M N
;
_chemical_formula_sum "Si O2"
_cell_formula_units_Z 64
_cell_length_a 15.054773
_cell_length_b 8.057640
_cell_length_c 29.159087
_cell_angle_alpha 90.000000
_cell_angle_beta 90.000000
_cell_angle_gamma 90.000000
_cell_volume 3537.170491
_symmetry_space_group_name_H-M "P M M N"
_symmetry_group_IT_number 59
_space_group.IT_coordinate_system_code '2'
_symmetry_cell_setting 'orthorhombic'
loop_
_space_group_symop_operation_xyz
x,y,z
1/2-x,1/2-y,z
1/2+x,-y,-z
-x,1/2+y,-z
-x,-y,-z
1/2+x,1/2+y,-z
1/2-x,y,z
x,1/2-y,z
loop_
_atom_site_type_symbol
_atom_site_label
_atom_site_fract_x
_atom_site_fract_y
_atom_site_fract_z
Si Si1 0.529656 0.052888 0.612767
Si Si2 0.097896 0.949389 0.016162
Si Si3 0.345345 0.549183 0.918874
Si Si4 0.851734 0.049810 0.799996
Si Si5 0.149834 0.949618 0.574890
Si Si6 0.647655 0.452283 0.528868
Si Si7 0.540814 0.450314 0.887390
Si Si8 0.149212 0.447765 0.302649
O O1 0.532447 0.250000 0.609646
O O2 0.582343 0.984427 0.568164
O O3 0.427683 0.999801 0.609064
O O4 0.581576 0.003291 0.658379
O O5 0.108358 0.750000 0.017913
O O6 0.099759 0.009397 0.068723
O O7 0.153614 0.007383 0.972369
O O8 0.000000 0.000000 0.000000
O O9 0.250000 0.496533 0.898470
O O10 0.347601 0.750000 0.918845
O O11 0.437409 0.494018 0.895615
O O12 0.750000 0.991871 0.807489
O O13 0.850714 0.250000 0.802080
O O14 0.916995 0.988860 0.839959
O O15 0.877703 0.000848 0.748529
O O16 0.250000 0.007602 0.585738
O O17 0.152563 0.750000 0.573321
O O18 0.126985 0.008269 0.522990
O O19 0.750000 0.497629 0.539030
O O20 0.644246 0.250000 0.528653
O O21 0.545309 0.250000 0.887539
O O22 0.250000 0.513399 0.311083
O O23 0.153383 0.250000 0.303700
#
# Coordination Sequence:
#
# PCOD9451859 Si02
#       8
#     8   8   8   8   8   8   8   8
#     4  11  20  30  50  76 101 130 163 201 243 286
#     4   8  14  25  40  60  88 120 154 190 225 264
#     4   9  17  28  43  65  95 131 165 194 227 270
#     4   9  18  33  52  73  96 121 151 191 241 292
#     4   9  18  33  50  68  97 136 172 204 237 277
#     4   8  15  28  46  70 100 133 166 198 235 280
#     4   9  17  29  47  70  94 122 157 196 237 280
#     4  10  21  36  53  74  99 125 155 193 239 293
#
# _framework density 18.093558000000002
#
# number of rings (size 3 to 8) (size 9 to 14) (size 15 to 20)
#    0.000    2.875    0.000    2.250    0.000    2.750 
#    0.000    3.125    0.000    2.250    0.000    8.750 
#    0.000    0.000    0.000    0.000    0.000    0.000 
#
# Total GULP energy -356460.842463 kJ/mol
# GULP energy per Si atom -5569.700663 kJ/mol
# Density = 1.805238 g / cm^3
# Si number density = 18.093558 Si / 1000 Ang^3
#
#
#
# Elastic Constant Matrix: (Units=GPa)
#
#
# Indices 1 2 3 4 5 6 
#
# 1 117.8307 10.1706 95.0119 0.0000 0.0000 0.0000
# 2 10.1706 15.4486 13.2744 0.0000 0.0000 0.0000
# 3 95.0119 13.2744 128.8412 0.0000 0.0000 0.0000
# 4 0.0000 0.0000 0.0000 12.8569 0.0000 0.0000
# 5 0.0000 0.0000 0.0000 0.0000 107.7927 0.0000
# 6 0.0000 0.0000 0.0000 0.0000 0.0000 14.6980
#
#
#
# Elastic Compliance Matrix: (Units=1/GPa)
#
#
# Indices 1 2 3 4 5 6 
#
# 1 0.020940 -0.000568 -0.015383 0.000000 0.000000 0.000000
# 2 -0.000568 0.071033 -0.006900 0.000000 0.000000 0.000000
# 3 -0.015383 -0.006900 0.019817 0.000000 0.000000 0.000000
# 4 0.000000 0.000000 0.000000 0.077779 0.000000 0.000000
# 5 0.000000 0.000000 0.000000 0.000000 0.009277 0.000000
# 6 0.000000 0.000000 0.000000 0.000000 0.000000 0.068036
#
#
# Mechanical properties :
#
#
# Convention : Reuss Voigt Hill
#
# Bulk Modulus (GPa) = 15.13128 55.44825 35.28976
# Shear Modulus (GPa) = 14.94259 36.64711 25.79485
#
# Velocity S-wave (km/s) = 2.87688 4.50535 3.77986
# Velocity P-wave (km/s) = 4.40638 7.60106 6.21258
#
# Compressibility (1/GPa) = 0.06608826
#
# Stress axis : x y z
#
# Youngs Moduli (GPa) = 47.75530 14.07788 50.46250
#
# Poissons Ratio (x) = 0.00799 0.77629
# Poissons Ratio (y) = 0.02710 0.34819
# Poissons Ratio (z) = 0.73464 0.09714
#
# Static dielectric constant tensor:
#      x y z
#    x 1.547160 0.000000 0.000000 
#    y 0.000000 1.646690 0.000000 
#    z 0.000000 0.000000 1.625660 
# 
# From -- ./inp_files/33315.got.cif
#   From: 2010.05.17/outbox.cif.g08.bks.cpg/sg59_17_cif.got.tgz:33315.got - 2010.06.03 14:40:33.
