data_PCOD9451921
_publ_section_title
;
Structure prediction by ZEFSAII (Michael W. Deem and Ramdas Pophale) SiO2 
 PCOD9451921
Probable space group: P M M N
;
_chemical_formula_sum "Si O2"
_cell_formula_units_Z 64
_cell_length_a 32.219291
_cell_length_b 8.139202
_cell_length_c 12.488195
_cell_angle_alpha 90.000000
_cell_angle_beta 90.000000
_cell_angle_gamma 90.000000
_cell_volume 3274.895737
_symmetry_space_group_name_H-M "P M M N"
_symmetry_group_IT_number 59
_space_group.IT_coordinate_system_code '2'
_symmetry_cell_setting 'orthorhombic'
loop_
_space_group_symop_operation_xyz
x,y,z
1/2-x,1/2-y,z
1/2+x,-y,-z
-x,1/2+y,-z
-x,-y,-z
1/2+x,1/2+y,-z
1/2-x,y,z
x,1/2-y,z
loop_
_atom_site_type_symbol
_atom_site_label
_atom_site_fract_x
_atom_site_fract_y
_atom_site_fract_z
Si Si1 0.112998 0.059712 0.861919
Si Si2 0.978086 0.441442 0.108803
Si Si3 0.703063 0.447436 0.506149
Si Si4 0.452260 0.552311 0.485527
Si Si5 0.375631 0.945856 0.625699
Si Si6 0.370243 0.449517 0.097530
Si Si7 0.297010 0.051416 0.251951
Si Si8 0.052796 0.946069 0.243269
O O1 0.124805 0.250000 0.854055
O O2 0.063387 0.042714 0.871919
O O3 0.125760 0.975770 0.751884
O O4 0.129972 0.992250 0.974785
O O5 0.967150 0.250000 0.100163
O O6 0.010831 0.468655 0.203432
O O7 0.000000 0.500000 0.000000
O O8 0.750000 0.510261 0.483774
O O9 0.704543 0.250000 0.494403
O O10 0.665708 0.511607 0.432584
O O11 0.693219 0.486839 0.629648
O O12 0.500000 0.500000 0.500000
O O13 0.452364 0.750000 0.491354
O O14 0.418455 0.489862 0.571767
O O15 0.437813 0.505474 0.365509
O O16 0.376068 0.750000 0.607708
O O17 0.371681 0.250000 0.094910
O O18 0.330367 0.503197 0.165020
O O19 0.410779 0.507619 0.161551
O O20 0.250000 0.000423 0.225602
O O21 0.298069 0.250000 0.255849
O O22 0.046655 0.750000 0.239692
#
# Coordination Sequence:
#
# PCOD9451921 Si02
#       8
#     8   8   8   8   8   8   8   8
#     4  11  23  38  55  79 111 148 192 236 275 328
#     4  12  23  37  56  80 110 147 187 229 276 326
#     4   9  18  35  60  87 113 143 182 232 289 346
#     4  10  22  37  53  77 108 143 182 226 276 332
#     4  10  21  38  57  79 111 150 189 233 288 342
#     4  10  21  36  54  78 109 143 180 225 278 330
#     4   9  18  34  57  84 112 142 178 224 281 341
#     4  11  22  36  57  83 109 140 183 232 278 328
#
# _framework density 19.542608000000001
#
# number of rings (size 3 to 8) (size 9 to 14) (size 15 to 20)
#    0.000    1.750    1.250    3.375    0.000    6.000 
#    0.000    0.625    0.000    0.750    0.000    0.000 
#    0.000    0.000    0.000    0.000    0.000    0.000 
#
# Total GULP energy -357459.009799 kJ/mol
# GULP energy per Si atom -5585.297028 kJ/mol
# Density = 1.949813 g / cm^3
# Si number density = 19.542608 Si / 1000 Ang^3
#
#
#
# Elastic Constant Matrix: (Units=GPa)
#
#
# Indices 1 2 3 4 5 6 
#
# 1 122.1488 -1.2659 80.2030 0.0000 0.0000 0.0000
# 2 -1.2659 15.8641 3.2296 0.0000 0.0000 0.0000
# 3 80.2030 3.2296 134.3629 0.0000 0.0000 0.0000
# 4 0.0000 0.0000 0.0000 28.3844 0.0000 0.0000
# 5 0.0000 0.0000 0.0000 0.0000 37.0149 0.0000
# 6 0.0000 0.0000 0.0000 0.0000 0.0000 16.7601
#
#
#
# Elastic Compliance Matrix: (Units=1/GPa)
#
#
# Indices 1 2 3 4 5 6 
#
# 1 0.013582 0.002748 -0.008173 0.000000 0.000000 0.000000
# 2 0.002748 0.063901 -0.003176 0.000000 0.000000 0.000000
# 3 -0.008173 -0.003176 0.012398 0.000000 0.000000 0.000000
# 4 0.000000 0.000000 0.000000 0.035231 0.000000 0.000000
# 5 0.000000 0.000000 0.000000 0.000000 0.027016 0.000000
# 6 0.000000 0.000000 0.000000 0.000000 0.000000 0.059665
#
#
# Mechanical properties :
#
#
# Convention : Reuss Voigt Hill
#
# Bulk Modulus (GPa) = 13.75944 48.52323 31.14134
# Shear Modulus (GPa) = 19.74556 29.11249 24.42903
#
# Velocity S-wave (km/s) = 3.18210 3.86384 3.53942
# Velocity P-wave (km/s) = 4.53399 6.69246 5.71604
#
# Compressibility (1/GPa) = 0.07267736
#
# Stress axis : x y z
#
# Youngs Moduli (GPa) = 73.62850 15.64916 80.66126
#
# Poissons Ratio (x) = -0.04300 0.65926
# Poissons Ratio (y) = -0.20230 0.25618
# Poissons Ratio (z) = 0.60178 0.04970
#
# Static dielectric constant tensor:
#      x y z
#    x 1.750690 0.000000 0.000000 
#    y 0.000000 1.697290 0.000000 
#    z 0.000000 0.000000 1.679390 
# 
# From -- ./inp_files/19249.got.cif
#   From: 2010.05.17/outbox.cif.g08.bks.cpg/sg59_10_cif.got.tgz:19249.got - 2010.06.03 14:40:33.
