data_PCOD9451784
_publ_section_title
;
Structure prediction by ZEFSAII (Michael W. Deem and Ramdas Pophale) SiO2 
 PCOD9451784
Probable space group: P M M N
;
_chemical_formula_sum "Si O2"
_cell_formula_units_Z 48
_cell_length_a 9.248199
_cell_length_b 7.902358
_cell_length_c 34.904876
_cell_angle_alpha 90.000000
_cell_angle_beta 90.000000
_cell_angle_gamma 90.000000
_cell_volume 2550.938370
_symmetry_space_group_name_H-M "P M M N"
_symmetry_group_IT_number 59
_space_group.IT_coordinate_system_code '2'
_symmetry_cell_setting 'orthorhombic'
loop_
_space_group_symop_operation_xyz
x,y,z
1/2-x,1/2-y,z
1/2+x,-y,-z
-x,1/2+y,-z
-x,-y,-z
1/2+x,1/2+y,-z
1/2-x,y,z
x,1/2-y,z
loop_
_atom_site_type_symbol
_atom_site_label
_atom_site_fract_x
_atom_site_fract_y
_atom_site_fract_z
Si Si1 0.916203 0.049797 0.114958
Si Si2 0.578252 0.439520 0.809775
Si Si3 0.075885 0.250000 0.244874
Si Si4 0.076391 0.750000 0.673460
Si Si5 0.423289 0.051422 0.615792
Si Si6 0.084309 0.547441 0.038525
Si Si7 0.586106 0.453286 0.538134
O O1 0.750000 0.993459 0.110938
O O2 0.916916 0.250000 0.122980
O O3 0.994048 0.961449 0.150528
O O4 0.001586 0.019671 0.075707
O O5 0.750000 0.459893 0.817465
O O6 0.554721 0.250000 0.794599
O O7 0.535495 0.584524 0.779891
O O8 0.250000 0.250000 0.249354
O O9 0.001294 0.250000 0.285880
O O10 0.250000 0.750000 0.678683
O O11 0.039005 0.581430 0.649078
O O12 0.250000 0.042768 0.609903
O O13 0.458562 0.250000 0.624086
O O14 0.502570 0.996698 0.576748
O O15 0.250000 0.485353 0.037259
O O16 0.087577 0.750000 0.041298
O O17 0.000000 0.500000 0.000000
O O18 0.500000 0.500000 0.500000
O O19 0.750000 0.520003 0.537198
O O20 0.592875 0.250000 0.539278
#
# Coordination Sequence:
#
# PCOD9451784 Si02
#       7
#     8   8   4   4   8   8   8
#     4  11  23  38  59  88 120 154 194 241 294 352
#     4  10  21  39  63  89 118 155 197 240 293 353
#     4  10  22  40  60  88 122 152 190 244 298 352
#     4  10  22  38  60  86 114 152 196 240 292 356
#     4   9  19  37  57  79 112 151 192 241 293 345
#     4  11  24  40  58  83 115 153 199 246 294 350
#     4  10  21  35  53  80 113 149 191 240 292 346
#
# _framework density 18.816604000000002
#
# number of rings (size 3 to 8) (size 9 to 14) (size 15 to 20)
#    0.000    1.833    0.833    2.500    1.167    9.667 
#    0.000    0.000    0.000    0.000    0.000    0.000 
#    0.000    0.000    0.000    0.000    0.000    0.000 
#
# Total GULP energy -268136.943598 kJ/mol
# GULP energy per Si atom -5586.186325 kJ/mol
# Density = 1.877378 g / cm^3
# Si number density = 18.816604 Si / 1000 Ang^3
#
#
#
# Elastic Constant Matrix: (Units=GPa)
#
#
# Indices 1 2 3 4 5 6 
#
# 1 90.1185 48.0893 77.5168 0.0000 0.0000 0.0000
# 2 48.0893 95.7103 65.3566 0.0000 0.0000 0.0000
# 3 77.5168 65.3566 171.4399 0.0000 0.0000 0.0000
# 4 0.0000 0.0000 0.0000 27.1277 0.0000 0.0000
# 5 0.0000 0.0000 0.0000 0.0000 42.4472 0.0000
# 6 0.0000 0.0000 0.0000 0.0000 0.0000 21.1498
#
#
#
# Elastic Compliance Matrix: (Units=1/GPa)
#
#
# Indices 1 2 3 4 5 6 
#
# 1 0.019914 -0.005215 -0.007016 0.000000 0.000000 0.000000
# 2 -0.005215 0.015491 -0.003548 0.000000 0.000000 0.000000
# 3 -0.007016 -0.003548 0.010358 0.000000 0.000000 0.000000
# 4 0.000000 0.000000 0.000000 0.036863 0.000000 0.000000
# 5 0.000000 0.000000 0.000000 0.000000 0.023559 0.000000
# 6 0.000000 0.000000 0.000000 0.000000 0.000000 0.047282
#
#
# Mechanical properties :
#
#
# Convention : Reuss Voigt Hill
#
# Bulk Modulus (GPa) = 70.39430 82.13266 76.26348
# Shear Modulus (GPa) = 26.34924 29.23201 27.79063
#
# Velocity S-wave (km/s) = 3.74614 3.94575 3.84724
# Velocity P-wave (km/s) = 7.49689 8.03134 7.76871
#
# Compressibility (1/GPa) = 0.01420570
#
# Stress axis : x y z
#
# Youngs Moduli (GPa) = 50.21486 64.55430 96.54537
#
# Poissons Ratio (x) = 0.33663 0.67740
# Poissons Ratio (y) = 0.26186 0.34250
# Poissons Ratio (z) = 0.35233 0.22901
#
# Static dielectric constant tensor:
#      x y z
#    x 1.647650 0.000000 0.000000 
#    y 0.000000 1.688490 0.000000 
#    z 0.000000 0.000000 1.600600 
# 
# From -- ./inp_files/33067.got.cif
#   From: 2010.05.17/outbox.cif.g08.bks.cpg/sg59_17_cif.got.tgz:33067.got - 2010.06.03 14:40:33.
