data_PCOD9451277
_publ_section_title
;
Structure prediction by ZEFSAII (Michael W. Deem and Ramdas Pophale) SiO2 
 PCOD9451277
Probable space group: P M M N
;
_chemical_formula_sum "Si O2"
_cell_formula_units_Z 56
_cell_length_a 9.335836
_cell_length_b 15.996860
_cell_length_c 20.306965
_cell_angle_alpha 90.000000
_cell_angle_beta 90.000000
_cell_angle_gamma 90.000000
_cell_volume 3032.724629
_symmetry_space_group_name_H-M "P M M N"
_symmetry_group_IT_number 59
_space_group.IT_coordinate_system_code '2'
_symmetry_cell_setting 'orthorhombic'
loop_
_space_group_symop_operation_xyz
x,y,z
1/2-x,1/2-y,z
1/2+x,-y,-z
-x,1/2+y,-z
-x,-y,-z
1/2+x,1/2+y,-z
1/2-x,y,z
x,1/2-y,z
loop_
_atom_site_type_symbol
_atom_site_label
_atom_site_fract_x
_atom_site_fract_y
_atom_site_fract_z
Si Si1 0.577460 0.152541 0.323469
Si Si2 0.575286 0.932896 0.951507
Si Si3 0.582596 0.931682 0.796193
Si Si4 0.086020 0.160403 0.643971
Si Si5 0.419066 0.512929 0.568424
Si Si6 0.912926 0.750000 0.989705
Si Si7 0.415610 0.874712 0.228364
Si Si8 0.088618 0.250000 0.854129
O O1 0.750000 0.145015 0.317669
O O2 0.543679 0.250000 0.338131
O O3 0.507298 0.125490 0.253814
O O4 0.532683 0.087583 0.381811
O O5 0.750000 0.939573 0.959714
O O6 0.542918 0.939439 0.873472
O O7 0.524781 0.838985 0.969269
O O8 0.500000 0.000000 0.000000
O O9 0.750000 0.906002 0.793850
O O10 0.569089 0.026048 0.770246
O O11 0.250000 0.156659 0.669337
O O12 0.071519 0.250000 0.607973
O O13 0.977269 0.159294 0.703885
O O14 0.064348 0.076534 0.603678
O O15 0.500000 0.500000 0.500000
O O16 0.250000 0.527225 0.556024
O O17 0.750000 0.750000 0.962330
O O18 0.906827 0.750000 0.067997
O O19 0.250000 0.854181 0.219128
O O20 0.506395 0.831195 0.171503
O O21 0.250000 0.250000 0.827835
#
# Coordination Sequence:
#
# PCOD9451277 Si02
#       8
#     8   8   8   8   8   4   8   4
#     4  10  22  40  62  89 120 155 198 242 291 351
#     4  10  21  39  59  83 115 155 199 247 299 356
#     4  10  22  37  59  87 117 153 197 247 303 352
#     4  10  20  36  58  84 113 149 191 230 275 335
#     4  10  22  40  61  87 120 156 192 236 284 340
#     4   9  20  37  57  79 109 152 199 236 285 355
#     4  11  21  33  52  84 117 146 186 239 294 344
#     4  11  21  33  53  81 111 152 197 236 289 355
#
# _framework density 18.465244999999999
#
# number of rings (size 3 to 8) (size 9 to 14) (size 15 to 20)
#    0.000    1.857    2.143    1.500    1.000    3.143 
#    0.000    1.071    0.000    0.000    0.000    0.000 
#    0.000    0.000    0.000    0.000    0.000    0.000 
#
# Total GULP energy -312130.612197 kJ/mol
# GULP energy per Si atom -5573.760932 kJ/mol
# Density = 1.842322 g / cm^3
# Si number density = 18.465245 Si / 1000 Ang^3
#
#
#
# Elastic Constant Matrix: (Units=GPa)
#
#
# Indices 1 2 3 4 5 6 
#
# 1 53.7780 52.7307 45.8774 0.0000 0.0000 0.0000
# 2 52.7307 148.9839 64.6271 0.0000 0.0000 0.0000
# 3 45.8774 64.6271 112.5628 0.0000 0.0000 0.0000
# 4 0.0000 0.0000 0.0000 35.2440 0.0000 0.0000
# 5 0.0000 0.0000 0.0000 0.0000 29.2684 0.0000
# 6 0.0000 0.0000 0.0000 0.0000 0.0000 30.0368
#
#
#
# Elastic Compliance Matrix: (Units=1/GPa)
#
#
# Indices 1 2 3 4 5 6 
#
# 1 0.034657 -0.008175 -0.009431 0.000000 0.000000 0.000000
# 2 -0.008175 0.010867 -0.002907 0.000000 0.000000 0.000000
# 3 -0.009431 -0.002907 0.014397 0.000000 0.000000 0.000000
# 4 0.000000 0.000000 0.000000 0.028374 0.000000 0.000000
# 5 0.000000 0.000000 0.000000 0.000000 0.034167 0.000000
# 6 0.000000 0.000000 0.000000 0.000000 0.000000 0.033292
#
#
# Mechanical properties :
#
#
# Convention : Reuss Voigt Hill
#
# Bulk Modulus (GPa) = 52.92914 71.31056 62.11985
# Shear Modulus (GPa) = 24.62114 29.04915 26.83515
#
# Velocity S-wave (km/s) = 3.65551 3.97064 3.81632
# Velocity P-wave (km/s) = 6.82227 7.72812 7.28928
#
# Compressibility (1/GPa) = 0.01889318
#
# Stress axis : x y z
#
# Youngs Moduli (GPa) = 28.85457 92.02510 69.45891
#
# Poissons Ratio (x) = 0.75230 0.65510
# Poissons Ratio (y) = 0.23588 0.20192
# Poissons Ratio (z) = 0.27214 0.26753
#
# Static dielectric constant tensor:
#      x y z
#    x 1.628610 0.000000 0.000000 
#    y 0.000000 1.676950 0.000000 
#    z 0.000000 0.000000 1.636750 
# 
# From -- ./inp_files/29255.got.cif
#   From: 2010.05.17/outbox.cif.g08.bks.cpg/sg59_15_cif.got.tgz:29255.got - 2010.06.03 14:40:33.
