data_PCOD9451096
_publ_section_title
;
Structure prediction by ZEFSAII (Michael W. Deem and Ramdas Pophale) SiO2 
 PCOD9451096
Probable space group: P M M N
;
_chemical_formula_sum "Si O2"
_cell_formula_units_Z 40
_cell_length_a 8.991696
_cell_length_b 15.555495
_cell_length_c 14.648403
_cell_angle_alpha 90.000000
_cell_angle_beta 90.000000
_cell_angle_gamma 90.000000
_cell_volume 2048.876261
_symmetry_space_group_name_H-M "P M M N"
_symmetry_group_IT_number 59
_space_group.IT_coordinate_system_code '2'
_symmetry_cell_setting 'orthorhombic'
loop_
_space_group_symop_operation_xyz
x,y,z
1/2-x,1/2-y,z
1/2+x,-y,-z
-x,1/2+y,-z
-x,-y,-z
1/2+x,1/2+y,-z
1/2-x,y,z
x,1/2-y,z
loop_
_atom_site_type_symbol
_atom_site_label
_atom_site_fract_x
_atom_site_fract_y
_atom_site_fract_z
Si Si1 0.072985 0.250000 0.098616
Si Si2 0.425313 0.853129 0.417651
Si Si3 0.427341 0.581070 0.217697
Si Si4 0.426173 0.595129 0.790311
Si Si5 0.926409 0.250000 0.902702
Si Si6 0.079010 0.145711 0.395253
O O1 0.250000 0.250000 0.107652
O O2 0.005887 0.333133 0.148775
O O3 0.021550 0.250000 0.994086
O O4 0.250000 0.867798 0.435125
O O5 0.444172 0.750000 0.405257
O O6 0.465961 0.898509 0.323103
O O7 0.519292 0.880349 0.505452
O O8 0.250000 0.563485 0.214249
O O9 0.517826 0.499418 0.183567
O O10 0.455440 0.665744 0.158012
O O11 0.250000 0.603508 0.798133
O O12 0.478880 0.610843 0.686301
O O13 0.750000 0.250000 0.926003
O O14 0.250000 0.118747 0.382099
O O15 0.073474 0.250000 0.391501
#
# Coordination Sequence:
#
# PCOD9451096 Si02
#       6
#     4   8   8   8   4   8
#     4  12  26  46  69  92 121 158 201 258 318 372
#     4   9  17  33  59  90 124 165 209 251 299 357
#     4  10  21  40  66  95 128 165 206 254 306 364
#     4  12  25  41  64  93 125 164 208 256 308 370
#     4  10  22  44  71  96 123 160 203 252 312 370
#     4  10  20  35  58  88 124 166 209 256 306 359
#
# _framework density 19.522898000000001
#
# number of rings (size 3 to 8) (size 9 to 14) (size 15 to 20)
#    0.000    1.600    2.000    3.300    0.000    4.000 
#    0.000    0.000    0.000    0.000    0.000    0.000 
#    0.000    0.000    0.000    0.000    0.000    0.000 
#
# Total GULP energy -223715.848209 kJ/mol
# GULP energy per Si atom -5592.896205 kJ/mol
# Density = 1.947846 g / cm^3
# Si number density = 19.522898 Si / 1000 Ang^3
#
#
#
# Elastic Constant Matrix: (Units=GPa)
#
#
# Indices 1 2 3 4 5 6 
#
# 1 133.8203 82.1544 76.2905 0.0000 0.0000 0.0000
# 2 82.1544 111.2321 51.1519 0.0000 0.0000 0.0000
# 3 76.2905 51.1519 105.5404 0.0000 0.0000 0.0000
# 4 0.0000 0.0000 0.0000 -11.0653 0.0000 0.0000
# 5 0.0000 0.0000 0.0000 0.0000 27.1531 0.0000
# 6 0.0000 0.0000 0.0000 0.0000 0.0000 22.5186
#
#
#
# Elastic Compliance Matrix: (Units=1/GPa)
#
#
# Indices 1 2 3 4 5 6 
#
# 1 0.018162 -0.009493 -0.008528 0.000000 0.000000 0.000000
# 2 -0.009493 0.016530 -0.001150 0.000000 0.000000 0.000000
# 3 -0.008528 -0.001150 0.016197 0.000000 0.000000 0.000000
# 4 0.000000 0.000000 0.000000 -0.090373 0.000000 0.000000
# 5 0.000000 0.000000 0.000000 0.000000 0.036828 0.000000
# 6 0.000000 0.000000 0.000000 0.000000 0.000000 0.044408
#
#
# Mechanical properties :
#
#
# Convention : Reuss Voigt Hill
#
# Bulk Modulus (GPa) = 79.69131 85.53182 82.61156
# Shear Modulus (GPa) = 59.32952 17.12100 38.22526
#
# Velocity S-wave (km/s) = 5.51867 2.96458 4.42970
# Velocity P-wave (km/s) = 9.02860 7.45818 8.28070
#
# Compressibility (1/GPa) = 0.01254842
#
# Stress axis : x y z
#
# Youngs Moduli (GPa) = 55.06005 60.49607 61.74102
#
# Poissons Ratio (x) = 0.57426 0.52651
# Poissons Ratio (y) = 0.52266 0.07099
# Poissons Ratio (z) = 0.46954 0.06956
#
# Static dielectric constant tensor:
#      x y z
#    x 1.649350 0.000000 0.000000 
#    y 0.000000 1.697210 0.000000 
#    z 0.000000 0.000000 1.652590 
# 
# From -- ./inp_files/19991.got.cif
#   From: 2010.05.17/outbox.cif.g08.bks.cpg/sg59_10_cif.got.tgz:19991.got - 2010.06.03 14:40:33.
