data_PCOD9451683
_publ_section_title
;
Structure prediction by ZEFSAII (Michael W. Deem and Ramdas Pophale) SiO2 
 PCOD9451683
Probable space group: P M M N
;
_chemical_formula_sum "Si O2"
_cell_formula_units_Z 64
_cell_length_a 7.588979
_cell_length_b 13.993654
_cell_length_c 25.405236
_cell_angle_alpha 90.000000
_cell_angle_beta 90.000000
_cell_angle_gamma 90.000000
_cell_volume 2697.973727
_symmetry_space_group_name_H-M "P M M N"
_symmetry_group_IT_number 59
_space_group.IT_coordinate_system_code '2'
_symmetry_cell_setting 'orthorhombic'
loop_
_space_group_symop_operation_xyz
x,y,z
1/2-x,1/2-y,z
1/2+x,-y,-z
-x,1/2+y,-z
-x,-y,-z
1/2+x,1/2+y,-z
1/2-x,y,z
x,1/2-y,z
loop_
_atom_site_type_symbol
_atom_site_label
_atom_site_fract_x
_atom_site_fract_y
_atom_site_fract_z
Si Si1 0.541053 0.633739 0.526069
Si Si2 0.963702 0.859522 0.641116
Si Si3 0.546838 0.549771 0.192012
Si Si4 0.545654 0.641074 0.854503
Si Si5 0.041061 0.639418 0.970873
Si Si6 0.462191 0.140179 0.914651
Si Si7 0.457127 0.454789 0.694154
Si Si8 0.964436 0.637211 0.412722
O O1 0.750000 0.614062 0.526443
O O2 0.524484 0.750000 0.525493
O O3 0.469800 0.605523 0.583337
O O4 0.469455 0.599460 0.469635
O O5 0.750000 0.860460 0.639867
O O6 0.018434 0.750000 0.648994
O O7 0.025956 0.932141 0.685063
O O8 0.750000 0.582319 0.193925
O O9 0.545112 0.436244 0.182128
O O10 0.467425 0.593730 0.138862
O O11 0.467256 0.572569 0.248989
O O12 0.750000 0.643636 0.839699
O O13 0.476158 0.750000 0.852676
O O14 0.533049 0.605564 0.915188
O O15 0.250000 0.639041 0.964142
O O16 0.976335 0.750000 0.974599
O O17 0.004018 0.596008 0.028210
O O18 0.250000 0.138319 0.912074
O O19 0.523468 0.250000 0.915481
O O20 0.250000 0.429544 0.694987
O O21 0.533100 0.409397 0.640822
O O22 0.750000 0.627797 0.413762
O O23 0.002612 0.750000 0.410543
#
# Coordination Sequence:
#
# PCOD9451683 Si02
#       8
#     8   8   8   8   8   8   8   8
#     4   7  11  23  45  72  98 125 161 202 245 299
#     4   9  18  33  52  72  97 132 170 206 249 304
#     4  10  22  37  51  72 103 137 172 209 251 297
#     4  10  21  37  57  79 102 131 169 211 251 294
#     4   9  17  31  54  83 110 133 160 199 251 306
#     4   9  18  34  55  77 103 135 169 205 244 291
#     4  10  21  34  49  74 103 130 168 214 254 294
#     4   8  14  27  49  75 102 131 163 203 251 302
#
# _framework density 23.721505000000001
#
# number of rings (size 3 to 8) (size 9 to 14) (size 15 to 20)
#    0.000    3.000    0.000    2.250    0.000    5.500 
#    0.000    5.000    0.000    0.375    0.000    3.500 
#    0.000    0.000    0.000    0.000    0.000    0.000 
#
# Total GULP energy -357196.997840 kJ/mol
# GULP energy per Si atom -5581.203091 kJ/mol
# Density = 2.366751 g / cm^3
# Si number density = 23.721505 Si / 1000 Ang^3
#
#
#
# Elastic Constant Matrix: (Units=GPa)
#
#
# Indices 1 2 3 4 5 6 
#
# 1 56.9352 -9.2857 1.6379 0.0000 0.0000 0.0000
# 2 -9.2857 37.6248 23.7720 0.0000 0.0000 0.0000
# 3 1.6379 23.7720 139.6964 0.0000 0.0000 0.0000
# 4 0.0000 0.0000 0.0000 20.9350 0.0000 0.0000
# 5 0.0000 0.0000 0.0000 0.0000 6.0143 0.0000
# 6 0.0000 0.0000 0.0000 0.0000 0.0000 9.1243
#
#
#
# Elastic Compliance Matrix: (Units=1/GPa)
#
#
# Indices 1 2 3 4 5 6 
#
# 1 0.018453 0.005256 -0.001111 0.000000 0.000000 0.000000
# 2 0.005256 0.031277 -0.005384 0.000000 0.000000 0.000000
# 3 -0.001111 -0.005384 0.008088 0.000000 0.000000 0.000000
# 4 0.000000 0.000000 0.000000 0.047767 0.000000 0.000000
# 5 0.000000 0.000000 0.000000 0.000000 0.166271 0.000000
# 6 0.000000 0.000000 0.000000 0.000000 0.000000 0.109597
#
#
# Mechanical properties :
#
#
# Convention : Reuss Voigt Hill
#
# Bulk Modulus (GPa) = 18.07012 29.61164 23.84088
# Shear Modulus (GPa) = 12.42616 21.75687 17.09151
#
# Velocity S-wave (km/s) = 2.29123 3.03178 2.68714
# Velocity P-wave (km/s) = 3.82541 4.97652 4.43844
#
# Compressibility (1/GPa) = 0.05533996
#
# Stress axis : x y z
#
# Youngs Moduli (GPa) = 54.19175 31.97235 123.64624
#
# Poissons Ratio (x) = -0.16804 0.13734
# Poissons Ratio (y) = -0.28483 0.66571
# Poissons Ratio (z) = 0.06019 0.17214
#
# Static dielectric constant tensor:
#      x y z
#    x 1.758860 0.000000 0.000000 
#    y 0.000000 1.929420 0.000000 
#    z 0.000000 0.000000 1.929710 
# 
# From -- ./inp_files/31593.got.cif
#   From: 2010.05.17/outbox.cif.g08.bks.cpg/sg59_16_cif.got.tgz:31593.got - 2010.06.03 14:40:33.
