data_PCOD9451189
_publ_section_title
;
Structure prediction by ZEFSAII (Michael W. Deem and Ramdas Pophale) SiO2 
 PCOD9451189
Probable space group: P M M N
;
_chemical_formula_sum "Si O2"
_cell_formula_units_Z 64
_cell_length_a 31.761166
_cell_length_b 8.506576
_cell_length_c 12.556592
_cell_angle_alpha 90.000000
_cell_angle_beta 90.000000
_cell_angle_gamma 90.000000
_cell_volume 3392.524612
_symmetry_space_group_name_H-M "P M M N"
_symmetry_group_IT_number 59
_space_group.IT_coordinate_system_code '2'
_symmetry_cell_setting 'orthorhombic'
loop_
_space_group_symop_operation_xyz
x,y,z
1/2-x,1/2-y,z
1/2+x,-y,-z
-x,1/2+y,-z
-x,-y,-z
1/2+x,1/2+y,-z
1/2-x,y,z
x,1/2-y,z
loop_
_atom_site_type_symbol
_atom_site_label
_atom_site_fract_x
_atom_site_fract_y
_atom_site_fract_z
Si Si1 0.374410 0.938829 0.375535
Si Si2 0.201410 0.440265 0.519843
Si Si3 0.939041 0.438300 0.257197
Si Si4 0.518453 0.563037 0.888916
Si Si5 0.610826 0.062090 0.859201
Si Si6 0.952313 0.935922 0.489040
Si Si7 0.868380 0.062749 0.090945
Si Si8 0.799871 0.565292 0.238515
O O1 0.374517 0.750000 0.376214
O O2 0.371980 0.997718 0.253433
O O3 0.334185 0.997534 0.441568
O O4 0.418174 0.994332 0.428962
O O5 0.250000 0.488568 0.496599
O O6 0.200995 0.250000 0.518934
O O7 0.190673 0.489875 0.641103
O O8 0.933387 0.250000 0.273135
O O9 0.936472 0.521530 0.370391
O O10 0.905068 0.495732 0.170326
O O11 0.984446 0.463136 0.203762
O O12 0.525592 0.750000 0.897743
O O13 0.561466 0.475509 0.863703
O O14 0.500000 0.500000 0.000000
O O15 0.617045 0.250000 0.858473
O O16 0.629163 0.998990 0.970843
O O17 0.953628 0.750000 0.504210
O O18 0.000000 0.000000 0.500000
O O19 0.874979 0.250000 0.083564
O O20 0.825282 0.026272 0.149904
O O21 0.750000 0.551345 0.224368
O O22 0.810929 0.750000 0.231687
#
# Coordination Sequence:
#
# PCOD9451189 Si02
#       8
#     8   8   8   8   8   8   8   8
#     4  11  23  39  61  86 116 154 197 244 294 350
#     4   9  19  38  63  89 118 151 189 236 292 352
#     4  10  21  37  57  82 112 144 184 234 280 329
#     4  11  21  35  56  81 111 148 189 234 279 330
#     4  10  22  40  56  78 113 152 192 235 279 331
#     4  12  25  40  58  82 116 153 193 240 291 349
#     4  10  20  36  56  80 110 142 180 225 272 325
#     4   9  19  36  57  83 113 142 176 223 277 334
#
# _framework density 18.865006999999999
#
# number of rings (size 3 to 8) (size 9 to 14) (size 15 to 20)
#    0.000    1.750    1.250    4.125    0.000    8.000 
#    0.000    1.875    0.000    3.750    0.000    0.000 
#    0.000    0.000    0.000    0.000    0.000    0.000 
#
# Total GULP energy -357427.680781 kJ/mol
# GULP energy per Si atom -5584.807512 kJ/mol
# Density = 1.882207 g / cm^3
# Si number density = 18.865007 Si / 1000 Ang^3
#
#
#
# Elastic Constant Matrix: (Units=GPa)
#
#
# Indices 1 2 3 4 5 6 
#
# 1 57.3443 13.1901 56.8442 0.0000 0.0000 0.0000
# 2 13.1901 17.9670 25.5953 0.0000 0.0000 0.0000
# 3 56.8442 25.5953 149.1881 0.0000 0.0000 0.0000
# 4 0.0000 0.0000 0.0000 20.0547 0.0000 0.0000
# 5 0.0000 0.0000 0.0000 0.0000 29.2525 0.0000
# 6 0.0000 0.0000 0.0000 0.0000 0.0000 33.2694
#
#
#
# Elastic Compliance Matrix: (Units=1/GPa)
#
#
# Indices 1 2 3 4 5 6 
#
# 1 0.028723 -0.007273 -0.009696 0.000000 0.000000 0.000000
# 2 -0.007273 0.075502 -0.010182 0.000000 0.000000 0.000000
# 3 -0.009696 -0.010182 0.012144 0.000000 0.000000 0.000000
# 4 0.000000 0.000000 0.000000 0.049864 0.000000 0.000000
# 5 0.000000 0.000000 0.000000 0.000000 0.034185 0.000000
# 6 0.000000 0.000000 0.000000 0.000000 0.000000 0.030058
#
#
# Mechanical properties :
#
#
# Convention : Reuss Voigt Hill
#
# Bulk Modulus (GPa) = 16.11184 46.19540 31.15362
# Shear Modulus (GPa) = 16.36828 25.10664 20.73746
#
# Velocity S-wave (km/s) = 2.94879 3.65205 3.31910
# Velocity P-wave (km/s) = 4.48920 6.50567 5.58913
#
# Compressibility (1/GPa) = 0.06206614
#
# Stress axis : x y z
#
# Youngs Moduli (GPa) = 34.81480 13.24466 82.34229
#
# Poissons Ratio (x) = 0.09633 0.79843
# Poissons Ratio (y) = 0.25322 0.83842
# Poissons Ratio (z) = 0.33758 0.13486
#
# Static dielectric constant tensor:
#      x y z
#    x 1.633650 0.000000 0.000000 
#    y 0.000000 1.652650 0.000000 
#    z 0.000000 0.000000 1.668770 
# 
# From -- ./inp_files/19226.got.cif
#   From: 2010.05.17/outbox.cif.g08.bks.cpg/sg59_10_cif.got.tgz:19226.got - 2010.06.03 14:40:33.
