data_PCOD9451470
_publ_section_title
;
Structure prediction by ZEFSAII (Michael W. Deem and Ramdas Pophale) SiO2 
 PCOD9451470
Probable space group: P M M N
;
_chemical_formula_sum "Si O2"
_cell_formula_units_Z 26
_cell_length_a 13.767666
_cell_length_b 7.511986
_cell_length_c 9.681709
_cell_angle_alpha 90.000000
_cell_angle_beta 90.000000
_cell_angle_gamma 90.000000
_cell_volume 1001.306687
_symmetry_space_group_name_H-M "P M M N"
_symmetry_group_IT_number 59
_space_group.IT_coordinate_system_code '2'
_symmetry_cell_setting 'orthorhombic'
loop_
_space_group_symop_operation_xyz
x,y,z
1/2-x,1/2-y,z
1/2+x,-y,-z
-x,1/2+y,-z
-x,-y,-z
1/2+x,1/2+y,-z
1/2-x,y,z
x,1/2-y,z
loop_
_atom_site_type_symbol
_atom_site_label
_atom_site_fract_x
_atom_site_fract_y
_atom_site_fract_z
Si Si1 0.857322 0.460489 0.881469
Si Si2 0.888354 0.450726 0.486822
Si Si3 0.750000 0.750000 0.597267
Si Si4 0.574060 0.535788 0.187734
O O1 0.750000 0.540793 0.847004
O O2 0.853024 0.250000 0.852587
O O3 0.960773 0.526989 0.820574
O O4 0.874008 0.483469 0.045816
O O5 0.869496 0.250000 0.532075
O O6 0.831855 0.594190 0.573406
O O7 0.870915 0.467659 0.322585
O O8 0.000000 0.500000 0.500000
O O9 0.572062 0.750000 0.195744
#
# Coordination Sequence:
#
# PCOD9451470 Si02
#       4
#     8   8   2   8
#     4   9  19  35  57  87 123 172 224 271 334 399
#     4  12  25  47  72 102 141 177 230 289 340 415
#     4  12  26  48  76 104 126 192 226 276 364 394
#     4  10  20  37  59  89 131 171 218 281 332 395
#
# _framework density 25.966073000000002
#
# number of rings (size 3 to 8) (size 9 to 14) (size 15 to 20)
#    0.000    1.538    3.077    1.385    2.154    1.846 
#    2.769    0.000    0.000    0.000    0.000    0.000 
#    0.000    0.000    0.000    0.000    0.000    0.000 
#
# Total GULP energy -145204.232474 kJ/mol
# GULP energy per Si atom -5584.778172 kJ/mol
# Density = 2.590697 g / cm^3
# Si number density = 25.966073 Si / 1000 Ang^3
#
#
#
# Elastic Constant Matrix: (Units=GPa)
#
#
# Indices 1 2 3 4 5 6 
#
# 1 179.9205 11.5742 14.6808 0.0000 0.0000 0.0000
# 2 11.5742 158.4217 -8.3470 0.0000 0.0000 0.0000
# 3 14.6808 -8.3470 149.3265 0.0000 0.0000 0.0000
# 4 0.0000 0.0000 0.0000 -26.3229 0.0000 0.0000
# 5 0.0000 0.0000 0.0000 0.0000 19.8342 0.0000
# 6 0.0000 0.0000 0.0000 0.0000 0.0000 38.6312
#
#
#
# Elastic Compliance Matrix: (Units=1/GPa)
#
#
# Indices 1 2 3 4 5 6 
#
# 1 0.005634 -0.000442 -0.000579 0.000000 0.000000 0.000000
# 2 -0.000442 0.006366 0.000399 0.000000 0.000000 0.000000
# 3 -0.000579 0.000399 0.006776 0.000000 0.000000 0.000000
# 4 0.000000 0.000000 0.000000 -0.037990 0.000000 0.000000
# 5 0.000000 0.000000 0.000000 0.000000 0.050418 0.000000
# 6 0.000000 0.000000 0.000000 0.000000 0.000000 0.025886
#
#
# Mechanical properties :
#
#
# Convention : Reuss Voigt Hill
#
# Bulk Modulus (GPa) = 57.03704 58.16495 57.60099
# Shear Modulus (GPa) = 77.91048 37.74587 57.82817
#
# Velocity S-wave (km/s) = 5.48360 3.81683 4.72430
# Velocity P-wave (km/s) = 7.88079 6.47095 7.21041
#
# Compressibility (1/GPa) = 0.01753247
#
# Stress axis : x y z
#
# Youngs Moduli (GPa) = 177.50453 157.09432 147.58105
#
# Poissons Ratio (x) = 0.06945 0.08539
# Poissons Ratio (y) = 0.07847 -0.05893
# Poissons Ratio (z) = 0.10270 -0.06273
#
# Static dielectric constant tensor:
#      x y z
#    x 2.029200 0.000000 0.000000 
#    y 0.000000 1.951500 0.000000 
#    z 0.000000 0.000000 2.147320 
# 
# From -- ./inp_files/13503.got.cif
#   From: 2010.05.17/outbox.cif.g08.bks.cpg/sg59_7_cif.got.tgz:13503.got - 2010.06.03 14:40:33.
