data_PCOD9451878
_publ_section_title
;
Structure prediction by ZEFSAII (Michael W. Deem and Ramdas Pophale) SiO2 
 PCOD9451878
Probable space group: P M M N
;
_chemical_formula_sum "Si O2"
_cell_formula_units_Z 48
_cell_length_a 15.120735
_cell_length_b 8.293413
_cell_length_c 20.316936
_cell_angle_alpha 90.000000
_cell_angle_beta 90.000000
_cell_angle_gamma 90.000000
_cell_volume 2547.794571
_symmetry_space_group_name_H-M "P M M N"
_symmetry_group_IT_number 59
_space_group.IT_coordinate_system_code '2'
_symmetry_cell_setting 'orthorhombic'
loop_
_space_group_symop_operation_xyz
x,y,z
1/2-x,1/2-y,z
1/2+x,-y,-z
-x,1/2+y,-z
-x,-y,-z
1/2+x,1/2+y,-z
1/2-x,y,z
x,1/2-y,z
loop_
_atom_site_type_symbol
_atom_site_label
_atom_site_fract_x
_atom_site_fract_y
_atom_site_fract_z
Si Si1 0.649529 0.055635 0.413498
Si Si2 0.938912 0.442670 0.816222
Si Si3 0.750000 0.053280 0.023291
Si Si4 0.556435 0.056935 0.062939
Si Si5 0.851876 0.944599 0.558003
Si Si6 0.513309 0.554798 0.670886
Si Si7 0.250000 0.946739 0.130161
O O1 0.750000 0.995636 0.404592
O O2 0.651549 0.250000 0.411750
O O3 0.581022 0.000576 0.358233
O O4 0.618771 0.005647 0.486417
O O5 0.936760 0.250000 0.819035
O O6 0.965989 0.495787 0.743567
O O7 0.840271 0.502177 0.835288
O O8 0.007729 0.501428 0.871150
O O9 0.750000 0.250000 0.024748
O O10 0.658021 0.999118 0.055894
O O11 0.750000 0.005517 0.946469
O O12 0.558049 0.250000 0.061741
O O13 0.500000 0.000000 0.000000
O O14 0.750000 0.996556 0.567361
O O15 0.853767 0.750000 0.556536
O O16 0.913262 0.998946 0.617805
O O17 0.513885 0.750000 0.671837
O O18 0.250000 0.750000 0.131376
#
# Coordination Sequence:
#
# PCOD9451878 Si02
#       7
#     8   8   4   8   8   8   4
#     4   9  18  34  55  77 103 139 185 228 268 326
#     4  11  23  39  58  82 114 148 185 228 274 330
#     4   9  18  36  62  84 110 147 182 221 274 330
#     4  11  21  38  62  87 114 147 187 228 272 326
#     4   9  18  32  52  79 109 138 174 227 281 323
#     4  10  21  36  53  77 110 146 183 223 274 331
#     4   9  18  36  58  82 112 145 178 217 274 334
#
# _framework density 18.839822999999999
#
# number of rings (size 3 to 8) (size 9 to 14) (size 15 to 20)
#    0.000    2.167    1.667    1.500    1.167    1.333 
#    1.500    3.750    0.000    0.000    0.000    0.000 
#    0.000    0.000    0.000    0.000    0.000    0.000 
#
# Total GULP energy -267963.123917 kJ/mol
# GULP energy per Si atom -5582.565082 kJ/mol
# Density = 1.879694 g / cm^3
# Si number density = 18.839823 Si / 1000 Ang^3
#
#
#
# Elastic Constant Matrix: (Units=GPa)
#
#
# Indices 1 2 3 4 5 6 
#
# 1 176.9204 23.7664 123.2042 0.0000 0.0000 0.0000
# 2 23.7664 15.0617 18.9728 0.0000 0.0000 0.0000
# 3 123.2042 18.9728 178.5169 0.0000 0.0000 0.0000
# 4 0.0000 0.0000 0.0000 34.5664 0.0000 0.0000
# 5 0.0000 0.0000 0.0000 0.0000 12.3793 0.0000
# 6 0.0000 0.0000 0.0000 0.0000 0.0000 17.4315
#
#
#
# Elastic Compliance Matrix: (Units=1/GPa)
#
#
# Indices 1 2 3 4 5 6 
#
# 1 0.012025 -0.009838 -0.007254 0.000000 0.000000 0.000000
# 2 -0.009838 0.084704 -0.002213 0.000000 0.000000 0.000000
# 3 -0.007254 -0.002213 0.010843 0.000000 0.000000 0.000000
# 4 0.000000 0.000000 0.000000 0.028930 0.000000 0.000000
# 5 0.000000 0.000000 0.000000 0.000000 0.080780 0.000000
# 6 0.000000 0.000000 0.000000 0.000000 0.000000 0.057367
#
#
# Mechanical properties :
#
#
# Convention : Reuss Voigt Hill
#
# Bulk Modulus (GPa) = 14.50035 78.04288 46.27161
# Shear Modulus (GPa) = 14.87009 26.51249 20.69129
#
# Velocity S-wave (km/s) = 2.81248 3.75541 3.31762
# Velocity P-wave (km/s) = 4.27318 7.76650 6.26812
#
# Compressibility (1/GPa) = 0.06896386
#
# Stress axis : x y z
#
# Youngs Moduli (GPa) = 83.15965 11.80581 92.22541
#
# Poissons Ratio (x) = 0.11614 0.66897
# Poissons Ratio (y) = 0.81809 0.20409
# Poissons Ratio (z) = 0.60321 0.02613
#
# Static dielectric constant tensor:
#      x y z
#    x 1.676280 0.000000 0.000000 
#    y 0.000000 1.655330 0.000000 
#    z 0.000000 0.000000 1.556070 
# 
# From -- ./inp_files/27452.got.cif
#   From: 2010.05.17/outbox.cif.g08.bks.cpg/sg59_14_cif.got.tgz:27452.got - 2010.06.03 14:40:33.
