data_PCOD9451354
_publ_section_title
;
Structure prediction by ZEFSAII (Michael W. Deem and Ramdas Pophale) SiO2 
 PCOD9451354
Probable space group: P M M N
;
_chemical_formula_sum "Si O2"
_cell_formula_units_Z 48
_cell_length_a 8.793326
_cell_length_b 31.048898
_cell_length_c 9.814595
_cell_angle_alpha 90.000000
_cell_angle_beta 90.000000
_cell_angle_gamma 90.000000
_cell_volume 2679.610976
_symmetry_space_group_name_H-M "P M M N"
_symmetry_group_IT_number 59
_space_group.IT_coordinate_system_code '2'
_symmetry_cell_setting 'orthorhombic'
loop_
_space_group_symop_operation_xyz
x,y,z
1/2-x,1/2-y,z
1/2+x,-y,-z
-x,1/2+y,-z
-x,-y,-z
1/2+x,1/2+y,-z
1/2-x,y,z
x,1/2-y,z
loop_
_atom_site_type_symbol
_atom_site_label
_atom_site_fract_x
_atom_site_fract_y
_atom_site_fract_z
Si Si1 0.430721 0.015624 0.143690
Si Si2 0.930046 0.563200 0.284318
Si Si3 0.431995 0.699555 0.304865
Si Si4 0.569003 0.858310 0.075438
Si Si5 0.567600 0.868450 0.512489
Si Si6 0.068560 0.609287 0.800538
O O1 0.250000 0.020055 0.130684
O O2 0.502580 0.061164 0.183063
O O3 0.474424 0.979127 0.253184
O O4 0.500000 0.000000 0.000000
O O5 0.750000 0.552775 0.284742
O O6 0.955971 0.597780 0.162797
O O7 0.967668 0.588847 0.422403
O O8 0.250000 0.693952 0.307427
O O9 0.466999 0.750000 0.316653
O O10 0.497680 0.679568 0.165575
O O11 0.505848 0.671702 0.425790
O O12 0.750000 0.852639 0.063101
O O13 0.493019 0.864061 0.929458
O O14 0.750000 0.865818 0.522827
O O15 0.492471 0.871760 0.659263
O O16 0.250000 0.608091 0.802193
#
# Coordination Sequence:
#
# PCOD9451354 Si02
#       6
#     8   8   8   8   8   8
#     4  12  23  35  55  82 115 155 201 247 291 339
#     4   9  19  36  57  81 111 151 197 241 286 337
#     4  10  21  39  64  92 120 150 188 233 284 348
#     4  10  20  36  60  86 116 150 191 238 285 342
#     4  10  22  40  61  85 118 155 194 241 293 351
#     4  12  24  38  58  84 118 156 195 242 296 348
#
# _framework density 17.913046999999999
#
# number of rings (size 3 to 8) (size 9 to 14) (size 15 to 20)
#    0.000    1.500    1.667    5.500    0.000    5.333 
#    0.000    0.833    0.000    5.000    0.000    0.000 
#    0.000    0.000    0.000    0.000    0.000    0.000 
#
# Total GULP energy -268309.179790 kJ/mol
# GULP energy per Si atom -5589.774579 kJ/mol
# Density = 1.787228 g / cm^3
# Si number density = 17.913047 Si / 1000 Ang^3
#
#
#
# Elastic Constant Matrix: (Units=GPa)
#
#
# Indices 1 2 3 4 5 6 
#
# 1 113.2126 60.2959 71.8338 0.0000 0.0000 0.0000
# 2 60.2959 105.4976 59.5176 0.0000 0.0000 0.0000
# 3 71.8338 59.5176 155.6126 0.0000 0.0000 0.0000
# 4 0.0000 0.0000 0.0000 14.1119 0.0000 0.0000
# 5 0.0000 0.0000 0.0000 0.0000 32.4753 0.0000
# 6 0.0000 0.0000 0.0000 0.0000 0.0000 29.7785
#
#
#
# Elastic Compliance Matrix: (Units=1/GPa)
#
#
# Indices 1 2 3 4 5 6 
#
# 1 0.014918 -0.005918 -0.004623 0.000000 0.000000 0.000000
# 2 -0.005918 0.014435 -0.002789 0.000000 0.000000 0.000000
# 3 -0.004623 -0.002789 0.009627 0.000000 0.000000 0.000000
# 4 0.000000 0.000000 0.000000 0.070862 0.000000 0.000000
# 5 0.000000 0.000000 0.000000 0.000000 0.030793 0.000000
# 6 0.000000 0.000000 0.000000 0.000000 0.000000 0.033581
#
#
# Mechanical properties :
#
#
# Convention : Reuss Voigt Hill
#
# Bulk Modulus (GPa) = 81.17098 84.17972 82.67535
# Shear Modulus (GPa) = 24.39228 27.45150 25.92189
#
# Velocity S-wave (km/s) = 3.69413 3.91895 3.80820
# Velocity P-wave (km/s) = 7.97545 8.22028 8.09879
#
# Compressibility (1/GPa) = 0.01231967
#
# Stress axis : x y z
#
# Youngs Moduli (GPa) = 67.03209 69.27697 103.87478
#
# Poissons Ratio (x) = 0.41000 0.48021
# Poissons Ratio (y) = 0.39671 0.28970
# Poissons Ratio (z) = 0.30989 0.19321
#
# Static dielectric constant tensor:
#      x y z
#    x 1.599260 0.000000 0.000000 
#    y 0.000000 1.588970 0.000000 
#    z 0.000000 0.000000 1.605100 
# 
# From -- ./inp_files/6238.got.cif
#   From: 2010.05.17/outbox.cif.g08.bks.cpg/sg59_4_cif.got.tgz:6238.got - 2010.06.03 14:40:33.
