data_PCOD9451425
_publ_section_title
;
Structure prediction by ZEFSAII (Michael W. Deem and Ramdas Pophale) SiO2 
 PCOD9451425
Probable space group: P M M N
;
_chemical_formula_sum "Si O2"
_cell_formula_units_Z 56
_cell_length_a 11.542344
_cell_length_b 23.716695
_cell_length_c 11.483432
_cell_angle_alpha 90.000000
_cell_angle_beta 90.000000
_cell_angle_gamma 90.000000
_cell_volume 3143.546473
_symmetry_space_group_name_H-M "P M M N"
_symmetry_group_IT_number 59
_space_group.IT_coordinate_system_code '2'
_symmetry_cell_setting 'orthorhombic'
loop_
_space_group_symop_operation_xyz
x,y,z
1/2-x,1/2-y,z
1/2+x,-y,-z
-x,1/2+y,-z
-x,-y,-z
1/2+x,1/2+y,-z
1/2-x,y,z
x,1/2-y,z
loop_
_atom_site_type_symbol
_atom_site_label
_atom_site_fract_x
_atom_site_fract_y
_atom_site_fract_z
Si Si1 0.884743 0.817828 0.508913
Si Si2 0.387117 0.812246 0.116880
Si Si3 0.384721 0.861883 0.372748
Si Si4 0.619000 0.978287 0.145069
Si Si5 0.877549 0.605811 0.732810
Si Si6 0.528547 0.409877 0.043725
Si Si7 0.544090 0.488672 0.630626
O O1 0.750000 0.831798 0.466893
O O2 0.891522 0.750000 0.511308
O O3 0.892511 0.846367 0.635903
O O4 0.001159 0.840992 0.444262
O O5 0.250000 0.806508 0.110111
O O6 0.440904 0.750000 0.106930
O O7 0.408634 0.838633 0.243581
O O8 0.420922 0.855490 0.017449
O O9 0.250000 0.844752 0.406006
O O10 0.387660 0.929835 0.371519
O O11 0.750000 0.960286 0.162599
O O12 0.553668 0.980811 0.269096
O O13 0.613285 0.039956 0.084593
O O14 0.554517 0.938056 0.053381
O O15 0.750000 0.610474 0.783904
O O16 0.889329 0.544811 0.670930
O O17 0.965294 0.607815 0.838455
O O18 0.500000 0.500000 0.500000
#
# Coordination Sequence:
#
# PCOD9451425 Si02
#       7
#     8   8   8   8   8   8   8
#     4  10  22  41  61  83 117 160 199 241 299 360
#     4  10  21  38  60  84 114 151 191 242 297 346
#     4  11  22  39  63  91 120 154 202 250 300 357
#     4  10  21  35  57  83 116 154 190 238 295 350
#     4  10  21  37  58  85 118 153 194 241 295 354
#     4  10  20  37  56  83 114 148 198 236 288 348
#     4  11  21  37  57  89 120 153 190 244 302 359
#
# _framework density 17.814274000000001
#
# number of rings (size 3 to 8) (size 9 to 14) (size 15 to 20)
#    0.000    1.714    2.857    1.714    0.000    3.143 
#    0.000    0.714    0.000    2.143    0.000    0.000 
#    0.000    0.000    0.000    0.000    0.000    0.000 
#
# Total GULP energy -311909.019457 kJ/mol
# GULP energy per Si atom -5569.803919 kJ/mol
# Density = 1.777373 g / cm^3
# Si number density = 17.814274 Si / 1000 Ang^3
#
#
#
# Elastic Constant Matrix: (Units=GPa)
#
#
# Indices 1 2 3 4 5 6 
#
# 1 74.2500 10.6724 41.5785 0.0000 0.0000 0.0000
# 2 10.6724 89.2116 35.1765 0.0000 0.0000 0.0000
# 3 41.5785 35.1765 89.7504 0.0000 0.0000 0.0000
# 4 0.0000 0.0000 0.0000 58.9380 0.0000 0.0000
# 5 0.0000 0.0000 0.0000 0.0000 10.7017 0.0000
# 6 0.0000 0.0000 0.0000 0.0000 0.0000 -8.0239
#
#
#
# Elastic Compliance Matrix: (Units=1/GPa)
#
#
# Indices 1 2 3 4 5 6 
#
# 1 0.018326 0.001366 -0.009025 0.000000 0.000000 0.000000
# 2 0.001366 0.013360 -0.005869 0.000000 0.000000 0.000000
# 3 -0.009025 -0.005869 0.017624 0.000000 0.000000 0.000000
# 4 0.000000 0.000000 0.000000 0.016967 0.000000 0.000000
# 5 0.000000 0.000000 0.000000 0.000000 0.093443 0.000000
# 6 0.000000 0.000000 0.000000 0.000000 0.000000 -0.124628
#
#
# Mechanical properties :
#
#
# Convention : Reuss Voigt Hill
#
# Bulk Modulus (GPa) = 44.93793 47.56297 46.25045
# Shear Modulus (GPa) = 71.87487 23.37548 47.62517
#
# Velocity S-wave (km/s) = 6.35880 3.62633 5.17613
# Velocity P-wave (km/s) = 8.89905 6.65515 7.85761
#
# Compressibility (1/GPa) = 0.02225292
#
# Stress axis : x y z
#
# Youngs Moduli (GPa) = 54.56870 74.84949 56.74241
#
# Poissons Ratio (x) = -0.10227 0.51211
# Poissons Ratio (y) = -0.07456 0.33304
# Poissons Ratio (z) = 0.49249 0.43932
#
# Static dielectric constant tensor:
#      x y z
#    x 1.648720 0.000000 0.000000 
#    y 0.000000 1.626960 0.000000 
#    z 0.000000 0.000000 1.579750 
# 
# From -- ./inp_files/15992.got.cif
#   From: 2010.05.17/outbox.cif.g08.bks.cpg/sg59_8_cif.got.tgz:15992.got - 2010.06.03 14:40:33.
