data_PCOD9451607
_publ_section_title
;
Structure prediction by ZEFSAII (Michael W. Deem and Ramdas Pophale) SiO2 
 PCOD9451607
Probable space group: P M M N
;
_chemical_formula_sum "Si O2"
_cell_formula_units_Z 38
_cell_length_a 10.282949
_cell_length_b 19.752939
_cell_length_c 10.153949
_cell_angle_alpha 90.000000
_cell_angle_beta 90.000000
_cell_angle_gamma 90.000000
_cell_volume 2062.454528
_symmetry_space_group_name_H-M "P M M N"
_symmetry_group_IT_number 59
_space_group.IT_coordinate_system_code '2'
_symmetry_cell_setting 'orthorhombic'
loop_
_space_group_symop_operation_xyz
x,y,z
1/2-x,1/2-y,z
1/2+x,-y,-z
-x,1/2+y,-z
-x,-y,-z
1/2+x,1/2+y,-z
1/2-x,y,z
x,1/2-y,z
loop_
_atom_site_type_symbol
_atom_site_label
_atom_site_fract_x
_atom_site_fract_y
_atom_site_fract_z
Si Si1 0.750000 0.105043 0.237505
Si Si2 0.250000 0.750000 0.888856
Si Si3 0.990965 0.625497 0.303190
Si Si4 0.750000 0.669680 0.484530
Si Si5 0.010816 0.514838 0.845803
Si Si6 0.899509 0.250000 0.853167
Si Si7 0.250000 0.443312 0.303727
Si Si8 0.750000 0.418933 0.547243
O O1 0.750000 0.183002 0.197056
O O2 0.875885 0.068183 0.179304
O O3 0.750000 0.094325 0.393374
O O4 0.372305 0.750000 0.990569
O O5 0.026598 0.683986 0.198763
O O6 0.121237 0.611923 0.387177
O O7 0.875869 0.648862 0.398700
O O8 0.958543 0.555402 0.229782
O O9 0.750000 0.750000 0.506379
O O10 0.750000 0.627497 0.620089
O O11 0.876958 0.543352 0.784643
O O12 0.000000 0.500000 0.000000
O O13 0.750000 0.250000 0.798467
O O14 0.250000 0.501492 0.416673
#
# Coordination Sequence:
#
# PCOD9451607 Si02
#       8
#     4   2   8   4   8   4   4   4
#     4  12  23  40  60  95 119 162 209 263 306 370
#     4  10  24  40  60  86 130 160 202 268 316 358
#     4  11  21  39  64  94 120 164 209 257 304 381
#     4  12  24  38  59  92 134 165 204 252 321 380
#     4  11  23  40  67  90 123 163 215 258 315 375
#     4  10  20  38  63  86 119 161 211 248 304 359
#     4  10  23  43  60  93 129 165 196 265 323 369
#     4  10  21  39  66  89 120 158 211 255 308 364
#
# _framework density 18.424648000000001
#
# number of rings (size 3 to 8) (size 9 to 14) (size 15 to 20)
#    0.316    0.842    2.105    5.053    0.000    4.211 
#    5.684    0.000    0.000    0.000    0.000    0.000 
#    0.000    0.000    0.000    0.000    0.000    0.000 
#
# Total GULP energy -212392.487771 kJ/mol
# GULP energy per Si atom -5589.275994 kJ/mol
# Density = 1.838271 g / cm^3
# Si number density = 18.424648 Si / 1000 Ang^3
#
#
#
# Elastic Constant Matrix: (Units=GPa)
#
#
# Indices 1 2 3 4 5 6 
#
# 1 107.8204 83.4452 47.1292 0.0000 0.0000 0.0000
# 2 83.4452 171.2375 81.9028 0.0000 0.0000 0.0000
# 3 47.1292 81.9028 154.1743 0.0000 0.0000 0.0000
# 4 0.0000 0.0000 0.0000 7.5237 0.0000 0.0000
# 5 0.0000 0.0000 0.0000 0.0000 11.8671 0.0000
# 6 0.0000 0.0000 0.0000 0.0000 0.0000 35.2541
#
#
#
# Elastic Compliance Matrix: (Units=1/GPa)
#
#
# Indices 1 2 3 4 5 6 
#
# 1 0.014992 -0.006855 -0.000941 0.000000 0.000000 0.000000
# 2 -0.006855 0.010964 -0.003729 0.000000 0.000000 0.000000
# 3 -0.000941 -0.003729 0.008755 0.000000 0.000000 0.000000
# 4 0.000000 0.000000 0.000000 0.132913 0.000000 0.000000
# 5 0.000000 0.000000 0.000000 0.000000 0.084267 0.000000
# 6 0.000000 0.000000 0.000000 0.000000 0.000000 0.028365
#
#
# Mechanical properties :
#
#
# Convention : Reuss Voigt Hill
#
# Bulk Modulus (GPa) = 85.76394 95.35405 90.55900
# Shear Modulus (GPa) = 16.27642 25.64598 20.96120
#
# Velocity S-wave (km/s) = 2.97544 3.73492 3.37660
# Velocity P-wave (km/s) = 7.64551 8.39436 8.02867
#
# Compressibility (1/GPa) = 0.01165991
#
# Stress axis : x y z
#
# Youngs Moduli (GPa) = 66.70402 91.20699 114.22460
#
# Poissons Ratio (x) = 0.62527 0.10747
# Poissons Ratio (y) = 0.45729 0.42593
# Poissons Ratio (z) = 0.06276 0.34010
#
# Static dielectric constant tensor:
#      x y z
#    x 1.620640 0.000000 0.000000 
#    y 0.000000 1.616140 0.000000 
#    z 0.000000 0.000000 1.609580 
# 
# From -- ./inp_files/7184.got.cif
#   From: 2010.05.17/outbox.cif.g08.bks.cpg/sg59_4_cif.got.tgz:7184.got - 2010.06.03 14:40:33.
