data_PCOD9451293
_publ_section_title
;
Structure prediction by ZEFSAII (Michael W. Deem and Ramdas Pophale) SiO2 
 PCOD9451293
Probable space group: P M M N
;
_chemical_formula_sum "Si O2"
_cell_formula_units_Z 48
_cell_length_a 31.196960
_cell_length_b 8.650150
_cell_length_c 9.740346
_cell_angle_alpha 90.000000
_cell_angle_beta 90.000000
_cell_angle_gamma 90.000000
_cell_volume 2628.514027
_symmetry_space_group_name_H-M "P M M N"
_symmetry_group_IT_number 59
_space_group.IT_coordinate_system_code '2'
_symmetry_cell_setting 'orthorhombic'
loop_
_space_group_symop_operation_xyz
x,y,z
1/2-x,1/2-y,z
1/2+x,-y,-z
-x,1/2+y,-z
-x,-y,-z
1/2+x,1/2+y,-z
1/2-x,y,z
x,1/2-y,z
loop_
_atom_site_type_symbol
_atom_site_label
_atom_site_fract_x
_atom_site_fract_y
_atom_site_fract_z
Si Si1 0.200949 0.063452 0.148439
Si Si2 0.375443 0.563129 0.650659
Si Si3 0.045340 0.936525 0.841767
Si Si4 0.299054 0.936630 0.847660
Si Si5 0.124343 0.064912 0.344374
Si Si6 0.548621 0.434708 0.840800
O O1 0.250000 0.015256 0.178858
O O2 0.200140 0.250000 0.142525
O O3 0.166747 0.012174 0.261480
O O4 0.189498 0.999415 0.998217
O O5 0.375196 0.750000 0.645704
O O6 0.417234 0.516173 0.738169
O O7 0.333182 0.512508 0.734260
O O8 0.376370 0.499890 0.497580
O O9 0.041178 0.750000 0.837140
O O10 0.056633 0.978267 0.999413
O O11 0.999530 0.010376 0.808051
O O12 0.250000 0.984401 0.817390
O O13 0.300127 0.750000 0.853468
O O14 0.124728 0.250000 0.349612
O O15 0.083265 0.009868 0.258486
O O16 0.551332 0.250000 0.829877
#
# Coordination Sequence:
#
# PCOD9451293 Si02
#       6
#     8   8   8   8   8   8
#     4   9  19  36  56  78 105 138 176 217 260 307
#     4  10  21  36  53  76 109 144 175 212 260 312
#     4   9  19  36  57  80 105 135 174 218 262 311
#     4   9  18  34  57  83 108 136 174 219 264 311
#     4  11  23  36  52  77 109 143 178 216 259 310
#     4  10  20  36  59  82 104 134 173 218 267 315
#
# _framework density 18.26127
#
# number of rings (size 3 to 8) (size 9 to 14) (size 15 to 20)
#    0.000    2.333    0.000    2.000    0.000    6.000 
#    0.000    0.000    0.000    0.000    0.000    0.000 
#    0.000    0.000    0.000    0.000    0.000    0.000 
#
# Total GULP energy -267981.996911 kJ/mol
# GULP energy per Si atom -5582.958269 kJ/mol
# Density = 1.821971 g / cm^3
# Si number density = 18.261270 Si / 1000 Ang^3
#
#
#
# Elastic Constant Matrix: (Units=GPa)
#
#
# Indices 1 2 3 4 5 6 
#
# 1 145.3624 33.8902 132.5867 0.0000 0.0000 0.0000
# 2 33.8902 14.0831 34.8794 0.0000 0.0000 0.0000
# 3 132.5867 34.8794 170.4002 0.0000 0.0000 0.0000
# 4 0.0000 0.0000 0.0000 27.3197 0.0000 0.0000
# 5 0.0000 0.0000 0.0000 0.0000 -3.9367 0.0000
# 6 0.0000 0.0000 0.0000 0.0000 0.0000 11.6902
#
#
#
# Elastic Compliance Matrix: (Units=1/GPa)
#
#
# Indices 1 2 3 4 5 6 
#
# 1 0.028063 -0.027284 -0.016251 0.000000 0.000000 0.000000
# 2 -0.027284 0.170544 -0.013680 0.000000 0.000000 0.000000
# 3 -0.016251 -0.013680 0.021313 0.000000 0.000000 0.000000
# 4 0.000000 0.000000 0.000000 0.036604 0.000000 0.000000
# 5 0.000000 0.000000 0.000000 0.000000 -0.254017 0.000000
# 6 0.000000 0.000000 0.000000 0.000000 0.000000 0.085542
#
#
# Mechanical properties :
#
#
# Convention : Reuss Voigt Hill
#
# Bulk Modulus (GPa) = 9.47940 81.39535 45.43738
# Shear Modulus (GPa) = 21.04026 15.58059 18.31042
#
# Velocity S-wave (km/s) = 3.39806 2.92413 3.16997
# Velocity P-wave (km/s) = 4.53850 7.48800 6.19145
#
# Compressibility (1/GPa) = 0.10549186
#
# Stress axis : x y z
#
# Youngs Moduli (GPa) = 35.63450 5.86359 46.91978
#
# Poissons Ratio (x) = 0.15998 0.76247
# Poissons Ratio (y) = 0.97225 0.64184
# Poissons Ratio (z) = 0.57908 0.08021
#
# Static dielectric constant tensor:
#      x y z
#    x 1.624380 0.000000 0.000000 
#    y 0.000000 1.615470 0.000000 
#    z 0.000000 0.000000 1.589800 
# 
# From -- ./inp_files/6245.got.cif
#   From: 2010.05.17/outbox.cif.g08.bks.cpg/sg59_4_cif.got.tgz:6245.got - 2010.06.03 14:40:33.
