data_PCOD9451680
_publ_section_title
;
Structure prediction by ZEFSAII (Michael W. Deem and Ramdas Pophale) SiO2 
 PCOD9451680
Probable space group: P M M N
;
_chemical_formula_sum "Si O2"
_cell_formula_units_Z 64
_cell_length_a 8.963597
_cell_length_b 14.788518
_cell_length_c 26.868962
_cell_angle_alpha 90.000000
_cell_angle_beta 90.000000
_cell_angle_gamma 90.000000
_cell_volume 3561.704344
_symmetry_space_group_name_H-M "P M M N"
_symmetry_group_IT_number 59
_space_group.IT_coordinate_system_code '2'
_symmetry_cell_setting 'orthorhombic'
loop_
_space_group_symop_operation_xyz
x,y,z
1/2-x,1/2-y,z
1/2+x,-y,-z
-x,1/2+y,-z
-x,-y,-z
1/2+x,1/2+y,-z
1/2-x,y,z
x,1/2-y,z
loop_
_atom_site_type_symbol
_atom_site_label
_atom_site_fract_x
_atom_site_fract_y
_atom_site_fract_z
Si Si1 0.429106 0.999756 0.054075
Si Si2 0.926259 0.642405 0.240974
Si Si3 0.426956 0.356475 0.135839
Si Si4 0.427683 0.499419 0.312797
Si Si5 0.070797 0.644264 0.496250
Si Si6 0.074078 0.857726 0.759547
Si Si7 0.571679 0.995683 0.421264
Si Si8 0.927102 0.356491 0.863828
O O1 0.250000 0.999405 0.048683
O O2 0.471781 0.914059 0.088202
O O3 0.471155 0.085953 0.087866
O O4 0.500000 0.000000 0.000000
O O5 0.750000 0.624455 0.244462
O O6 0.950742 0.750000 0.246923
O O7 0.012680 0.585846 0.282262
O O8 0.985914 0.617241 0.186133
O O9 0.250000 0.371799 0.144669
O O10 0.449761 0.250000 0.127336
O O11 0.514744 0.382824 0.185601
O O12 0.250000 0.500044 0.314909
O O13 0.486251 0.413548 0.281677
O O14 0.496146 0.498915 0.367747
O O15 0.250000 0.639986 0.488535
O O16 0.028841 0.750000 0.499865
O O17 0.037967 0.585280 0.545728
O O18 0.990100 0.590316 0.451933
O O19 0.250000 0.876614 0.755697
O O20 0.051125 0.750000 0.753786
O O21 0.750000 0.988921 0.416242
O O22 0.750000 0.371729 0.855241
O O23 0.950182 0.250000 0.872308
#
# Coordination Sequence:
#
# PCOD9451680 Si02
#       8
#     8   8   8   8   8   8   8   8
#     4  10  21  34  49  72 100 132 171 216 266 318
#     4  10  21  37  58  84 111 141 181 227 275 328
#     4   9  18  34  54  75 102 136 174 216 264 321
#     4  12  24  37  56  82 116 154 187 225 272 323
#     4   9  19  38  62  84 109 145 186 227 275 329
#     4  10  21  37  58  84 112 143 181 225 274 327
#     4  10  21  37  57  84 115 146 185 231 276 321
#     4   9  18  34  54  75 102 136 173 214 264 323
#
# _framework density 17.968927000000001
#
# number of rings (size 3 to 8) (size 9 to 14) (size 15 to 20)
#    0.000    2.125    0.000    3.000    0.000    5.750 
#    0.000    1.250    0.000    0.000    0.000    0.000 
#    0.000    0.000    0.000    0.000    0.000    0.000 
#
# Total GULP energy -357418.579017 kJ/mol
# GULP energy per Si atom -5584.665297 kJ/mol
# Density = 1.792803 g / cm^3
# Si number density = 17.968927 Si / 1000 Ang^3
#
#
#
# Elastic Constant Matrix: (Units=GPa)
#
#
# Indices 1 2 3 4 5 6 
#
# 1 83.9797 65.0595 91.7215 0.0000 0.0000 0.0000
# 2 65.0595 116.4346 88.7694 0.0000 0.0000 0.0000
# 3 91.7215 88.7694 196.5269 0.0000 0.0000 0.0000
# 4 0.0000 0.0000 0.0000 71.6368 0.0000 0.0000
# 5 0.0000 0.0000 0.0000 0.0000 38.2376 0.0000
# 6 0.0000 0.0000 0.0000 0.0000 0.0000 19.7374
#
#
#
# Elastic Compliance Matrix: (Units=1/GPa)
#
#
# Indices 1 2 3 4 5 6 
#
# 1 0.029535 -0.009142 -0.009655 0.000000 0.000000 0.000000
# 2 -0.009142 0.015929 -0.002928 0.000000 0.000000 0.000000
# 3 -0.009655 -0.002928 0.010917 0.000000 0.000000 0.000000
# 4 0.000000 0.000000 0.000000 0.013959 0.000000 0.000000
# 5 0.000000 0.000000 0.000000 0.000000 0.026152 0.000000
# 6 0.000000 0.000000 0.000000 0.000000 0.000000 0.050665
#
#
# Mechanical properties :
#
#
# Convention : Reuss Voigt Hill
#
# Bulk Modulus (GPa) = 77.33589 98.67133 88.00361
# Shear Modulus (GPa) = 25.65151 36.01507 30.83329
#
# Velocity S-wave (km/s) = 3.78239 4.48179 4.14686
# Velocity P-wave (km/s) = 7.88717 9.04508 8.48589
#
# Compressibility (1/GPa) = 0.01293061
#
# Stress axis : x y z
#
# Youngs Moduli (GPa) = 33.85780 62.77662 91.59882
#
# Poissons Ratio (x) = 0.57393 0.88438
# Poissons Ratio (y) = 0.30954 0.26823
# Poissons Ratio (z) = 0.32690 0.18383
#
# Static dielectric constant tensor:
#      x y z
#    x 1.604890 0.000000 0.000000 
#    y 0.000000 1.625010 0.000000 
#    z 0.000000 0.000000 1.571080 
# 
# From -- ./inp_files/31499.got.cif
#   From: 2010.05.17/outbox.cif.g08.bks.cpg/sg59_16_cif.got.tgz:31499.got - 2010.06.03 14:40:33.
