data_PCOD9451922
_publ_section_title
;
Structure prediction by ZEFSAII (Michael W. Deem and Ramdas Pophale) SiO2 
 PCOD9451922
Probable space group: P M M N
;
_chemical_formula_sum "Si O2"
_cell_formula_units_Z 56
_cell_length_a 19.491990
_cell_length_b 8.755174
_cell_length_c 18.300445
_cell_angle_alpha 90.000000
_cell_angle_beta 90.000000
_cell_angle_gamma 90.000000
_cell_volume 3123.076424
_symmetry_space_group_name_H-M "P M M N"
_symmetry_group_IT_number 59
_space_group.IT_coordinate_system_code '2'
_symmetry_cell_setting 'orthorhombic'
loop_
_space_group_symop_operation_xyz
x,y,z
1/2-x,1/2-y,z
1/2+x,-y,-z
-x,1/2+y,-z
-x,-y,-z
1/2+x,1/2+y,-z
1/2-x,y,z
x,1/2-y,z
loop_
_atom_site_type_symbol
_atom_site_label
_atom_site_fract_x
_atom_site_fract_y
_atom_site_fract_z
Si Si1 0.330180 0.931245 0.213032
Si Si2 0.330035 0.067249 0.371176
Si Si3 0.328498 0.935899 0.632955
Si Si4 0.073002 0.068465 0.920148
Si Si5 0.577368 0.931810 0.913730
Si Si6 0.923569 0.066248 0.501213
Si Si7 0.831765 0.430950 0.201779
O O1 0.250000 0.963539 0.197576
O O2 0.338047 0.750000 0.223139
O O3 0.347496 0.014254 0.289108
O O4 0.376198 0.987747 0.146447
O O5 0.250000 0.023264 0.384775
O O6 0.334989 0.250000 0.376387
O O7 0.380350 0.990751 0.429281
O O8 0.250000 0.986071 0.618012
O O9 0.327142 0.750000 0.633190
O O10 0.381133 0.984348 0.570774
O O11 0.348383 0.981680 0.715275
O O12 0.060814 0.250000 0.918820
O O13 0.127219 0.020617 0.859382
O O14 0.096842 0.028169 0.002504
O O15 0.001398 0.983497 0.905644
O O16 0.582812 0.750000 0.905005
O O17 0.926618 0.250000 0.501603
O O18 0.000000 0.000000 0.500000
O O19 0.750000 0.448480 0.193072
O O20 0.847385 0.250000 0.195594
#
# Coordination Sequence:
#
# PCOD9451922 Si02
#       7
#     8   8   8   8   8   8   8
#     4  10  21  37  58  84 111 140 179 226 274 326
#     4  10  21  38  59  82 110 144 182 224 274 333
#     4   8  16  33  56  78 100 134 179 220 261 313
#     4  10  21  36  54  78 109 144 182 223 269 324
#     4  10  21  37  56  77 106 145 184 223 269 321
#     4  11  22  36  55  80 112 146 183 228 275 324
#     4   9  18  34  56  80 105 136 178 225 271 321
#
# _framework density 17.931037
#
# number of rings (size 3 to 8) (size 9 to 14) (size 15 to 20)
#    0.000    2.286    0.000    3.429    0.000    6.000 
#    0.000    8.571    0.000    1.714    0.000    0.000 
#    0.000    0.000    0.000    0.000    0.000    0.000 
#
# Total GULP energy -312605.967294 kJ/mol
# GULP energy per Si atom -5582.249416 kJ/mol
# Density = 1.789023 g / cm^3
# Si number density = 17.931037 Si / 1000 Ang^3
#
#
#
# Elastic Constant Matrix: (Units=GPa)
#
#
# Indices 1 2 3 4 5 6 
#
# 1 80.5606 32.2830 85.2473 0.0000 0.0000 0.0000
# 2 32.2830 39.3129 37.4035 0.0000 0.0000 0.0000
# 3 85.2473 37.4035 136.6549 0.0000 0.0000 0.0000
# 4 0.0000 0.0000 0.0000 31.0272 0.0000 0.0000
# 5 0.0000 0.0000 0.0000 0.0000 98.2084 0.0000
# 6 0.0000 0.0000 0.0000 0.0000 0.0000 32.1369
#
#
#
# Elastic Compliance Matrix: (Units=1/GPa)
#
#
# Indices 1 2 3 4 5 6 
#
# 1 0.040606 -0.012500 -0.021909 0.000000 0.000000 0.000000
# 2 -0.012500 0.038241 -0.002670 0.000000 0.000000 0.000000
# 3 -0.021909 -0.002670 0.021716 0.000000 0.000000 0.000000
# 4 0.000000 0.000000 0.000000 0.032230 0.000000 0.000000
# 5 0.000000 0.000000 0.000000 0.000000 0.010182 0.000000
# 6 0.000000 0.000000 0.000000 0.000000 0.000000 0.031117
#
#
# Mechanical properties :
#
#
# Convention : Reuss Voigt Hill
#
# Bulk Modulus (GPa) = 37.87011 62.93288 50.40150
# Shear Modulus (GPa) = 19.45142 39.04749 29.24945
#
# Velocity S-wave (km/s) = 3.29719 4.67159 4.04322
# Velocity P-wave (km/s) = 5.97168 8.01696 7.06869
#
# Compressibility (1/GPa) = 0.02640605
#
# Stress axis : x y z
#
# Youngs Moduli (GPa) = 24.62697 26.14981 46.04953
#
# Poissons Ratio (x) = 0.32686 1.00891
# Poissons Ratio (y) = 0.30783 0.12293
# Poissons Ratio (z) = 0.53956 0.06981
#
# Static dielectric constant tensor:
#      x y z
#    x 1.583900 0.000000 0.000000 
#    y 0.000000 1.607150 0.000000 
#    z 0.000000 0.000000 1.600180 
# 
# From -- ./inp_files/24284.got.cif
#   From: 2010.05.17/outbox.cif.g08.bks.cpg/sg59_13_cif.got.tgz:24284.got - 2010.06.03 14:40:33.
