data_PCOD9451188
_publ_section_title
;
Structure prediction by ZEFSAII (Michael W. Deem and Ramdas Pophale) SiO2 
 PCOD9451188
Probable space group: P M M N
;
_chemical_formula_sum "Si O2"
_cell_formula_units_Z 48
_cell_length_a 32.352552
_cell_length_b 8.852987
_cell_length_c 9.137588
_cell_angle_alpha 90.000000
_cell_angle_beta 90.000000
_cell_angle_gamma 90.000000
_cell_volume 2617.158004
_symmetry_space_group_name_H-M "P M M N"
_symmetry_group_IT_number 59
_space_group.IT_coordinate_system_code '2'
_symmetry_cell_setting 'orthorhombic'
loop_
_space_group_symop_operation_xyz
x,y,z
1/2-x,1/2-y,z
1/2+x,-y,-z
-x,1/2+y,-z
-x,-y,-z
1/2+x,1/2+y,-z
1/2-x,y,z
x,1/2-y,z
loop_
_atom_site_type_symbol
_atom_site_label
_atom_site_fract_x
_atom_site_fract_y
_atom_site_fract_z
Si Si1 0.334488 0.076486 0.186479
Si Si2 0.250000 0.576993 0.187062
Si Si3 0.250000 0.574088 0.830001
Si Si4 0.921403 0.069087 0.164770
Si Si5 0.925309 0.933826 0.838735
Si Si6 0.002097 0.068120 0.661343
Si Si7 0.335491 0.075263 0.829757
O O1 0.331288 0.250000 0.231114
O O2 0.380360 0.021152 0.227212
O O3 0.293113 0.994736 0.237599
O O4 0.334529 0.071487 0.008206
O O5 0.250000 0.750000 0.227947
O O6 0.250000 0.566015 0.008654
O O7 0.250000 0.750000 0.790533
O O8 0.208073 0.493155 0.779650
O O9 0.925398 0.250000 0.162001
O O10 0.956335 0.993326 0.263475
O O11 0.875484 0.020270 0.214969
O O12 0.927054 0.000569 0.002201
O O13 0.926976 0.750000 0.844381
O O14 0.963064 0.002207 0.749644
O O15 0.001488 0.250000 0.660824
O O16 0.000000 0.000000 0.500000
O O17 0.339950 0.250000 0.786694
#
# Coordination Sequence:
#
# PCOD9451188 Si02
#       7
#     8   4   4   8   8   8   8
#     4   8  15  26  42  64  96 133 168 204 249 300
#     4   9  15  21  35  61  96 131 166 205 248 295
#     4   9  15  23  37  63  98 135 170 209 256 307
#     4  11  21  35  55  80 108 140 177 219 263 312
#     4  10  20  36  56  80 107 139 177 218 262 312
#     4  12  25  41  58  78 104 136 173 217 266 319
#     4   9  16  27  43  67  99 136 173 212 257 307
#
# _framework density 18.340505
#
# number of rings (size 3 to 8) (size 9 to 14) (size 15 to 20)
#    0.000    2.167    0.000    6.000    0.000    6.667 
#    0.000    0.000    0.000    0.000    0.000    1.167 
#    0.000    4.000    0.000    0.000    0.000    0.000 
#
# Total GULP energy -267755.246511 kJ/mol
# GULP energy per Si atom -5578.234302 kJ/mol
# Density = 1.829876 g / cm^3
# Si number density = 18.340505 Si / 1000 Ang^3
#
#
#
# Elastic Constant Matrix: (Units=GPa)
#
#
# Indices 1 2 3 4 5 6 
#
# 1 202.2587 90.5644 53.1955 0.0000 0.0000 0.0000
# 2 90.5644 148.1672 33.0797 0.0000 0.0000 0.0000
# 3 53.1955 33.0797 38.5301 0.0000 0.0000 0.0000
# 4 0.0000 0.0000 0.0000 17.0202 0.0000 0.0000
# 5 0.0000 0.0000 0.0000 0.0000 -7.3659 0.0000
# 6 0.0000 0.0000 0.0000 0.0000 0.0000 35.6697
#
#
#
# Elastic Compliance Matrix: (Units=1/GPa)
#
#
# Indices 1 2 3 4 5 6 
#
# 1 0.008930 -0.003347 -0.009455 0.000000 0.000000 0.000000
# 2 -0.003347 0.009604 -0.003624 0.000000 0.000000 0.000000
# 3 -0.009455 -0.003624 0.042119 0.000000 0.000000 0.000000
# 4 0.000000 0.000000 0.000000 0.058754 0.000000 0.000000
# 5 0.000000 0.000000 0.000000 0.000000 -0.135761 0.000000
# 6 0.000000 0.000000 0.000000 0.000000 0.000000 0.028035
#
#
# Mechanical properties :
#
#
# Convention : Reuss Voigt Hill
#
# Bulk Modulus (GPa) = 35.97119 82.51503 59.24311
# Shear Modulus (GPa) = 92.93841 23.20591 58.07216
#
# Velocity S-wave (km/s) = 7.12628 3.56094 5.63312
# Velocity P-wave (km/s) = 9.34705 7.87371 8.64184
#
# Compressibility (1/GPa) = 0.02780002
#
# Stress axis : x y z
#
# Youngs Moduli (GPa) = 111.98757 104.12088 23.74239
#
# Poissons Ratio (x) = 0.34851 0.22448
# Poissons Ratio (y) = 0.37484 0.08605
# Poissons Ratio (z) = 1.05880 0.37738
#
# Static dielectric constant tensor:
#      x y z
#    x 1.653990 0.000000 0.000000 
#    y 0.000000 1.611000 0.000000 
#    z 0.000000 0.000000 1.636830 
# 
# From -- ./inp_files/12991.got.cif
#   From: 2010.05.17/outbox.cif.g08.bks.cpg/sg59_7_cif.got.tgz:12991.got - 2010.06.03 14:40:33.
