data_PCOD9451181
_publ_section_title
;
Structure prediction by ZEFSAII (Michael W. Deem and Ramdas Pophale) SiO2 
 PCOD9451181
Probable space group: P M M N
;
_chemical_formula_sum "Si O2"
_cell_formula_units_Z 52
_cell_length_a 14.489539
_cell_length_b 10.893421
_cell_length_c 16.636006
_cell_angle_alpha 90.000000
_cell_angle_beta 90.000000
_cell_angle_gamma 90.000000
_cell_volume 2625.837974
_symmetry_space_group_name_H-M "P M M N"
_symmetry_group_IT_number 59
_space_group.IT_coordinate_system_code '2'
_symmetry_cell_setting 'orthorhombic'
loop_
_space_group_symop_operation_xyz
x,y,z
1/2-x,1/2-y,z
1/2+x,-y,-z
-x,1/2+y,-z
-x,-y,-z
1/2+x,1/2+y,-z
1/2-x,y,z
x,1/2-y,z
loop_
_atom_site_type_symbol
_atom_site_label
_atom_site_fract_x
_atom_site_fract_y
_atom_site_fract_z
Si Si1 0.353600 0.250000 0.734814
Si Si2 0.607648 0.511111 0.015760
Si Si3 0.036108 0.394644 0.304246
Si Si4 0.639420 0.605929 0.536900
Si Si5 0.055675 0.250000 0.896733
Si Si6 0.852568 0.893347 0.843498
Si Si7 0.144515 0.500128 0.634356
Si Si8 0.646318 0.250000 0.987392
O O1 0.250000 0.250000 0.772197
O O2 0.433326 0.250000 0.801236
O O3 0.358911 0.130648 0.679154
O O4 0.648738 0.539653 0.928334
O O5 0.640591 0.375401 0.039136
O O6 0.500000 0.500000 0.000000
O O7 0.611382 0.629468 0.072321
O O8 0.057062 0.250000 0.299797
O O9 0.091272 0.441104 0.382227
O O10 0.074033 0.445252 0.219831
O O11 0.929407 0.416133 0.321307
O O12 0.750000 0.604263 0.546745
O O13 0.613086 0.750000 0.524051
O O14 0.617847 0.526422 0.458150
O O15 0.948591 0.250000 0.931418
O O16 0.750000 0.898355 0.806686
O O17 0.873577 0.750000 0.861695
O O18 0.250000 0.545122 0.636921
O O19 0.750000 0.250000 0.948657
#
# Coordination Sequence:
#
# PCOD9451181 Si02
#       8
#     4   8   8   8   4   8   8   4
#     4  10  22  38  58  83 102 139 198 246 276 310
#     4  10  21  38  59  83 113 153 194 235 293 344
#     4  10  21  33  54  85 115 144 181 226 285 349
#     4   9  16  32  57  83 110 143 185 232 279 327
#     4  10  22  40  66  85 109 153 208 246 276 348
#     4  10  20  36  58  83 111 144 188 240 285 334
#     4  10  20  36  56  78 110 147 186 233 281 329
#     4  10  22  38  58  88 123 150 180 232 312 368
#
# _framework density 19.803201999999999
#
# number of rings (size 3 to 8) (size 9 to 14) (size 15 to 20)
#    0.000    2.154    1.538    1.385    4.308    3.385 
#    0.000    0.000    0.000    0.000    0.000    0.000 
#    0.000    0.000    0.000    0.000    0.000    0.000 
#
# Total GULP energy -289788.717714 kJ/mol
# GULP energy per Si atom -5572.859956 kJ/mol
# Density = 1.975813 g / cm^3
# Si number density = 19.803202 Si / 1000 Ang^3
#
#
#
# Elastic Constant Matrix: (Units=GPa)
#
#
# Indices 1 2 3 4 5 6 
#
# 1 62.0775 5.2657 15.6693 0.0000 0.0000 0.0000
# 2 5.2657 65.1466 12.1543 0.0000 0.0000 0.0000
# 3 15.6693 12.1543 51.6547 0.0000 0.0000 0.0000
# 4 0.0000 0.0000 0.0000 -0.4510 0.0000 0.0000
# 5 0.0000 0.0000 0.0000 0.0000 30.5341 0.0000
# 6 0.0000 0.0000 0.0000 0.0000 0.0000 23.2883
#
#
#
# Elastic Compliance Matrix: (Units=1/GPa)
#
#
# Indices 1 2 3 4 5 6 
#
# 1 0.017457 -0.000442 -0.005191 0.000000 0.000000 0.000000
# 2 -0.000442 0.016066 -0.003646 0.000000 0.000000 0.000000
# 3 -0.005191 -0.003646 0.021792 0.000000 0.000000 0.000000
# 4 0.000000 0.000000 0.000000 -2.217053 0.000000 0.000000
# 5 0.000000 0.000000 0.000000 0.000000 0.032750 0.000000
# 6 0.000000 0.000000 0.000000 0.000000 0.000000 0.042940
#
#
# Mechanical properties :
#
#
# Convention : Reuss Voigt Hill
#
# Bulk Modulus (GPa) = 27.20718 27.22860 27.21789
# Shear Modulus (GPa) = -2.43281 20.39358 8.98039
#
# Velocity S-wave (km/s) = -1.10958 3.21255 2.13182
# Velocity P-wave (km/s) = 3.48239 5.24786 4.45349
#
# Compressibility (1/GPa) = 0.03675500
#
# Stress axis : x y z
#
# Youngs Moduli (GPa) = 57.28426 62.24324 45.88834
#
# Poissons Ratio (x) = 0.02754 0.23822
# Poissons Ratio (y) = 0.02535 0.16731
# Poissons Ratio (z) = 0.29738 0.22694
#
# Static dielectric constant tensor:
#      x y z
#    x 1.716390 0.000000 0.000000 
#    y 0.000000 1.737400 0.000000 
#    z 0.000000 0.000000 1.695360 
# 
# From -- ./inp_files/27617.got.cif
#   From: 2010.05.17/outbox.cif.g08.bks.cpg/sg59_14_cif.got.tgz:27617.got - 2010.06.03 14:40:33.
