data_PCOD9451995
_publ_section_title
;
Structure prediction by ZEFSAII (Michael W. Deem and Ramdas Pophale) SiO2 
 PCOD9451995
Probable space group: P M M N
;
_chemical_formula_sum "Si O2"
_cell_formula_units_Z 48
_cell_length_a 8.723595
_cell_length_b 18.277040
_cell_length_c 15.823614
_cell_angle_alpha 90.000000
_cell_angle_beta 90.000000
_cell_angle_gamma 90.000000
_cell_volume 2522.940669
_symmetry_space_group_name_H-M "P M M N"
_symmetry_group_IT_number 59
_space_group.IT_coordinate_system_code '2'
_symmetry_cell_setting 'orthorhombic'
loop_
_space_group_symop_operation_xyz
x,y,z
1/2-x,1/2-y,z
1/2+x,-y,-z
-x,1/2+y,-z
-x,-y,-z
1/2+x,1/2+y,-z
1/2-x,y,z
x,1/2-y,z
loop_
_atom_site_type_symbol
_atom_site_label
_atom_site_fract_x
_atom_site_fract_y
_atom_site_fract_z
Si Si1 0.064965 0.164193 0.836006
Si Si2 0.064578 0.586701 0.673881
Si Si3 0.065019 0.665473 0.499666
Si Si4 0.433563 0.164148 0.160460
Si Si5 0.065263 0.083580 0.662873
Si Si6 0.567254 0.081604 0.998171
O O1 0.250000 0.158197 0.843702
O O2 0.025523 0.250000 0.836043
O O3 0.019470 0.126677 0.747686
O O4 0.989737 0.122879 0.914348
O O5 0.250000 0.590478 0.681217
O O6 0.018786 0.627403 0.587515
O O7 0.020422 0.501433 0.669317
O O8 0.991925 0.625473 0.754669
O O9 0.250000 0.664372 0.496703
O O10 0.014424 0.750000 0.497251
O O11 0.002316 0.621528 0.419793
O O12 0.250000 0.157983 0.154570
O O13 0.474123 0.250000 0.161989
O O14 0.507680 0.125321 0.079703
O O15 0.250000 0.086436 0.657336
O O16 0.750000 0.078083 0.999511
O O17 0.500000 0.000000 0.000000
#
# Coordination Sequence:
#
# PCOD9451995 Si02
#       6
#     8   8   8   8   8   8
#     4  10  21  38  59  85 119 155 194 244 296 347
#     4  10  21  38  60  86 118 156 197 241 291 348
#     4  10  21  36  55  82 117 156 197 243 294 347
#     4  11  24  41  62  90 122 155 194 241 291 346
#     4  10  21  37  59  86 114 150 195 241 292 347
#     4  12  25  41  63  89 118 154 196 241 291 349
#
# _framework density 19.025417999999998
#
# number of rings (size 3 to 8) (size 9 to 14) (size 15 to 20)
#    0.000    1.500    0.000    5.000    0.000    8.667 
#    0.000    0.000    0.000    0.000    0.000    0.000 
#    0.000    0.000    0.000    0.000    0.000    0.000 
#
# Total GULP energy -268474.933048 kJ/mol
# GULP energy per Si atom -5593.227772 kJ/mol
# Density = 1.898212 g / cm^3
# Si number density = 19.025418 Si / 1000 Ang^3
#
#
#
# Elastic Constant Matrix: (Units=GPa)
#
#
# Indices 1 2 3 4 5 6 
#
# 1 36.7832 50.2127 43.7844 0.0000 0.0000 0.0000
# 2 50.2127 162.3749 73.5418 0.0000 0.0000 0.0000
# 3 43.7844 73.5418 160.1879 0.0000 0.0000 0.0000
# 4 0.0000 0.0000 0.0000 45.9777 0.0000 0.0000
# 5 0.0000 0.0000 0.0000 0.0000 38.4419 0.0000
# 6 0.0000 0.0000 0.0000 0.0000 0.0000 24.4294
#
#
#
# Elastic Compliance Matrix: (Units=1/GPa)
#
#
# Indices 1 2 3 4 5 6 
#
# 1 0.056288 -0.013179 -0.009335 0.000000 0.000000 0.000000
# 2 -0.013179 0.010861 -0.001384 0.000000 0.000000 0.000000
# 3 -0.009335 -0.001384 0.009430 0.000000 0.000000 0.000000
# 4 0.000000 0.000000 0.000000 0.021750 0.000000 0.000000
# 5 0.000000 0.000000 0.000000 0.000000 0.026013 0.000000
# 6 0.000000 0.000000 0.000000 0.000000 0.000000 0.040934
#
#
# Mechanical properties :
#
#
# Convention : Reuss Voigt Hill
#
# Bulk Modulus (GPa) = 34.74240 77.15822 55.95031
# Shear Modulus (GPa) = 22.45519 34.55694 28.50606
#
# Velocity S-wave (km/s) = 3.43924 4.26650 3.87501
# Velocity P-wave (km/s) = 5.83711 8.05692 7.03512
#
# Compressibility (1/GPa) = 0.02878327
#
# Stress axis : x y z
#
# Youngs Moduli (GPa) = 17.76571 92.07471 106.04836
#
# Poissons Ratio (x) = 1.21341 0.98998
# Poissons Ratio (y) = 0.23413 0.14677
# Poissons Ratio (z) = 0.16585 0.12743
#
# Static dielectric constant tensor:
#      x y z
#    x 1.646750 0.000000 0.000000 
#    y 0.000000 1.639260 0.000000 
#    z 0.000000 0.000000 1.611420 
# 
# From -- ./inp_files/20464.got.cif
#   From: 2010.05.17/outbox.cif.g08.bks.cpg/sg59_11_cif.got.tgz:20464.got - 2010.06.03 14:40:33.
