data_PCOD9451582
_publ_section_title
;
Structure prediction by ZEFSAII (Michael W. Deem and Ramdas Pophale) SiO2 
 PCOD9451582
Probable space group: P M M N
;
_chemical_formula_sum "Si O2"
_cell_formula_units_Z 48
_cell_length_a 9.654954
_cell_length_b 8.511612
_cell_length_c 29.370031
_cell_angle_alpha 90.000000
_cell_angle_beta 90.000000
_cell_angle_gamma 90.000000
_cell_volume 2413.606307
_symmetry_space_group_name_H-M "P M M N"
_symmetry_group_IT_number 59
_space_group.IT_coordinate_system_code '2'
_symmetry_cell_setting 'orthorhombic'
loop_
_space_group_symop_operation_xyz
x,y,z
1/2-x,1/2-y,z
1/2+x,-y,-z
-x,1/2+y,-z
-x,-y,-z
1/2+x,1/2+y,-z
1/2-x,y,z
x,1/2-y,z
loop_
_atom_site_type_symbol
_atom_site_label
_atom_site_fract_x
_atom_site_fract_y
_atom_site_fract_z
Si Si1 0.250000 0.558836 0.929310
Si Si2 0.096230 0.060150 0.209216
Si Si3 0.088235 0.061626 0.371547
Si Si4 0.040630 0.060727 0.106260
Si Si5 0.089431 0.062232 0.712518
Si Si6 0.750000 0.062640 0.966824
Si Si7 0.412306 0.438663 0.542940
O O1 0.250000 0.750000 0.931443
O O2 0.384142 0.511767 0.901773
O O3 0.250000 0.501914 0.981480
O O4 0.250000 0.019799 0.227108
O O5 0.082536 0.250000 0.210919
O O6 0.089403 0.011850 0.156255
O O7 0.976310 0.985055 0.239177
O O8 0.250000 0.008880 0.372895
O O9 0.089308 0.250000 0.375013
O O10 0.010231 0.012485 0.325447
O O11 0.995880 0.993902 0.412579
O O12 0.053873 0.250000 0.104793
O O13 0.122485 0.994820 0.063349
O O14 0.250000 0.010418 0.708131
O O15 0.086784 0.250000 0.707218
O O16 0.750000 0.250000 0.968806
O O17 0.500000 0.500000 0.500000
O O18 0.250000 0.491325 0.542667
O O19 0.410463 0.250000 0.541778
#
# Coordination Sequence:
#
# PCOD9451582 Si02
#       7
#     4   8   8   8   8   4   8
#     4   9  20  35  57  85 113 147 193 239 286 345
#     4  10  21  38  61  87 111 145 196 243 287 349
#     4  11  24  42  65  94 126 162 209 258 303 360
#     4  10  20  38  60  82 111 150 193 238 287 346
#     4  11  25  42  61  89 123 157 194 241 300 363
#     4  11  21  35  55  85 117 149 189 235 288 349
#     4  11  24  41  63  94 131 171 217 265 313 367
#
# _framework density 19.887253999999999
#
# number of rings (size 3 to 8) (size 9 to 14) (size 15 to 20)
#    0.000    1.500    0.833    3.750    1.167   11.000 
#    0.000    1.250    0.000    0.000    0.000    0.000 
#    0.000    0.000    0.000    0.000    0.000    0.000 
#
# Total GULP energy -268152.404870 kJ/mol
# GULP energy per Si atom -5586.508435 kJ/mol
# Density = 1.984199 g / cm^3
# Si number density = 19.887254 Si / 1000 Ang^3
#
#
#
# Elastic Constant Matrix: (Units=GPa)
#
#
# Indices 1 2 3 4 5 6 
#
# 1 187.7120 32.3779 54.1296 0.0000 0.0000 0.0000
# 2 32.3779 34.9949 18.0244 0.0000 0.0000 0.0000
# 3 54.1296 18.0244 104.2447 0.0000 0.0000 0.0000
# 4 0.0000 0.0000 0.0000 32.5624 0.0000 0.0000
# 5 0.0000 0.0000 0.0000 0.0000 37.3160 0.0000
# 6 0.0000 0.0000 0.0000 0.0000 0.0000 29.0603
#
#
#
# Elastic Compliance Matrix: (Units=1/GPa)
#
#
# Indices 1 2 3 4 5 6 
#
# 1 0.006994 -0.005050 -0.002758 0.000000 0.000000 0.000000
# 2 -0.005050 0.035016 -0.003432 0.000000 0.000000 0.000000
# 3 -0.002758 -0.003432 0.011619 0.000000 0.000000 0.000000
# 4 0.000000 0.000000 0.000000 0.030710 0.000000 0.000000
# 5 0.000000 0.000000 0.000000 0.000000 0.026798 0.000000
# 6 0.000000 0.000000 0.000000 0.000000 0.000000 0.034411
#
#
# Mechanical properties :
#
#
# Convention : Reuss Voigt Hill
#
# Bulk Modulus (GPa) = 32.10588 59.55726 45.83157
# Shear Modulus (GPa) = 28.02516 34.61572 31.32044
#
# Velocity S-wave (km/s) = 3.75801 4.17657 3.97281
# Velocity P-wave (km/s) = 5.91685 7.29869 6.64379
#
# Compressibility (1/GPa) = 0.03114694
#
# Stress axis : x y z
#
# Youngs Moduli (GPa) = 142.98369 28.55862 86.06932
#
# Poissons Ratio (x) = 0.14422 0.23741
# Poissons Ratio (y) = 0.72208 0.29540
# Poissons Ratio (z) = 0.39440 0.09802
#
# Static dielectric constant tensor:
#      x y z
#    x 1.523800 0.000000 0.000000 
#    y 0.000000 1.685570 0.000000 
#    z 0.000000 0.000000 1.681150 
# 
# From -- ./inp_files/32934.got.cif
#   From: 2010.05.17/outbox.cif.g08.bks.cpg/sg59_17_cif.got.tgz:32934.got - 2010.06.03 14:40:33.
