data_PCOD9451983
_publ_section_title
;
Structure prediction by ZEFSAII (Michael W. Deem and Ramdas Pophale) SiO2 
 PCOD9451983
Probable space group: P M M N
;
_chemical_formula_sum "Si O2"
_cell_formula_units_Z 64
_cell_length_a 8.987330
_cell_length_b 30.367807
_cell_length_c 12.469725
_cell_angle_alpha 90.000000
_cell_angle_beta 90.000000
_cell_angle_gamma 90.000000
_cell_volume 3403.305966
_symmetry_space_group_name_H-M "P M M N"
_symmetry_group_IT_number 59
_space_group.IT_coordinate_system_code '2'
_symmetry_cell_setting 'orthorhombic'
loop_
_space_group_symop_operation_xyz
x,y,z
1/2-x,1/2-y,z
1/2+x,-y,-z
-x,1/2+y,-z
-x,-y,-z
1/2+x,1/2+y,-z
1/2-x,y,z
x,1/2-y,z
loop_
_atom_site_type_symbol
_atom_site_label
_atom_site_fract_x
_atom_site_fract_y
_atom_site_fract_z
Si Si1 0.929262 0.625050 0.375081
Si Si2 0.573410 0.847642 0.131745
Si Si3 0.430234 0.971291 0.404990
Si Si4 0.071702 0.064996 0.991309
Si Si5 0.071456 0.004504 0.171334
Si Si6 0.417693 0.303376 0.249358
Si Si7 0.084635 0.801988 0.961484
Si Si8 0.572316 0.301938 0.471892
O O1 0.750000 0.621175 0.384874
O O2 0.964829 0.637463 0.251438
O O3 0.005208 0.578383 0.403231
O O4 0.989984 0.664570 0.448726
O O5 0.750000 0.839453 0.128912
O O6 0.535181 0.886700 0.048802
O O7 0.485276 0.808016 0.078728
O O8 0.250000 0.970033 0.412526
O O9 0.500000 0.000000 0.500000
O O10 0.474379 0.994728 0.292452
O O11 0.250000 0.060120 0.980847
O O12 0.030343 0.050132 0.111587
O O13 0.995603 0.032299 0.906879
O O14 0.250000 0.001136 0.169708
O O15 0.250000 0.320110 0.265626
O O16 0.409687 0.250000 0.245412
O O17 0.483108 0.319063 0.136188
O O18 0.520533 0.313384 0.351093
O O19 0.250000 0.821232 0.957027
O O20 0.095956 0.750000 0.941583
O O21 0.750000 0.306296 0.482001
O O22 0.534363 0.250000 0.491073
#
# Coordination Sequence:
#
# PCOD9451983 Si02
#       8
#     8   8   8   8   8   8   8   8
#     4  11  23  40  61  86 117 156 201 248 299 357
#     4  10  21  36  56  81 113 151 191 239 293 349
#     4  11  23  40  61  85 117 157 198 243 299 360
#     4   9  17  33  56  82 110 139 178 227 279 336
#     4   9  18  33  57  84 108 140 181 226 279 337
#     4   9  17  33  58  83 109 145 188 235 288 344
#     4  10  21  36  55  81 115 154 194 238 289 346
#     4  10  21  38  61  89 121 157 198 245 297 354
#
# _framework density 18.805243999999998
#
# number of rings (size 3 to 8) (size 9 to 14) (size 15 to 20)
#    0.000    2.125    1.250    1.875    0.000    5.500 
#    2.250    2.500    0.000    0.000    0.000    0.000 
#    0.000    0.000    0.000    0.000    0.000    0.000 
#
# Total GULP energy -356820.057538 kJ/mol
# GULP energy per Si atom -5575.313399 kJ/mol
# Density = 1.876244 g / cm^3
# Si number density = 18.805244 Si / 1000 Ang^3
#
#
#
# Elastic Constant Matrix: (Units=GPa)
#
#
# Indices 1 2 3 4 5 6 
#
# 1 60.4143 35.9665 49.3021 0.0000 0.0000 0.0000
# 2 35.9665 45.1323 64.9847 0.0000 0.0000 0.0000
# 3 49.3021 64.9847 131.0636 0.0000 0.0000 0.0000
# 4 0.0000 0.0000 0.0000 32.7251 0.0000 0.0000
# 5 0.0000 0.0000 0.0000 0.0000 25.1643 0.0000
# 6 0.0000 0.0000 0.0000 0.0000 0.0000 24.4741
#
#
#
# Elastic Compliance Matrix: (Units=1/GPa)
#
#
# Indices 1 2 3 4 5 6 
#
# 1 0.031658 -0.028250 0.002098 0.000000 0.000000 0.000000
# 2 -0.028250 0.102661 -0.040275 0.000000 0.000000 0.000000
# 3 0.002098 -0.040275 0.026810 0.000000 0.000000 0.000000
# 4 0.000000 0.000000 0.000000 0.030558 0.000000 0.000000
# 5 0.000000 0.000000 0.000000 0.000000 0.039739 0.000000
# 6 0.000000 0.000000 0.000000 0.000000 0.000000 0.040859
#
#
# Mechanical properties :
#
#
# Convention : Reuss Voigt Hill
#
# Bulk Modulus (GPa) = 35.36649 59.67963 47.52306
# Shear Modulus (GPa) = 12.06086 22.22983 17.14535
#
# Velocity S-wave (km/s) = 2.53525 3.44191 3.02277
# Velocity P-wave (km/s) = 5.23617 6.89929 6.12445
#
# Compressibility (1/GPa) = 0.02827536
#
# Stress axis : x y z
#
# Youngs Moduli (GPa) = 31.58749 9.74080 37.29946
#
# Poissons Ratio (x) = 0.27518 -0.07826
# Poissons Ratio (y) = 0.89235 1.50224
# Poissons Ratio (z) = -0.06628 0.39231
#
# Static dielectric constant tensor:
#      x y z
#    x 1.651230 0.000000 0.000000 
#    y 0.000000 1.726870 0.000000 
#    z 0.000000 0.000000 1.641700 
# 
# From -- ./inp_files/15072.got.cif
#   From: 2010.05.17/outbox.cif.g08.bks.cpg/sg59_8_cif.got.tgz:15072.got - 2010.06.03 14:40:33.
