data_PCOD9451229
_publ_section_title
;
Structure prediction by ZEFSAII (Michael W. Deem and Ramdas Pophale) SiO2 
 PCOD9451229
Probable space group: P M M N
;
_chemical_formula_sum "Si O2"
_cell_formula_units_Z 40
_cell_length_a 18.556401
_cell_length_b 7.457506
_cell_length_c 12.737418
_cell_angle_alpha 90.000000
_cell_angle_beta 90.000000
_cell_angle_gamma 90.000000
_cell_volume 1762.660862
_symmetry_space_group_name_H-M "P M M N"
_symmetry_group_IT_number 59
_space_group.IT_coordinate_system_code '2'
_symmetry_cell_setting 'orthorhombic'
loop_
_space_group_symop_operation_xyz
x,y,z
1/2-x,1/2-y,z
1/2+x,-y,-z
-x,1/2+y,-z
-x,-y,-z
1/2+x,1/2+y,-z
1/2-x,y,z
x,1/2-y,z
loop_
_atom_site_type_symbol
_atom_site_label
_atom_site_fract_x
_atom_site_fract_y
_atom_site_fract_z
Si Si1 0.438018 0.457447 0.360792
Si Si2 0.582295 0.464396 0.033296
Si Si3 0.832617 0.467869 0.830136
Si Si4 0.829293 0.963594 0.470260
Si Si5 0.587526 0.034133 0.269755
O O1 0.453068 0.250000 0.387547
O O2 0.383878 0.465516 0.262474
O O3 0.394061 0.538247 0.458244
O O4 0.513838 0.536642 0.323232
O O5 0.591846 0.250000 0.036723
O O6 0.595276 0.533515 0.150956
O O7 0.500000 0.500000 0.000000
O O8 0.634872 0.529726 0.941456
O O9 0.750000 0.523399 0.816029
O O10 0.834842 0.250000 0.827605
O O11 0.750000 0.035044 0.497154
O O12 0.827324 0.750000 0.489530
O O13 0.848252 0.992736 0.349016
O O14 0.580800 0.250000 0.262434
#
# Coordination Sequence:
#
# PCOD9451229 Si02
#       5
#     8   8   8   8   8
#     4  10  20  37  59  83 111 144 186 232 279 330
#     4  10  20  36  57  82 112 145 183 227 273 326
#     4  10  21  35  54  83 115 147 183 226 279 332
#     4  10  22  38  55  79 113 150 186 229 281 330
#     4  10  21  36  58  85 110 144 189 230 275 332
#
# _framework density 22.692964
#
# number of rings (size 3 to 8) (size 9 to 14) (size 15 to 20)
#    0.000    2.000    2.000    1.200    0.000    4.800 
#    0.000    2.000    0.000    0.000    0.000    0.000 
#    0.000    0.000    0.000    0.000    0.000    0.000 
#
# Total GULP energy -223595.079203 kJ/mol
# GULP energy per Si atom -5589.876980 kJ/mol
# Density = 2.264131 g / cm^3
# Si number density = 22.692964 Si / 1000 Ang^3
#
#
#
# Elastic Constant Matrix: (Units=GPa)
#
#
# Indices 1 2 3 4 5 6 
#
# 1 58.9504 -7.2762 -0.6339 0.0000 0.0000 0.0000
# 2 -7.2762 68.5108 -6.6074 0.0000 0.0000 0.0000
# 3 -0.6339 -6.6074 113.9241 0.0000 0.0000 0.0000
# 4 0.0000 0.0000 0.0000 17.4056 0.0000 0.0000
# 5 0.0000 0.0000 0.0000 0.0000 -23.6131 0.0000
# 6 0.0000 0.0000 0.0000 0.0000 0.0000 -4.8264
#
#
#
# Elastic Compliance Matrix: (Units=1/GPa)
#
#
# Indices 1 2 3 4 5 6 
#
# 1 0.017193 0.001846 0.000203 0.000000 0.000000 0.000000
# 2 0.001846 0.014876 0.000873 0.000000 0.000000 0.000000
# 3 0.000203 0.000873 0.008830 0.000000 0.000000 0.000000
# 4 0.000000 0.000000 0.000000 0.057453 0.000000 0.000000
# 5 0.000000 0.000000 0.000000 0.000000 -0.042349 0.000000
# 6 0.000000 0.000000 0.000000 0.000000 0.000000 -0.207192
#
#
# Mechanical properties :
#
#
# Convention : Reuss Voigt Hill
#
# Bulk Modulus (GPa) = 21.39399 23.59448 22.49423
# Shear Modulus (GPa) = -35.34793 14.85340 -10.24727
#
# Velocity S-wave (km/s) = -3.95100 2.56117 -2.12730
# Velocity P-wave (km/s) = 3.37133 4.37789 1.97486
#
# Compressibility (1/GPa) = 0.04674211
#
# Stress axis : x y z
#
# Youngs Moduli (GPa) = 58.16192 67.22033 113.25622
#
# Poissons Ratio (x) = -0.12406 -0.02296
# Poissons Ratio (y) = -0.10734 -0.09888
# Poissons Ratio (z) = -0.01179 -0.05869
#
# Static dielectric constant tensor:
#      x y z
#    x 1.857470 0.000000 0.000000 
#    y 0.000000 1.853490 0.000000 
#    z 0.000000 0.000000 1.805540 
# 
# From -- ./inp_files/13810.got.cif
#   From: 2010.05.17/outbox.cif.g08.bks.cpg/sg59_7_cif.got.tgz:13810.got - 2010.06.03 14:40:33.
