data_PCOD9451835
_publ_section_title
;
Structure prediction by ZEFSAII (Michael W. Deem and Ramdas Pophale) SiO2 
 PCOD9451835
Probable space group: P M M N
;
_chemical_formula_sum "Si O2"
_cell_formula_units_Z 56
_cell_length_a 22.880053
_cell_length_b 8.034242
_cell_length_c 17.096296
_cell_angle_alpha 90.000000
_cell_angle_beta 90.000000
_cell_angle_gamma 90.000000
_cell_volume 3142.707512
_symmetry_space_group_name_H-M "P M M N"
_symmetry_group_IT_number 59
_space_group.IT_coordinate_system_code '2'
_symmetry_cell_setting 'orthorhombic'
loop_
_space_group_symop_operation_xyz
x,y,z
1/2-x,1/2-y,z
1/2+x,-y,-z
-x,1/2+y,-z
-x,-y,-z
1/2+x,1/2+y,-z
1/2-x,y,z
x,1/2-y,z
loop_
_atom_site_type_symbol
_atom_site_label
_atom_site_fract_x
_atom_site_fract_y
_atom_site_fract_z
Si Si1 0.139991 0.060741 0.852659
Si Si2 0.185010 0.051840 0.025020
Si Si3 0.316866 0.049639 0.284338
Si Si4 0.595161 0.438886 0.849266
Si Si5 0.820842 0.939633 0.535527
Si Si6 0.019597 0.939606 0.914142
Si Si7 0.678811 0.250000 0.431784
Si Si8 0.679529 0.250000 0.249773
O O1 0.152149 0.250000 0.825677
O O2 0.175866 0.030292 0.932770
O O3 0.155724 0.916061 0.792218
O O4 0.072591 0.045228 0.879309
O O5 0.250000 0.997404 0.048160
O O6 0.179982 0.250000 0.041245
O O7 0.135447 0.962828 0.074321
O O8 0.250000 0.990566 0.270081
O O9 0.315818 0.250000 0.276624
O O10 0.333303 0.013602 0.374289
O O11 0.363252 0.980793 0.223329
O O12 0.574787 0.250000 0.844606
O O13 0.537748 0.549124 0.860207
O O14 0.750000 0.933774 0.530846
O O15 0.841536 0.750000 0.520120
O O16 0.841119 0.083192 0.476834
O O17 0.040188 0.750000 0.920197
O O18 0.000000 0.000000 0.000000
O O19 0.750000 0.250000 0.435153
O O20 0.662600 0.250000 0.341001
O O21 0.750000 0.250000 0.244149
#
# Coordination Sequence:
#
# PCOD9451835 Si02
#       8
#     8   8   8   8   8   8   4   4
#     4  11  23  41  60  82 112 151 195 241 290 338
#     4  10  21  36  52  72 105 151 190 226 281 340
#     4   9  18  33  51  76 116 156 187 227 283 341
#     4  12  24  33  49  81 111 145 192 238 283 332
#     4   8  15  29  51  78 112 152 185 220 273 338
#     4  12  23  40  60  79 106 145 197 250 289 335
#     4   9  18  32  54  83 115 147 187 227 272 343
#     4  11  24  40  60  91 121 151 188 235 292 347
#
# _framework density 17.819032
#
# number of rings (size 3 to 8) (size 9 to 14) (size 15 to 20)
#    0.000    1.714    2.143    4.286    2.000    3.714 
#    0.000    1.429    0.000    0.000    0.000    1.000 
#    0.000    0.000    0.000    0.000    0.000    0.000 
#
# Total GULP energy -312662.680715 kJ/mol
# GULP energy per Si atom -5583.262156 kJ/mol
# Density = 1.777847 g / cm^3
# Si number density = 17.819032 Si / 1000 Ang^3
#
#
#
# Elastic Constant Matrix: (Units=GPa)
#
#
# Indices 1 2 3 4 5 6 
#
# 1 58.2889 7.2034 18.6339 0.0000 0.0000 0.0000
# 2 7.2034 95.4841 59.3261 0.0000 0.0000 0.0000
# 3 18.6339 59.3261 94.9892 0.0000 0.0000 0.0000
# 4 0.0000 0.0000 0.0000 23.7391 0.0000 0.0000
# 5 0.0000 0.0000 0.0000 0.0000 -1.1720 0.0000
# 6 0.0000 0.0000 0.0000 0.0000 0.0000 17.4008
#
#
#
# Elastic Compliance Matrix: (Units=1/GPa)
#
#
# Indices 1 2 3 4 5 6 
#
# 1 0.018417 0.001398 -0.004486 0.000000 0.000000 0.000000
# 2 0.001398 0.017220 -0.011029 0.000000 0.000000 0.000000
# 3 -0.004486 -0.011029 0.018296 0.000000 0.000000 0.000000
# 4 0.000000 0.000000 0.000000 0.042125 0.000000 0.000000
# 5 0.000000 0.000000 0.000000 0.000000 -0.853250 0.000000
# 6 0.000000 0.000000 0.000000 0.000000 0.000000 0.057469
#
#
# Mechanical properties :
#
#
# Convention : Reuss Voigt Hill
#
# Bulk Modulus (GPa) = 38.91251 46.56544 42.73897
# Shear Modulus (GPa) = -7.54235 18.90016 5.67891
#
# Velocity S-wave (km/s) = -2.05960 3.26033 1.78715
# Velocity P-wave (km/s) = 4.02854 6.35312 5.31936
#
# Compressibility (1/GPa) = 0.02569868
#
# Stress axis : x y z
#
# Youngs Moduli (GPa) = 54.29698 58.07170 54.65741
#
# Poissons Ratio (x) = -0.08117 0.24518
# Poissons Ratio (y) = -0.07589 0.60282
# Poissons Ratio (z) = 0.24357 0.64048
#
# Static dielectric constant tensor:
#      x y z
#    x 1.600990 0.000000 0.000000 
#    y 0.000000 1.617760 0.000000 
#    z 0.000000 0.000000 1.595670 
# 
# From -- ./inp_files/24334.got.cif
#   From: 2010.05.17/outbox.cif.g08.bks.cpg/sg59_13_cif.got.tgz:24334.got - 2010.06.03 14:40:33.
