data_PCOD9451230
_publ_section_title
;
Structure prediction by ZEFSAII (Michael W. Deem and Ramdas Pophale) SiO2 
 PCOD9451230
Probable space group: P M M N
;
_chemical_formula_sum "Si O2"
_cell_formula_units_Z 48
_cell_length_a 18.629253
_cell_length_b 8.488410
_cell_length_c 15.201681
_cell_angle_alpha 90.000000
_cell_angle_beta 90.000000
_cell_angle_gamma 90.000000
_cell_volume 2403.883430
_symmetry_space_group_name_H-M "P M M N"
_symmetry_group_IT_number 59
_space_group.IT_coordinate_system_code '2'
_symmetry_cell_setting 'orthorhombic'
loop_
_space_group_symop_operation_xyz
x,y,z
1/2-x,1/2-y,z
1/2+x,-y,-z
-x,1/2+y,-z
-x,-y,-z
1/2+x,1/2+y,-z
1/2-x,y,z
x,1/2-y,z
loop_
_atom_site_type_symbol
_atom_site_label
_atom_site_fract_x
_atom_site_fract_y
_atom_site_fract_z
Si Si1 0.561860 0.433066 0.124180
Si Si2 0.331570 0.063072 0.021176
Si Si3 0.098447 0.061123 0.556459
Si Si4 0.168613 0.438646 0.733501
Si Si5 0.440994 0.561032 0.377301
Si Si6 0.911666 0.063286 0.819858
O O1 0.542577 0.250000 0.118968
O O2 0.612005 0.469405 0.207892
O O3 0.489292 0.531432 0.136269
O O4 0.610058 0.481740 0.041239
O O5 0.250000 0.011039 0.002175
O O6 0.335366 0.250000 0.005989
O O7 0.353155 0.023215 0.120841
O O8 0.095252 0.250000 0.546522
O O9 0.156541 0.024701 0.630860
O O10 0.021715 0.006931 0.597314
O O11 0.106887 0.988710 0.460237
O O12 0.250000 0.471511 0.760580
O O13 0.155561 0.250000 0.744613
O O14 0.443818 0.750000 0.372383
O O15 0.417157 0.505432 0.281123
O O16 0.897381 0.250000 0.820188
#
# Coordination Sequence:
#
# PCOD9451230 Si02
#       6
#     8   8   8   8   8   8
#     4  12  24  38  60  89 119 152 195 243 293 349
#     4  11  25  44  63  85 117 155 194 239 294 352
#     4   9  17  32  53  80 113 148 189 233 282 343
#     4  10  20  36  57  82 117 158 196 240 297 354
#     4   9  18  33  55  82 111 146 187 234 285 335
#     4  11  22  40  64  89 119 153 196 244 291 346
#
# _framework density 19.967690000000001
#
# number of rings (size 3 to 8) (size 9 to 14) (size 15 to 20)
#    0.000    1.667    1.667    3.500    0.000    5.667 
#    0.000    0.833    0.000    3.000    0.000    0.000 
#    0.000    0.000    0.000    0.000    0.000    0.000 
#
# Total GULP energy -268170.663373 kJ/mol
# GULP energy per Si atom -5586.888820 kJ/mol
# Density = 1.992224 g / cm^3
# Si number density = 19.967690 Si / 1000 Ang^3
#
#
#
# Elastic Constant Matrix: (Units=GPa)
#
#
# Indices 1 2 3 4 5 6 
#
# 1 23.1627 -4.5336 9.5172 0.0000 0.0000 0.0000
# 2 -4.5336 8.6630 -1.1763 0.0000 0.0000 0.0000
# 3 9.5172 -1.1763 112.5905 0.0000 0.0000 0.0000
# 4 0.0000 0.0000 0.0000 34.0247 0.0000 0.0000
# 5 0.0000 0.0000 0.0000 0.0000 6.0297 0.0000
# 6 0.0000 0.0000 0.0000 0.0000 0.0000 20.8783
#
#
#
# Elastic Compliance Matrix: (Units=1/GPa)
#
#
# Indices 1 2 3 4 5 6 
#
# 1 0.049787 0.025520 -0.003942 0.000000 0.000000 0.000000
# 2 0.025520 0.128678 -0.000813 0.000000 0.000000 0.000000
# 3 -0.003942 -0.000813 0.009206 0.000000 0.000000 0.000000
# 4 0.000000 0.000000 0.000000 0.029390 0.000000 0.000000
# 5 0.000000 0.000000 0.000000 0.000000 0.165844 0.000000
# 6 0.000000 0.000000 0.000000 0.000000 0.000000 0.047897
#
#
# Mechanical properties :
#
#
# Convention : Reuss Voigt Hill
#
# Bulk Modulus (GPa) = 4.36295 16.89231 10.62763
# Shear Modulus (GPa) = 10.73712 21.56047 16.14880
#
# Velocity S-wave (km/s) = 2.32141 3.28955 2.84693
# Velocity P-wave (km/s) = 3.06186 4.78606 4.01754
#
# Compressibility (1/GPa) = 0.22920263
#
# Stress axis : x y z
#
# Youngs Moduli (GPa) = 20.08538 7.77132 108.61942
#
# Poissons Ratio (x) = -0.19832 0.42816
# Poissons Ratio (y) = -0.51258 0.08829
# Poissons Ratio (z) = 0.07917 0.00632
#
# Static dielectric constant tensor:
#      x y z
#    x 1.687230 0.000000 0.000000 
#    y 0.000000 1.685200 0.000000 
#    z 0.000000 0.000000 1.731610 
# 
# From -- ./inp_files/23670.got.cif
#   From: 2010.05.17/outbox.cif.g08.bks.cpg/sg59_12_cif.got.tgz:23670.got - 2010.06.03 14:40:33.
