data_PCOD9451205
_publ_section_title
;
Structure prediction by ZEFSAII (Michael W. Deem and Ramdas Pophale) SiO2 
 PCOD9451205
Probable space group: P M M N
;
_chemical_formula_sum "Si O2"
_cell_formula_units_Z 40
_cell_length_a 8.493773
_cell_length_b 14.738984
_cell_length_c 17.718511
_cell_angle_alpha 90.000000
_cell_angle_beta 90.000000
_cell_angle_gamma 90.000000
_cell_volume 2218.173027
_symmetry_space_group_name_H-M "P M M N"
_symmetry_group_IT_number 59
_space_group.IT_coordinate_system_code '2'
_symmetry_cell_setting 'orthorhombic'
loop_
_space_group_symop_operation_xyz
x,y,z
1/2-x,1/2-y,z
1/2+x,-y,-z
-x,1/2+y,-z
-x,-y,-z
1/2+x,1/2+y,-z
1/2-x,y,z
x,1/2-y,z
loop_
_atom_site_type_symbol
_atom_site_label
_atom_site_fract_x
_atom_site_fract_y
_atom_site_fract_z
Si Si1 0.061029 0.250000 0.656019
Si Si2 0.061187 0.559612 0.283705
Si Si3 0.558241 0.750000 0.519703
Si Si4 0.938650 0.984239 0.118789
Si Si5 0.440368 0.645747 0.989914
Si Si6 0.440390 0.055213 0.427869
O O1 0.250000 0.250000 0.656760
O O2 0.008211 0.250000 0.568090
O O3 0.000273 0.159730 0.696472
O O4 0.250000 0.561361 0.283565
O O5 0.006911 0.492951 0.351048
O O6 0.002381 0.526971 0.202679
O O7 0.750000 0.750000 0.518948
O O8 0.506450 0.658661 0.561140
O O9 0.750000 0.982261 0.120034
O O10 0.989116 0.078245 0.078009
O O11 0.998578 0.902389 0.065764
O O12 0.250000 0.645872 0.992201
O O13 0.493293 0.750000 0.982313
O O14 0.250000 0.054041 0.428679
O O15 0.500000 0.000000 0.500000
#
# Coordination Sequence:
#
# PCOD9451205 Si02
#       6
#     4   8   4   8   8   8
#     4  11  21  35  59  83 108 145 188 233 279 330
#     4  11  23  37  55  83 117 148 181 230 283 331
#     4   9  18  35  57  79 104 141 186 231 277 326
#     4  10  21  37  58  84 114 146 185 227 274 335
#     4   9  19  38  62  84 110 145 183 229 280 328
#     4  10  20  36  57  79 108 145 186 229 278 328
#
# _framework density 18.032859999999999
#
# number of rings (size 3 to 8) (size 9 to 14) (size 15 to 20)
#    0.000    2.000    2.000    1.500    1.400    2.000 
#    1.800    0.500    0.000    0.000    0.000    0.000 
#    0.000    0.000    0.000    0.000    0.000    0.000 
#
# Total GULP energy -223314.773755 kJ/mol
# GULP energy per Si atom -5582.869344 kJ/mol
# Density = 1.799182 g / cm^3
# Si number density = 18.032860 Si / 1000 Ang^3
#
#
#
# Elastic Constant Matrix: (Units=GPa)
#
#
# Indices 1 2 3 4 5 6 
#
# 1 19.2917 29.8684 30.2236 0.0000 0.0000 0.0000
# 2 29.8684 196.3245 110.6546 0.0000 0.0000 0.0000
# 3 30.2236 110.6546 190.5008 0.0000 0.0000 0.0000
# 4 0.0000 0.0000 0.0000 13.1724 0.0000 0.0000
# 5 0.0000 0.0000 0.0000 0.0000 25.0466 0.0000
# 6 0.0000 0.0000 0.0000 0.0000 0.0000 15.6772
#
#
#
# Elastic Compliance Matrix: (Units=1/GPa)
#
#
# Indices 1 2 3 4 5 6 
#
# 1 0.074914 -0.006985 -0.007828 0.000000 0.000000 0.000000
# 2 -0.006985 0.008224 -0.003669 0.000000 0.000000 0.000000
# 3 -0.007828 -0.003669 0.008622 0.000000 0.000000 0.000000
# 4 0.000000 0.000000 0.000000 0.075916 0.000000 0.000000
# 5 0.000000 0.000000 0.000000 0.000000 0.039926 0.000000
# 6 0.000000 0.000000 0.000000 0.000000 0.000000 0.063787
#
#
# Mechanical properties :
#
#
# Convention : Reuss Voigt Hill
#
# Bulk Modulus (GPa) = 18.24925 83.06780 50.65853
# Shear Modulus (GPa) = 15.30832 26.47060 20.88946
#
# Velocity S-wave (km/s) = 2.91677 3.83549 3.40724
# Velocity P-wave (km/s) = 4.63523 8.11044 6.60548
#
# Compressibility (1/GPa) = 0.05479676
#
# Stress axis : x y z
#
# Youngs Moduli (GPa) = 13.34858 121.59175 115.97709
#
# Poissons Ratio (x) = 0.84934 0.90787
# Poissons Ratio (y) = 0.09324 0.42551
# Poissons Ratio (z) = 0.10449 0.44611
#
# Static dielectric constant tensor:
#      x y z
#    x 1.610960 0.000000 0.000000 
#    y 0.000000 1.615750 0.000000 
#    z 0.000000 0.000000 1.587860 
# 
# From -- ./inp_files/19895.got.cif
#   From: 2010.05.17/outbox.cif.g08.bks.cpg/sg59_10_cif.got.tgz:19895.got - 2010.06.03 14:40:33.
