data_PCOD9451593
_publ_section_title
;
Structure prediction by ZEFSAII (Michael W. Deem and Ramdas Pophale) SiO2 
 PCOD9451593
Probable space group: P M M N
;
_chemical_formula_sum "Si O2"
_cell_formula_units_Z 64
_cell_length_a 30.525222
_cell_length_b 12.799026
_cell_length_c 9.165716
_cell_angle_alpha 90.000000
_cell_angle_beta 90.000000
_cell_angle_gamma 90.000000
_cell_volume 3580.982090
_symmetry_space_group_name_H-M "P M M N"
_symmetry_group_IT_number 59
_space_group.IT_coordinate_system_code '2'
_symmetry_cell_setting 'orthorhombic'
loop_
_space_group_symop_operation_xyz
x,y,z
1/2-x,1/2-y,z
1/2+x,-y,-z
-x,1/2+y,-z
-x,-y,-z
1/2+x,1/2+y,-z
1/2-x,y,z
x,1/2-y,z
loop_
_atom_site_type_symbol
_atom_site_label
_atom_site_fract_x
_atom_site_fract_y
_atom_site_fract_z
Si Si1 0.922983 0.870570 0.164325
Si Si2 0.302249 0.624799 0.081112
Si Si3 0.939655 0.628903 0.827749
Si Si4 0.105375 0.868288 0.567006
Si Si5 0.337678 0.988415 0.792328
Si Si6 0.699091 0.870638 0.458182
Si Si7 0.859531 0.992435 0.689687
Si Si8 0.480748 0.973351 0.656971
O O1 0.914955 0.750000 0.204515
O O2 0.878063 0.936476 0.162730
O O3 0.956349 0.926809 0.273843
O O4 0.942541 0.874110 0.002255
O O5 0.250000 0.613585 0.106781
O O6 0.311783 0.750000 0.074170
O O7 0.314947 0.566238 0.929948
O O8 0.330292 0.567292 0.207461
O O9 0.939595 0.750000 0.780380
O O10 0.894210 0.574851 0.781060
O O11 0.980425 0.569298 0.756971
O O12 0.110906 0.750000 0.523021
O O13 0.112843 0.940572 0.426983
O O14 0.057808 0.889238 0.634870
O O15 0.140907 0.900988 0.687920
O O16 0.308068 0.059901 0.686728
O O17 0.750000 0.873874 0.498271
O O18 0.686525 0.750000 0.431199
O O19 0.670843 0.918711 0.589536
O O20 0.500000 0.000000 0.500000
#
# Coordination Sequence:
#
# PCOD9451593 Si02
#       8
#     8   8   8   8   8   8   8   8
#     4  10  22  39  61  86 119 157 195 239 293 356
#     4  11  23  39  61  89 120 156 198 246 301 357
#     4  11  22  39  60  84 119 157 196 239 294 355
#     4  10  21  37  58  83 114 153 196 241 288 345
#     4  10  20  38  61  84 119 151 198 241 295 352
#     4  10  21  37  58  86 118 154 196 245 301 355
#     4  11  21  39  59  85 119 157 198 244 294 353
#     4  11  22  39  58  88 118 151 195 243 288 343
#
# _framework density 17.872191999999998
#
# number of rings (size 3 to 8) (size 9 to 14) (size 15 to 20)
#    0.000    1.500    2.500    3.000    0.000    1.000 
#    0.000    0.000    0.000    9.000    0.000    0.000 
#    0.000    0.000    0.000    0.000    0.000    0.000 
#
# Total GULP energy -357305.994987 kJ/mol
# GULP energy per Si atom -5582.906172 kJ/mol
# Density = 1.783151 g / cm^3
# Si number density = 17.872192 Si / 1000 Ang^3
#
#
#
# Elastic Constant Matrix: (Units=GPa)
#
#
# Indices 1 2 3 4 5 6 
#
# 1 90.0039 41.1538 26.3257 0.0000 0.0000 0.0000
# 2 41.1538 91.2169 16.1659 0.0000 0.0000 0.0000
# 3 26.3257 16.1659 67.2849 0.0000 0.0000 0.0000
# 4 0.0000 0.0000 0.0000 14.6230 0.0000 0.0000
# 5 0.0000 0.0000 0.0000 0.0000 29.6501 0.0000
# 6 0.0000 0.0000 0.0000 0.0000 0.0000 10.5969
#
#
#
# Elastic Compliance Matrix: (Units=1/GPa)
#
#
# Indices 1 2 3 4 5 6 
#
# 1 0.015194 -0.006060 -0.004489 0.000000 0.000000 0.000000
# 2 -0.006060 0.013867 -0.000961 0.000000 0.000000 0.000000
# 3 -0.004489 -0.000961 0.016849 0.000000 0.000000 0.000000
# 4 0.000000 0.000000 0.000000 0.068385 0.000000 0.000000
# 5 0.000000 0.000000 0.000000 0.000000 0.033727 0.000000
# 6 0.000000 0.000000 0.000000 0.000000 0.000000 0.094367
#
#
# Mechanical properties :
#
#
# Convention : Reuss Voigt Hill
#
# Bulk Modulus (GPa) = 43.68364 46.19964 44.94164
# Shear Modulus (GPa) = 18.31238 21.96470 20.13854
#
# Velocity S-wave (km/s) = 3.20446 3.50949 3.36044
# Velocity P-wave (km/s) = 6.17954 6.50601 6.34488
#
# Compressibility (1/GPa) = 0.02289186
#
# Stress axis : x y z
#
# Youngs Moduli (GPa) = 65.81386 72.11347 59.34933
#
# Poissons Ratio (x) = 0.43698 0.26642
# Poissons Ratio (y) = 0.39880 0.05703
# Poissons Ratio (z) = 0.29544 0.06929
#
# Static dielectric constant tensor:
#      x y z
#    x 1.596710 0.000000 0.000000 
#    y 0.000000 1.595520 0.000000 
#    z 0.000000 0.000000 1.588160 
# 
# From -- ./inp_files/8009.got.cif
#   From: 2010.05.17/outbox.cif.g08.bks.cpg/sg59_5_cif.got.tgz:8009.got - 2010.06.03 14:40:33.
