data_PCOD9451500
_publ_section_title
;
Structure prediction by ZEFSAII (Michael W. Deem and Ramdas Pophale) SiO2 
 PCOD9451500
Probable space group: P M M N
;
_chemical_formula_sum "Si O2"
_cell_formula_units_Z 48
_cell_length_a 30.695351
_cell_length_b 8.748887
_cell_length_c 9.595224
_cell_angle_alpha 90.000000
_cell_angle_beta 90.000000
_cell_angle_gamma 90.000000
_cell_volume 2576.798915
_symmetry_space_group_name_H-M "P M M N"
_symmetry_group_IT_number 59
_space_group.IT_coordinate_system_code '2'
_symmetry_cell_setting 'orthorhombic'
loop_
_space_group_symop_operation_xyz
x,y,z
1/2-x,1/2-y,z
1/2+x,-y,-z
-x,1/2+y,-z
-x,-y,-z
1/2+x,1/2+y,-z
1/2-x,y,z
x,1/2-y,z
loop_
_atom_site_type_symbol
_atom_site_label
_atom_site_fract_x
_atom_site_fract_y
_atom_site_fract_z
Si Si1 0.153667 0.932588 0.021782
Si Si2 0.103767 0.076848 0.758024
Si Si3 0.615062 0.930909 0.702787
Si Si4 0.819826 0.582300 0.467274
Si Si5 0.547845 0.432971 0.476270
Si Si6 0.250000 0.581429 0.690371
Si Si7 0.250000 0.429951 0.981765
O O1 0.156748 0.750000 0.016378
O O2 0.128170 0.994231 0.885208
O O3 0.203351 0.999299 0.029771
O O4 0.124449 0.987524 0.151875
O O5 0.090538 0.250000 0.798342
O O6 0.140062 0.090333 0.638265
O O7 0.065799 0.989101 0.674722
O O8 0.605734 0.750000 0.720523
O O9 0.660360 0.943966 0.617982
O O10 0.578789 0.004247 0.601339
O O11 0.798433 0.750000 0.464087
O O12 0.790411 0.449064 0.408995
O O13 0.500000 0.500000 0.500000
O O14 0.547947 0.250000 0.479968
O O15 0.250000 0.750000 0.752464
O O16 0.250000 0.460692 0.815171
O O17 0.250000 0.250000 0.012346
#
# Coordination Sequence:
#
# PCOD9451500 Si02
#       7
#     8   8   8   8   8   4   4
#     4  12  24  39  60  90 124 161 206 254 304 357
#     4  10  20  37  61  87 117 158 200 241 296 360
#     4  10  22  41  62  86 119 159 199 243 303 365
#     4   9  19  35  56  78 108 150 196 238 289 350
#     4  11  22  40  66  95 124 156 199 250 302 361
#     4  12  22  31  52  83 114 146 196 254 298 343
#     4  12  24  39  58  81 118 166 210 250 296 353
#
# _framework density 18.627763999999999
#
# number of rings (size 3 to 8) (size 9 to 14) (size 15 to 20)
#    0.000    1.333    1.667    6.500    0.000    4.000 
#    0.000    1.667    0.000    0.000    0.000    0.000 
#    0.000    0.000    0.000    0.000    0.000    0.000 
#
# Total GULP energy -267734.203212 kJ/mol
# GULP energy per Si atom -5577.795900 kJ/mol
# Density = 1.858537 g / cm^3
# Si number density = 18.627764 Si / 1000 Ang^3
#
#
#
# Elastic Constant Matrix: (Units=GPa)
#
#
# Indices 1 2 3 4 5 6 
#
# 1 99.5240 52.2810 35.1908 0.0000 0.0000 0.0000
# 2 52.2810 159.8784 45.2995 0.0000 0.0000 0.0000
# 3 35.1908 45.2995 104.8002 0.0000 0.0000 0.0000
# 4 0.0000 0.0000 0.0000 28.0885 0.0000 0.0000
# 5 0.0000 0.0000 0.0000 0.0000 23.2009 0.0000
# 6 0.0000 0.0000 0.0000 0.0000 0.0000 30.2151
#
#
#
# Elastic Compliance Matrix: (Units=1/GPa)
#
#
# Indices 1 2 3 4 5 6 
#
# 1 0.012835 -0.003391 -0.002844 0.000000 0.000000 0.000000
# 2 -0.003391 0.008024 -0.002329 0.000000 0.000000 0.000000
# 3 -0.002844 -0.002329 0.011504 0.000000 0.000000 0.000000
# 4 0.000000 0.000000 0.000000 0.035602 0.000000 0.000000
# 5 0.000000 0.000000 0.000000 0.000000 0.043102 0.000000
# 6 0.000000 0.000000 0.000000 0.000000 0.000000 0.033096
#
#
# Mechanical properties :
#
#
# Convention : Reuss Voigt Hill
#
# Bulk Modulus (GPa) = 65.64667 69.97168 67.80918
# Shear Modulus (GPa) = 30.05366 31.72966 30.89166
#
# Velocity S-wave (km/s) = 4.02105 4.13165 4.07672
# Velocity P-wave (km/s) = 7.54163 7.77209 7.65773
#
# Compressibility (1/GPa) = 0.01523307
#
# Stress axis : x y z
#
# Youngs Moduli (GPa) = 77.91254 124.63013 86.92742
#
# Poissons Ratio (x) = 0.42265 0.24722
# Poissons Ratio (y) = 0.26422 0.20250
# Poissons Ratio (z) = 0.22158 0.29032
#
# Static dielectric constant tensor:
#      x y z
#    x 1.637710 0.000000 0.000000 
#    y 0.000000 1.658720 0.000000 
#    z 0.000000 0.000000 1.623410 
# 
# From -- ./inp_files/13023.got.cif
#   From: 2010.05.17/outbox.cif.g08.bks.cpg/sg59_7_cif.got.tgz:13023.got - 2010.06.03 14:40:33.
