data_PCOD9451738
_publ_section_title
;
Structure prediction by ZEFSAII (Michael W. Deem and Ramdas Pophale) SiO2 
 PCOD9451738
Probable space group: P M M N
;
_chemical_formula_sum "Si O2"
_cell_formula_units_Z 56
_cell_length_a 9.243043
_cell_length_b 14.463378
_cell_length_c 22.242832
_cell_angle_alpha 90.000000
_cell_angle_beta 90.000000
_cell_angle_gamma 90.000000
_cell_volume 2973.546893
_symmetry_space_group_name_H-M "P M M N"
_symmetry_group_IT_number 59
_space_group.IT_coordinate_system_code '2'
_symmetry_cell_setting 'orthorhombic'
loop_
_space_group_symop_operation_xyz
x,y,z
1/2-x,1/2-y,z
1/2+x,-y,-z
-x,1/2+y,-z
-x,-y,-z
1/2+x,1/2+y,-z
1/2-x,y,z
x,1/2-y,z
loop_
_atom_site_type_symbol
_atom_site_label
_atom_site_fract_x
_atom_site_fract_y
_atom_site_fract_z
Si Si1 0.084811 0.362771 0.518563
Si Si2 0.581002 0.639184 0.961593
Si Si3 0.425809 0.030148 0.156081
Si Si4 0.923941 0.144110 0.915858
Si Si5 0.917828 0.361808 0.398754
Si Si6 0.422908 0.461766 0.290378
Si Si7 0.078942 0.643531 0.359630
O O1 0.250000 0.395092 0.515754
O O2 0.086069 0.250000 0.517034
O O3 0.995733 0.393038 0.460193
O O4 0.009331 0.386180 0.581423
O O5 0.750000 0.613413 0.969885
O O6 0.573101 0.750000 0.956128
O O7 0.528467 0.594122 0.899567
O O8 0.491959 0.613031 0.020828
O O9 0.250000 0.034356 0.158343
O O10 0.475307 0.056404 0.222605
O O11 0.465926 0.926333 0.136543
O O12 0.750000 0.141843 0.921316
O O13 0.968255 0.250000 0.904497
O O14 0.750000 0.388718 0.399491
O O15 0.925423 0.250000 0.396817
O O16 0.997484 0.402770 0.340940
O O17 0.250000 0.443951 0.293862
O O18 0.445263 0.569595 0.307257
O O19 0.250000 0.641439 0.374479
O O20 0.042148 0.750000 0.344326
#
# Coordination Sequence:
#
# PCOD9451738 Si02
#       7
#     8   8   8   8   8   8   8
#     4   9  17  31  54  80 101 127 167 211 254 301
#     4   9  17  30  49  72  97 126 161 201 245 290
#     4   9  18  32  49  71  99 130 165 202 240 286
#     4   9  17  30  50  75 100 126 159 201 246 289
#     4  10  21  37  55  75 102 133 165 208 260 306
#     4  10  21  35  52  75 101 135 177 210 243 297
#     4   9  18  33  52  75 104 134 165 207 257 303
#
# _framework density 18.832727999999999
#
# number of rings (size 3 to 8) (size 9 to 14) (size 15 to 20)
#    0.000    2.714    0.000    1.286    0.000    4.857 
#    0.000    5.714    0.000    1.714    0.000    4.000 
#    0.000    0.000    0.000    0.000    0.000    0.000 
#
# Total GULP energy -312446.730658 kJ/mol
# GULP energy per Si atom -5579.405905 kJ/mol
# Density = 1.878986 g / cm^3
# Si number density = 18.832728 Si / 1000 Ang^3
#
#
#
# Elastic Constant Matrix: (Units=GPa)
#
#
# Indices 1 2 3 4 5 6 
#
# 1 31.4417 7.1554 14.1845 0.0000 0.0000 0.0000
# 2 7.1554 19.7283 -9.5686 0.0000 0.0000 0.0000
# 3 14.1845 -9.5686 63.3046 0.0000 0.0000 0.0000
# 4 0.0000 0.0000 0.0000 19.2906 0.0000 0.0000
# 5 0.0000 0.0000 0.0000 0.0000 26.0701 0.0000
# 6 0.0000 0.0000 0.0000 0.0000 0.0000 17.6166
#
#
#
# Elastic Compliance Matrix: (Units=1/GPa)
#
#
# Indices 1 2 3 4 5 6 
#
# 1 0.042493 -0.021615 -0.012789 0.000000 0.000000 0.000000
# 2 -0.021615 0.065694 0.014773 0.000000 0.000000 0.000000
# 3 -0.012789 0.014773 0.020895 0.000000 0.000000 0.000000
# 4 0.000000 0.000000 0.000000 0.051839 0.000000 0.000000
# 5 0.000000 0.000000 0.000000 0.000000 0.038358 0.000000
# 6 0.000000 0.000000 0.000000 0.000000 0.000000 0.056765
#
#
# Mechanical properties :
#
#
# Convention : Reuss Voigt Hill
#
# Bulk Modulus (GPa) = 11.13328 15.33525 13.23427
# Shear Modulus (GPa) = 14.48247 19.44236 16.96241
#
# Velocity S-wave (km/s) = 2.77610 3.21654 3.00440
# Velocity P-wave (km/s) = 4.02494 4.68566 4.36781
#
# Compressibility (1/GPa) = 0.08982079
#
# Stress axis : x y z
#
# Youngs Moduli (GPa) = 23.53309 15.22219 47.85811
#
# Poissons Ratio (x) = 0.32903 0.61204
# Poissons Ratio (y) = 0.50867 -0.70701
# Poissons Ratio (z) = 0.30095 -0.22488
#
# Static dielectric constant tensor:
#      x y z
#    x 1.633070 0.000000 0.000000 
#    y 0.000000 1.692950 0.000000 
#    z 0.000000 0.000000 1.617310 
# 
# From -- ./inp_files/29049.got.cif
#   From: 2010.05.17/outbox.cif.g08.bks.cpg/sg59_15_cif.got.tgz:29049.got - 2010.06.03 14:40:33.
