data_PCOD9451968
_publ_section_title
;
Structure prediction by ZEFSAII (Michael W. Deem and Ramdas Pophale) SiO2 
 PCOD9451968
Probable space group: P M M N
;
_chemical_formula_sum "Si O2"
_cell_formula_units_Z 40
_cell_length_a 9.248681
_cell_length_b 8.869614
_cell_length_c 26.317635
_cell_angle_alpha 90.000000
_cell_angle_beta 90.000000
_cell_angle_gamma 90.000000
_cell_volume 2158.894300
_symmetry_space_group_name_H-M "P M M N"
_symmetry_group_IT_number 59
_space_group.IT_coordinate_system_code '2'
_symmetry_cell_setting 'orthorhombic'
loop_
_space_group_symop_operation_xyz
x,y,z
1/2-x,1/2-y,z
1/2+x,-y,-z
-x,1/2+y,-z
-x,-y,-z
1/2+x,1/2+y,-z
1/2-x,y,z
x,1/2-y,z
loop_
_atom_site_type_symbol
_atom_site_label
_atom_site_fract_x
_atom_site_fract_y
_atom_site_fract_z
Si Si1 0.582108 0.431913 0.452015
Si Si2 0.579915 0.430384 0.145610
Si Si3 0.421175 0.929582 0.241387
Si Si4 0.920170 0.430836 0.951354
Si Si5 0.920809 0.929914 0.650642
O O1 0.500000 0.500000 0.500000
O O2 0.750000 0.475054 0.453062
O O3 0.572506 0.250000 0.454511
O O4 0.508980 0.478606 0.398894
O O5 0.750000 0.467656 0.142439
O O6 0.565066 0.250000 0.142519
O O7 0.512916 0.489317 0.198121
O O8 0.494315 0.505804 0.099276
O O9 0.250000 0.964311 0.234371
O O10 0.438807 0.750000 0.237605
O O11 0.462093 0.986494 0.297546
O O12 0.750000 0.469500 0.952187
O O13 0.932621 0.250000 0.952421
O O14 0.000000 0.500000 0.000000
O O15 0.750000 0.956011 0.641642
O O16 0.941334 0.750000 0.657776
#
# Coordination Sequence:
#
# PCOD9451968 Si02
#       5
#     8   8   8   8   8
#     4  10  21  36  55  80 110 144 183 228 277 330
#     4  11  24  40  59  85 116 151 192 235 279 330
#     4  10  21  37  58  85 115 147 185 229 278 333
#     4  11  24  41  62  89 119 151 190 234 280 333
#     4   9  18  34  55  78 108 147 187 227 274 329
#
# _framework density 18.528002999999998
#
# number of rings (size 3 to 8) (size 9 to 14) (size 15 to 20)
#    0.000    1.800    0.000    3.600    0.000   12.000 
#    0.000    4.000    0.000    0.000    0.000    0.000 
#    0.000    0.000    0.000    0.000    0.000    0.000 
#
# Total GULP energy -223577.743201 kJ/mol
# GULP energy per Si atom -5589.443580 kJ/mol
# Density = 1.848583 g / cm^3
# Si number density = 18.528003 Si / 1000 Ang^3
#
#
#
# Elastic Constant Matrix: (Units=GPa)
#
#
# Indices 1 2 3 4 5 6 
#
# 1 147.4610 71.8002 119.5157 0.0000 0.0000 0.0000
# 2 71.8002 48.9125 61.5250 0.0000 0.0000 0.0000
# 3 119.5157 61.5250 185.1975 0.0000 0.0000 0.0000
# 4 0.0000 0.0000 0.0000 42.3133 0.0000 0.0000
# 5 0.0000 0.0000 0.0000 0.0000 42.9590 0.0000
# 6 0.0000 0.0000 0.0000 0.0000 0.0000 28.6900
#
#
#
# Elastic Compliance Matrix: (Units=1/GPa)
#
#
# Indices 1 2 3 4 5 6 
#
# 1 0.029280 -0.033005 -0.007931 0.000000 0.000000 0.000000
# 2 -0.033005 0.072325 -0.002728 0.000000 0.000000 0.000000
# 3 -0.007931 -0.002728 0.011424 0.000000 0.000000 0.000000
# 4 0.000000 0.000000 0.000000 0.023633 0.000000 0.000000
# 5 0.000000 0.000000 0.000000 0.000000 0.023278 0.000000
# 6 0.000000 0.000000 0.000000 0.000000 0.000000 0.034855
#
#
# Mechanical properties :
#
#
# Convention : Reuss Voigt Hill
#
# Bulk Modulus (GPa) = 38.90826 98.58365 68.74595
# Shear Modulus (GPa) = 17.20056 31.37445 24.28751
#
# Velocity S-wave (km/s) = 3.05020 4.11950 3.62450
# Velocity P-wave (km/s) = 5.78362 8.71496 7.39597
#
# Compressibility (1/GPa) = 0.02570149
#
# Stress axis : x y z
#
# Youngs Moduli (GPa) = 34.15357 13.82657 87.53551
#
# Poissons Ratio (x) = 0.45634 0.69422
# Poissons Ratio (y) = 1.12722 0.23879
# Poissons Ratio (z) = 0.27086 0.03772
#
# Static dielectric constant tensor:
#      x y z
#    x 1.622560 0.000000 0.000000 
#    y 0.000000 1.622930 0.000000 
#    z 0.000000 0.000000 1.599420 
# 
# From -- ./inp_files/31116.got.cif
#   From: 2010.05.17/outbox.cif.g08.bks.cpg/sg59_16_cif.got.tgz:31116.got - 2010.06.03 14:40:33.
