data_PCOD9451342
_publ_section_title
;
Structure prediction by ZEFSAII (Michael W. Deem and Ramdas Pophale) SiO2 
 PCOD9451342
Probable space group: P M M N
;
_chemical_formula_sum "Si O2"
_cell_formula_units_Z 48
_cell_length_a 17.633693
_cell_length_b 7.567144
_cell_length_c 16.790377
_cell_angle_alpha 90.000000
_cell_angle_beta 90.000000
_cell_angle_gamma 90.000000
_cell_volume 2240.452401
_symmetry_space_group_name_H-M "P M M N"
_symmetry_group_IT_number 59
_space_group.IT_coordinate_system_code '2'
_symmetry_cell_setting 'orthorhombic'
loop_
_space_group_symop_operation_xyz
x,y,z
1/2-x,1/2-y,z
1/2+x,-y,-z
-x,1/2+y,-z
-x,-y,-z
1/2+x,1/2+y,-z
1/2-x,y,z
x,1/2-y,z
loop_
_atom_site_type_symbol
_atom_site_label
_atom_site_fract_x
_atom_site_fract_y
_atom_site_fract_z
Si Si1 0.250000 0.035287 0.197997
Si Si2 0.918427 0.462397 0.043644
Si Si3 0.166862 0.958616 0.642302
Si Si4 0.250000 0.954462 0.013703
Si Si5 0.413010 0.040217 0.479456
Si Si6 0.394143 0.466014 0.299848
Si Si7 0.947904 0.033600 0.223931
O O1 0.250000 0.250000 0.192591
O O2 0.177270 0.979545 0.248303
O O3 0.250000 0.964677 0.109030
O O4 0.913341 0.250000 0.041597
O O5 0.928088 0.523060 0.134972
O O6 0.834514 0.526646 0.012450
O O7 0.000000 0.500000 0.000000
O O8 0.250000 0.037300 0.648383
O O9 0.171613 0.750000 0.658851
O O10 0.110263 0.029796 0.708795
O O11 0.136192 0.974297 0.552984
O O12 0.250000 0.750000 0.986381
O O13 0.403428 0.250000 0.477112
O O14 0.393650 0.971822 0.391324
O O15 0.500000 0.000000 0.500000
O O16 0.394503 0.250000 0.302727
O O17 0.469641 0.521417 0.254050
O O18 0.947836 0.250000 0.223061
#
# Coordination Sequence:
#
# PCOD9451342 Si02
#       7
#     4   8   8   4   8   8   8
#     4  10  20  36  60  83 104 144 194 231 270 330
#     4  10  21  37  60  86 115 150 190 235 289 344
#     4  10  21  36  56  82 112 146 190 235 276 331
#     4  10  22  38  56  87 122 146 176 235 302 346
#     4  11  21  36  57  81 112 148 188 234 283 332
#     4   9  18  32  54  81 107 138 186 232 265 319
#     4   9  17  33  56  80 106 143 187 227 270 332
#
# _framework density 21.424243000000001
#
# number of rings (size 3 to 8) (size 9 to 14) (size 15 to 20)
#    0.000    2.167    1.667    1.500    2.333    2.333 
#    0.000    2.500    0.000    0.000    0.000    0.000 
#    0.000    0.000    0.000    0.000    0.000    0.000 
#
# Total GULP energy -267859.705603 kJ/mol
# GULP energy per Si atom -5580.410533 kJ/mol
# Density = 2.137548 g / cm^3
# Si number density = 21.424243 Si / 1000 Ang^3
#
#
#
# Elastic Constant Matrix: (Units=GPa)
#
#
# Indices 1 2 3 4 5 6 
#
# 1 243.8482 4.8880 132.3420 0.0000 0.0000 0.0000
# 2 4.8880 49.8623 -3.6142 0.0000 0.0000 0.0000
# 3 132.3420 -3.6142 207.1622 0.0000 0.0000 0.0000
# 4 0.0000 0.0000 0.0000 19.5804 0.0000 0.0000
# 5 0.0000 0.0000 0.0000 0.0000 15.3278 0.0000
# 6 0.0000 0.0000 0.0000 0.0000 0.0000 -6.0021
#
#
#
# Elastic Compliance Matrix: (Units=1/GPa)
#
#
# Indices 1 2 3 4 5 6 
#
# 1 0.006319 -0.000913 -0.004052 0.000000 0.000000 0.000000
# 2 -0.000913 0.020213 0.000936 0.000000 0.000000 0.000000
# 3 -0.004052 0.000936 0.007432 0.000000 0.000000 0.000000
# 4 0.000000 0.000000 0.000000 0.051071 0.000000 0.000000
# 5 0.000000 0.000000 0.000000 0.000000 0.065241 0.000000
# 6 0.000000 0.000000 0.000000 0.000000 0.000000 -0.166609
#
#
# Mechanical properties :
#
#
# Convention : Reuss Voigt Hill
#
# Bulk Modulus (GPa) = 38.60370 85.34491 61.97431
# Shear Modulus (GPa) = 13869.84956 30.26503 6950.05730
#
# Velocity S-wave (km/s) = 80.54786 3.76261 57.01805
# Velocity P-wave (km/s) = 93.10569 7.66801 66.05856
#
# Compressibility (1/GPa) = 0.02590425
#
# Stress axis : x y z
#
# Youngs Moduli (GPa) = 158.26370 49.47411 134.54789
#
# Poissons Ratio (x) = 0.04518 0.54525
# Poissons Ratio (y) = 0.14452 -0.12594
# Poissons Ratio (z) = 0.64135 -0.04631
#
# Static dielectric constant tensor:
#      x y z
#    x 1.672790 0.000000 0.000000 
#    y 0.000000 1.808330 0.000000 
#    z 0.000000 0.000000 1.737300 
# 
# From -- ./inp_files/20597.got.cif
#   From: 2010.05.17/outbox.cif.g08.bks.cpg/sg59_11_cif.got.tgz:20597.got - 2010.06.03 14:40:33.
