data_PCOD9451257
_publ_section_title
;
Structure prediction by ZEFSAII (Michael W. Deem and Ramdas Pophale) SiO2 
 PCOD9451257
Probable space group: P M M N
;
_chemical_formula_sum "Si O2"
_cell_formula_units_Z 48
_cell_length_a 8.765248
_cell_length_b 10.440248
_cell_length_c 29.694450
_cell_angle_alpha 90.000000
_cell_angle_beta 90.000000
_cell_angle_gamma 90.000000
_cell_volume 2717.379590
_symmetry_space_group_name_H-M "P M M N"
_symmetry_group_IT_number 59
_space_group.IT_coordinate_system_code '2'
_symmetry_cell_setting 'orthorhombic'
loop_
_space_group_symop_operation_xyz
x,y,z
1/2-x,1/2-y,z
1/2+x,-y,-z
-x,1/2+y,-z
-x,-y,-z
1/2+x,1/2+y,-z
1/2-x,y,z
x,1/2-y,z
loop_
_atom_site_type_symbol
_atom_site_label
_atom_site_fract_x
_atom_site_fract_y
_atom_site_fract_z
Si Si1 0.431623 0.901415 0.805153
Si Si2 0.933836 0.604407 0.466446
Si Si3 0.933827 0.250000 0.050669
Si Si4 0.433413 0.491729 0.103786
Si Si5 0.064815 0.750000 0.053629
Si Si6 0.567256 0.898369 0.707102
Si Si7 0.565934 0.897417 0.362031
O O1 0.250000 0.919997 0.805357
O O2 0.461848 0.750000 0.813768
O O3 0.508447 0.979901 0.845201
O O4 0.498268 0.930617 0.756020
O O5 0.750000 0.600744 0.468431
O O6 0.981857 0.750000 0.478001
O O7 0.977055 0.580394 0.414316
O O8 0.000000 0.500000 0.500000
O O9 0.750000 0.250000 0.052966
O O10 0.997374 0.125827 0.075855
O O11 0.983184 0.250000 0.998436
O O12 0.250000 0.483993 0.103125
O O13 0.483292 0.622904 0.079916
O O14 0.250000 0.750000 0.053238
O O15 0.750000 0.903889 0.709398
O O16 0.523525 0.750000 0.696819
O O17 0.506826 0.997884 0.670401
O O18 0.750000 0.905638 0.359066
O O19 0.523487 0.750000 0.350628
#
# Coordination Sequence:
#
# PCOD9451257 Si02
#       7
#     8   8   4   8   4   8   8
#     4  10  20  36  58  82 109 141 180 224 271 325
#     4   9  19  35  54  78 110 147 187 231 276 325
#     4  11  21  37  59  83 111 145 185 223 266 327
#     4  11  21  37  59  82 110 145 182 225 274 322
#     4   9  22  39  55  81 115 145 179 225 272 321
#     4  10  21  36  56  83 111 140 179 226 274 327
#     4   9  19  37  57  78 109 148 187 227 275 329
#
# _framework density 17.664076000000001
#
# number of rings (size 3 to 8) (size 9 to 14) (size 15 to 20)
#    0.000    2.167    0.833    3.250    0.000    3.667 
#    1.500    9.167    0.000    0.000    0.000    0.000 
#    0.000    0.000    0.000    0.000    0.000    0.000 
#
# Total GULP energy -267967.267148 kJ/mol
# GULP energy per Si atom -5582.651399 kJ/mol
# Density = 1.762387 g / cm^3
# Si number density = 17.664076 Si / 1000 Ang^3
#
#
#
# Elastic Constant Matrix: (Units=GPa)
#
#
# Indices 1 2 3 4 5 6 
#
# 1 44.2147 45.2824 48.3368 0.0000 0.0000 0.0000
# 2 45.2824 153.5007 116.0619 0.0000 0.0000 0.0000
# 3 48.3368 116.0619 154.2484 0.0000 0.0000 0.0000
# 4 0.0000 0.0000 0.0000 28.4172 0.0000 0.0000
# 5 0.0000 0.0000 0.0000 0.0000 35.6237 0.0000
# 6 0.0000 0.0000 0.0000 0.0000 0.0000 17.3210
#
#
#
# Elastic Compliance Matrix: (Units=1/GPa)
#
#
# Indices 1 2 3 4 5 6 
#
# 1 0.035885 -0.004833 -0.007609 0.000000 0.000000 0.000000
# 2 -0.004833 0.015763 -0.010346 0.000000 0.000000 0.000000
# 3 -0.007609 -0.010346 0.016652 0.000000 0.000000 0.000000
# 4 0.000000 0.000000 0.000000 0.035190 0.000000 0.000000
# 5 0.000000 0.000000 0.000000 0.000000 0.028071 0.000000
# 6 0.000000 0.000000 0.000000 0.000000 0.000000 0.057733
#
#
# Mechanical properties :
#
#
# Convention : Reuss Voigt Hill
#
# Bulk Modulus (GPa) = 44.00580 85.70289 64.85435
# Shear Modulus (GPa) = 20.62322 25.75788 23.19055
#
# Velocity S-wave (km/s) = 3.42061 3.82279 3.62728
# Velocity P-wave (km/s) = 6.36926 8.25279 7.37143
#
# Compressibility (1/GPa) = 0.02272428
#
# Stress axis : x y z
#
# Youngs Moduli (GPa) = 27.86706 63.43910 60.05197
#
# Poissons Ratio (x) = 0.30660 0.45691
# Poissons Ratio (y) = 0.13468 0.62131
# Poissons Ratio (z) = 0.21203 0.65636
#
# Static dielectric constant tensor:
#      x y z
#    x 1.593910 0.000000 0.000000 
#    y 0.000000 1.585190 0.000000 
#    z 0.000000 0.000000 1.579910 
# 
# From -- ./inp_files/33025.got.cif
#   From: 2010.05.17/outbox.cif.g08.bks.cpg/sg59_17_cif.got.tgz:33025.got - 2010.06.03 14:40:33.
