data_PCOD9451536
_publ_section_title
;
Structure prediction by ZEFSAII (Michael W. Deem and Ramdas Pophale) SiO2 
 PCOD9451536
Probable space group: P M M N
;
_chemical_formula_sum "Si O2"
_cell_formula_units_Z 26
_cell_length_a 7.687330
_cell_length_b 13.658143
_cell_length_c 9.567055
_cell_angle_alpha 90.000000
_cell_angle_beta 90.000000
_cell_angle_gamma 90.000000
_cell_volume 1004.489614
_symmetry_space_group_name_H-M "P M M N"
_symmetry_group_IT_number 59
_space_group.IT_coordinate_system_code '2'
_symmetry_cell_setting 'orthorhombic'
loop_
_space_group_symop_operation_xyz
x,y,z
1/2-x,1/2-y,z
1/2+x,-y,-z
-x,1/2+y,-z
-x,-y,-z
1/2+x,1/2+y,-z
1/2-x,y,z
x,1/2-y,z
loop_
_atom_site_type_symbol
_atom_site_label
_atom_site_fract_x
_atom_site_fract_y
_atom_site_fract_z
Si Si1 0.944971 0.111806 0.506575
Si Si2 0.038686 0.139235 0.117240
Si Si3 0.954182 0.579431 0.196491
Si Si4 0.250000 0.250000 0.415055
O O1 0.750000 0.129548 0.455363
O O2 0.953051 0.130011 0.673555
O O3 0.096409 0.167850 0.428845
O O4 0.000000 0.000000 0.500000
O O5 0.250000 0.141145 0.128369
O O6 0.980231 0.250000 0.154697
O O7 0.991774 0.120357 0.954387
O O8 0.977707 0.038971 0.191078
O O9 0.750000 0.599912 0.214491
#
# Coordination Sequence:
#
# PCOD9451536 Si02
#       4
#     8   8   8   2
#     4  12  25  47  73 102 140 179 230 288 341 414
#     4   9  19  35  58  88 126 173 221 272 336 401
#     4  10  20  37  62  90 132 171 217 282 330 393
#     4  12  26  48  76 104 130 188 226 280 360 398
#
# _framework density 25.883790000000001
#
# number of rings (size 3 to 8) (size 9 to 14) (size 15 to 20)
#    0.000    1.538    3.077    1.385    2.154    1.846 
#    2.769    0.000    0.000    0.000    0.000    0.000 
#    0.000    0.000    0.000    0.000    0.000    0.000 
#
# Total GULP energy -145185.773489 kJ/mol
# GULP energy per Si atom -5584.068211 kJ/mol
# Density = 2.582488 g / cm^3
# Si number density = 25.883790 Si / 1000 Ang^3
#
#
#
# Elastic Constant Matrix: (Units=GPa)
#
#
# Indices 1 2 3 4 5 6 
#
# 1 179.6895 39.0901 12.8410 0.0000 0.0000 0.0000
# 2 39.0901 179.2175 15.8914 0.0000 0.0000 0.0000
# 3 12.8410 15.8914 115.8924 0.0000 0.0000 0.0000
# 4 0.0000 0.0000 0.0000 -7.4582 0.0000 0.0000
# 5 0.0000 0.0000 0.0000 0.0000 29.0123 0.0000
# 6 0.0000 0.0000 0.0000 0.0000 0.0000 60.3115
#
#
#
# Elastic Compliance Matrix: (Units=1/GPa)
#
#
# Indices 1 2 3 4 5 6 
#
# 1 0.005869 -0.001237 -0.000481 0.000000 0.000000 0.000000
# 2 -0.001237 0.005909 -0.000673 0.000000 0.000000 0.000000
# 3 -0.000481 -0.000673 0.008774 0.000000 0.000000 0.000000
# 4 0.000000 0.000000 0.000000 -0.134080 0.000000 0.000000
# 5 0.000000 0.000000 0.000000 0.000000 0.034468 0.000000
# 6 0.000000 0.000000 0.000000 0.000000 0.000000 0.016581
#
#
# Mechanical properties :
#
#
# Convention : Reuss Voigt Hill
#
# Bulk Modulus (GPa) = 63.41185 67.82715 65.61950
# Shear Modulus (GPa) = -95.34779 43.50490 -25.92145
#
# Velocity S-wave (km/s) = -6.07592 4.10418 -3.16801
# Velocity P-wave (km/s) = 4.96695 6.98000 3.46769
#
# Compressibility (1/GPa) = 0.01576992
#
# Stress axis : x y z
#
# Youngs Moduli (GPa) = 170.39562 169.22159 113.96981
#
# Poissons Ratio (x) = 0.20940 0.05477
# Poissons Ratio (y) = 0.21085 0.07672
# Poissons Ratio (z) = 0.08189 0.11392
#
# Static dielectric constant tensor:
#      x y z
#    x 1.921650 0.000000 0.000000 
#    y 0.000000 1.684990 0.000000 
#    z 0.000000 0.000000 2.200570 
# 
# From -- ./inp_files/13457.got.cif
#   From: 2010.05.17/outbox.cif.g08.bks.cpg/sg59_7_cif.got.tgz:13457.got - 2010.06.03 14:40:33.
