data_PCOD9451163
_publ_section_title
;
Structure prediction by ZEFSAII (Michael W. Deem and Ramdas Pophale) SiO2 
 PCOD9451163
Probable space group: P M M N
;
_chemical_formula_sum "Si O2"
_cell_formula_units_Z 48
_cell_length_a 16.760746
_cell_length_b 7.666459
_cell_length_c 17.611831
_cell_angle_alpha 90.000000
_cell_angle_beta 90.000000
_cell_angle_gamma 90.000000
_cell_volume 2263.042299
_symmetry_space_group_name_H-M "P M M N"
_symmetry_group_IT_number 59
_space_group.IT_coordinate_system_code '2'
_symmetry_cell_setting 'orthorhombic'
loop_
_space_group_symop_operation_xyz
x,y,z
1/2-x,1/2-y,z
1/2+x,-y,-z
-x,1/2+y,-z
-x,-y,-z
1/2+x,1/2+y,-z
1/2-x,y,z
x,1/2-y,z
loop_
_atom_site_type_symbol
_atom_site_label
_atom_site_fract_x
_atom_site_fract_y
_atom_site_fract_z
Si Si1 0.750000 0.456948 0.764037
Si Si2 0.658711 0.036493 0.185087
Si Si3 0.750000 0.464145 0.937425
Si Si4 0.839652 0.539530 0.484537
Si Si5 0.589730 0.459286 0.027366
Si Si6 0.568179 0.041686 0.332853
Si Si7 0.891847 0.958999 0.650688
O O1 0.750000 0.250000 0.770185
O O2 0.750000 0.524768 0.850017
O O3 0.673311 0.507924 0.714720
O O4 0.750000 0.981396 0.174255
O O5 0.659234 0.250000 0.185518
O O6 0.605475 0.980691 0.113682
O O7 0.624036 0.974684 0.265342
O O8 0.750000 0.250000 0.939359
O O9 0.666976 0.519874 0.978128
O O10 0.750000 0.477767 0.467906
O O11 0.838004 0.750000 0.487723
O O12 0.897191 0.489935 0.416224
O O13 0.865559 0.474902 0.567661
O O14 0.595119 0.250000 0.027011
O O15 0.500000 0.500000 0.000000
O O16 0.564555 0.250000 0.322373
O O17 0.478619 0.971435 0.327877
O O18 0.898186 0.750000 0.642885
#
# Coordination Sequence:
#
# PCOD9451163 Si02
#       7
#     4   8   4   8   8   8   8
#     4  11  23  37  57  82 107 144 192 231 273 333
#     4   9  17  33  56  81 110 144 183 224 269 327
#     4   9  20  39  59  82 117 154 186 229 291 345
#     4  10  20  36  55  76 110 153 183 214 277 336
#     4  10  20  37  60  84 112 150 190 231 283 341
#     4  10  21  34  56  86 110 139 186 234 271 319
#     4  10  21  39  57  78 113 148 178 228 287 329
#
# _framework density 21.210387999999998
#
# number of rings (size 3 to 8) (size 9 to 14) (size 15 to 20)
#    0.000    2.167    1.667    1.250    2.333    2.333 
#    0.000    2.083    0.000    1.000    0.000    0.000 
#    0.000    0.000    0.000    0.000    0.000    0.000 
#
# Total GULP energy -268044.947030 kJ/mol
# GULP energy per Si atom -5584.269730 kJ/mol
# Density = 2.116211 g / cm^3
# Si number density = 21.210388 Si / 1000 Ang^3
#
#
#
# Elastic Constant Matrix: (Units=GPa)
#
#
# Indices 1 2 3 4 5 6 
#
# 1 139.2462 10.5991 49.3475 0.0000 0.0000 0.0000
# 2 10.5991 30.4534 4.9020 0.0000 0.0000 0.0000
# 3 49.3475 4.9020 132.6870 0.0000 0.0000 0.0000
# 4 0.0000 0.0000 0.0000 -2.8379 0.0000 0.0000
# 5 0.0000 0.0000 0.0000 0.0000 -122.8396 0.0000
# 6 0.0000 0.0000 0.0000 0.0000 0.0000 20.9557
#
#
#
# Elastic Compliance Matrix: (Units=1/GPa)
#
#
# Indices 1 2 3 4 5 6 
#
# 1 0.008450 -0.002450 -0.003052 0.000000 0.000000 0.000000
# 2 -0.002450 0.033744 -0.000336 0.000000 0.000000 0.000000
# 3 -0.003052 -0.000336 0.008684 0.000000 0.000000 0.000000
# 4 0.000000 0.000000 0.000000 -0.352379 0.000000 0.000000
# 5 0.000000 0.000000 0.000000 0.000000 -0.008141 0.000000
# 6 0.000000 0.000000 0.000000 0.000000 0.000000 0.047720
#
#
# Mechanical properties :
#
#
# Convention : Reuss Voigt Hill
#
# Bulk Modulus (GPa) = 25.50828 48.00930 36.75879
# Shear Modulus (GPa) = -21.08098 -5.10851 -13.09474
#
# Velocity S-wave (km/s) = -3.15604 -1.55362 -2.48740
# Velocity P-wave (km/s) = 1.10830 4.41199 3.01971
#
# Compressibility (1/GPa) = 0.03920295
#
# Stress axis : x y z
#
# Youngs Moduli (GPa) = 118.34918 29.63518 115.15437
#
# Poissons Ratio (x) = 0.07259 0.35145
# Poissons Ratio (y) = 0.28990 0.03865
# Poissons Ratio (z) = 0.36120 0.00995
#
# Static dielectric constant tensor:
#      x y z
#    x 1.736810 0.000000 0.000000 
#    y 0.000000 1.783960 0.000000 
#    z 0.000000 0.000000 1.745890 
# 
# From -- ./inp_files/25603.got.cif
#   From: 2010.05.17/outbox.cif.g08.bks.cpg/sg59_13_cif.got.tgz:25603.got - 2010.06.03 14:40:33.
