data_PCOD9451719
_publ_section_title
;
Structure prediction by ZEFSAII (Michael W. Deem and Ramdas Pophale) SiO2 
 PCOD9451719
Probable space group: P M M N
;
_chemical_formula_sum "Si O2"
_cell_formula_units_Z 56
_cell_length_a 9.401558
_cell_length_b 14.007323
_cell_length_c 22.180571
_cell_angle_alpha 90.000000
_cell_angle_beta 90.000000
_cell_angle_gamma 90.000000
_cell_volume 2920.974025
_symmetry_space_group_name_H-M "P M M N"
_symmetry_group_IT_number 59
_space_group.IT_coordinate_system_code '2'
_symmetry_cell_setting 'orthorhombic'
loop_
_space_group_symop_operation_xyz
x,y,z
1/2-x,1/2-y,z
1/2+x,-y,-z
-x,1/2+y,-z
-x,-y,-z
1/2+x,1/2+y,-z
1/2-x,y,z
x,1/2-y,z
loop_
_atom_site_type_symbol
_atom_site_label
_atom_site_fract_x
_atom_site_fract_y
_atom_site_fract_z
Si Si1 0.586000 0.633854 0.094049
Si Si2 0.919343 0.362685 0.157707
Si Si3 0.415722 0.366474 0.039757
Si Si4 0.079635 0.520235 0.724176
Si Si5 0.419567 0.966825 0.589675
Si Si6 0.916431 0.136152 0.785927
Si Si7 0.420644 0.858880 0.468968
O O1 0.750000 0.602410 0.103259
O O2 0.589262 0.750000 0.093032
O O3 0.488368 0.608402 0.150314
O O4 0.535859 0.603873 0.027359
O O5 0.750000 0.373578 0.150682
O O6 0.949866 0.250000 0.163237
O O7 0.962906 0.413693 0.219510
O O8 0.994720 0.399306 0.097088
O O9 0.250000 0.392775 0.045960
O O10 0.422301 0.250000 0.040179
O O11 0.250000 0.506445 0.727705
O O12 0.046489 0.561286 0.658229
O O13 0.999485 0.420964 0.734710
O O14 0.250000 0.984267 0.586559
O O15 0.501306 0.063267 0.571863
O O16 0.452519 0.889117 0.538251
O O17 0.750000 0.112674 0.786001
O O18 0.931371 0.250000 0.778756
O O19 0.250000 0.865954 0.460827
O O20 0.463533 0.750000 0.457255
#
# Coordination Sequence:
#
# PCOD9451719 Si02
#       7
#     8   8   8   8   8   8   8
#     4   8  14  27  48  71  95 126 165 210 260 311
#     4   9  18  32  50  73 100 130 167 212 257 300
#     4   8  14  26  46  71  97 127 164 207 258 312
#     4  10  21  36  53  74 103 139 174 206 245 297
#     4   9  19  35  54  78 107 138 172 207 243 290
#     4  10  21  35  51  73 100 131 170 216 262 305
#     4   9  18  34  57  83 109 136 166 204 250 294
#
# _framework density 19.171686000000001
#
# number of rings (size 3 to 8) (size 9 to 14) (size 15 to 20)
#    0.000    3.000    0.000    1.286    0.000    4.000 
#    0.000    9.286    0.000    0.000    0.000    4.000 
#    0.000    0.000    0.000    0.000    0.000    0.000 
#
# Total GULP energy -312399.968860 kJ/mol
# GULP energy per Si atom -5578.570872 kJ/mol
# Density = 1.912805 g / cm^3
# Si number density = 19.171686 Si / 1000 Ang^3
#
#
#
# Elastic Constant Matrix: (Units=GPa)
#
#
# Indices 1 2 3 4 5 6 
#
# 1 9.5359 -1.5107 11.9972 0.0000 0.0000 0.0000
# 2 -1.5107 40.5983 -8.0487 0.0000 0.0000 0.0000
# 3 11.9972 -8.0487 73.9645 0.0000 0.0000 0.0000
# 4 0.0000 0.0000 0.0000 15.6132 0.0000 0.0000
# 5 0.0000 0.0000 0.0000 0.0000 26.4291 0.0000
# 6 0.0000 0.0000 0.0000 0.0000 0.0000 17.3003
#
#
#
# Elastic Compliance Matrix: (Units=1/GPa)
#
#
# Indices 1 2 3 4 5 6 
#
# 1 0.131773 0.000681 -0.021300 0.000000 0.000000 0.000000
# 2 0.000681 0.025178 0.002629 0.000000 0.000000 0.000000
# 3 -0.021300 0.002629 0.017261 0.000000 0.000000 0.000000
# 4 0.000000 0.000000 0.000000 0.064048 0.000000 0.000000
# 5 0.000000 0.000000 0.000000 0.000000 0.037837 0.000000
# 6 0.000000 0.000000 0.000000 0.000000 0.000000 0.057803
#
#
# Mechanical properties :
#
#
# Convention : Reuss Voigt Hill
#
# Bulk Modulus (GPa) = 7.23417 14.33046 10.78231
# Shear Modulus (GPa) = 12.02049 19.97924 15.99987
#
# Velocity S-wave (km/s) = 2.50670 3.23169 2.89200
# Velocity P-wave (km/s) = 3.48706 4.62776 4.09730
#
# Compressibility (1/GPa) = 0.13823291
#
# Stress axis : x y z
#
# Youngs Moduli (GPa) = 7.58883 39.71692 57.93418
#
# Poissons Ratio (x) = -0.02704 1.23398
# Poissons Ratio (y) = -0.00517 -0.15233
# Poissons Ratio (z) = 0.16164 -0.10443
#
# Static dielectric constant tensor:
#      x y z
#    x 1.639980 0.000000 0.000000 
#    y 0.000000 1.694400 0.000000 
#    z 0.000000 0.000000 1.668810 
# 
# From -- ./inp_files/29036.got.cif
#   From: 2010.05.17/outbox.cif.g08.bks.cpg/sg59_15_cif.got.tgz:29036.got - 2010.06.03 14:40:33.
