data_PCOD9451501
_publ_section_title
;
Structure prediction by ZEFSAII (Michael W. Deem and Ramdas Pophale) SiO2 
 PCOD9451501
Probable space group: P M M N
;
_chemical_formula_sum "Si O2"
_cell_formula_units_Z 64
_cell_length_a 8.431069
_cell_length_b 29.570964
_cell_length_c 12.962721
_cell_angle_alpha 90.000000
_cell_angle_beta 90.000000
_cell_angle_gamma 90.000000
_cell_volume 3231.798685
_symmetry_space_group_name_H-M "P M M N"
_symmetry_group_IT_number 59
_space_group.IT_coordinate_system_code '2'
_symmetry_cell_setting 'orthorhombic'
loop_
_space_group_symop_operation_xyz
x,y,z
1/2-x,1/2-y,z
1/2+x,-y,-z
-x,1/2+y,-z
-x,-y,-z
1/2+x,1/2+y,-z
1/2-x,y,z
x,1/2-y,z
loop_
_atom_site_type_symbol
_atom_site_label
_atom_site_fract_x
_atom_site_fract_y
_atom_site_fract_z
Si Si1 0.440861 0.450112 0.478224
Si Si2 0.058177 0.123670 0.844625
Si Si3 0.941730 0.197647 0.429085
Si Si4 0.558338 0.300610 0.002083
Si Si5 0.560249 0.978510 0.106457
Si Si6 0.941885 0.865616 0.389779
Si Si7 0.441234 0.845443 0.787067
Si Si8 0.060255 0.058535 0.244433
O O1 0.500000 0.500000 0.500000
O O2 0.250000 0.450170 0.480008
O O3 0.495743 0.413271 0.560779
O O4 0.492266 0.436992 0.363153
O O5 0.250000 0.122739 0.844580
O O6 0.003444 0.072847 0.874051
O O7 0.005313 0.136640 0.728711
O O8 0.002390 0.160957 0.925524
O O9 0.750000 0.196421 0.428314
O O10 0.991259 0.250000 0.426621
O O11 0.997782 0.172400 0.324565
O O12 0.000178 0.172773 0.531922
O O13 0.750000 0.301002 0.999024
O O14 0.503999 0.250000 0.974734
O O15 0.510842 0.313041 0.119111
O O16 0.750000 0.977271 0.103671
O O17 0.506897 0.012949 0.195465
O O18 0.500000 0.000000 0.000000
O O19 0.750000 0.864951 0.390259
O O20 0.250000 0.846513 0.783852
O O21 0.501805 0.895866 0.809925
O O22 0.250000 0.056699 0.239645
#
# Coordination Sequence:
#
# PCOD9451501 Si02
#       8
#     8   8   8   8   8   8   8   8
#     4  10  21  36  56  82 114 152 195 242 289 346
#     4  10  23  41  61  84 117 158 199 244 293 353
#     4  10  21  37  59  88 119 152 196 249 302 357
#     4  10  22  40  62  87 115 150 194 246 302 358
#     4  11  23  40  61  87 120 159 202 248 300 355
#     4  10  21  40  59  81 116 156 196 239 291 351
#     4  10  20  37  61  87 118 156 196 243 302 362
#     4  11  22  36  57  87 121 155 196 245 295 353
#
# _framework density 19.803213
#
# number of rings (size 3 to 8) (size 9 to 14) (size 15 to 20)
#    0.000    1.750    1.250    2.625    0.000    9.000 
#    0.000    2.500    0.000    2.250    0.000    0.000 
#    0.000    0.000    0.000    0.000    0.000    0.000 
#
# Total GULP energy -357567.280175 kJ/mol
# GULP energy per Si atom -5586.988753 kJ/mol
# Density = 1.975814 g / cm^3
# Si number density = 19.803213 Si / 1000 Ang^3
#
#
#
# Elastic Constant Matrix: (Units=GPa)
#
#
# Indices 1 2 3 4 5 6 
#
# 1 9.7989 19.1546 22.6394 0.0000 0.0000 0.0000
# 2 19.1546 173.2972 70.8932 0.0000 0.0000 0.0000
# 3 22.6394 70.8932 137.6631 0.0000 0.0000 0.0000
# 4 0.0000 0.0000 0.0000 36.0273 0.0000 0.0000
# 5 0.0000 0.0000 0.0000 0.0000 27.3014 0.0000
# 6 0.0000 0.0000 0.0000 0.0000 0.0000 30.4323
#
#
#
# Elastic Compliance Matrix: (Units=1/GPa)
#
#
# Indices 1 2 3 4 5 6 
#
# 1 0.176523 -0.009673 -0.024049 0.000000 0.000000 0.000000
# 2 -0.009673 0.007841 -0.002447 0.000000 0.000000 0.000000
# 3 -0.024049 -0.002447 0.012479 0.000000 0.000000 0.000000
# 4 0.000000 0.000000 0.000000 0.027757 0.000000 0.000000
# 5 0.000000 0.000000 0.000000 0.000000 0.036628 0.000000
# 6 0.000000 0.000000 0.000000 0.000000 0.000000 0.032860
#
#
# Mechanical properties :
#
#
# Convention : Reuss Voigt Hill
#
# Bulk Modulus (GPa) = 8.03179 60.68152 34.35666
# Shear Modulus (GPa) = 12.25710 32.62366 22.44038
#
# Velocity S-wave (km/s) = 2.49056 4.06321 3.36991
# Velocity P-wave (km/s) = 3.51214 7.26097 5.70337
#
# Compressibility (1/GPa) = 0.12450522
#
# Stress axis : x y z
#
# Youngs Moduli (GPa) = 5.66498 127.54107 80.13372
#
# Poissons Ratio (x) = 1.23373 1.92711
# Poissons Ratio (y) = 0.05480 0.19608
# Poissons Ratio (z) = 0.13624 0.31208
#
# Static dielectric constant tensor:
#      x y z
#    x 1.686450 0.000000 0.000000 
#    y 0.000000 1.667200 0.000000 
#    z 0.000000 0.000000 1.702450 
# 
# From -- ./inp_files/15002.got.cif
#   From: 2010.05.17/outbox.cif.g08.bks.cpg/sg59_8_cif.got.tgz:15002.got - 2010.06.03 14:40:33.
