data_PCOD9451482
_publ_section_title
;
Structure prediction by ZEFSAII (Michael W. Deem and Ramdas Pophale) SiO2 
 PCOD9451482
Probable space group: P M M N
;
_chemical_formula_sum "Si O2"
_cell_formula_units_Z 56
_cell_length_a 23.212691
_cell_length_b 14.069704
_cell_length_c 9.143409
_cell_angle_alpha 90.000000
_cell_angle_beta 90.000000
_cell_angle_gamma 90.000000
_cell_volume 2986.197984
_symmetry_space_group_name_H-M "P M M N"
_symmetry_group_IT_number 59
_space_group.IT_coordinate_system_code '2'
_symmetry_cell_setting 'orthorhombic'
loop_
_space_group_symop_operation_xyz
x,y,z
1/2-x,1/2-y,z
1/2+x,-y,-z
-x,1/2+y,-z
-x,-y,-z
1/2+x,1/2+y,-z
1/2-x,y,z
x,1/2-y,z
loop_
_atom_site_type_symbol
_atom_site_label
_atom_site_fract_x
_atom_site_fract_y
_atom_site_fract_z
Si Si1 0.250000 0.135572 0.935382
Si Si2 0.618540 0.636482 0.022519
Si Si3 0.080314 0.643478 0.056732
Si Si4 0.949700 0.961663 0.764307
Si Si5 0.312091 0.853991 0.265034
Si Si6 0.250000 0.136601 0.590107
Si Si7 0.418648 0.969729 0.767050
Si Si8 0.146390 0.012568 0.478478
O O1 0.250000 0.250000 0.946414
O O2 0.250000 0.110278 0.762893
O O3 0.313298 0.107210 0.998605
O O4 0.616722 0.750000 0.050755
O O5 0.579532 0.609387 0.882186
O O6 0.593431 0.571805 0.153960
O O7 0.055276 0.750000 0.060684
O O8 0.047006 0.562242 0.146856
O O9 0.140234 0.643180 0.141967
O O10 0.091318 0.607113 0.894127
O O11 0.907743 0.960201 0.624704
O O12 0.015663 0.948178 0.720754
O O13 0.250000 0.865114 0.194993
O O14 0.315658 0.750000 0.336145
O O15 0.321366 0.933673 0.383962
O O16 0.250000 0.250000 0.579759
O O17 0.192390 0.094080 0.516916
O O18 0.377914 0.968783 0.627636
#
# Coordination Sequence:
#
# PCOD9451482 Si02
#       8
#     4   8   8   8   8   4   8   8
#     4   9  18  35  59  86 113 147 192 238 285 344
#     4  10  20  37  60  86 116 152 195 245 295 343
#     4   9  19  37  58  81 110 144 187 236 283 329
#     4  10  23  38  56  84 115 154 197 235 284 345
#     4   9  18  36  59  83 112 146 185 228 283 345
#     4  11  22  39  60  86 121 153 191 236 290 352
#     4  11  22  37  57  84 116 153 196 236 283 347
#     4  11  22  39  58  85 116 158 186 238 290 338
#
# _framework density 18.752942999999998
#
# number of rings (size 3 to 8) (size 9 to 14) (size 15 to 20)
#    0.000    2.000    2.143    2.143    0.000    4.000 
#    9.000    0.714    0.000    5.143    0.000    0.000 
#    0.000    0.000    0.000    0.000    0.000    0.000 
#
# Total GULP energy -312055.210341 kJ/mol
# GULP energy per Si atom -5572.414470 kJ/mol
# Density = 1.871026 g / cm^3
# Si number density = 18.752943 Si / 1000 Ang^3
#
#
#
# Elastic Constant Matrix: (Units=GPa)
#
#
# Indices 1 2 3 4 5 6 
#
# 1 96.0593 21.6104 8.3238 0.0000 0.0000 0.0000
# 2 21.6104 61.7180 -2.1084 0.0000 0.0000 0.0000
# 3 8.3238 -2.1084 40.6905 0.0000 0.0000 0.0000
# 4 0.0000 0.0000 0.0000 16.1927 0.0000 0.0000
# 5 0.0000 0.0000 0.0000 0.0000 -102.2325 0.0000
# 6 0.0000 0.0000 0.0000 0.0000 0.0000 18.5067
#
#
#
# Elastic Compliance Matrix: (Units=1/GPa)
#
#
# Indices 1 2 3 4 5 6 
#
# 1 0.011565 -0.004137 -0.002580 0.000000 0.000000 0.000000
# 2 -0.004137 0.017712 0.001764 0.000000 0.000000 0.000000
# 3 -0.002580 0.001764 0.025195 0.000000 0.000000 0.000000
# 4 0.000000 0.000000 0.000000 0.061756 0.000000 0.000000
# 5 0.000000 0.000000 0.000000 0.000000 -0.009782 0.000000
# 6 0.000000 0.000000 0.000000 0.000000 0.000000 0.054035
#
#
# Mechanical properties :
#
#
# Convention : Reuss Voigt Hill
#
# Bulk Modulus (GPa) = 22.43940 28.23547 25.33744
# Shear Modulus (GPa) = 26.99173 -2.13048 12.43063
#
# Velocity S-wave (km/s) = 3.79797 -1.06703 2.57741
# Velocity P-wave (km/s) = 5.58789 3.68391 4.73264
#
# Compressibility (1/GPa) = 0.04456446
#
# Stress axis : x y z
#
# Youngs Moduli (GPa) = 86.47073 56.45985 39.69048
#
# Poissons Ratio (x) = 0.23360 0.10240
# Poissons Ratio (y) = 0.35777 -0.07002
# Poissons Ratio (z) = 0.22310 -0.09960
#
# Static dielectric constant tensor:
#      x y z
#    x 1.679830 0.000000 0.000000 
#    y 0.000000 1.672360 0.000000 
#    z 0.000000 0.000000 1.626990 
# 
# From -- ./inp_files/11483.got.cif
#   From: 2010.05.17/outbox.cif.g08.bks.cpg/sg59_6_cif.got.tgz:11483.got - 2010.06.03 14:40:33.
