data_PCOD9451286
_publ_section_title
;
Structure prediction by ZEFSAII (Michael W. Deem and Ramdas Pophale) SiO2 
 PCOD9451286
Probable space group: P M M N
;
_chemical_formula_sum "Si O2"
_cell_formula_units_Z 48
_cell_length_a 8.586142
_cell_length_b 24.036649
_cell_length_c 11.097983
_cell_angle_alpha 90.000000
_cell_angle_beta 90.000000
_cell_angle_gamma 90.000000
_cell_volume 2290.424832
_symmetry_space_group_name_H-M "P M M N"
_symmetry_group_IT_number 59
_space_group.IT_coordinate_system_code '2'
_symmetry_cell_setting 'orthorhombic'
loop_
_space_group_symop_operation_xyz
x,y,z
1/2-x,1/2-y,z
1/2+x,-y,-z
-x,1/2+y,-z
-x,-y,-z
1/2+x,1/2+y,-z
1/2-x,y,z
x,1/2-y,z
loop_
_atom_site_type_symbol
_atom_site_label
_atom_site_fract_x
_atom_site_fract_y
_atom_site_fract_z
Si Si1 0.933778 0.917569 0.302176
Si Si2 0.437965 0.623214 0.934688
Si Si3 0.061666 0.814495 0.180196
Si Si4 0.063387 0.580052 0.560067
Si Si5 0.561001 0.312230 0.307549
Si Si6 0.065058 0.477615 0.197953
O O1 0.750000 0.921220 0.289994
O O2 0.993135 0.855067 0.280899
O O3 0.984995 0.936505 0.435472
O O4 0.012260 0.958496 0.204419
O O5 0.250000 0.618968 0.934293
O O6 0.486427 0.660729 0.819672
O O7 0.503859 0.561798 0.908934
O O8 0.484825 0.656123 0.054319
O O9 0.250000 0.815601 0.187245
O O10 0.013189 0.750000 0.185923
O O11 0.250000 0.574275 0.550224
O O12 0.021334 0.644312 0.588373
O O13 0.006562 0.548212 0.679022
O O14 0.750000 0.310054 0.304376
O O15 0.501484 0.250000 0.323222
O O16 0.250000 0.474847 0.201533
#
# Coordination Sequence:
#
# PCOD9451286 Si02
#       6
#     8   8   8   8   8   8
#     4  12  25  40  58  82 116 156 196 239 288 343
#     4   9  18  35  60  88 116 147 188 238 288 339
#     4  10  22  41  64  88 116 154 197 236 279 338
#     4  10  20  36  58  85 117 152 193 241 293 349
#     4   8  14  27  52  84 112 141 181 230 281 333
#     4  11  22  38  61  88 117 149 189 238 293 350
#
# _framework density 20.956810000000001
#
# number of rings (size 3 to 8) (size 9 to 14) (size 15 to 20)
#    0.000    2.000    0.000    5.500    0.000    4.333 
#    0.000    1.667    0.000   16.000    0.000    0.000 
#    0.000    0.000    0.000    0.000    0.000    0.000 
#
# Total GULP energy -268192.494254 kJ/mol
# GULP energy per Si atom -5587.343630 kJ/mol
# Density = 2.090911 g / cm^3
# Si number density = 20.956810 Si / 1000 Ang^3
#
#
#
# Elastic Constant Matrix: (Units=GPa)
#
#
# Indices 1 2 3 4 5 6 
#
# 1 32.2838 6.5437 -0.4107 0.0000 0.0000 0.0000
# 2 6.5437 111.5525 8.8915 0.0000 0.0000 0.0000
# 3 -0.4107 8.8915 54.0952 0.0000 0.0000 0.0000
# 4 0.0000 0.0000 0.0000 25.5646 0.0000 0.0000
# 5 0.0000 0.0000 0.0000 0.0000 21.4665 0.0000
# 6 0.0000 0.0000 0.0000 0.0000 0.0000 24.0950
#
#
#
# Elastic Compliance Matrix: (Units=1/GPa)
#
#
# Indices 1 2 3 4 5 6 
#
# 1 0.031364 -0.001883 0.000548 0.000000 0.000000 0.000000
# 2 -0.001883 0.009197 -0.001526 0.000000 0.000000 0.000000
# 3 0.000548 -0.001526 0.018741 0.000000 0.000000 0.000000
# 4 0.000000 0.000000 0.000000 0.039117 0.000000 0.000000
# 5 0.000000 0.000000 0.000000 0.000000 0.046584 0.000000
# 6 0.000000 0.000000 0.000000 0.000000 0.000000 0.041502
#
#
# Mechanical properties :
#
#
# Convention : Reuss Voigt Hill
#
# Bulk Modulus (GPa) = 18.66437 25.33118 21.99777
# Shear Modulus (GPa) = 23.79962 26.41901 25.10931
#
# Velocity S-wave (km/s) = 3.37360 3.55440 3.46518
# Velocity P-wave (km/s) = 4.90921 5.38132 5.15068
#
# Compressibility (1/GPa) = 0.05357803
#
# Stress axis : x y z
#
# Youngs Moduli (GPa) = 31.88364 108.73701 53.35927
#
# Poissons Ratio (x) = 0.20481 -0.02922
# Poissons Ratio (y) = 0.06005 0.08142
# Poissons Ratio (z) = -0.01746 0.16592
#
# Static dielectric constant tensor:
#      x y z
#    x 1.703280 0.000000 0.000000 
#    y 0.000000 1.787660 0.000000 
#    z 0.000000 0.000000 1.752510 
# 
# From -- ./inp_files/14354.got.cif
#   From: 2010.05.17/outbox.cif.g08.bks.cpg/sg59_8_cif.got.tgz:14354.got - 2010.06.03 14:40:33.
