data_PCOD9451250
_publ_section_title
;
Structure prediction by ZEFSAII (Michael W. Deem and Ramdas Pophale) SiO2 
 PCOD9451250
Probable space group: P M M N
;
_chemical_formula_sum "Si O2"
_cell_formula_units_Z 48
_cell_length_a 21.087202
_cell_length_b 8.125410
_cell_length_c 14.695545
_cell_angle_alpha 90.000000
_cell_angle_beta 90.000000
_cell_angle_gamma 90.000000
_cell_volume 2517.966452
_symmetry_space_group_name_H-M "P M M N"
_symmetry_group_IT_number 59
_space_group.IT_coordinate_system_code '2'
_symmetry_cell_setting 'orthorhombic'
loop_
_space_group_symop_operation_xyz
x,y,z
1/2-x,1/2-y,z
1/2+x,-y,-z
-x,1/2+y,-z
-x,-y,-z
1/2+x,1/2+y,-z
1/2-x,y,z
x,1/2-y,z
loop_
_atom_site_type_symbol
_atom_site_label
_atom_site_fract_x
_atom_site_fract_y
_atom_site_fract_z
Si Si1 0.176196 0.950701 0.104160
Si Si2 0.250000 0.447798 0.396863
Si Si3 0.823863 0.049319 0.099015
Si Si4 0.997855 0.055099 0.395547
Si Si5 0.250000 0.052332 0.607363
Si Si6 0.623523 0.053739 0.707834
Si Si7 0.123885 0.948277 0.712922
O O1 0.250000 0.998058 0.118687
O O2 0.175290 0.750000 0.104665
O O3 0.134205 0.007957 0.188765
O O4 0.157188 0.004471 0.002602
O O5 0.250000 0.250000 0.393968
O O6 0.250000 0.500732 0.502122
O O7 0.312742 0.511066 0.346959
O O8 0.750000 0.002521 0.113566
O O9 0.824939 0.250000 0.098947
O O10 0.865673 0.991122 0.183679
O O11 0.990374 0.250000 0.397720
O O12 0.937476 0.985646 0.340090
O O13 0.062492 0.014686 0.343221
O O14 0.000000 0.000000 0.500000
O O15 0.250000 0.250000 0.610113
O O16 0.187323 0.989107 0.657453
O O17 0.617136 0.250000 0.710856
O O18 0.118619 0.750000 0.717951
#
# Coordination Sequence:
#
# PCOD9451250 Si02
#       7
#     8   4   8   8   4   8   8
#     4   8  14  27  51  84 112 137 175 220 268 326
#     4  11  23  37  54  79 110 144 185 235 282 325
#     4   8  13  26  53  83 108 135 174 223 269 319
#     4  11  24  40  57  79 110 149 191 232 279 332
#     4  11  23  35  52  79 110 138 173 227 282 329
#     4  11  21  36  58  83 111 145 185 226 273 331
#     4  10  20  36  58  81 105 141 187 228 268 323
#
# _framework density 19.063002999999998
#
# number of rings (size 3 to 8) (size 9 to 14) (size 15 to 20)
#    0.000    2.167    1.667    3.500    0.000    5.333 
#    0.000    0.833    0.000    3.000    0.000    0.000 
#    0.000    0.000    0.000    0.000    0.000    0.000 
#
# Total GULP energy -267891.864407 kJ/mol
# GULP energy per Si atom -5581.080508 kJ/mol
# Density = 1.901961 g / cm^3
# Si number density = 19.063003 Si / 1000 Ang^3
#
#
#
# Elastic Constant Matrix: (Units=GPa)
#
#
# Indices 1 2 3 4 5 6 
#
# 1 135.7606 0.6079 97.9482 0.0000 0.0000 0.0000
# 2 0.6079 15.0093 13.2461 0.0000 0.0000 0.0000
# 3 97.9482 13.2461 219.9864 0.0000 0.0000 0.0000
# 4 0.0000 0.0000 0.0000 11.7605 0.0000 0.0000
# 5 0.0000 0.0000 0.0000 0.0000 29.5128 0.0000
# 6 0.0000 0.0000 0.0000 0.0000 0.0000-9942.2636
#
#
#
# Elastic Compliance Matrix: (Units=1/GPa)
#
#
# Indices 1 2 3 4 5 6 
#
# 1 0.011089 0.004127 -0.005186 0.000000 0.000000 0.000000
# 2 0.004127 0.071901 -0.006167 0.000000 0.000000 0.000000
# 3 -0.005186 -0.006167 0.007226 0.000000 0.000000 0.000000
# 4 0.000000 0.000000 0.000000 0.085030 0.000000 0.000000
# 5 0.000000 0.000000 0.000000 0.000000 0.033884 0.000000
# 6 0.000000 0.000000 0.000000 0.000000 0.000000 -0.000101
#
#
# Mechanical properties :
#
#
# Convention : Reuss Voigt Hill
#
# Bulk Modulus (GPa) = 13.19871 66.04008 39.61940
# Shear Modulus (GPa) = 20.10170 -1962.93445 -971.41638
#
# Velocity S-wave (km/s) = 3.25081 -32.12389 -22.59841
# Velocity P-wave (km/s) = 4.58575 36.62250 25.69220
#
# Compressibility (1/GPa) = 0.07576499
#
# Stress axis : x y z
#
# Youngs Moduli (GPa) = 90.18051 13.90801 138.38831
#
# Poissons Ratio (x) = -0.05741 0.71766
# Poissons Ratio (y) = -0.37222 0.85346
# Poissons Ratio (z) = 0.46766 0.08577
#
# Static dielectric constant tensor:
#      x y z
#    x 1.631680 0.000000 0.000000 
#    y 0.000000 1.689460 0.000000 
#    z 0.000000 0.000000 1.698650 
# 
# From -- ./inp_files/23721.got.cif
#   From: 2010.05.17/outbox.cif.g08.bks.cpg/sg59_12_cif.got.tgz:23721.got - 2010.06.03 14:40:33.
