data_PCOD9451689
_publ_section_title
;
Structure prediction by ZEFSAII (Michael W. Deem and Ramdas Pophale) SiO2 
 PCOD9451689
Probable space group: P M M N
;
_chemical_formula_sum "Si O2"
_cell_formula_units_Z 48
_cell_length_a 8.210634
_cell_length_b 15.153992
_cell_length_c 19.009382
_cell_angle_alpha 90.000000
_cell_angle_beta 90.000000
_cell_angle_gamma 90.000000
_cell_volume 2365.221102
_symmetry_space_group_name_H-M "P M M N"
_symmetry_group_IT_number 59
_space_group.IT_coordinate_system_code '2'
_symmetry_cell_setting 'orthorhombic'
loop_
_space_group_symop_operation_xyz
x,y,z
1/2-x,1/2-y,z
1/2+x,-y,-z
-x,1/2+y,-z
-x,-y,-z
1/2+x,1/2+y,-z
1/2-x,y,z
x,1/2-y,z
loop_
_atom_site_type_symbol
_atom_site_label
_atom_site_fract_x
_atom_site_fract_y
_atom_site_fract_z
Si Si1 0.446761 0.149107 0.607389
Si Si2 0.559121 0.969758 0.832576
Si Si3 0.060354 0.851572 0.958946
Si Si4 0.445823 0.475855 0.322604
Si Si5 0.559744 0.648999 0.112697
Si Si6 0.948423 0.648259 0.552021
O O1 0.250000 0.147422 0.608488
O O2 0.497284 0.250000 0.621826
O O3 0.500747 0.125575 0.527488
O O4 0.511291 0.076564 0.660398
O O5 0.750000 0.948448 0.835773
O O6 0.534475 0.073713 0.845923
O O7 0.474753 0.916365 0.894985
O O8 0.494601 0.948566 0.754596
O O9 0.250000 0.857996 0.978853
O O10 0.026142 0.750000 0.938147
O O11 0.959694 0.870756 0.029457
O O12 0.250000 0.467689 0.321278
O O13 0.508503 0.415971 0.386891
O O14 0.750000 0.644448 0.131532
O O15 0.502763 0.750000 0.123495
O O16 0.750000 0.644932 0.551755
O O17 0.993776 0.750000 0.565521
#
# Coordination Sequence:
#
# PCOD9451689 Si02
#       6
#     8   8   8   8   8   8
#     4   9  18  33  54  77 101 134 174 216 263 312
#     4  11  23  36  52  78 112 146 178 215 261 314
#     4  10  21  38  60  83 107 137 174 218 265 312
#     4  10  21  34  51  77 106 139 175 213 259 306
#     4  10  21  38  60  82 104 136 179 223 265 312
#     4   8  15  31  54  77 101 132 173 217 260 309
#
# _framework density 20.294086
#
# number of rings (size 3 to 8) (size 9 to 14) (size 15 to 20)
#    0.000    2.333    0.000    3.500    0.000    5.000 
#    0.000    5.000    0.000    1.500    0.000    0.000 
#    0.000    0.000    0.000    0.000    0.000    0.000 
#
# Total GULP energy -268022.663181 kJ/mol
# GULP energy per Si atom -5583.805483 kJ/mol
# Density = 2.024790 g / cm^3
# Si number density = 20.294086 Si / 1000 Ang^3
#
#
#
# Elastic Constant Matrix: (Units=GPa)
#
#
# Indices 1 2 3 4 5 6 
#
# 1 13.4848 -4.2220 -4.7265 0.0000 0.0000 0.0000
# 2 -4.2220 33.8594 6.8554 0.0000 0.0000 0.0000
# 3 -4.7265 6.8554 19.9334 0.0000 0.0000 0.0000
# 4 0.0000 0.0000 0.0000 3.3967 0.0000 0.0000
# 5 0.0000 0.0000 0.0000 0.0000 17.1890 0.0000
# 6 0.0000 0.0000 0.0000 0.0000 0.0000 19.3349
#
#
#
# Elastic Compliance Matrix: (Units=1/GPa)
#
#
# Indices 1 2 3 4 5 6 
#
# 1 0.082304 0.006784 0.017182 0.000000 0.000000 0.000000
# 2 0.006784 0.032303 -0.009501 0.000000 0.000000 0.000000
# 3 0.017182 -0.009501 0.057509 0.000000 0.000000 0.000000
# 4 0.000000 0.000000 0.000000 0.294404 0.000000 0.000000
# 5 0.000000 0.000000 0.000000 0.000000 0.058177 0.000000
# 6 0.000000 0.000000 0.000000 0.000000 0.000000 0.051720
#
#
# Mechanical properties :
#
#
# Convention : Reuss Voigt Hill
#
# Bulk Modulus (GPa) = 4.97398 7.01017 5.99207
# Shear Modulus (GPa) = 8.13666 12.60884 10.37275
#
# Velocity S-wave (km/s) = 2.00452 2.49531 2.26325
# Velocity P-wave (km/s) = 2.79530 3.42985 3.12870
#
# Compressibility (1/GPa) = 0.20104630
#
# Stress axis : x y z
#
# Youngs Moduli (GPa) = 12.15006 30.95643 17.38860
#
# Poissons Ratio (x) = -0.21000 -0.29878
# Poissons Ratio (y) = -0.08242 0.16521
# Poissons Ratio (z) = -0.20877 0.29412
#
# Static dielectric constant tensor:
#      x y z
#    x 1.714020 0.000000 0.000000 
#    y 0.000000 1.708070 0.000000 
#    z 0.000000 0.000000 1.718750 
# 
# From -- ./inp_files/25414.got.cif
#   From: 2010.05.17/outbox.cif.g08.bks.cpg/sg59_13_cif.got.tgz:25414.got - 2010.06.03 14:40:33.
