data_PCOD9451724
_publ_section_title
;
Structure prediction by ZEFSAII (Michael W. Deem and Ramdas Pophale) SiO2 
 PCOD9451724
Probable space group: P M M N
;
_chemical_formula_sum "Si O2"
_cell_formula_units_Z 64
_cell_length_a 8.978842
_cell_length_b 23.615247
_cell_length_c 18.496427
_cell_angle_alpha 90.000000
_cell_angle_beta 90.000000
_cell_angle_gamma 90.000000
_cell_volume 3921.937464
_symmetry_space_group_name_H-M "P M M N"
_symmetry_group_IT_number 59
_space_group.IT_coordinate_system_code '2'
_symmetry_cell_setting 'orthorhombic'
loop_
_space_group_symop_operation_xyz
x,y,z
1/2-x,1/2-y,z
1/2+x,-y,-z
-x,1/2+y,-z
-x,-y,-z
1/2+x,1/2+y,-z
1/2-x,y,z
x,1/2-y,z
loop_
_atom_site_type_symbol
_atom_site_label
_atom_site_fract_x
_atom_site_fract_y
_atom_site_fract_z
Si Si1 0.430128 0.683163 0.229685
Si Si2 0.928989 0.315342 0.227362
Si Si3 0.571928 0.110867 0.366043
Si Si4 0.926753 0.616649 0.361606
Si Si5 0.071525 0.502732 0.419821
Si Si6 0.079664 0.181133 0.077978
Si Si7 0.924746 0.683156 0.509965
Si Si8 0.577927 0.181155 0.932131
O O1 0.250000 0.678270 0.234138
O O2 0.465907 0.750000 0.238941
O O3 0.508285 0.646347 0.290650
O O4 0.475084 0.665185 0.148158
O O5 0.750000 0.314536 0.224110
O O6 0.978671 0.250000 0.240294
O O7 0.972292 0.355844 0.293219
O O8 0.990636 0.334830 0.149975
O O9 0.750000 0.101583 0.365544
O O10 0.526725 0.150298 0.433455
O O11 0.486495 0.052154 0.377094
O O12 0.750000 0.605967 0.354383
O O13 0.947892 0.658409 0.430017
O O14 0.012087 0.559086 0.381120
O O15 0.250000 0.502774 0.425723
O O16 0.000000 0.500000 0.500000
O O17 0.250000 0.163532 0.084625
O O18 0.074730 0.250000 0.075801
O O19 0.011942 0.161246 0.001939
O O20 0.750000 0.673373 0.528502
O O21 0.953060 0.750000 0.511660
O O22 0.750000 0.164155 0.939946
O O23 0.575400 0.250000 0.932344
#
# Coordination Sequence:
#
# PCOD9451724 Si02
#       8
#     8   8   8   8   8   8   8   8
#     4   9  18  32  50  75 107 141 175 211 254 305
#     4   9  18  32  49  72 104 138 170 204 247 302
#     4  11  22  36  55  77 100 132 172 214 258 304
#     4  11  22  36  54  76 102 135 172 213 259 303
#     4  12  24  40  59  77  97 128 170 218 263 306
#     4   9  16  25  41  68 100 134 171 208 248 294
#     4  10  21  35  51  73 103 137 169 204 251 305
#     4   8  14  26  44  66  97 137 174 206 245 296
#
# _framework density 16.318463999999999
#
# number of rings (size 3 to 8) (size 9 to 14) (size 15 to 20)
#    0.000    2.125    1.250    3.750    0.000    5.000 
#    0.000    2.500    0.000    0.000    0.000    0.875 
#    0.000    0.000    0.000    0.000    0.000    0.000 
#
# Total GULP energy -357020.353937 kJ/mol
# GULP energy per Si atom -5578.443030 kJ/mol
# Density = 1.628132 g / cm^3
# Si number density = 16.318464 Si / 1000 Ang^3
#
#
#
# Elastic Constant Matrix: (Units=GPa)
#
#
# Indices 1 2 3 4 5 6 
#
# 1 62.4522 33.2449 50.3579 0.0000 0.0000 0.0000
# 2 33.2449 61.3577 36.8189 0.0000 0.0000 0.0000
# 3 50.3579 36.8189 129.9535 0.0000 0.0000 0.0000
# 4 0.0000 0.0000 0.0000 0.2365 0.0000 0.0000
# 5 0.0000 0.0000 0.0000 0.0000 11.7143 0.0000
# 6 0.0000 0.0000 0.0000 0.0000 0.0000 22.1722
#
#
#
# Elastic Compliance Matrix: (Units=1/GPa)
#
#
# Indices 1 2 3 4 5 6 
#
# 1 0.027881 -0.010390 -0.007861 0.000000 0.000000 0.000000
# 2 -0.010390 0.023508 -0.002634 0.000000 0.000000 0.000000
# 3 -0.007861 -0.002634 0.011487 0.000000 0.000000 0.000000
# 4 0.000000 0.000000 0.000000 4.228238 0.000000 0.000000
# 5 0.000000 0.000000 0.000000 0.000000 0.085366 0.000000
# 6 0.000000 0.000000 0.000000 0.000000 0.000000 0.045102
#
#
# Mechanical properties :
#
#
# Convention : Reuss Voigt Hill
#
# Bulk Modulus (GPa) = 47.37639 54.95630 51.16635
# Shear Modulus (GPa) = 1.11847 15.71404 8.41626
#
# Velocity S-wave (km/s) = 0.82879 3.10653 2.27348
# Velocity P-wave (km/s) = 5.47825 6.82773 6.18987
#
# Compressibility (1/GPa) = 0.02110756
#
# Stress axis : x y z
#
# Youngs Moduli (GPa) = 35.86635 42.53870 87.05187
#
# Poissons Ratio (x) = 0.44197 0.68427
# Poissons Ratio (y) = 0.37264 0.22932
# Poissons Ratio (z) = 0.28193 0.11206
#
# Static dielectric constant tensor:
#      x y z
#    x 1.553140 0.000000 0.000000 
#    y 0.000000 1.527280 0.000000 
#    z 0.000000 0.000000 1.540770 
# 
# From -- ./inp_files/26357.got.cif
#   From: 2010.05.17/outbox.cif.g08.bks.cpg/sg59_14_cif.got.tgz:26357.got - 2010.06.03 14:40:33.
