data_PCOD9451357
_publ_section_title
;
Structure prediction by ZEFSAII (Michael W. Deem and Ramdas Pophale) SiO2 
 PCOD9451357
Probable space group: P M M N
;
_chemical_formula_sum "Si O2"
_cell_formula_units_Z 64
_cell_length_a 8.422952
_cell_length_b 23.500422
_cell_length_c 16.824950
_cell_angle_alpha 90.000000
_cell_angle_beta 90.000000
_cell_angle_gamma 90.000000
_cell_volume 3330.379841
_symmetry_space_group_name_H-M "P M M N"
_symmetry_group_IT_number 59
_space_group.IT_coordinate_system_code '2'
_symmetry_cell_setting 'orthorhombic'
loop_
_space_group_symop_operation_xyz
x,y,z
1/2-x,1/2-y,z
1/2+x,-y,-z
-x,1/2+y,-z
-x,-y,-z
1/2+x,1/2+y,-z
1/2-x,y,z
x,1/2-y,z
loop_
_atom_site_type_symbol
_atom_site_label
_atom_site_fract_x
_atom_site_fract_y
_atom_site_fract_z
Si Si1 0.442122 0.533825 0.609566
Si Si2 0.441716 0.816539 0.333305
Si Si3 0.058557 0.314761 0.142998
Si Si4 0.058935 0.580433 0.778121
Si Si5 0.440104 0.410192 0.547853
Si Si6 0.931965 0.818052 0.031554
Si Si7 0.939033 0.505123 0.090032
Si Si8 0.935085 0.118180 0.825564
O O1 0.250000 0.534937 0.606001
O O2 0.496218 0.552927 0.696217
O O3 0.491850 0.468620 0.592717
O O4 0.505884 0.576227 0.541889
O O5 0.250000 0.814880 0.329617
O O6 0.495789 0.750000 0.333822
O O7 0.491540 0.854376 0.409236
O O8 0.497842 0.852111 0.255169
O O9 0.250000 0.314933 0.141578
O O10 0.004817 0.250000 0.152877
O O11 0.995386 0.355427 0.210522
O O12 0.007960 0.336336 0.055283
O O13 0.250000 0.577819 0.778339
O O14 0.998440 0.545455 0.854055
O O15 0.250000 0.406783 0.550961
O O16 0.750000 0.839056 0.043575
O O17 0.924216 0.750000 0.028303
O O18 0.040460 0.837180 0.103284
O O19 0.750000 0.501669 0.085448
O O20 0.982664 0.562111 0.138904
O O21 0.000000 0.500000 0.000000
O O22 0.750000 0.105319 0.813421
#
# Coordination Sequence:
#
# PCOD9451357 Si02
#       8
#     8   8   8   8   8   8   8   8
#     4   9  19  37  59  83 112 142 173 218 277 333
#     4  10  22  39  57  80 115 156 192 230 282 343
#     4   9  19  35  53  74 102 135 171 215 264 310
#     4  10  21  36  55  79 106 138 177 218 261 316
#     4  10  20  36  60  87 110 137 179 227 273 327
#     4   9  18  33  52  73 100 139 184 227 273 319
#     4  11  23  38  55  80 115 151 189 234 283 332
#     4  11  22  35  53  79 110 146 189 232 276 329
#
# _framework density 19.217027999999999
#
# number of rings (size 3 to 8) (size 9 to 14) (size 15 to 20)
#    0.000    2.125    0.000    3.750    0.000    7.750 
#    0.000    1.875    0.000    0.750    0.000    0.000 
#    0.000    0.000    0.000    0.000    0.000    0.000 
#
# Total GULP energy -357075.312445 kJ/mol
# GULP energy per Si atom -5579.301757 kJ/mol
# Density = 1.917329 g / cm^3
# Si number density = 19.217028 Si / 1000 Ang^3
#
#
#
# Elastic Constant Matrix: (Units=GPa)
#
#
# Indices 1 2 3 4 5 6 
#
# 1 14.1947 11.8266 17.6940 0.0000 0.0000 0.0000
# 2 11.8266 107.0180 71.5162 0.0000 0.0000 0.0000
# 3 17.6940 71.5162 125.3762 0.0000 0.0000 0.0000
# 4 0.0000 0.0000 0.0000 29.7821 0.0000 0.0000
# 5 0.0000 0.0000 0.0000 0.0000 24.4544 0.0000
# 6 0.0000 0.0000 0.0000 0.0000 0.0000 27.9310
#
#
#
# Elastic Compliance Matrix: (Units=1/GPa)
#
#
# Indices 1 2 3 4 5 6 
#
# 1 0.085821 -0.002247 -0.010830 0.000000 0.000000 0.000000
# 2 -0.002247 0.015159 -0.008330 0.000000 0.000000 0.000000
# 3 -0.010830 -0.008330 0.014256 0.000000 0.000000 0.000000
# 4 0.000000 0.000000 0.000000 0.033577 0.000000 0.000000
# 5 0.000000 0.000000 0.000000 0.000000 0.040892 0.000000
# 6 0.000000 0.000000 0.000000 0.000000 0.000000 0.035802
#
#
# Mechanical properties :
#
#
# Convention : Reuss Voigt Hill
#
# Bulk Modulus (GPa) = 13.80787 49.85139 31.82963
# Shear Modulus (GPa) = 17.09624 26.13697 21.61660
#
# Velocity S-wave (km/s) = 2.98592 3.69195 3.35754
# Velocity P-wave (km/s) = 4.36903 6.64617 5.62405
#
# Compressibility (1/GPa) = 0.07242244
#
# Stress axis : x y z
#
# Youngs Moduli (GPa) = 11.65218 65.96735 70.14660
#
# Poissons Ratio (x) = 0.14821 0.75970
# Poissons Ratio (y) = 0.02618 0.58431
# Poissons Ratio (z) = 0.12619 0.54950
#
# Static dielectric constant tensor:
#      x y z
#    x 1.677420 0.000000 0.000000 
#    y 0.000000 1.724600 0.000000 
#    z 0.000000 0.000000 1.664560 
# 
# From -- ./inp_files/21574.got.cif
#   From: 2010.05.17/outbox.cif.g08.bks.cpg/sg59_11_cif.got.tgz:21574.got - 2010.06.03 14:40:33.
