data_PCOD9451238
_publ_section_title
;
Structure prediction by ZEFSAII (Michael W. Deem and Ramdas Pophale) SiO2 
 PCOD9451238
Probable space group: P M M N
;
_chemical_formula_sum "Si O2"
_cell_formula_units_Z 40
_cell_length_a 26.678039
_cell_length_b 12.680387
_cell_length_c 5.280698
_cell_angle_alpha 90.000000
_cell_angle_beta 90.000000
_cell_angle_gamma 90.000000
_cell_volume 1786.396020
_symmetry_space_group_name_H-M "P M M N"
_symmetry_group_IT_number 59
_space_group.IT_coordinate_system_code '2'
_symmetry_cell_setting 'orthorhombic'
loop_
_space_group_symop_operation_xyz
x,y,z
1/2-x,1/2-y,z
1/2+x,-y,-z
-x,1/2+y,-z
-x,-y,-z
1/2+x,1/2+y,-z
1/2-x,y,z
x,1/2-y,z
loop_
_atom_site_type_symbol
_atom_site_label
_atom_site_fract_x
_atom_site_fract_y
_atom_site_fract_z
Si Si1 0.640580 0.124357 0.645525
Si Si2 0.692371 0.933729 0.477843
Si Si3 0.864927 0.938381 0.971854
Si Si4 0.034617 0.622857 0.599462
Si Si5 0.022382 0.376699 0.904235
O O1 0.644455 0.250000 0.659903
O O2 0.685548 0.061203 0.511423
O O3 0.589611 0.090960 0.497652
O O4 0.636893 0.065007 0.916275
O O5 0.750000 0.903508 0.499591
O O6 0.658644 0.893009 0.711825
O O7 0.668694 0.906521 0.209119
O O8 0.921466 0.905563 0.020329
O O9 0.037258 0.750000 0.607937
O O10 0.016795 0.588775 0.877212
O O11 0.994440 0.596491 0.380664
O O12 0.020013 0.250000 0.910074
#
# Coordination Sequence:
#
# PCOD9451238 Si02
#       5
#     8   8   8   8   8
#     4   9  22  38  56  84 115 148 187 225 272 327
#     4  10  22  40  57  79 109 144 186 237 285 317
#     4  10  22  37  59  84 107 151 181 234 274 326
#     4   9  19  33  54  82 119 150 178 223 266 323
#     4  10  20  36  57  84 116 150 181 218 275 334
#
# _framework density 22.391452999999998
#
# number of rings (size 3 to 8) (size 9 to 14) (size 15 to 20)
#    1.200    1.200    0.000    1.800    2.800    2.800 
#    0.000    0.000    0.000    3.600    0.000    0.000 
#    0.000    0.000    0.000    0.000    0.000    0.000 
#
# Total GULP energy -223393.799647 kJ/mol
# GULP energy per Si atom -5584.844991 kJ/mol
# Density = 2.234049 g / cm^3
# Si number density = 22.391453 Si / 1000 Ang^3
#
#
#
# Elastic Constant Matrix: (Units=GPa)
#
#
# Indices 1 2 3 4 5 6 
#
# 1 124.6423 -8.6787 57.2588 0.0000 0.0000 0.0000
# 2 -8.6787 22.6676 13.1967 0.0000 0.0000 0.0000
# 3 57.2588 13.1967 161.1838 0.0000 0.0000 0.0000
# 4 0.0000 0.0000 0.0000 30.5114 0.0000 0.0000
# 5 0.0000 0.0000 0.0000 0.0000 30.8396 0.0000
# 6 0.0000 0.0000 0.0000 0.0000 0.0000 20.9601
#
#
#
# Elastic Compliance Matrix: (Units=1/GPa)
#
#
# Indices 1 2 3 4 5 6 
#
# 1 0.010414 0.006448 -0.004227 0.000000 0.000000 0.000000
# 2 0.006448 0.050317 -0.006410 0.000000 0.000000 0.000000
# 3 -0.004227 -0.006410 0.008231 0.000000 0.000000 0.000000
# 4 0.000000 0.000000 0.000000 0.032775 0.000000 0.000000
# 5 0.000000 0.000000 0.000000 0.000000 0.032426 0.000000
# 6 0.000000 0.000000 0.000000 0.000000 0.000000 0.047710
#
#
# Mechanical properties :
#
#
# Convention : Reuss Voigt Hill
#
# Bulk Modulus (GPa) = 16.50643 48.00526 32.25584
# Shear Modulus (GPa) = 23.75924 32.91001 28.33462
#
# Velocity S-wave (km/s) = 3.26096 3.83790 3.56114
# Velocity P-wave (km/s) = 4.64395 6.41287 5.59872
#
# Compressibility (1/GPa) = 0.06058247
#
# Stress axis : x y z
#
# Youngs Moduli (GPa) = 96.02507 19.87415 121.49689
#
# Poissons Ratio (x) = -0.12815 0.51361
# Poissons Ratio (y) = -0.61920 0.77883
# Poissons Ratio (z) = 0.40594 0.12740
#
# Static dielectric constant tensor:
#      x y z
#    x 1.763570 0.000000 0.000000 
#    y 0.000000 1.927020 0.000000 
#    z 0.000000 0.000000 1.830530 
# 
# From -- ./inp_files/3256.got.cif
#   From: 2010.05.17/outbox.cif.g08.bks.cpg/sg59_2_cif.got.tgz:3256.got - 2010.06.03 14:40:33.
