data_PCOD9451510
_publ_section_title
;
Structure prediction by ZEFSAII (Michael W. Deem and Ramdas Pophale) SiO2 
 PCOD9451510
Probable space group: P M M N
;
_chemical_formula_sum "Si O2"
_cell_formula_units_Z 48
_cell_length_a 16.015875
_cell_length_b 8.949314
_cell_length_c 17.059627
_cell_angle_alpha 90.000000
_cell_angle_beta 90.000000
_cell_angle_gamma 90.000000
_cell_volume 2445.175007
_symmetry_space_group_name_H-M "P M M N"
_symmetry_group_IT_number 59
_space_group.IT_coordinate_system_code '2'
_symmetry_cell_setting 'orthorhombic'
loop_
_space_group_symop_operation_xyz
x,y,z
1/2-x,1/2-y,z
1/2+x,-y,-z
-x,1/2+y,-z
-x,-y,-z
1/2+x,1/2+y,-z
1/2-x,y,z
x,1/2-y,z
loop_
_atom_site_type_symbol
_atom_site_label
_atom_site_fract_x
_atom_site_fract_y
_atom_site_fract_z
Si Si1 0.750000 0.070924 0.417924
Si Si2 0.750000 0.928298 0.587847
Si Si3 0.652795 0.076002 0.155271
Si Si4 0.348728 0.424461 0.173097
Si Si5 0.081954 0.570364 0.679728
Si Si6 0.909070 0.072813 0.673929
Si Si7 0.409034 0.071946 0.000484
O O1 0.750000 0.250000 0.434133
O O2 0.833990 0.038103 0.368866
O O3 0.750000 0.979470 0.497889
O O4 0.750000 0.750000 0.596565
O O5 0.832814 0.995556 0.628179
O O6 0.750000 0.069015 0.178147
O O7 0.632073 0.250000 0.140034
O O8 0.599235 0.025497 0.229869
O O9 0.638125 0.986536 0.076035
O O10 0.250000 0.434521 0.188326
O O11 0.373877 0.250000 0.183818
O O12 0.396101 0.525619 0.235400
O O13 0.365993 0.466535 0.083184
O O14 0.069912 0.750000 0.678484
O O15 0.999240 0.490086 0.649011
O O16 0.904804 0.250000 0.664255
O O17 0.414768 0.250000 0.996943
O O18 0.500000 0.000000 0.000000
#
# Coordination Sequence:
#
# PCOD9451510 Si02
#       7
#     4   4   8   8   8   8   8
#     4  10  22  44  72  99 128 163 210 261 306 369
#     4  12  26  46  70  95 128 167 204 253 320 383
#     4  10  20  37  61  89 122 165 212 257 310 370
#     4  10  21  39  61  83 116 165 215 261 317 375
#     4  10  21  41  68  96 129 171 212 255 314 376
#     4  12  25  41  65  98 130 164 211 263 314 374
#     4  11  23  37  54  83 121 165 213 262 313 367
#
# _framework density 19.630496999999998
#
# number of rings (size 3 to 8) (size 9 to 14) (size 15 to 20)
#    0.000    1.333    1.667    4.250    0.000    8.333 
#    0.000    0.000    0.000    0.000    0.000    0.000 
#    0.000    0.000    0.000    0.000    0.000    0.000 
#
# Total GULP energy -268394.560034 kJ/mol
# GULP energy per Si atom -5591.553334 kJ/mol
# Density = 1.958582 g / cm^3
# Si number density = 19.630497 Si / 1000 Ang^3
#
#
#
# Elastic Constant Matrix: (Units=GPa)
#
#
# Indices 1 2 3 4 5 6 
#
# 1 138.1290 67.6187 53.0385 0.0000 0.0000 0.0000
# 2 67.6187 90.3950 60.8727 0.0000 0.0000 0.0000
# 3 53.0385 60.8727 106.2868 0.0000 0.0000 0.0000
# 4 0.0000 0.0000 0.0000 30.8711 0.0000 0.0000
# 5 0.0000 0.0000 0.0000 0.0000 7.9435 0.0000
# 6 0.0000 0.0000 0.0000 0.0000 0.0000 26.8877
#
#
#
# Elastic Compliance Matrix: (Units=1/GPa)
#
#
# Indices 1 2 3 4 5 6 
#
# 1 0.011536 -0.007737 -0.001326 0.000000 0.000000 0.000000
# 2 -0.007737 0.023196 -0.009424 0.000000 0.000000 0.000000
# 3 -0.001326 -0.009424 0.015468 0.000000 0.000000 0.000000
# 4 0.000000 0.000000 0.000000 0.032393 0.000000 0.000000
# 5 0.000000 0.000000 0.000000 0.000000 0.125889 0.000000
# 6 0.000000 0.000000 0.000000 0.000000 0.000000 0.037192
#
#
# Mechanical properties :
#
#
# Convention : Reuss Voigt Hill
#
# Bulk Modulus (GPa) = 75.60545 77.54115 76.57330
# Shear Modulus (GPa) = 17.41827 23.35920 20.38873
#
# Velocity S-wave (km/s) = 2.98200 3.45330 3.22627
# Velocity P-wave (km/s) = 7.10312 7.44892 7.27808
#
# Compressibility (1/GPa) = 0.01322656
#
# Stress axis : x y z
#
# Youngs Moduli (GPa) = 86.68555 43.11055 64.65161
#
# Poissons Ratio (x) = 0.33353 0.08571
# Poissons Ratio (y) = 0.67065 0.60930
# Poissons Ratio (z) = 0.11492 0.40629
#
# Static dielectric constant tensor:
#      x y z
#    x 1.709710 0.000000 0.000000 
#    y 0.000000 1.657240 0.000000 
#    z 0.000000 0.000000 1.691440 
# 
# From -- ./inp_files/27472.got.cif
#   From: 2010.05.17/outbox.cif.g08.bks.cpg/sg59_14_cif.got.tgz:27472.got - 2010.06.03 14:40:33.
