data_PCOD9451132
_publ_section_title
;
Structure prediction by ZEFSAII (Michael W. Deem and Ramdas Pophale) SiO2 
 PCOD9451132
Probable space group: P M M N
;
_chemical_formula_sum "Si O2"
_cell_formula_units_Z 40
_cell_length_a 22.987602
_cell_length_b 7.831348
_cell_length_c 10.172458
_cell_angle_alpha 90.000000
_cell_angle_beta 90.000000
_cell_angle_gamma 90.000000
_cell_volume 1831.285673
_symmetry_space_group_name_H-M "P M M N"
_symmetry_group_IT_number 59
_space_group.IT_coordinate_system_code '2'
_symmetry_cell_setting 'orthorhombic'
loop_
_space_group_symop_operation_xyz
x,y,z
1/2-x,1/2-y,z
1/2+x,-y,-z
-x,1/2+y,-z
-x,-y,-z
1/2+x,1/2+y,-z
1/2-x,y,z
x,1/2-y,z
loop_
_atom_site_type_symbol
_atom_site_label
_atom_site_fract_x
_atom_site_fract_y
_atom_site_fract_z
Si Si1 0.121556 0.549702 0.438413
Si Si2 0.750000 0.040671 0.896766
Si Si3 0.635685 0.448343 0.045137
Si Si4 0.943015 0.947249 0.815067
Si Si5 0.932591 0.459832 0.291317
Si Si6 0.250000 0.050200 0.410047
O O1 0.109492 0.750000 0.419342
O O2 0.102808 0.459762 0.304130
O O3 0.084711 0.485312 0.562708
O O4 0.190062 0.527537 0.463148
O O5 0.750000 0.250000 0.889900
O O6 0.807351 0.980087 0.973964
O O7 0.750000 0.979554 0.747169
O O8 0.649028 0.250000 0.069260
O O9 0.582956 0.459957 0.941316
O O10 0.614076 0.520218 0.183442
O O11 0.951106 0.750000 0.852395
O O12 0.003863 0.014069 0.757780
O O13 0.932513 0.250000 0.292661
O O14 0.250000 0.250000 0.437854
#
# Coordination Sequence:
#
# PCOD9451132 Si02
#       6
#     8   4   8   8   8   4
#     4  11  22  39  62  86 115 155 199 238 284 345
#     4  10  20  35  60  86 112 146 194 239 284 348
#     4  10  20  37  60  86 115 153 198 241 290 345
#     4  11  21  36  58  87 121 156 195 241 291 339
#     4   9  21  38  58  87 120 153 195 244 290 342
#     4  12  24  39  60  86 118 148 188 243 294 346
#
# _framework density 21.842579000000001
#
# number of rings (size 3 to 8) (size 9 to 14) (size 15 to 20)
#    0.000    1.600    2.000    3.300    0.000    0.800 
#    0.000    9.000    0.000    1.200    0.000    0.000 
#    0.000    0.000    0.000    0.000    0.000    0.000 
#
# Total GULP energy -223609.638436 kJ/mol
# GULP energy per Si atom -5590.240961 kJ/mol
# Density = 2.179286 g / cm^3
# Si number density = 21.842579 Si / 1000 Ang^3
#
#
#
# Elastic Constant Matrix: (Units=GPa)
#
#
# Indices 1 2 3 4 5 6 
#
# 1 65.6593 -7.7193 -19.9694 0.0000 0.0000 0.0000
# 2 -7.7193 34.8277 -6.3531 0.0000 0.0000 0.0000
# 3 -19.9694 -6.3531 53.4651 0.0000 0.0000 0.0000
# 4 0.0000 0.0000 0.0000 8.9061 0.0000 0.0000
# 5 0.0000 0.0000 0.0000 0.0000 10.8704 0.0000
# 6 0.0000 0.0000 0.0000 0.0000 0.0000 14.9245
#
#
#
# Elastic Compliance Matrix: (Units=1/GPa)
#
#
# Indices 1 2 3 4 5 6 
#
# 1 0.018112 0.005365 0.007402 0.000000 0.000000 0.000000
# 2 0.005365 0.030938 0.005680 0.000000 0.000000 0.000000
# 3 0.007402 0.005680 0.022144 0.000000 0.000000 0.000000
# 4 0.000000 0.000000 0.000000 0.112282 0.000000 0.000000
# 5 0.000000 0.000000 0.000000 0.000000 0.091993 0.000000
# 6 0.000000 0.000000 0.000000 0.000000 0.000000 0.067004
#
#
# Mechanical properties :
#
#
# Convention : Reuss Voigt Hill
#
# Bulk Modulus (GPa) = 9.25171 9.54095 9.39633
# Shear Modulus (GPa) = 14.63669 19.47314 17.05491
#
# Velocity S-wave (km/s) = 2.59144 2.98908 2.79733
# Velocity P-wave (km/s) = 3.63303 4.03612 3.83987
#
# Compressibility (1/GPa) = 0.10808814
#
# Stress axis : x y z
#
# Youngs Moduli (GPa) = 55.21142 32.32274 45.15988
#
# Poissons Ratio (x) = -0.17340 -0.33429
# Poissons Ratio (y) = -0.29620 -0.25651
# Poissons Ratio (z) = -0.40870 -0.18359
#
# Static dielectric constant tensor:
#      x y z
#    x 1.808700 0.000000 0.000000 
#    y 0.000000 1.902320 0.000000 
#    z 0.000000 0.000000 1.751600 
# 
# From -- ./inp_files/12417.got.cif
#   From: 2010.05.17/outbox.cif.g08.bks.cpg/sg59_7_cif.got.tgz:12417.got - 2010.06.03 14:40:33.
