data_PCOD9451631
_publ_section_title
;
Structure prediction by ZEFSAII (Michael W. Deem and Ramdas Pophale) SiO2 
 PCOD9451631
Probable space group: P M M N
;
_chemical_formula_sum "Si O2"
_cell_formula_units_Z 56
_cell_length_a 9.722306
_cell_length_b 22.557910
_cell_length_c 12.298737
_cell_angle_alpha 90.000000
_cell_angle_beta 90.000000
_cell_angle_gamma 90.000000
_cell_volume 2697.296321
_symmetry_space_group_name_H-M "P M M N"
_symmetry_group_IT_number 59
_space_group.IT_coordinate_system_code '2'
_symmetry_cell_setting 'orthorhombic'
loop_
_space_group_symop_operation_xyz
x,y,z
1/2-x,1/2-y,z
1/2+x,-y,-z
-x,1/2+y,-z
-x,-y,-z
1/2+x,1/2+y,-z
1/2-x,y,z
x,1/2-y,z
loop_
_atom_site_type_symbol
_atom_site_label
_atom_site_fract_x
_atom_site_fract_y
_atom_site_fract_z
Si Si1 0.094151 0.556683 0.991771
Si Si2 0.403620 0.076880 0.428322
Si Si3 0.094219 0.017936 0.662885
Si Si4 0.595388 0.318984 0.418309
Si Si5 0.910438 0.116556 0.779767
Si Si6 0.086832 0.750000 0.186040
Si Si7 0.914014 0.750000 0.965817
Si Si8 0.905571 0.159158 0.160066
O O1 0.250000 0.535639 0.001042
O O2 0.073875 0.603135 0.091046
O O3 0.078076 0.592063 0.879774
O O4 0.000000 0.500000 0.000000
O O5 0.250000 0.086996 0.384760
O O6 0.392195 0.039145 0.538172
O O7 0.479813 0.137335 0.460788
O O8 0.500035 0.040421 0.345841
O O9 0.250000 0.007949 0.704811
O O10 0.012703 0.070211 0.723679
O O11 0.750000 0.336088 0.454720
O O12 0.574532 0.250000 0.443491
O O13 0.590906 0.327635 0.287612
O O14 0.750000 0.104083 0.751180
O O15 0.936363 0.186276 0.756189
O O16 0.250000 0.750000 0.155449
O O17 0.987744 0.750000 0.082314
O O18 0.750000 0.750000 0.973709
O O19 0.975011 0.695002 0.898718
O O20 0.750000 0.176830 0.122617
#
# Coordination Sequence:
#
# PCOD9451631 Si02
#       8
#     8   8   8   8   8   4   4   8
#     4  10  22  37  56  83 117 154 191 236 287 337
#     4  10  22  41  64  88 117 152 192 243 297 352
#     4  10  22  41  64  88 116 153 193 240 297 353
#     4  10  21  37  61  90 118 155 200 243 292 351
#     4  10  21  38  62  88 114 152 198 243 291 346
#     4  10  20  40  62  79 112 159 200 237 288 352
#     4  12  22  32  54  85 112 147 194 241 278 324
#     4  10  20  39  59  77 111 157 195 230 279 343
#
# _framework density 20.761531000000002
#
# number of rings (size 3 to 8) (size 9 to 14) (size 15 to 20)
#    0.000    1.857    2.143    1.500    2.000    4.286 
#    1.286    0.000    0.000    0.000    0.000    0.000 
#    0.000    0.000    0.000    0.000    0.000    0.000 
#
# Total GULP energy -312666.498481 kJ/mol
# GULP energy per Si atom -5583.330330 kJ/mol
# Density = 2.071428 g / cm^3
# Si number density = 20.761531 Si / 1000 Ang^3
#
#
#
# Elastic Constant Matrix: (Units=GPa)
#
#
# Indices 1 2 3 4 5 6 
#
# 1 135.4868 63.8936 12.2826 0.0000 0.0000 0.0000
# 2 63.8936 102.8323 -6.8484 0.0000 0.0000 0.0000
# 3 12.2826 -6.8484 22.4402 0.0000 0.0000 0.0000
# 4 0.0000 0.0000 0.0000 29.1720 0.0000 0.0000
# 5 0.0000 0.0000 0.0000 0.0000 25.3126 0.0000
# 6 0.0000 0.0000 0.0000 0.0000 0.0000 33.8890
#
#
#
# Elastic Compliance Matrix: (Units=1/GPa)
#
#
# Indices 1 2 3 4 5 6 
#
# 1 0.011998 -0.008056 -0.009026 0.000000 0.000000 0.000000
# 2 -0.008056 0.015335 0.009090 0.000000 0.000000 0.000000
# 3 -0.009026 0.009090 0.052277 0.000000 0.000000 0.000000
# 4 0.000000 0.000000 0.000000 0.034279 0.000000 0.000000
# 5 0.000000 0.000000 0.000000 0.000000 0.039506 0.000000
# 6 0.000000 0.000000 0.000000 0.000000 0.000000 0.029508
#
#
# Mechanical properties :
#
#
# Convention : Reuss Voigt Hill
#
# Bulk Modulus (GPa) = 15.71676 44.37943 30.04810
# Shear Modulus (GPa) = 22.71725 30.43683 26.57704
#
# Velocity S-wave (km/s) = 3.31146 3.83302 3.58174
# Velocity P-wave (km/s) = 4.71249 6.40403 5.62224
#
# Compressibility (1/GPa) = 0.06362633
#
# Stress axis : x y z
#
# Youngs Moduli (GPa) = 83.34660 65.20865 19.12885
#
# Poissons Ratio (x) = 0.52532 0.17265
# Poissons Ratio (y) = 0.67144 -0.17387
# Poissons Ratio (z) = 0.75226 -0.59272
#
# Static dielectric constant tensor:
#      x y z
#    x 1.720430 0.000000 0.000000 
#    y 0.000000 1.756070 0.000000 
#    z 0.000000 0.000000 1.775200 
# 
# From -- ./inp_files/21152.got.cif
#   From: 2010.05.17/outbox.cif.g08.bks.cpg/sg59_11_cif.got.tgz:21152.got - 2010.06.03 14:40:33.
