data_PCOD9451213
_publ_section_title
;
Structure prediction by ZEFSAII (Michael W. Deem and Ramdas Pophale) SiO2 
 PCOD9451213
Probable space group: P M M N
;
_chemical_formula_sum "Si O2"
_cell_formula_units_Z 40
_cell_length_a 8.404380
_cell_length_b 15.420980
_cell_length_c 15.711684
_cell_angle_alpha 90.000000
_cell_angle_beta 90.000000
_cell_angle_gamma 90.000000
_cell_volume 2036.293572
_symmetry_space_group_name_H-M "P M M N"
_symmetry_group_IT_number 59
_space_group.IT_coordinate_system_code '2'
_symmetry_cell_setting 'orthorhombic'
loop_
_space_group_symop_operation_xyz
x,y,z
1/2-x,1/2-y,z
1/2+x,-y,-z
-x,1/2+y,-z
-x,-y,-z
1/2+x,1/2+y,-z
1/2-x,y,z
x,1/2-y,z
loop_
_atom_site_type_symbol
_atom_site_label
_atom_site_fract_x
_atom_site_fract_y
_atom_site_fract_z
Si Si1 0.057498 0.386512 0.171938
Si Si2 0.555635 0.067986 0.762234
Si Si3 0.438680 0.750000 0.692246
Si Si4 0.941420 0.250000 0.839214
Si Si5 0.938139 0.750000 0.500979
Si Si6 0.057982 0.250000 0.031141
Si Si7 0.060302 0.931559 0.431113
O O1 0.250000 0.382387 0.176643
O O2 0.007803 0.486378 0.179674
O O3 0.010047 0.333942 0.087335
O O4 0.991004 0.332737 0.251889
O O5 0.750000 0.069875 0.762323
O O6 0.499807 0.161382 0.795360
O O7 0.503219 0.051538 0.665203
O O8 0.250000 0.750000 0.680247
O O9 0.521387 0.750000 0.600998
O O10 0.750000 0.250000 0.831202
O O11 0.985605 0.250000 0.938116
O O12 0.750000 0.750000 0.489636
O O13 0.009664 0.835805 0.458958
O O14 0.250000 0.250000 0.024462
O O15 0.250000 0.936743 0.429916
O O16 0.000000 0.000000 0.500000
#
# Coordination Sequence:
#
# PCOD9451213 Si02
#       7
#     8   8   4   4   4   4   8
#     4   9  18  36  59  80 109 147 182 219 279 351
#     4   9  19  36  58  80 106 146 187 226 276 335
#     4  11  21  34  55  85 113 139 183 240 289 330
#     4  10  20  36  57  80 108 145 190 229 266 321
#     4  12  24  38  55  78 114 159 198 233 284 343
#     4   9  19  34  53  81 113 143 179 226 279 336
#     4  11  22  38  60  87 116 147 192 244 292 344
#
# _framework density 19.643533000000001
#
# number of rings (size 3 to 8) (size 9 to 14) (size 15 to 20)
#    0.000    2.000    0.000    4.800    0.000    5.600 
#    0.000    5.000    0.000    0.000    0.000    0.000 
#    0.000    0.000    0.000    0.000    0.000    0.000 
#
# Total GULP energy -223445.060998 kJ/mol
# GULP energy per Si atom -5586.126525 kJ/mol
# Density = 1.959882 g / cm^3
# Si number density = 19.643533 Si / 1000 Ang^3
#
#
#
# Elastic Constant Matrix: (Units=GPa)
#
#
# Indices 1 2 3 4 5 6 
#
# 1 25.9111 16.5890 12.7143 0.0000 0.0000 0.0000
# 2 16.5890 182.6834 67.5066 0.0000 0.0000 0.0000
# 3 12.7143 67.5066 116.9246 0.0000 0.0000 0.0000
# 4 0.0000 0.0000 0.0000 4.8880 0.0000 0.0000
# 5 0.0000 0.0000 0.0000 0.0000 31.1618 0.0000
# 6 0.0000 0.0000 0.0000 0.0000 0.0000 22.4767
#
#
#
# Elastic Compliance Matrix: (Units=1/GPa)
#
#
# Indices 1 2 3 4 5 6 
#
# 1 0.041783 -0.002689 -0.002991 0.000000 0.000000 0.000000
# 2 -0.002689 0.007132 -0.003825 0.000000 0.000000 0.000000
# 3 -0.002991 -0.003825 0.011086 0.000000 0.000000 0.000000
# 4 0.000000 0.000000 0.000000 0.204582 0.000000 0.000000
# 5 0.000000 0.000000 0.000000 0.000000 0.032091 0.000000
# 6 0.000000 0.000000 0.000000 0.000000 0.000000 0.044491
#
#
# Mechanical properties :
#
#
# Convention : Reuss Voigt Hill
#
# Bulk Modulus (GPa) = 24.39586 57.68210 41.03898
# Shear Modulus (GPa) = 13.37482 26.95257 20.16370
#
# Velocity S-wave (km/s) = 2.61219 3.70818 3.20735
# Velocity P-wave (km/s) = 4.64158 6.91103 5.88671
#
# Compressibility (1/GPa) = 0.04099057
#
# Stress axis : x y z
#
# Youngs Moduli (GPa) = 23.93334 140.22132 90.20262
#
# Poissons Ratio (x) = 0.37704 0.26980
# Poissons Ratio (y) = 0.06435 0.34503
# Poissons Ratio (z) = 0.07158 0.53635
#
# Static dielectric constant tensor:
#      x y z
#    x 1.669470 0.000000 0.000000 
#    y 0.000000 1.685690 0.000000 
#    z 0.000000 0.000000 1.665470 
# 
# From -- ./inp_files/20063.got.cif
#   From: 2010.05.17/outbox.cif.g08.bks.cpg/sg59_11_cif.got.tgz:20063.got - 2010.06.03 14:40:33.
