data_PCOD9451988
_publ_section_title
;
Structure prediction by ZEFSAII (Michael W. Deem and Ramdas Pophale) SiO2 
 PCOD9451988
Probable space group: P M M N
;
_chemical_formula_sum "Si O2"
_cell_formula_units_Z 64
_cell_length_a 18.679494
_cell_length_b 9.038666
_cell_length_c 21.031444
_cell_angle_alpha 90.000000
_cell_angle_beta 90.000000
_cell_angle_gamma 90.000000
_cell_volume 3550.900786
_symmetry_space_group_name_H-M "P M M N"
_symmetry_group_IT_number 59
_space_group.IT_coordinate_system_code '2'
_symmetry_cell_setting 'orthorhombic'
loop_
_space_group_symop_operation_xyz
x,y,z
1/2-x,1/2-y,z
1/2+x,-y,-z
-x,1/2+y,-z
-x,-y,-z
1/2+x,1/2+y,-z
1/2-x,y,z
x,1/2-y,z
loop_
_atom_site_type_symbol
_atom_site_label
_atom_site_fract_x
_atom_site_fract_y
_atom_site_fract_z
Si Si1 0.163839 0.422845 0.274520
Si Si2 0.664723 0.077678 0.075479
Si Si3 0.336137 0.574431 0.544051
Si Si4 0.925489 0.075608 0.834874
Si Si5 0.571808 0.926743 0.971373
Si Si6 0.166160 0.427533 0.673342
Si Si7 0.162861 0.577509 0.404198
Si Si8 0.408078 0.074483 0.804344
O O1 0.250000 0.438428 0.271060
O O2 0.146282 0.250000 0.268056
O O3 0.127308 0.515316 0.218836
O O4 0.140144 0.483381 0.343533
O O5 0.750000 0.067015 0.079897
O O6 0.644872 0.250000 0.066467
O O7 0.629518 0.015588 0.139624
O O8 0.634909 0.982452 0.017091
O O9 0.250000 0.551624 0.543992
O O10 0.348520 0.750000 0.548391
O O11 0.362465 0.495035 0.607501
O O12 0.362046 0.525158 0.474100
O O13 0.913883 0.250000 0.846535
O O14 0.006923 0.056283 0.810677
O O15 0.917382 0.986564 0.900330
O O16 0.565721 0.750000 0.972426
O O17 0.500000 0.000000 0.000000
O O18 0.250000 0.470597 0.681682
O O19 0.163923 0.250000 0.668325
O O20 0.121942 0.471495 0.735642
O O21 0.250000 0.573792 0.405627
O O22 0.142730 0.750000 0.396065
O O23 0.392024 0.250000 0.812600
#
# Coordination Sequence:
#
# PCOD9451988 Si02
#       8
#     8   8   8   8   8   8   8   8
#     4  10  21  36  55  82 113 143 179 228 285 339
#     4  11  24  40  61  90 119 149 188 232 278 330
#     4   8  14  25  43  70 103 139 179 222 272 327
#     4  11  23  39  61  85 110 147 188 227 274 331
#     4  12  24  41  64  87 114 148 186 230 279 333
#     4   9  17  29  47  74 108 143 180 224 273 324
#     4   8  14  27  48  73 103 139 178 223 275 331
#     4  10  21  37  57  80 110 150 190 229 276 331
#
# _framework density 18.023595
#
# number of rings (size 3 to 8) (size 9 to 14) (size 15 to 20)
#    0.000    2.125    1.250    3.375    0.000    4.250 
#    0.000    3.750    0.000    0.750    0.000    0.000 
#    0.000    0.000    0.000    0.000    0.000    0.000 
#
# Total GULP energy -357138.064280 kJ/mol
# GULP energy per Si atom -5580.282254 kJ/mol
# Density = 1.798257 g / cm^3
# Si number density = 18.023595 Si / 1000 Ang^3
#
#
#
# Elastic Constant Matrix: (Units=GPa)
#
#
# Indices 1 2 3 4 5 6 
#
# 1 28.6930 38.5203 31.9101 0.0000 0.0000 0.0000
# 2 38.5203 99.1296 71.1726 0.0000 0.0000 0.0000
# 3 31.9101 71.1726 162.6973 0.0000 0.0000 0.0000
# 4 0.0000 0.0000 0.0000 39.7198 0.0000 0.0000
# 5 0.0000 0.0000 0.0000 0.0000 -127.8165 0.0000
# 6 0.0000 0.0000 0.0000 0.0000 0.0000 17.3741
#
#
#
# Elastic Compliance Matrix: (Units=1/GPa)
#
#
# Indices 1 2 3 4 5 6 
#
# 1 0.073733 -0.026634 -0.002810 0.000000 0.000000 0.000000
# 2 -0.026634 0.024328 -0.005419 0.000000 0.000000 0.000000
# 3 -0.002810 -0.005419 0.009068 0.000000 0.000000 0.000000
# 4 0.000000 0.000000 0.000000 0.025176 0.000000 0.000000
# 5 0.000000 0.000000 0.000000 0.000000 -0.007824 0.000000
# 6 0.000000 0.000000 0.000000 0.000000 0.000000 0.057557
#
#
# Mechanical properties :
#
#
# Convention : Reuss Voigt Hill
#
# Bulk Modulus (GPa) = 26.73552 63.74732 45.24142
# Shear Modulus (GPa) = 18.92277 -4.21672 7.35303
#
# Velocity S-wave (km/s) = 3.24371 -1.53122 2.02201
# Velocity P-wave (km/s) = 5.37538 5.68502 5.53237
#
# Compressibility (1/GPa) = 0.03740342
#
# Stress axis : x y z
#
# Youngs Moduli (GPa) = 13.56239 41.10532 110.27898
#
# Poissons Ratio (x) = 1.09480 0.30991
# Poissons Ratio (y) = 0.36122 0.59755
# Poissons Ratio (z) = 0.03811 0.22273
#
# Static dielectric constant tensor:
#      x y z
#    x 1.613760 0.000000 0.000000 
#    y 0.000000 1.605650 0.000000 
#    z 0.000000 0.000000 1.614430 
# 
# From -- ./inp_files/29545.got.cif
#   From: 2010.05.17/outbox.cif.g08.bks.cpg/sg59_15_cif.got.tgz:29545.got - 2010.06.03 14:40:33.
