data_PCOD9451348
_publ_section_title
;
Structure prediction by ZEFSAII (Michael W. Deem and Ramdas Pophale) SiO2 
 PCOD9451348
Probable space group: P M M N
;
_chemical_formula_sum "Si O2"
_cell_formula_units_Z 64
_cell_length_a 8.118399
_cell_length_b 23.645988
_cell_length_c 16.641151
_cell_angle_alpha 90.000000
_cell_angle_beta 90.000000
_cell_angle_gamma 90.000000
_cell_volume 3194.561242
_symmetry_space_group_name_H-M "P M M N"
_symmetry_group_IT_number 59
_space_group.IT_coordinate_system_code '2'
_symmetry_cell_setting 'orthorhombic'
loop_
_space_group_symop_operation_xyz
x,y,z
1/2-x,1/2-y,z
1/2+x,-y,-z
-x,1/2+y,-z
-x,-y,-z
1/2+x,1/2+y,-z
1/2-x,y,z
x,1/2-y,z
loop_
_atom_site_type_symbol
_atom_site_label
_atom_site_fract_x
_atom_site_fract_y
_atom_site_fract_z
Si Si1 0.550750 0.685103 0.856514
Si Si2 0.558814 0.817776 0.036312
Si Si3 0.550805 0.469003 0.385773
Si Si4 0.940382 0.491489 0.909438
Si Si5 0.947733 0.315318 0.662951
Si Si6 0.944024 0.423117 0.214919
Si Si7 0.440815 0.615365 0.183635
Si Si8 0.553523 0.910885 0.453252
O O1 0.750000 0.682921 0.854989
O O2 0.501511 0.750000 0.844933
O O3 0.476663 0.643220 0.791864
O O4 0.500017 0.666854 0.946897
O O5 0.750000 0.836380 0.045488
O O6 0.558078 0.750000 0.039846
O O7 0.453545 0.842923 0.107834
O O8 0.750000 0.469303 0.387506
O O9 0.495956 0.448868 0.298574
O O10 0.492437 0.426612 0.455505
O O11 0.493875 0.532997 0.404819
O O12 0.750000 0.476241 0.917233
O O13 0.017900 0.442266 0.852659
O O14 0.963473 0.548131 0.859036
O O15 0.000000 0.500000 0.000000
O O16 0.750000 0.311620 0.671960
O O17 0.008960 0.250000 0.660868
O O18 0.013753 0.352034 0.739178
O O19 0.984351 0.353474 0.584828
O O20 0.750000 0.434549 0.206901
O O21 0.250000 0.603534 0.204686
O O22 0.750000 0.908262 0.446447
#
# Coordination Sequence:
#
# PCOD9451348 Si02
#       8
#     8   8   8   8   8   8   8   8
#     4   9  19  36  55  75 103 139 177 219 267 314
#     4   9  18  32  50  72  99 135 177 220 267 313
#     4   9  20  38  59  84 113 143 175 218 274 331
#     4  11  23  37  54  79 113 151 190 235 285 333
#     4  10  21  37  56  79 112 151 185 224 280 340
#     4  11  22  36  56  82 110 140 177 219 267 325
#     4  10  21  35  52  76 105 142 188 230 269 321
#     4  10  20  36  60  86 109 137 178 224 268 322
#
# _framework density 20.034050000000001
#
# number of rings (size 3 to 8) (size 9 to 14) (size 15 to 20)
#    0.000    2.125    0.000    3.750    0.000    6.750 
#    0.000    1.875    0.000    0.750    0.000    0.000 
#    0.000    0.000    0.000    0.000    0.000    0.000 
#
# Total GULP energy -357141.668709 kJ/mol
# GULP energy per Si atom -5580.338574 kJ/mol
# Density = 1.998845 g / cm^3
# Si number density = 20.034050 Si / 1000 Ang^3
#
#
#
# Elastic Constant Matrix: (Units=GPa)
#
#
# Indices 1 2 3 4 5 6 
#
# 1 11.1901 3.5972 4.0363 0.0000 0.0000 0.0000
# 2 3.5972 105.6087 55.7898 0.0000 0.0000 0.0000
# 3 4.0363 55.7898 97.4250 0.0000 0.0000 0.0000
# 4 0.0000 0.0000 0.0000 29.6914 0.0000 0.0000
# 5 0.0000 0.0000 0.0000 0.0000 23.1731 0.0000
# 6 0.0000 0.0000 0.0000 0.0000 0.0000 23.8901
#
#
#
# Elastic Compliance Matrix: (Units=1/GPa)
#
#
# Indices 1 2 3 4 5 6 
#
# 1 0.090906 -0.001587 -0.002857 0.000000 0.000000 0.000000
# 2 -0.001587 0.013603 -0.007724 0.000000 0.000000 0.000000
# 3 -0.002857 -0.007724 0.014806 0.000000 0.000000 0.000000
# 4 0.000000 0.000000 0.000000 0.033680 0.000000 0.000000
# 5 0.000000 0.000000 0.000000 0.000000 0.043153 0.000000
# 6 0.000000 0.000000 0.000000 0.000000 0.000000 0.041858
#
#
# Mechanical properties :
#
#
# Convention : Reuss Voigt Hill
#
# Bulk Modulus (GPa) = 10.52877 37.89673 24.21275
# Shear Modulus (GPa) = 17.00663 25.40428 21.20545
#
# Velocity S-wave (km/s) = 2.91673 3.56484 3.25694
# Velocity P-wave (km/s) = 4.07552 5.99177 5.12402
#
# Compressibility (1/GPa) = 0.09497790
#
# Stress axis : x y z
#
# Youngs Moduli (GPa) = 11.00041 73.51106 67.54078
#
# Poissons Ratio (x) = 0.11666 0.19300
# Poissons Ratio (y) = 0.01746 0.52170
# Poissons Ratio (z) = 0.03143 0.56781
#
# Static dielectric constant tensor:
#      x y z
#    x 1.688530 0.000000 0.000000 
#    y 0.000000 1.756220 0.000000 
#    z 0.000000 0.000000 1.693710 
# 
# From -- ./inp_files/21476.got.cif
#   From: 2010.05.17/outbox.cif.g08.bks.cpg/sg59_11_cif.got.tgz:21476.got - 2010.06.03 14:40:33.
