data_PCOD9451662
_publ_section_title
;
Structure prediction by ZEFSAII (Michael W. Deem and Ramdas Pophale) SiO2 
 PCOD9451662
Probable space group: P M M N
;
_chemical_formula_sum "Si O2"
_cell_formula_units_Z 48
_cell_length_a 9.938285
_cell_length_b 20.168103
_cell_length_c 13.443647
_cell_angle_alpha 90.000000
_cell_angle_beta 90.000000
_cell_angle_gamma 90.000000
_cell_volume 2694.595610
_symmetry_space_group_name_H-M "P M M N"
_symmetry_group_IT_number 59
_space_group.IT_coordinate_system_code '2'
_symmetry_cell_setting 'orthorhombic'
loop_
_space_group_symop_operation_xyz
x,y,z
1/2-x,1/2-y,z
1/2+x,-y,-z
-x,1/2+y,-z
-x,-y,-z
1/2+x,1/2+y,-z
1/2-x,y,z
x,1/2-y,z
loop_
_atom_site_type_symbol
_atom_site_label
_atom_site_fract_x
_atom_site_fract_y
_atom_site_fract_z
Si Si1 0.408104 0.066668 0.505458
Si Si2 0.750000 0.031242 0.805457
Si Si3 0.250000 0.586874 0.975650
Si Si4 0.959206 0.326679 0.140908
Si Si5 0.899978 0.104142 0.343796
Si Si6 0.250000 0.117511 0.105459
Si Si7 0.459137 0.046768 0.721356
Si Si8 0.250000 0.438584 0.887712
O O1 0.250000 0.055859 0.482529
O O2 0.482340 0.112452 0.424827
O O3 0.421143 0.085935 0.621143
O O4 0.500000 0.000000 0.500000
O O5 0.616645 0.045653 0.743156
O O6 0.750000 0.954061 0.839479
O O7 0.750000 0.073624 0.907061
O O8 0.378507 0.627134 0.936138
O O9 0.250000 0.514903 0.923943
O O10 0.932696 0.250000 0.120934
O O11 0.115967 0.343815 0.133844
O O12 0.912488 0.346620 0.251478
O O13 0.750000 0.108507 0.388338
O O14 0.914937 0.029746 0.298321
O O15 0.250000 0.103941 0.987351
O O16 0.378752 0.071496 0.817354
#
# Coordination Sequence:
#
# PCOD9451662 Si02
#       8
#     8   4   4   8   8   4   8   4
#     4  10  21  31  51  77 114 147 176 218 270 330
#     4  11  22  30  58  82 116 149 182 233 281 345
#     4  11  21  38  53  83 108 153 191 227 280 329
#     4  12  23  38  57  79 114 150 188 236 279 336
#     4  11  21  35  52  78 111 149 187 224 276 340
#     4  11  23  36  53  85 114 149 189 231 284 339
#     4  11  18  33  51  82 113 148 176 219 285 339
#     4  11  18  36  58  76 118 149 182 229 285 349
#
# _framework density 17.813433
#
# number of rings (size 3 to 8) (size 9 to 14) (size 15 to 20)
#    0.000    1.000    5.833    3.000    7.000    2.667 
#    0.000    0.000    0.000    0.000    0.000    7.000 
#    0.000    0.000    0.000    0.000    0.000    0.000 
#
# Total GULP energy -268005.357215 kJ/mol
# GULP energy per Si atom -5583.444942 kJ/mol
# Density = 1.777289 g / cm^3
# Si number density = 17.813433 Si / 1000 Ang^3
#
#
#
# Elastic Constant Matrix: (Units=GPa)
#
#
# Indices 1 2 3 4 5 6 
#
# 1 162.7748 5.4832 35.0287 0.0000 0.0000 0.0000
# 2 5.4832 36.9751 15.2279 0.0000 0.0000 0.0000
# 3 35.0287 15.2279 74.2949 0.0000 0.0000 0.0000
# 4 0.0000 0.0000 0.0000 12.8621 0.0000 0.0000
# 5 0.0000 0.0000 0.0000 0.0000 116.3310 0.0000
# 6 0.0000 0.0000 0.0000 0.0000 0.0000 1.7273
#
#
#
# Elastic Compliance Matrix: (Units=1/GPa)
#
#
# Indices 1 2 3 4 5 6 
#
# 1 0.006841 0.000343 -0.003296 0.000000 0.000000 0.000000
# 2 0.000343 0.029556 -0.006220 0.000000 0.000000 0.000000
# 3 -0.003296 -0.006220 0.016289 0.000000 0.000000 0.000000
# 4 0.000000 0.000000 0.000000 0.077748 0.000000 0.000000
# 5 0.000000 0.000000 0.000000 0.000000 0.008596 0.000000
# 6 0.000000 0.000000 0.000000 0.000000 0.000000 0.578950
#
#
# Mechanical properties :
#
#
# Convention : Reuss Voigt Hill
#
# Bulk Modulus (GPa) = 29.12005 42.83603 35.97804
# Shear Modulus (GPa) = 6.68653 40.73773 23.71213
#
# Velocity S-wave (km/s) = 1.93953 4.78735 3.65243
# Velocity P-wave (km/s) = 4.62585 7.39308 6.16669
#
# Compressibility (1/GPa) = 0.03434060
#
# Stress axis : x y z
#
# Youngs Moduli (GPa) = 146.17438 33.83419 61.39280
#
# Poissons Ratio (x) = -0.01160 0.20233
# Poissons Ratio (y) = -0.05011 0.38184
# Poissons Ratio (z) = 0.48175 0.21043
#
# Static dielectric constant tensor:
#      x y z
#    x 1.635970 0.000000 0.000000 
#    y 0.000000 1.582820 0.000000 
#    z 0.000000 0.000000 1.643350 
# 
# From -- ./inp_files/20627.got.cif
#   From: 2010.05.17/outbox.cif.g08.bks.cpg/sg59_11_cif.got.tgz:20627.got - 2010.06.03 14:40:33.
