data_PCOD9451623
_publ_section_title
;
Structure prediction by ZEFSAII (Michael W. Deem and Ramdas Pophale) SiO2 
 PCOD9451623
Probable space group: P M M N
;
_chemical_formula_sum "Si O2"
_cell_formula_units_Z 64
_cell_length_a 14.382101
_cell_length_b 19.124884
_cell_length_c 12.209868
_cell_angle_alpha 90.000000
_cell_angle_beta 90.000000
_cell_angle_gamma 90.000000
_cell_volume 3358.397615
_symmetry_space_group_name_H-M "P M M N"
_symmetry_group_IT_number 59
_space_group.IT_coordinate_system_code '2'
_symmetry_cell_setting 'orthorhombic'
loop_
_space_group_symop_operation_xyz
x,y,z
1/2-x,1/2-y,z
1/2+x,-y,-z
-x,1/2+y,-z
-x,-y,-z
1/2+x,1/2+y,-z
1/2-x,y,z
x,1/2-y,z
loop_
_atom_site_type_symbol
_atom_site_label
_atom_site_fract_x
_atom_site_fract_y
_atom_site_fract_z
Si Si1 0.358501 0.627765 0.634571
Si Si2 0.860317 0.947771 0.678881
Si Si3 0.984429 0.423982 0.740451
Si Si4 0.355559 0.669274 0.402702
Si Si5 0.643132 0.963456 0.421270
Si Si6 0.860879 0.167917 0.124429
Si Si7 0.005651 0.416035 0.990351
Si Si8 0.360604 0.168544 0.150972
O O1 0.250000 0.650834 0.639133
O O2 0.398265 0.661237 0.524349
O O3 0.361729 0.545222 0.611845
O O4 0.396239 0.648341 0.753101
O O5 0.750000 0.965844 0.692656
O O6 0.881093 0.953317 0.549269
O O7 0.873860 0.872026 0.733608
O O8 0.929486 0.001882 0.738175
O O9 0.911970 0.371261 0.687198
O O10 0.071713 0.426956 0.659302
O O11 0.013964 0.402913 0.861387
O O12 0.250000 0.640238 0.408205
O O13 0.351087 0.750000 0.375684
O O14 0.750000 0.940716 0.407119
O O15 0.750000 0.155967 0.120674
O O16 0.877715 0.250000 0.104471
O O17 0.912470 0.118956 0.038516
O O18 0.085828 0.377776 0.060605
O O19 0.000000 0.500000 0.000000
O O20 0.250000 0.167472 0.128711
O O21 0.390655 0.250000 0.152560
#
# Coordination Sequence:
#
# PCOD9451623 Si02
#       8
#     8   8   8   8   8   8   8   8
#     4   9  17  33  58  87 120 157 197 241 296 365
#     4  10  20  38  64  94 123 155 200 257 313 367
#     4  12  23  37  61  86 124 158 204 242 305 365
#     4  10  21  36  56  87 124 160 196 239 299 370
#     4  10  21  37  61  92 125 158 197 249 306 369
#     4  10  22  39  60  88 123 163 206 257 313 367
#     4  12  25  40  59  88 121 160 208 259 306 367
#     4  10  23  44  68  90 118 163 217 270 318 362
#
# _framework density 19.056708
#
# number of rings (size 3 to 8) (size 9 to 14) (size 15 to 20)
#    0.000    1.625    2.500    2.250    0.000    4.500 
#    0.000    3.125    0.000    1.125    0.000    0.000 
#    0.000    0.000    0.000    0.000    0.000    0.000 
#
# Total GULP energy -357359.560539 kJ/mol
# GULP energy per Si atom -5583.743133 kJ/mol
# Density = 1.901333 g / cm^3
# Si number density = 19.056708 Si / 1000 Ang^3
#
#
#
# Elastic Constant Matrix: (Units=GPa)
#
#
# Indices 1 2 3 4 5 6 
#
# 1 65.7000 31.9070 30.3577 0.0000 0.0000 0.0000
# 2 31.9070 89.4632 52.0899 0.0000 0.0000 0.0000
# 3 30.3577 52.0899 107.1340 0.0000 0.0000 0.0000
# 4 0.0000 0.0000 0.0000 22.3272 0.0000 0.0000
# 5 0.0000 0.0000 0.0000 0.0000 28.0180 0.0000
# 6 0.0000 0.0000 0.0000 0.0000 0.0000 23.8404
#
#
#
# Elastic Compliance Matrix: (Units=1/GPa)
#
#
# Indices 1 2 3 4 5 6 
#
# 1 0.019043 -0.005091 -0.002921 0.000000 0.000000 0.000000
# 2 -0.005091 0.016953 -0.006800 0.000000 0.000000 0.000000
# 3 -0.002921 -0.006800 0.013468 0.000000 0.000000 0.000000
# 4 0.000000 0.000000 0.000000 0.044789 0.000000 0.000000
# 5 0.000000 0.000000 0.000000 0.000000 0.035691 0.000000
# 6 0.000000 0.000000 0.000000 0.000000 0.000000 0.041946
#
#
# Mechanical properties :
#
#
# Convention : Reuss Voigt Hill
#
# Bulk Modulus (GPa) = 50.40324 54.55627 52.47976
# Shear Modulus (GPa) = 24.02394 24.69996 24.36195
#
# Velocity S-wave (km/s) = 3.55442 3.60409 3.57934
# Velocity P-wave (km/s) = 6.58420 6.78305 6.68437
#
# Compressibility (1/GPa) = 0.01983999
#
# Stress axis : x y z
#
# Youngs Moduli (GPa) = 52.51369 58.98720 74.25021
#
# Poissons Ratio (x) = 0.30031 0.21686
# Poissons Ratio (y) = 0.26735 0.50491
# Poissons Ratio (z) = 0.15337 0.40112
#
# Static dielectric constant tensor:
#      x y z
#    x 1.700530 0.000000 0.000000 
#    y 0.000000 1.669190 0.000000 
#    z 0.000000 0.000000 1.652460 
# 
# From -- ./inp_files/17227.got.cif
#   From: 2010.05.17/outbox.cif.g08.bks.cpg/sg59_9_cif.got.tgz:17227.got - 2010.06.03 14:40:33.
