data_PCOD9451394
_publ_section_title
;
Structure prediction by ZEFSAII (Michael W. Deem and Ramdas Pophale) SiO2 
 PCOD9451394
Probable space group: P M M N
;
_chemical_formula_sum "Si O2"
_cell_formula_units_Z 64
_cell_length_a 8.859917
_cell_length_b 23.230219
_cell_length_c 16.883420
_cell_angle_alpha 90.000000
_cell_angle_beta 90.000000
_cell_angle_gamma 90.000000
_cell_volume 3474.908567
_symmetry_space_group_name_H-M "P M M N"
_symmetry_group_IT_number 59
_space_group.IT_coordinate_system_code '2'
_symmetry_cell_setting 'orthorhombic'
loop_
_space_group_symop_operation_xyz
x,y,z
1/2-x,1/2-y,z
1/2+x,-y,-z
-x,1/2+y,-z
-x,-y,-z
1/2+x,1/2+y,-z
1/2-x,y,z
x,1/2-y,z
loop_
_atom_site_type_symbol
_atom_site_label
_atom_site_fract_x
_atom_site_fract_y
_atom_site_fract_z
Si Si1 0.068028 0.082677 0.710435
Si Si2 0.931447 0.181963 0.607719
Si Si3 0.071048 0.181952 0.142362
Si Si4 0.572485 0.636286 0.556417
Si Si5 0.082209 0.683088 0.698417
Si Si6 0.069022 0.516731 0.584212
Si Si7 0.070149 0.914365 0.957300
Si Si8 0.431700 0.464412 0.883850
O O1 0.250000 0.089769 0.708129
O O2 0.025615 0.061557 0.798513
O O3 0.993202 0.141323 0.678183
O O4 0.029302 0.031182 0.649191
O O5 0.750000 0.178845 0.605214
O O6 0.973546 0.250000 0.613835
O O7 0.996789 0.154863 0.526219
O O8 0.250000 0.176055 0.151733
O O9 0.039433 0.250000 0.130408
O O10 0.990029 0.158717 0.221869
O O11 0.010575 0.143039 0.071735
O O12 0.750000 0.629646 0.543578
O O13 0.528151 0.680935 0.623908
O O14 0.502432 0.579049 0.595725
O O15 0.250000 0.659191 0.680878
O O16 0.100353 0.750000 0.716294
O O17 0.250000 0.520031 0.579911
O O18 0.000000 0.500000 0.500000
O O19 0.250000 0.906962 0.957293
O O20 0.033715 0.967950 0.898201
O O21 0.012613 0.932268 0.043938
O O22 0.250000 0.458569 0.891895
#
# Coordination Sequence:
#
# PCOD9451394 Si02
#       8
#     8   8   8   8   8   8   8   8
#     4  10  22  40  62  87 116 152 193 238 292 351
#     4  11  24  41  61  84 113 152 197 248 300 346
#     4  10  21  37  57  84 119 156 194 238 289 350
#     4  12  24  37  56  84 115 154 198 239 286 343
#     4  10  21  37  56  80 113 152 194 240 287 338
#     4  11  22  37  58  85 117 152 189 235 288 341
#     4  10  20  36  61  90 118 152 192 236 289 348
#     4   9  20  39  61  87 118 151 189 238 292 349
#
# _framework density 18.417750999999999
#
# number of rings (size 3 to 8) (size 9 to 14) (size 15 to 20)
#    0.000    1.625    1.250    3.375    1.750    5.500 
#    0.000    0.625    0.000    0.750    0.000    0.000 
#    0.000    0.000    0.000    0.000    0.000    0.000 
#
# Total GULP energy -357096.250209 kJ/mol
# GULP energy per Si atom -5579.628910 kJ/mol
# Density = 1.837583 g / cm^3
# Si number density = 18.417751 Si / 1000 Ang^3
#
#
#
# Elastic Constant Matrix: (Units=GPa)
#
#
# Indices 1 2 3 4 5 6 
#
# 1 57.6521 44.5210 29.9801 0.0000 0.0000 0.0000
# 2 44.5210 95.8522 48.6145 0.0000 0.0000 0.0000
# 3 29.9801 48.6145 94.4734 0.0000 0.0000 0.0000
# 4 0.0000 0.0000 0.0000 25.6631 0.0000 0.0000
# 5 0.0000 0.0000 0.0000 0.0000 30.4606 0.0000
# 6 0.0000 0.0000 0.0000 0.0000 0.0000 29.6336
#
#
#
# Elastic Compliance Matrix: (Units=1/GPa)
#
#
# Indices 1 2 3 4 5 6 
#
# 1 0.027633 -0.011349 -0.002929 0.000000 0.000000 0.000000
# 2 -0.011349 0.018778 -0.006062 0.000000 0.000000 0.000000
# 3 -0.002929 -0.006062 0.014634 0.000000 0.000000 0.000000
# 4 0.000000 0.000000 0.000000 0.038966 0.000000 0.000000
# 5 0.000000 0.000000 0.000000 0.000000 0.032829 0.000000
# 6 0.000000 0.000000 0.000000 0.000000 0.000000 0.033746
#
#
# Mechanical properties :
#
#
# Convention : Reuss Voigt Hill
#
# Bulk Modulus (GPa) = 49.10242 54.91209 52.00725
# Shear Modulus (GPa) = 23.35860 25.47559 24.41710
#
# Velocity S-wave (km/s) = 3.56514 3.72319 3.64502
# Velocity P-wave (km/s) = 6.60796 6.95430 6.78334
#
# Compressibility (1/GPa) = 0.02036559
#
# Stress axis : x y z
#
# Youngs Moduli (GPa) = 36.18890 53.25240 68.33600
#
# Poissons Ratio (x) = 0.60438 0.20014
# Poissons Ratio (y) = 0.41072 0.41422
# Poissons Ratio (z) = 0.10599 0.32279
#
# Static dielectric constant tensor:
#      x y z
#    x 1.599710 0.000000 0.000000 
#    y 0.000000 0.590100 0.000000 
#    z 0.000000 0.000000 1.579420 
# 
# From -- ./inp_files/21629.got.cif
#   From: 2010.05.17/outbox.cif.g08.bks.cpg/sg59_11_cif.got.tgz:21629.got - 2010.06.03 14:40:33.
