data_PCOD9451963
_publ_section_title
;
Structure prediction by ZEFSAII (Michael W. Deem and Ramdas Pophale) SiO2 
 PCOD9451963
Probable space group: P M M N
;
_chemical_formula_sum "Si O2"
_cell_formula_units_Z 56
_cell_length_a 7.881480
_cell_length_b 14.777736
_cell_length_c 22.496798
_cell_angle_alpha 90.000000
_cell_angle_beta 90.000000
_cell_angle_gamma 90.000000
_cell_volume 2620.211753
_symmetry_space_group_name_H-M "P M M N"
_symmetry_group_IT_number 59
_space_group.IT_coordinate_system_code '2'
_symmetry_cell_setting 'orthorhombic'
loop_
_space_group_symop_operation_xyz
x,y,z
1/2-x,1/2-y,z
1/2+x,-y,-z
-x,1/2+y,-z
-x,-y,-z
1/2+x,1/2+y,-z
1/2-x,y,z
x,1/2-y,z
loop_
_atom_site_type_symbol
_atom_site_label
_atom_site_fract_x
_atom_site_fract_y
_atom_site_fract_z
Si Si1 0.045807 0.013618 0.068251
Si Si2 0.452508 0.044723 0.413860
Si Si3 0.952132 0.348174 0.852330
Si Si4 0.046507 0.148628 0.167236
Si Si5 0.946372 0.653129 0.281696
Si Si6 0.048783 0.543854 0.713127
Si Si7 0.954199 0.854109 0.467153
O O1 0.250000 0.015679 0.070513
O O2 0.983187 0.098299 0.107630
O O3 0.987548 0.926673 0.105356
O O4 0.000000 0.000000 0.000000
O O5 0.250000 0.046740 0.415140
O O6 0.513064 0.085489 0.351204
O O7 0.515038 0.106000 0.469135
O O8 0.505340 0.939137 0.423765
O O9 0.750000 0.360395 0.839506
O O10 0.971815 0.250000 0.881133
O O11 0.047447 0.347042 0.789969
O O12 0.250000 0.153700 0.161832
O O13 0.977781 0.250000 0.172665
O O14 0.013820 0.092983 0.227708
O O15 0.750000 0.652821 0.302279
O O16 0.021634 0.750000 0.301283
O O17 0.028907 0.556906 0.294420
O O18 0.250000 0.534386 0.720794
O O19 0.750000 0.848728 0.468379
O O20 0.014193 0.750000 0.455496
#
# Coordination Sequence:
#
# PCOD9451963 Si02
#       7
#     8   8   8   8   8   8   8
#     4  10  21  36  55  80 109 142 183 229 283 342
#     4  10  21  36  57  87 119 153 196 240 288 345
#     4   9  17  31  52  76 101 130 168 217 271 325
#     4  10  22  41  61  81 111 152 195 239 287 339
#     4   9  18  32  51  76 105 138 175 217 270 331
#     4  11  22  36  57  85 118 153 191 236 287 341
#     4   9  19  38  61  83 113 154 197 243 293 341
#
# _framework density 21.372319999999998
#
# number of rings (size 3 to 8) (size 9 to 14) (size 15 to 20)
#    0.000    2.286    1.429    0.857    0.000    4.571 
#    0.000    2.857    0.000    0.000    0.000    0.000 
#    0.000    0.000    0.000    0.000    0.000    0.000 
#
# Total GULP energy -312178.698055 kJ/mol
# GULP energy per Si atom -5574.619608 kJ/mol
# Density = 2.132368 g / cm^3
# Si number density = 21.372320 Si / 1000 Ang^3
#
#
#
# Elastic Constant Matrix: (Units=GPa)
#
#
# Indices 1 2 3 4 5 6 
#
# 1 27.4304 13.0143 -4.3112 0.0000 0.0000 0.0000
# 2 13.0143 117.5748 55.1316 0.0000 0.0000 0.0000
# 3 -4.3112 55.1316 138.2760 0.0000 0.0000 0.0000
# 4 0.0000 0.0000 0.0000 2.7786 0.0000 0.0000
# 5 0.0000 0.0000 0.0000 0.0000 23.5705 0.0000
# 6 0.0000 0.0000 0.0000 0.0000 0.0000 18.0218
#
#
#
# Elastic Compliance Matrix: (Units=1/GPa)
#
#
# Indices 1 2 3 4 5 6 
#
# 1 0.039960 -0.006159 0.003701 0.000000 0.000000 0.000000
# 2 -0.006159 0.011410 -0.004741 0.000000 0.000000 0.000000
# 3 0.003701 -0.004741 0.009238 0.000000 0.000000 0.000000
# 4 0.000000 0.000000 0.000000 0.359897 0.000000 0.000000
# 5 0.000000 0.000000 0.000000 0.000000 0.042426 0.000000
# 6 0.000000 0.000000 0.000000 0.000000 0.000000 0.055488
#
#
# Mechanical properties :
#
#
# Convention : Reuss Voigt Hill
#
# Bulk Modulus (GPa) = 21.64025 45.66117 33.65071
# Shear Modulus (GPa) = 9.12043 23.50393 16.31218
#
# Velocity S-wave (km/s) = 2.06801 3.31983 2.76567
# Velocity P-wave (km/s) = 3.98115 6.00883 5.09684
#
# Compressibility (1/GPa) = 0.04621019
#
# Stress axis : x y z
#
# Youngs Moduli (GPa) = 25.02528 87.64112 108.25180
#
# Poissons Ratio (x) = 0.53976 -0.40068
# Poissons Ratio (y) = 0.15412 0.51326
# Poissons Ratio (z) = -0.09263 0.41554
#
# Static dielectric constant tensor:
#      x y z
#    x 1.772900 0.000000 0.000000 
#    y 0.000000 1.831550 0.000000 
#    z 0.000000 0.000000 1.762280 
# 
# From -- ./inp_files/29056.got.cif
#   From: 2010.05.17/outbox.cif.g08.bks.cpg/sg59_15_cif.got.tgz:29056.got - 2010.06.03 14:40:33.
