data_PCOD9451260
_publ_section_title
;
Structure prediction by ZEFSAII (Michael W. Deem and Ramdas Pophale) SiO2 
 PCOD9451260
Probable space group: P M M N
;
_chemical_formula_sum "Si O2"
_cell_formula_units_Z 48
_cell_length_a 8.363028
_cell_length_b 10.077900
_cell_length_c 29.306222
_cell_angle_alpha 90.000000
_cell_angle_beta 90.000000
_cell_angle_gamma 90.000000
_cell_volume 2469.979966
_symmetry_space_group_name_H-M "P M M N"
_symmetry_group_IT_number 59
_space_group.IT_coordinate_system_code '2'
_symmetry_cell_setting 'orthorhombic'
loop_
_space_group_symop_operation_xyz
x,y,z
1/2-x,1/2-y,z
1/2+x,-y,-z
-x,1/2+y,-z
-x,-y,-z
1/2+x,1/2+y,-z
1/2-x,y,z
x,1/2-y,z
loop_
_atom_site_type_symbol
_atom_site_label
_atom_site_fract_x
_atom_site_fract_y
_atom_site_fract_z
Si Si1 0.941356 0.098078 0.960948
Si Si2 0.442364 0.250000 0.532049
Si Si3 0.440713 0.896835 0.294529
Si Si4 0.557346 0.097860 0.219912
Si Si5 0.557889 0.250000 0.428738
Si Si6 0.057049 0.098286 0.859553
Si Si7 0.943902 0.967380 0.394448
O O1 0.750000 0.095861 0.959573
O O2 0.993816 0.250000 0.970301
O O3 0.005700 0.062631 0.910781
O O4 0.000000 0.000000 0.000000
O O5 0.250000 0.250000 0.528048
O O6 0.512707 0.250000 0.481786
O O7 0.489704 0.376635 0.562483
O O8 0.250000 0.900636 0.289973
O O9 0.497779 0.750000 0.279095
O O10 0.513140 0.015208 0.264876
O O11 0.486990 0.914130 0.347312
O O12 0.750000 0.103540 0.217148
O O13 0.498321 0.250000 0.219965
O O14 0.499040 0.008680 0.177304
O O15 0.750000 0.250000 0.426006
O O16 0.501208 0.383409 0.404341
O O17 0.250000 0.100018 0.857732
O O18 0.001130 0.250000 0.850133
O O19 0.750000 0.963364 0.391116
#
# Coordination Sequence:
#
# PCOD9451260 Si02
#       7
#     8   4   8   8   4   8   8
#     4  10  21  36  56  84 118 157 199 244 292 341
#     4  10  20  36  58  82 110 148 188 226 271 328
#     4  11  24  40  59  84 113 148 190 237 286 335
#     4  10  22  39  61  88 117 150 187 232 287 346
#     4  10  22  36  56  84 114 146 180 226 279 330
#     4   9  18  35  58  83 114 154 198 239 283 340
#     4  10  21  38  58  82 112 147 187 228 275 334
#
# _framework density 19.433357999999998
#
# number of rings (size 3 to 8) (size 9 to 14) (size 15 to 20)
#    0.000    2.000    0.833    2.000    1.167    5.667 
#    0.000    3.333    0.000    0.000    0.000    0.000 
#    0.000    0.000    0.000    0.000    0.000    0.000 
#
# Total GULP energy -268085.437273 kJ/mol
# GULP energy per Si atom -5585.113277 kJ/mol
# Density = 1.938913 g / cm^3
# Si number density = 19.433358 Si / 1000 Ang^3
#
#
#
# Elastic Constant Matrix: (Units=GPa)
#
#
# Indices 1 2 3 4 5 6 
#
# 1 3.8901 14.4399 0.8532 0.0000 0.0000 0.0000
# 2 14.4399 143.5077 57.6423 0.0000 0.0000 0.0000
# 3 0.8532 57.6423 93.4770 0.0000 0.0000 0.0000
# 4 0.0000 0.0000 0.0000 36.5270 0.0000 0.0000
# 5 0.0000 0.0000 0.0000 0.0000 32.7347 0.0000
# 6 0.0000 0.0000 0.0000 0.0000 0.0000 13.7901
#
#
#
# Elastic Compliance Matrix: (Units=1/GPa)
#
#
# Indices 1 2 3 4 5 6 
#
# 1 0.478652 -0.061686 0.033670 0.000000 0.000000 0.000000
# 2 -0.061686 0.017212 -0.010051 0.000000 0.000000 0.000000
# 3 0.033670 -0.010051 0.016588 0.000000 0.000000 0.000000
# 4 0.000000 0.000000 0.000000 0.027377 0.000000 0.000000
# 5 0.000000 0.000000 0.000000 0.000000 0.030549 0.000000
# 6 0.000000 0.000000 0.000000 0.000000 0.000000 0.072516
#
#
# Mechanical properties :
#
#
# Convention : Reuss Voigt Hill
#
# Bulk Modulus (GPa) = 2.29191 42.97173 22.63182
# Shear Modulus (GPa) = 5.78390 27.80632 16.79511
#
# Velocity S-wave (km/s) = 1.72706 3.78677 2.94299
# Velocity P-wave (km/s) = 2.27132 6.42494 4.81865
#
# Compressibility (1/GPa) = 0.43631791
#
# Stress axis : x y z
#
# Youngs Moduli (GPa) = 2.08920 58.09794 60.28338
#
# Poissons Ratio (x) = 3.58386 -2.02973
# Poissons Ratio (y) = 0.12888 0.60590
# Poissons Ratio (z) = -0.07034 0.58393
#
# Static dielectric constant tensor:
#      x y z
#    x 1.671070 0.000000 0.000000 
#    y 0.000000 1.698900 0.000000 
#    z 0.000000 0.000000 1.632370 
# 
# From -- ./inp_files/33009.got.cif
#   From: 2010.05.17/outbox.cif.g08.bks.cpg/sg59_17_cif.got.tgz:33009.got - 2010.06.03 14:40:33.
