data_PCOD9451177
_publ_section_title
;
Structure prediction by ZEFSAII (Michael W. Deem and Ramdas Pophale) SiO2 
 PCOD9451177
Probable space group: P M M N
;
_chemical_formula_sum "Si O2"
_cell_formula_units_Z 64
_cell_length_a 8.641809
_cell_length_b 20.649777
_cell_length_c 20.569197
_cell_angle_alpha 90.000000
_cell_angle_beta 90.000000
_cell_angle_gamma 90.000000
_cell_volume 3670.602592
_symmetry_space_group_name_H-M "P M M N"
_symmetry_group_IT_number 59
_space_group.IT_coordinate_system_code '2'
_symmetry_cell_setting 'orthorhombic'
loop_
_space_group_symop_operation_xyz
x,y,z
1/2-x,1/2-y,z
1/2+x,-y,-z
-x,1/2+y,-z
-x,-y,-z
1/2+x,1/2+y,-z
1/2-x,y,z
x,1/2-y,z
loop_
_atom_site_type_symbol
_atom_site_label
_atom_site_fract_x
_atom_site_fract_y
_atom_site_fract_z
Si Si1 0.934138 0.600617 0.192018
Si Si2 0.435649 0.458687 0.165170
Si Si3 0.562483 0.081346 0.667922
Si Si4 0.563337 0.175986 0.405003
Si Si5 0.061589 0.676114 0.446396
Si Si6 0.936160 0.566510 0.689029
Si Si7 0.563563 0.323603 0.925784
Si Si8 0.564483 0.067238 0.028478
O O1 0.750000 0.595879 0.192745
O O2 0.005000 0.532646 0.166929
O O3 0.997359 0.609503 0.264827
O O4 0.989450 0.654986 0.142113
O O5 0.250000 0.459683 0.161263
O O6 0.481314 0.428728 0.234909
O O7 0.504107 0.425118 0.101733
O O8 0.750000 0.082938 0.671158
O O9 0.510581 0.123741 0.606494
O O10 0.516090 0.005587 0.665357
O O11 0.750000 0.174726 0.404129
O O12 0.515146 0.250000 0.389624
O O13 0.513478 0.161832 0.479457
O O14 0.502099 0.123109 0.355215
O O15 0.250000 0.675571 0.446063
O O16 0.014277 0.750000 0.430436
O O17 0.750000 0.568773 0.686297
O O18 0.750000 0.327928 0.919421
O O19 0.523066 0.250000 0.942403
O O20 0.515716 0.374378 0.981307
O O21 0.750000 0.063948 0.028905
O O22 0.500000 0.000000 0.000000
#
# Coordination Sequence:
#
# PCOD9451177 Si02
#       8
#     8   8   8   8   8   8   8   8
#     4  11  21  33  52  78 107 138 174 218 267 314
#     4  10  20  36  56  78 106 138 177 218 258 316
#     4   9  18  33  52  75 106 140 175 215 258 313
#     4   9  18  33  53  76 101 132 175 223 266 315
#     4   8  15  30  52  75  99 134 178 216 256 314
#     4   9  19  33  50  75 106 138 172 215 265 315
#     4  10  22  39  56  76 107 146 182 215 258 317
#     4  11  21  34  58  85 108 138 178 221 264 312
#
# _framework density 17.435828999999998
#
# number of rings (size 3 to 8) (size 9 to 14) (size 15 to 20)
#    0.000    2.375    1.250    3.375    0.000    4.500 
#    0.000    2.500    0.000    3.000    0.000    0.000 
#    0.000    0.000    0.000    0.000    0.000    0.000 
#
# Total GULP energy -357024.894877 kJ/mol
# GULP energy per Si atom -5578.513982 kJ/mol
# Density = 1.739614 g / cm^3
# Si number density = 17.435829 Si / 1000 Ang^3
#
#
#
# Elastic Constant Matrix: (Units=GPa)
#
#
# Indices 1 2 3 4 5 6 
#
# 1 24.8344 34.5630 33.2327 0.0000 0.0000 0.0000
# 2 34.5630 129.9277 109.3582 0.0000 0.0000 0.0000
# 3 33.2327 109.3582 151.6950 0.0000 0.0000 0.0000
# 4 0.0000 0.0000 0.0000 32.0513 0.0000 0.0000
# 5 0.0000 0.0000 0.0000 0.0000 26.2803 0.0000
# 6 0.0000 0.0000 0.0000 0.0000 0.0000 22.6843
#
#
#
# Elastic Compliance Matrix: (Units=1/GPa)
#
#
# Indices 1 2 3 4 5 6 
#
# 1 0.065136 -0.013521 -0.004522 0.000000 0.000000 0.000000
# 2 -0.013521 0.022380 -0.013172 0.000000 0.000000 0.000000
# 3 -0.004522 -0.013172 0.017079 0.000000 0.000000 0.000000
# 4 0.000000 0.000000 0.000000 0.031200 0.000000 0.000000
# 5 0.000000 0.000000 0.000000 0.000000 0.038051 0.000000
# 6 0.000000 0.000000 0.000000 0.000000 0.000000 0.044083
#
#
# Mechanical properties :
#
#
# Convention : Reuss Voigt Hill
#
# Bulk Modulus (GPa) = 23.71667 73.41832 48.56749
# Shear Modulus (GPa) = 16.98290 24.82340 20.90315
#
# Velocity S-wave (km/s) = 3.12432 3.77729 3.46621
# Velocity P-wave (km/s) = 5.16207 7.82451 6.62835
#
# Compressibility (1/GPa) = 0.04216444
#
# Stress axis : x y z
#
# Youngs Moduli (GPa) = 15.35247 44.68320 58.55308
#
# Poissons Ratio (x) = 0.60415 0.26480
# Poissons Ratio (y) = 0.20758 0.77124
# Poissons Ratio (z) = 0.06943 0.58855
#
# Static dielectric constant tensor:
#      x y z
#    x 1.592820 0.000000 0.000000 
#    y 0.000000 1.579610 0.000000 
#    z 0.000000 0.000000 1.590880 
# 
# From -- ./inp_files/29759.got.cif
#   From: 2010.05.17/outbox.cif.g08.bks.cpg/sg59_15_cif.got.tgz:29759.got - 2010.06.03 14:40:33.
