data_PCOD9451540
_publ_section_title
;
Structure prediction by ZEFSAII (Michael W. Deem and Ramdas Pophale) SiO2 
 PCOD9451540
Probable space group: P M M N
;
_chemical_formula_sum "Si O2"
_cell_formula_units_Z 40
_cell_length_a 19.150198
_cell_length_b 11.423794
_cell_length_c 10.015345
_cell_angle_alpha 90.000000
_cell_angle_beta 90.000000
_cell_angle_gamma 90.000000
_cell_volume 2191.036164
_symmetry_space_group_name_H-M "P M M N"
_symmetry_group_IT_number 59
_space_group.IT_coordinate_system_code '2'
_symmetry_cell_setting 'orthorhombic'
loop_
_space_group_symop_operation_xyz
x,y,z
1/2-x,1/2-y,z
1/2+x,-y,-z
-x,1/2+y,-z
-x,-y,-z
1/2+x,1/2+y,-z
1/2-x,y,z
x,1/2-y,z
loop_
_atom_site_type_symbol
_atom_site_label
_atom_site_fract_x
_atom_site_fract_y
_atom_site_fract_z
Si Si1 0.585518 0.977038 0.853692
Si Si2 0.329112 0.888507 0.362861
Si Si3 0.165312 0.250000 0.515720
Si Si4 0.928112 0.390382 0.130261
Si Si5 0.832206 0.505012 0.353906
Si Si6 0.166614 0.250000 0.201746
O O1 0.507194 0.929337 0.836505
O O2 0.635219 0.864517 0.867158
O O3 0.614505 0.047051 0.727027
O O4 0.587462 0.060225 0.982607
O O5 0.250000 0.928896 0.325802
O O6 0.332808 0.750000 0.344355
O O7 0.338277 0.921480 0.517161
O O8 0.250000 0.250000 0.512771
O O9 0.143855 0.367177 0.593694
O O10 0.144169 0.250000 0.359468
O O11 0.921763 0.250000 0.135220
O O12 0.876620 0.452734 0.234213
O O13 0.750000 0.512672 0.318432
O O14 0.250000 0.250000 0.197767
#
# Coordination Sequence:
#
# PCOD9451540 Si02
#       6
#     8   8   4   8   8   4
#     4  11  23  41  62  88 121 164 206 250 307 361
#     4  10  20  37  62  92 122 156 203 253 303 364
#     4   9  18  37  63  93 127 152 193 259 308 346
#     4  11  25  43  60  85 128 165 202 254 305 362
#     4  10  21  39  63  91 123 161 200 251 309 362
#     4  11  20  39  69  93 118 156 207 259 299 358
#
# _framework density 18.256204
#
# number of rings (size 3 to 8) (size 9 to 14) (size 15 to 20)
#    0.000    1.600    3.000    1.800    0.000    4.400 
#    3.600    1.000    0.000    0.000    0.000    0.000 
#    0.000    0.000    0.000    0.000    0.000    0.000 
#
# Total GULP energy -223405.615654 kJ/mol
# GULP energy per Si atom -5585.140391 kJ/mol
# Density = 1.821465 g / cm^3
# Si number density = 18.256204 Si / 1000 Ang^3
#
#
#
# Elastic Constant Matrix: (Units=GPa)
#
#
# Indices 1 2 3 4 5 6 
#
# 1 84.0561 34.4251 49.2311 0.0000 0.0000 0.0000
# 2 34.4251 90.7289 22.2261 0.0000 0.0000 0.0000
# 3 49.2311 22.2261 57.1332 0.0000 0.0000 0.0000
# 4 0.0000 0.0000 0.0000 31.8099 0.0000 0.0000
# 5 0.0000 0.0000 0.0000 0.0000 38.7614 0.0000
# 6 0.0000 0.0000 0.0000 0.0000 0.0000 27.9644
#
#
#
# Elastic Compliance Matrix: (Units=1/GPa)
#
#
# Indices 1 2 3 4 5 6 
#
# 1 0.025778 -0.004797 -0.020347 0.000000 0.000000 0.000000
# 2 -0.004797 0.013075 -0.000953 0.000000 0.000000 0.000000
# 3 -0.020347 -0.000953 0.035407 0.000000 0.000000 0.000000
# 4 0.000000 0.000000 0.000000 0.031437 0.000000 0.000000
# 5 0.000000 0.000000 0.000000 0.000000 0.025799 0.000000
# 6 0.000000 0.000000 0.000000 0.000000 0.000000 0.035760
#
#
# Mechanical properties :
#
#
# Convention : Reuss Voigt Hill
#
# Bulk Modulus (GPa) = 45.31780 49.29807 47.30794
# Shear Modulus (GPa) = 22.04534 28.10954 25.07744
#
# Velocity S-wave (km/s) = 3.47876 3.92819 3.71028
# Velocity P-wave (km/s) = 6.40412 6.90191 6.65767
#
# Compressibility (1/GPa) = 0.02206639
#
# Stress axis : x y z
#
# Youngs Moduli (GPa) = 38.79220 76.47965 28.24325
#
# Poissons Ratio (x) = 0.36684 0.57467
# Poissons Ratio (y) = 0.18607 0.02693
# Poissons Ratio (z) = 0.78931 0.07292
#
# Static dielectric constant tensor:
#      x y z
#    x 1.615050 0.000000 0.000000 
#    y 0.000000 1.629380 0.000000 
#    z 0.000000 0.000000 1.594920 
# 
# From -- ./inp_files/11170.got.cif
#   From: 2010.05.17/outbox.cif.g08.bks.cpg/sg59_6_cif.got.tgz:11170.got - 2010.06.03 14:40:33.
