data_PCOD9451769
_publ_section_title
;
Structure prediction by ZEFSAII (Michael W. Deem and Ramdas Pophale) SiO2 
 PCOD9451769
Probable space group: P M M N
;
_chemical_formula_sum "Si O2"
_cell_formula_units_Z 48
_cell_length_a 13.840816
_cell_length_b 9.421571
_cell_length_c 19.139743
_cell_angle_alpha 90.000000
_cell_angle_beta 90.000000
_cell_angle_gamma 90.000000
_cell_volume 2495.865181
_symmetry_space_group_name_H-M "P M M N"
_symmetry_group_IT_number 59
_space_group.IT_coordinate_system_code '2'
_symmetry_cell_setting 'orthorhombic'
loop_
_space_group_symop_operation_xyz
x,y,z
1/2-x,1/2-y,z
1/2+x,-y,-z
-x,1/2+y,-z
-x,-y,-z
1/2+x,1/2+y,-z
1/2-x,y,z
x,1/2-y,z
loop_
_atom_site_type_symbol
_atom_site_label
_atom_site_fract_x
_atom_site_fract_y
_atom_site_fract_z
Si Si1 0.461976 0.580300 0.895381
Si Si2 0.366320 0.411852 0.609941
Si Si3 0.946665 0.416789 0.260236
Si Si4 0.861097 0.915358 0.663915
Si Si5 0.632247 0.412346 0.525270
Si Si6 0.639693 0.080202 0.959976
O O1 0.479069 0.750000 0.893522
O O2 0.424483 0.539265 0.818844
O O3 0.561104 0.500877 0.913866
O O4 0.388918 0.551466 0.959107
O O5 0.250000 0.408648 0.606696
O O6 0.401257 0.250000 0.610418
O O7 0.395991 0.493277 0.679868
O O8 0.400192 0.495608 0.541000
O O9 0.922149 0.250000 0.269010
O O10 0.061583 0.431791 0.274698
O O11 0.750000 0.945818 0.683711
O O12 0.865096 0.750000 0.640999
O O13 0.890069 0.013916 0.598988
O O14 0.750000 0.410290 0.522693
O O15 0.599096 0.250000 0.520452
O O16 0.750000 0.038375 0.946225
O O17 0.630963 0.250000 0.949562
#
# Coordination Sequence:
#
# PCOD9451769 Si02
#       6
#     8   8   8   8   8   8
#     4   9  19  35  54  79 109 137 171 214 254 301
#     4  10  21  36  53  74 102 137 175 216 263 310
#     4  10  21  35  53  78 106 138 173 210 256 307
#     4   9  18  33  51  72 101 135 171 214 263 311
#     4   9  17  31  52  75  98 129 174 223 263 304
#     4   9  18  34  56  80 106 138 173 209 254 305
#
# _framework density 19.231807
#
# number of rings (size 3 to 8) (size 9 to 14) (size 15 to 20)
#    0.000    2.667    0.000    1.000    0.000    6.667 
#    0.000    3.333    0.000    2.000    0.000    0.000 
#    0.000    0.000    0.000    0.000    0.000    0.000 
#
# Total GULP energy -267954.798981 kJ/mol
# GULP energy per Si atom -5582.391645 kJ/mol
# Density = 1.918803 g / cm^3
# Si number density = 19.231807 Si / 1000 Ang^3
#
#
#
# Elastic Constant Matrix: (Units=GPa)
#
#
# Indices 1 2 3 4 5 6 
#
# 1 36.8103 -0.2298 -20.0715 0.0000 0.0000 0.0000
# 2 -0.2298 47.4077 19.9873 0.0000 0.0000 0.0000
# 3 -20.0715 19.9873 66.2948 0.0000 0.0000 0.0000
# 4 0.0000 0.0000 0.0000 26.5573 0.0000 0.0000
# 5 0.0000 0.0000 0.0000 0.0000 11.4704 0.0000
# 6 0.0000 0.0000 0.0000 0.0000 0.0000 24.9473
#
#
#
# Elastic Compliance Matrix: (Units=1/GPa)
#
#
# Indices 1 2 3 4 5 6 
#
# 1 0.033429 -0.004703 0.011539 0.000000 0.000000 0.000000
# 2 -0.004703 0.024827 -0.008909 0.000000 0.000000 0.000000
# 3 0.011539 -0.008909 0.021264 0.000000 0.000000 0.000000
# 4 0.000000 0.000000 0.000000 0.037654 0.000000 0.000000
# 5 0.000000 0.000000 0.000000 0.000000 0.087181 0.000000
# 6 0.000000 0.000000 0.000000 0.000000 0.000000 0.040085
#
#
# Mechanical properties :
#
#
# Convention : Reuss Voigt Hill
#
# Bulk Modulus (GPa) = 13.26727 16.65385 14.96056
# Shear Modulus (GPa) = 18.26757 22.65011 20.45884
#
# Velocity S-wave (km/s) = 3.08533 3.43555 3.26514
# Velocity P-wave (km/s) = 4.42786 4.94122 4.69156
#
# Compressibility (1/GPa) = 0.07537346
#
# Stress axis : x y z
#
# Youngs Moduli (GPa) = 29.91439 40.27901 47.02872
#
# Poissons Ratio (x) = 0.18942 -0.54265
# Poissons Ratio (y) = 0.14068 0.41897
# Poissons Ratio (z) = -0.34518 0.35884
#
# Static dielectric constant tensor:
#      x y z
#    x 1.700540 0.000000 0.000000 
#    y 0.000000 1.650270 0.000000 
#    z 0.000000 0.000000 1.635350 
# 
# From -- ./inp_files/25410.got.cif
#   From: 2010.05.17/outbox.cif.g08.bks.cpg/sg59_13_cif.got.tgz:25410.got - 2010.06.03 14:40:33.
