data_PCOD9451839
_publ_section_title
;
Structure prediction by ZEFSAII (Michael W. Deem and Ramdas Pophale) SiO2 
 PCOD9451839
Probable space group: P M M N
;
_chemical_formula_sum "Si O2"
_cell_formula_units_Z 64
_cell_length_a 18.564867
_cell_length_b 7.736416
_cell_length_c 22.294236
_cell_angle_alpha 90.000000
_cell_angle_beta 90.000000
_cell_angle_gamma 90.000000
_cell_volume 3202.021553
_symmetry_space_group_name_H-M "P M M N"
_symmetry_group_IT_number 59
_space_group.IT_coordinate_system_code '2'
_symmetry_cell_setting 'orthorhombic'
loop_
_space_group_symop_operation_xyz
x,y,z
1/2-x,1/2-y,z
1/2+x,-y,-z
-x,1/2+y,-z
-x,-y,-z
1/2+x,1/2+y,-z
1/2-x,y,z
x,1/2-y,z
loop_
_atom_site_type_symbol
_atom_site_label
_atom_site_fract_x
_atom_site_fract_y
_atom_site_fract_z
Si Si1 0.331145 0.542513 0.506695
Si Si2 0.090593 0.951135 0.760976
Si Si3 0.976889 0.541443 0.066953
Si Si4 0.170834 0.455637 0.877864
Si Si5 0.587752 0.543807 0.373048
Si Si6 0.443000 0.950677 0.182297
Si Si7 0.924676 0.461267 0.604948
Si Si8 0.832927 0.461935 0.721407
O O1 0.250000 0.476324 0.497528
O O2 0.328484 0.750000 0.500201
O O3 0.360056 0.503278 0.572719
O O4 0.386618 0.478625 0.456116
O O5 0.079340 0.750000 0.772903
O O6 0.148762 0.017726 0.808561
O O7 0.110552 0.976883 0.692047
O O8 0.014467 0.041747 0.776037
O O9 0.975159 0.750000 0.073368
O O10 0.896847 0.476398 0.083855
O O11 0.031677 0.474904 0.118395
O O12 0.000000 0.500000 0.000000
O O13 0.250000 0.528611 0.890371
O O14 0.173941 0.250000 0.888452
O O15 0.584481 0.750000 0.368608
O O16 0.506822 0.479232 0.387708
O O17 0.425020 0.750000 0.171709
O O18 0.377237 0.024924 0.220523
O O19 0.926224 0.250000 0.604187
O O20 0.876481 0.513427 0.661870
O O21 0.750000 0.516400 0.720225
O O22 0.833660 0.250000 0.722060
#
# Coordination Sequence:
#
# PCOD9451839 Si02
#       8
#     8   8   8   8   8   8   8   8
#     4  10  21  36  52  74 104 133 169 220 269 312
#     4  11  21  33  53  80 107 136 171 216 271 320
#     4   9  18  32  53  79 108 143 180 215 253 302
#     4   9  19  37  59  81 107 141 182 225 268 316
#     4  11  21  35  55  76 102 138 178 216 258 318
#     4   9  17  33  53  76 107 140 177 217 257 309
#     4   9  17  31  53  78 101 131 171 214 261 313
#     4   9  15  26  51  82 105 129 168 216 263 311
#
# _framework density 19.987375
#
# number of rings (size 3 to 8) (size 9 to 14) (size 15 to 20)
#    0.000    2.375    1.250    3.000    0.000    4.500 
#    0.000    1.250    0.000    1.125    0.000    0.000 
#    0.000    0.000    0.000    0.000    0.000    0.000 
#
# Total GULP energy -357199.254402 kJ/mol
# GULP energy per Si atom -5581.238350 kJ/mol
# Density = 1.994188 g / cm^3
# Si number density = 19.987375 Si / 1000 Ang^3
#
#
#
# Elastic Constant Matrix: (Units=GPa)
#
#
# Indices 1 2 3 4 5 6 
#
# 1 67.3161 -1.6869 24.4678 0.0000 0.0000 0.0000
# 2 -1.6869 30.6873 -8.9353 0.0000 0.0000 0.0000
# 3 24.4678 -8.9353 118.8180 0.0000 0.0000 0.0000
# 4 0.0000 0.0000 0.0000 17.6231 0.0000 0.0000
# 5 0.0000 0.0000 0.0000 0.0000 -26.1262 0.0000
# 6 0.0000 0.0000 0.0000 0.0000 0.0000 4.1291
#
#
#
# Elastic Compliance Matrix: (Units=1/GPa)
#
#
# Indices 1 2 3 4 5 6 
#
# 1 0.016057 -0.000082 -0.003313 0.000000 0.000000 0.000000
# 2 -0.000082 0.033317 0.002522 0.000000 0.000000 0.000000
# 3 -0.003313 0.002522 0.009288 0.000000 0.000000 0.000000
# 4 0.000000 0.000000 0.000000 0.056744 0.000000 0.000000
# 5 0.000000 0.000000 0.000000 0.000000 -0.038276 0.000000
# 6 0.000000 0.000000 0.000000 0.000000 0.000000 0.242184
#
#
# Mechanical properties :
#
#
# Convention : Reuss Voigt Hill
#
# Bulk Modulus (GPa) = 17.56930 27.16805 22.36867
# Shear Modulus (GPa) = 14.70452 12.65692 13.68072
#
# Velocity S-wave (km/s) = 2.71530 2.51917 2.61907
# Velocity P-wave (km/s) = 4.31738 4.69933 4.51240
#
# Compressibility (1/GPa) = 0.05691748
#
# Stress axis : x y z
#
# Youngs Moduli (GPa) = 62.27674 30.01497 107.66451
#
# Poissons Ratio (x) = 0.00246 0.35667
# Poissons Ratio (y) = 0.00510 -0.27157
# Poissons Ratio (z) = 0.20631 -0.07571
#
# Static dielectric constant tensor:
#      x y z
#    x 1.697560 0.000000 0.000000 
#    y 0.000000 1.742560 0.000000 
#    z 0.000000 0.000000 1.686180 
# 
# From -- ./inp_files/30731.got.cif
#   From: 2010.05.17/outbox.cif.g08.bks.cpg/sg59_16_cif.got.tgz:30731.got - 2010.06.03 14:40:33.
