data_PCOD9451023
_publ_section_title
;
Structure prediction by ZEFSAII (Michael W. Deem and Ramdas Pophale) SiO2 
 PCOD9451023
Probable space group: P M M N
;
_chemical_formula_sum "Si O2"
_cell_formula_units_Z 40
_cell_length_a 12.851413
_cell_length_b 19.051449
_cell_length_c 8.925047
_cell_angle_alpha 90.000000
_cell_angle_beta 90.000000
_cell_angle_gamma 90.000000
_cell_volume 2185.191009
_symmetry_space_group_name_H-M "P M M N"
_symmetry_group_IT_number 59
_space_group.IT_coordinate_system_code '2'
_symmetry_cell_setting 'orthorhombic'
loop_
_space_group_symop_operation_xyz
x,y,z
1/2-x,1/2-y,z
1/2+x,-y,-z
-x,1/2+y,-z
-x,-y,-z
1/2+x,1/2+y,-z
1/2-x,y,z
x,1/2-y,z
loop_
_atom_site_type_symbol
_atom_site_label
_atom_site_fract_x
_atom_site_fract_y
_atom_site_fract_z
Si Si1 0.515273 0.886104 0.054012
Si Si2 0.965441 0.074960 0.435448
Si Si3 0.370305 0.830315 0.304251
Si Si4 0.626127 0.832908 0.756292
Si Si5 0.368423 0.517637 0.853848
O O1 0.447103 0.838367 0.162955
O O2 0.588031 0.938472 0.149202
O O3 0.581100 0.848776 0.922990
O O4 0.434353 0.937676 0.971652
O O5 0.912144 0.119641 0.565481
O O6 0.060138 0.118412 0.357969
O O7 0.885421 0.056208 0.303211
O O8 0.000000 0.000000 0.500000
O O9 0.250000 0.847414 0.265305
O O10 0.372937 0.750000 0.356742
O O11 0.750000 0.848107 0.750729
O O12 0.611310 0.750000 0.723312
O O13 0.250000 0.516028 0.899950
#
# Coordination Sequence:
#
# PCOD9451023 Si02
#       5
#     8   8   8   8   8
#     4  10  20  37  58  87 119 152 194 242 293 345
#     4  11  22  40  58  85 117 156 195 245 289 347
#     4  11  23  39  60  87 120 157 196 243 296 349
#     4  10  22  40  62  87 119 159 198 241 295 352
#     4  10  20  35  57  85 115 150 194 241 292 344
#
# _framework density 18.305035
#
# number of rings (size 3 to 8) (size 9 to 14) (size 15 to 20)
#    0.000    1.600    2.000    3.000    0.000    1.600 
#    0.000    0.000    0.000   13.200    0.000    0.000 
#    0.000    0.000    0.000    0.000    0.000    0.000 
#
# Total GULP energy -223223.709736 kJ/mol
# GULP energy per Si atom -5580.592743 kJ/mol
# Density = 1.826337 g / cm^3
# Si number density = 18.305035 Si / 1000 Ang^3
#
#
#
# Elastic Constant Matrix: (Units=GPa)
#
#
# Indices 1 2 3 4 5 6 
#
# 1 96.9266 44.5774 15.4528 0.0000 0.0000 0.0000
# 2 44.5774 111.8899 31.1269 0.0000 0.0000 0.0000
# 3 15.4528 31.1269 57.9042 0.0000 0.0000 0.0000
# 4 0.0000 0.0000 0.0000 21.3411 0.0000 0.0000
# 5 0.0000 0.0000 0.0000 0.0000 8.4276 0.0000
# 6 0.0000 0.0000 0.0000 0.0000 0.0000 25.5474
#
#
#
# Elastic Compliance Matrix: (Units=1/GPa)
#
#
# Indices 1 2 3 4 5 6 
#
# 1 0.012662 -0.004826 -0.000785 0.000000 0.000000 0.000000
# 2 -0.004826 0.012349 -0.005350 0.000000 0.000000 0.000000
# 3 -0.000785 -0.005350 0.020355 0.000000 0.000000 0.000000
# 4 0.000000 0.000000 0.000000 0.046858 0.000000 0.000000
# 5 0.000000 0.000000 0.000000 0.000000 0.118658 0.000000
# 6 0.000000 0.000000 0.000000 0.000000 0.000000 0.039143
#
#
# Mechanical properties :
#
#
# Convention : Reuss Voigt Hill
#
# Bulk Modulus (GPa) = 42.65546 49.89277 46.27411
# Shear Modulus (GPa) = 17.87241 22.76745 20.31993
#
# Velocity S-wave (km/s) = 3.12807 3.53055 3.33539
# Velocity P-wave (km/s) = 6.03321 6.62837 6.33778
#
# Compressibility (1/GPa) = 0.02344366
#
# Stress axis : x y z
#
# Youngs Moduli (GPa) = 78.97771 80.98149 49.12733
#
# Poissons Ratio (x) = 0.39084 0.03855
# Poissons Ratio (y) = 0.38116 0.26283
# Poissons Ratio (z) = 0.06197 0.43326
#
# Static dielectric constant tensor:
#      x y z
#    x 1.615600 0.000000 0.000000 
#    y 0.000000 1.617540 0.000000 
#    z 0.000000 0.000000 1.630380 
# 
# From -- ./inp_files/7099.got.cif
#   From: 2010.05.17/outbox.cif.g08.bks.cpg/sg59_4_cif.got.tgz:7099.got - 2010.06.03 14:40:33.
