data_PCOD9451529
_publ_section_title
;
Structure prediction by ZEFSAII (Michael W. Deem and Ramdas Pophale) SiO2 
 PCOD9451529
Probable space group: P M M N
;
_chemical_formula_sum "Si O2"
_cell_formula_units_Z 48
_cell_length_a 8.813014
_cell_length_b 28.497401
_cell_length_c 10.112717
_cell_angle_alpha 90.000000
_cell_angle_beta 90.000000
_cell_angle_gamma 90.000000
_cell_volume 2539.788588
_symmetry_space_group_name_H-M "P M M N"
_symmetry_group_IT_number 59
_space_group.IT_coordinate_system_code '2'
_symmetry_cell_setting 'orthorhombic'
loop_
_space_group_symop_operation_xyz
x,y,z
1/2-x,1/2-y,z
1/2+x,-y,-z
-x,1/2+y,-z
-x,-y,-z
1/2+x,1/2+y,-z
1/2-x,y,z
x,1/2-y,z
loop_
_atom_site_type_symbol
_atom_site_label
_atom_site_fract_x
_atom_site_fract_y
_atom_site_fract_z
Si Si1 0.932817 0.804161 0.757245
Si Si2 0.568374 0.039401 0.904295
Si Si3 0.571692 0.637474 0.013434
Si Si4 0.933735 0.459883 0.594517
Si Si5 0.076645 0.805632 0.235766
Si Si6 0.428971 0.857174 0.510173
O O1 0.750000 0.802288 0.759926
O O2 0.988068 0.750000 0.754370
O O3 0.985069 0.833978 0.631644
O O4 0.982348 0.832466 0.887590
O O5 0.750000 0.036172 0.905876
O O6 0.516089 0.089377 0.961334
O O7 0.519731 0.035542 0.749252
O O8 0.500000 0.000000 0.000000
O O9 0.750000 0.627274 0.997586
O O10 0.540940 0.669600 0.140223
O O11 0.750000 0.461952 0.592305
O O12 0.979146 0.409020 0.535963
O O13 0.000000 0.500000 0.500000
O O14 0.250000 0.819412 0.197186
O O15 0.064438 0.750000 0.228480
O O16 0.054475 0.823581 0.383870
O O17 0.250000 0.860051 0.542890
#
# Coordination Sequence:
#
# PCOD9451529 Si02
#       6
#     8   8   8   8   8   8
#     4  10  23  41  59  86 125 164 203 249 299 352
#     4  11  24  44  66  92 124 158 200 251 306 365
#     4  11  23  40  62  89 123 162 203 250 302 361
#     4  10  23  42  64  90 123 157 198 248 303 361
#     4  10  20  37  62  89 119 156 199 250 305 360
#     4  10  21  40  62  88 120 158 201 249 301 359
#
# _framework density 18.899211999999999
#
# number of rings (size 3 to 8) (size 9 to 14) (size 15 to 20)
#    0.000    1.667    1.667    2.000    2.333    6.000 
#    0.000    0.000    0.000    0.000    0.000    0.000 
#    0.000    0.000    0.000    0.000    0.000    0.000 
#
# Total GULP energy -268094.121776 kJ/mol
# GULP energy per Si atom -5585.294204 kJ/mol
# Density = 1.885620 g / cm^3
# Si number density = 18.899212 Si / 1000 Ang^3
#
#
#
# Elastic Constant Matrix: (Units=GPa)
#
#
# Indices 1 2 3 4 5 6 
#
# 1 23.5590 35.2745 38.0373 0.0000 0.0000 0.0000
# 2 35.2745 110.6833 65.1831 0.0000 0.0000 0.0000
# 3 38.0373 65.1831 115.3349 0.0000 0.0000 0.0000
# 4 0.0000 0.0000 0.0000 38.2386 0.0000 0.0000
# 5 0.0000 0.0000 0.0000 0.0000 37.7075 0.0000
# 6 0.0000 0.0000 0.0000 0.0000 0.0000 27.7137
#
#
#
# Elastic Compliance Matrix: (Units=1/GPa)
#
#
# Indices 1 2 3 4 5 6 
#
# 1 0.118428 -0.022095 -0.026570 0.000000 0.000000 0.000000
# 2 -0.022095 0.017664 -0.002696 0.000000 0.000000 0.000000
# 3 -0.026570 -0.002696 0.018957 0.000000 0.000000 0.000000
# 4 0.000000 0.000000 0.000000 0.026152 0.000000 0.000000
# 5 0.000000 0.000000 0.000000 0.000000 0.026520 0.000000
# 6 0.000000 0.000000 0.000000 0.000000 0.000000 0.036083
#
#
# Mechanical properties :
#
#
# Convention : Reuss Voigt Hill
#
# Bulk Modulus (GPa) = 19.11080 58.50746 38.80913
# Shear Modulus (GPa) = 13.73741 28.13745 20.93743
#
# Velocity S-wave (km/s) = 2.69899 3.86270 3.33204
# Velocity P-wave (km/s) = 4.45496 7.13574 5.94834
#
# Compressibility (1/GPa) = 0.05232644
#
# Stress axis : x y z
#
# Youngs Moduli (GPa) = 8.44393 56.61118 52.75094
#
# Poissons Ratio (x) = 1.25084 1.40160
# Poissons Ratio (y) = 0.18657 0.14223
# Poissons Ratio (z) = 0.22436 0.15264
#
# Static dielectric constant tensor:
#      x y z
#    x 1.653140 0.000000 0.000000 
#    y 0.000000 1.642850 0.000000 
#    z 0.000000 0.000000 1.641630 
# 
# From -- ./inp_files/6299.got.cif
#   From: 2010.05.17/outbox.cif.g08.bks.cpg/sg59_4_cif.got.tgz:6299.got - 2010.06.03 14:40:33.
