data_PCOD9451330
_publ_section_title
;
Structure prediction by ZEFSAII (Michael W. Deem and Ramdas Pophale) SiO2 
 PCOD9451330
Probable space group: P M M N
;
_chemical_formula_sum "Si O2"
_cell_formula_units_Z 48
_cell_length_a 17.303835
_cell_length_b 8.802748
_cell_length_c 15.540230
_cell_angle_alpha 90.000000
_cell_angle_beta 90.000000
_cell_angle_gamma 90.000000
_cell_volume 2367.108019
_symmetry_space_group_name_H-M "P M M N"
_symmetry_group_IT_number 59
_space_group.IT_coordinate_system_code '2'
_symmetry_cell_setting 'orthorhombic'
loop_
_space_group_symop_operation_xyz
x,y,z
1/2-x,1/2-y,z
1/2+x,-y,-z
-x,1/2+y,-z
-x,-y,-z
1/2+x,1/2+y,-z
1/2-x,y,z
x,1/2-y,z
loop_
_atom_site_type_symbol
_atom_site_label
_atom_site_fract_x
_atom_site_fract_y
_atom_site_fract_z
Si Si1 0.103352 0.570709 0.824468
Si Si2 0.439153 0.928261 0.137366
Si Si3 0.662194 0.571203 0.008094
Si Si4 0.343056 0.073155 0.287727
Si Si5 0.343502 0.072394 0.647654
Si Si6 0.344140 0.925177 0.467423
O O1 0.115273 0.750000 0.831809
O O2 0.155503 0.482898 0.893870
O O3 0.121832 0.515192 0.728587
O O4 0.016408 0.524254 0.848609
O O5 0.457287 0.750000 0.136538
O O6 0.382245 0.970831 0.215481
O O7 0.396726 0.977280 0.050010
O O8 0.750000 0.548326 0.976992
O O9 0.644348 0.750000 0.001753
O O10 0.250000 0.060887 0.282283
O O11 0.363513 0.250000 0.274462
O O12 0.367483 0.017338 0.382509
O O13 0.250000 0.060609 0.651872
O O14 0.363895 0.250000 0.651847
O O15 0.368928 0.001800 0.556605
O O16 0.250000 0.926273 0.468086
O O17 0.369022 0.750000 0.462252
#
# Coordination Sequence:
#
# PCOD9451330 Si02
#       6
#     8   8   8   8   8   8
#     4  12  25  41  61  86 119 156 195 239 290 347
#     4  12  25  41  61  86 119 156 195 239 290 347
#     4  11  24  43  66  91 119 151 190 237 288 343
#     4  10  20  36  59  87 119 155 196 242 292 345
#     4  10  20  36  59  87 119 155 196 242 292 345
#     4   9  17  31  54  85 118 153 196 243 289 339
#
# _framework density 20.277909000000001
#
# number of rings (size 3 to 8) (size 9 to 14) (size 15 to 20)
#    0.000    1.333    0.000    6.500    0.000    9.333 
#    0.000    0.833    0.000    0.000    0.000    0.000 
#    0.000    0.000    0.000    0.000    0.000    0.000 
#
# Total GULP energy -268538.893451 kJ/mol
# GULP energy per Si atom -5594.560280 kJ/mol
# Density = 2.023176 g / cm^3
# Si number density = 20.277909 Si / 1000 Ang^3
#
#
#
# Elastic Constant Matrix: (Units=GPa)
#
#
# Indices 1 2 3 4 5 6 
#
# 1 23.0319 2.7520 2.4109 0.0000 0.0000 0.0000
# 2 2.7520 53.1454 -10.3725 0.0000 0.0000 0.0000
# 3 2.4109 -10.3725 84.9497 0.0000 0.0000 0.0000
# 4 0.0000 0.0000 0.0000 42.6981 0.0000 0.0000
# 5 0.0000 0.0000 0.0000 0.0000 -13.7839 0.0000
# 6 0.0000 0.0000 0.0000 0.0000 0.0000 20.6471
#
#
#
# Elastic Compliance Matrix: (Units=1/GPa)
#
#
# Indices 1 2 3 4 5 6 
#
# 1 0.043889 -0.002577 -0.001560 0.000000 0.000000 0.000000
# 2 -0.002577 0.019427 0.002445 0.000000 0.000000 0.000000
# 3 -0.001560 0.002445 0.012115 0.000000 0.000000 0.000000
# 4 0.000000 0.000000 0.000000 0.023420 0.000000 0.000000
# 5 0.000000 0.000000 0.000000 0.000000 -0.072549 0.000000
# 6 0.000000 0.000000 0.000000 0.000000 0.000000 0.048433
#
#
# Mechanical properties :
#
#
# Convention : Reuss Voigt Hill
#
# Bulk Modulus (GPa) = 13.87998 16.74532 15.31265
# Shear Modulus (GPa) = 48.95443 21.00135 34.97789
#
# Velocity S-wave (km/s) = 4.91876 3.22168 4.15773
# Velocity P-wave (km/s) = 6.25449 4.70264 5.53324
#
# Compressibility (1/GPa) = 0.07204623
#
# Stress axis : x y z
#
# Youngs Moduli (GPa) = 22.78455 51.47473 82.54558
#
# Poissons Ratio (x) = 0.13266 0.12880
# Poissons Ratio (y) = 0.05872 -0.20184
# Poissons Ratio (z) = 0.03555 -0.12587
#
# Static dielectric constant tensor:
#      x y z
#    x 1.725480 0.000000 0.000000 
#    y 0.000000 1.673000 0.000000 
#    z 0.000000 0.000000 1.694000 
# 
# From -- ./inp_files/23631.got.cif
#   From: 2010.05.17/outbox.cif.g08.bks.cpg/sg59_12_cif.got.tgz:23631.got - 2010.06.03 14:40:33.
