data_PCOD9451718
_publ_section_title
;
Structure prediction by ZEFSAII (Michael W. Deem and Ramdas Pophale) SiO2 
 PCOD9451718
Probable space group: P M M N
;
_chemical_formula_sum "Si O2"
_cell_formula_units_Z 64
_cell_length_a 7.561985
_cell_length_b 14.721035
_cell_length_c 26.705691
_cell_angle_alpha 90.000000
_cell_angle_beta 90.000000
_cell_angle_gamma 90.000000
_cell_volume 2972.884088
_symmetry_space_group_name_H-M "P M M N"
_symmetry_group_IT_number 59
_space_group.IT_coordinate_system_code '2'
_symmetry_cell_setting 'orthorhombic'
loop_
_space_group_symop_operation_xyz
x,y,z
1/2-x,1/2-y,z
1/2+x,-y,-z
-x,1/2+y,-z
-x,-y,-z
1/2+x,1/2+y,-z
1/2-x,y,z
x,1/2-y,z
loop_
_atom_site_type_symbol
_atom_site_label
_atom_site_fract_x
_atom_site_fract_y
_atom_site_fract_z
Si Si1 0.961726 0.146031 0.973405
Si Si2 0.456038 0.647617 0.514746
Si Si3 0.950398 0.115795 0.377914
Si Si4 0.537942 0.347271 0.692816
Si Si5 0.040961 0.946695 0.723877
Si Si6 0.039986 0.353595 0.171404
Si Si7 0.963138 0.538601 0.924871
Si Si8 0.034112 0.919465 0.411207
O O1 0.750000 0.150828 0.966770
O O2 0.029203 0.250000 0.967587
O O3 0.028351 0.063829 0.937493
O O4 0.995850 0.105564 0.028768
O O5 0.250000 0.620257 0.521479
O O6 0.454852 0.750000 0.495305
O O7 0.536371 0.649623 0.570308
O O8 0.530762 0.593432 0.467867
O O9 0.750000 0.152526 0.375074
O O10 0.034761 0.113246 0.322818
O O11 0.949170 0.009884 0.390356
O O12 0.750000 0.345677 0.695840
O O13 0.471846 0.250000 0.713640
O O14 0.490486 0.444863 0.717083
O O15 0.492627 0.350502 0.633508
O O16 0.250000 0.934853 0.719856
O O17 0.983848 0.905972 0.776475
O O18 0.250000 0.346053 0.162897
O O19 0.969482 0.250000 0.172885
O O20 0.968920 0.414566 0.125696
O O21 0.750000 0.531680 0.921851
O O22 0.250000 0.926545 0.413313
#
# Coordination Sequence:
#
# PCOD9451718 Si02
#       8
#     8   8   8   8   8   8   8   8
#     4   9  17  30  51  81 115 146 174 208 253 303
#     4   9  16  26  42  64  88 114 147 187 231 286
#     4   9  18  31  46  64  88 120 153 188 238 296
#     4   9  17  31  52  75  98 126 161 201 249 308
#     4  10  21  35  51  73 100 130 168 214 260 306
#     4  10  21  37  56  76 100 134 177 222 262 300
#     4   9  18  33  53  78 109 144 181 218 254 296
#     4   9  16  27  46  69  90 114 148 190 234 287
#
# _framework density 21.527915
#
# number of rings (size 3 to 8) (size 9 to 14) (size 15 to 20)
#    0.000    2.750    0.000    1.500    0.000    4.250 
#    0.000    1.875    0.000    4.500    0.000    0.000 
#    0.000    0.000    0.000    0.000    0.000    0.000 
#
# Total GULP energy -356287.379076 kJ/mol
# GULP energy per Si atom -5566.990298 kJ/mol
# Density = 2.147892 g / cm^3
# Si number density = 21.527915 Si / 1000 Ang^3
#
#
#
# Elastic Constant Matrix: (Units=GPa)
#
#
# Indices 1 2 3 4 5 6 
#
# 1 50.7348 7.6249 3.1812 0.0000 0.0000 0.0000
# 2 7.6249 164.0361 83.8306 0.0000 0.0000 0.0000
# 3 3.1812 83.8306 170.1630 0.0000 0.0000 0.0000
# 4 0.0000 0.0000 0.0000 -25.0913 0.0000 0.0000
# 5 0.0000 0.0000 0.0000 0.0000 -1.9199 0.0000
# 6 0.0000 0.0000 0.0000 0.0000 0.0000 -1.4530
#
#
#
# Elastic Compliance Matrix: (Units=1/GPa)
#
#
# Indices 1 2 3 4 5 6 
#
# 1 0.019851 -0.000980 0.000112 0.000000 0.000000 0.000000
# 2 -0.000980 0.008196 -0.004019 0.000000 0.000000 0.000000
# 3 0.000112 -0.004019 0.007855 0.000000 0.000000 0.000000
# 4 0.000000 0.000000 0.000000 -0.039854 0.000000 0.000000
# 5 0.000000 0.000000 0.000000 0.000000 -0.520867 0.000000
# 6 0.000000 0.000000 0.000000 0.000000 0.000000 -0.688212
#
#
# Mechanical properties :
#
#
# Convention : Reuss Voigt Hill
#
# Bulk Modulus (GPa) = 38.27582 63.80081 51.03832
# Shear Modulus (GPa) = -4.18568 13.66029 4.73730
#
# Velocity S-wave (km/s) = -1.39590 2.52174 1.48503
# Velocity P-wave (km/s) = 3.90131 6.17896 5.16719
#
# Compressibility (1/GPa) = 0.02612615
#
# Stress axis : x y z
#
# Youngs Moduli (GPa) = 50.37630 122.01291 127.31123
#
# Poissons Ratio (x) = 0.11954 -0.01420
# Poissons Ratio (y) = 0.04935 0.51171
# Poissons Ratio (z) = -0.00562 0.49041
#
# Static dielectric constant tensor:
#      x y z
#    x 1.730950 0.000000 0.000000 
#    y 0.000000 1.839640 0.000000 
#    z 0.000000 0.000000 1.813590 
# 
# From -- ./inp_files/31578.got.cif
#   From: 2010.05.17/outbox.cif.g08.bks.cpg/sg59_16_cif.got.tgz:31578.got - 2010.06.03 14:40:33.
