data_PCOD9451414
_publ_section_title
;
Structure prediction by ZEFSAII (Michael W. Deem and Ramdas Pophale) SiO2 
 PCOD9451414
Probable space group: P M M N
;
_chemical_formula_sum "Si O2"
_cell_formula_units_Z 48
_cell_length_a 18.074824
_cell_length_b 12.892205
_cell_length_c 10.312622
_cell_angle_alpha 90.000000
_cell_angle_beta 90.000000
_cell_angle_gamma 90.000000
_cell_volume 2403.091898
_symmetry_space_group_name_H-M "P M M N"
_symmetry_group_IT_number 59
_space_group.IT_coordinate_system_code '2'
_symmetry_cell_setting 'orthorhombic'
loop_
_space_group_symop_operation_xyz
x,y,z
1/2-x,1/2-y,z
1/2+x,-y,-z
-x,1/2+y,-z
-x,-y,-z
1/2+x,1/2+y,-z
1/2-x,y,z
x,1/2-y,z
loop_
_atom_site_type_symbol
_atom_site_label
_atom_site_fract_x
_atom_site_fract_y
_atom_site_fract_z
Si Si1 0.750000 0.124999 0.813643
Si Si2 0.535986 0.624185 0.651057
Si Si3 0.335243 0.444274 0.840255
Si Si4 0.750000 0.374798 0.513434
Si Si5 0.110811 0.496625 0.576190
Si Si6 0.044657 0.373950 0.048403
Si Si7 0.875849 0.373534 0.011230
O O1 0.750000 0.250000 0.815007
O O2 0.750000 0.094435 0.665348
O O3 0.676701 0.093447 0.892344
O O4 0.532029 0.750000 0.640181
O O5 0.592610 0.573883 0.548578
O O6 0.459022 0.568227 0.613843
O O7 0.552931 0.595370 0.800744
O O8 0.250000 0.412234 0.851996
O O9 0.367980 0.424899 0.698705
O O10 0.388649 0.402215 0.952699
O O11 0.342580 0.568191 0.864774
O O12 0.750000 0.250000 0.502666
O O13 0.678379 0.427041 0.451921
O O14 0.042783 0.250000 0.051246
O O15 0.962106 0.403254 0.997600
O O16 0.871397 0.250000 0.025244
#
# Coordination Sequence:
#
# PCOD9451414 Si02
#       7
#     4   8   8   4   8   8   8
#     4   9  20  35  57  94 129 163 198 250 317 384
#     4  10  23  44  66  93 128 171 220 268 320 388
#     4  12  24  39  62  94 128 166 208 269 322 381
#     4  11  24  41  62  94 135 171 213 262 322 390
#     4  11  24  40  66  96 128 171 216 264 328 385
#     4  10  23  42  66  91 122 168 216 264 318 380
#     4  10  20  36  62  94 126 159 203 255 321 383
#
# _framework density 19.974267000000001
#
# number of rings (size 3 to 8) (size 9 to 14) (size 15 to 20)
#    0.000    1.500    3.333    1.000    2.333    3.000 
#    0.000    2.083    0.000    0.000    0.000    0.000 
#    0.000    0.000    0.000    0.000    0.000    0.000 
#
# Total GULP energy -267958.078339 kJ/mol
# GULP energy per Si atom -5582.459965 kJ/mol
# Density = 1.992880 g / cm^3
# Si number density = 19.974267 Si / 1000 Ang^3
#
#
#
# Elastic Constant Matrix: (Units=GPa)
#
#
# Indices 1 2 3 4 5 6 
#
# 1 147.9720 34.0838 87.9439 0.0000 0.0000 0.0000
# 2 34.0838 43.0755 39.4969 0.0000 0.0000 0.0000
# 3 87.9439 39.4969 172.3427 0.0000 0.0000 0.0000
# 4 0.0000 0.0000 0.0000 27.9148 0.0000 0.0000
# 5 0.0000 0.0000 0.0000 0.0000 36.9356 0.0000
# 6 0.0000 0.0000 0.0000 0.0000 0.0000 22.8124
#
#
#
# Elastic Compliance Matrix: (Units=1/GPa)
#
#
# Indices 1 2 3 4 5 6 
#
# 1 0.010268 -0.004204 -0.004276 0.000000 0.000000 0.000000
# 2 -0.004204 0.031112 -0.004985 0.000000 0.000000 0.000000
# 3 -0.004276 -0.004985 0.009127 0.000000 0.000000 0.000000
# 4 0.000000 0.000000 0.000000 0.035823 0.000000 0.000000
# 5 0.000000 0.000000 0.000000 0.000000 0.027074 0.000000
# 6 0.000000 0.000000 0.000000 0.000000 0.000000 0.043836
#
#
# Mechanical properties :
#
#
# Convention : Reuss Voigt Hill
#
# Bulk Modulus (GPa) = 42.41394 76.27105 59.34250
# Shear Modulus (GPa) = 26.03777 30.99026 28.51402
#
# Velocity S-wave (km/s) = 3.61441 3.94319 3.78238
# Velocity P-wave (km/s) = 6.22085 7.68110 6.98922
#
# Compressibility (1/GPa) = 0.02357715
#
# Stress axis : x y z
#
# Youngs Moduli (GPa) = 97.39297 32.14172 109.56611
#
# Poissons Ratio (x) = 0.13511 0.46851
# Poissons Ratio (y) = 0.40940 0.54621
# Poissons Ratio (z) = 0.41646 0.16023
#
# Static dielectric constant tensor:
#      x y z
#    x 1.703850 0.000000 0.000000 
#    y 0.000000 1.739490 0.000000 
#    z 0.000000 0.000000 1.709630 
# 
# From -- ./inp_files/10277.got.cif
#   From: 2010.05.17/outbox.cif.g08.bks.cpg/sg59_6_cif.got.tgz:10277.got - 2010.06.03 14:40:33.
